data_PCOD9170873
_publ_section_title
;
Structure prediction by ZEFSAII (Michael W. Deem and Ramdas Pophale) SiO2 
 PCOD9170873
Probable space group: C 2/M
;
_chemical_formula_sum "Si O2"
_cell_formula_units_Z 44
_cell_length_a 10.552714
_cell_length_b 23.741816
_cell_length_c 11.031934
_cell_angle_alpha 90.000000
_cell_angle_beta 43.828171
_cell_angle_gamma 90.000000
_cell_volume 1914.027874
_symmetry_space_group_name_H-M "C 2/M"
_symmetry_group_IT_number 12
_symmetry_cell_setting 'monoclinic'
loop_
_space_group_symop_operation_xyz
x,y,z
-x,y,-z
-x,-y,-z
x,-y,z
1/2+x,1/2+y,z
1/2-x,1/2+y,-z
1/2-x,1/2-y,-z
1/2+x,1/2-y,z
loop_
_atom_site_type_symbol
_atom_site_label
_atom_site_fract_x
_atom_site_fract_y
_atom_site_fract_z
Si Si1 0.434277 0.871616 0.237416
Si Si2 0.145400 0.707350 0.486357
Si Si3 0.757313 0.000000 0.354672
Si Si4 0.720455 0.623063 0.161874
Si Si5 0.985616 0.500000 0.754382
Si Si6 0.107494 0.120334 0.800558
Si Si7 0.672484 0.500000 0.143115
O O1 0.426469 0.840494 0.370694
O O2 0.264476 0.855643 0.266264
O O3 0.444217 0.939191 0.247579
O O4 0.618861 0.855353 0.037505
O O5 0.250000 0.750000 0.500000
O O6 0.265574 0.673396 0.306839
O O7 0.000000 0.737003 0.500000
O O8 0.782314 0.938943 0.274813
O O9 0.575161 0.000000 0.560188
O O10 0.952853 0.000000 0.293924
O O11 0.531364 0.626201 0.218772
O O12 0.744264 0.555690 0.155714
O O13 0.769424 0.500000 0.942419
O O14 0.000000 0.122525 0.000000
#
# Coordination Sequence:
#
# PCOD9170873 Si02
#       7
#     8   8   4   8   4   8   4
#     4  10  20  40  68 102 140 177 234 279 356 415
#     4  12  29  50  71  98 137 178 235 296 346 415
#     4  10  19  38  65 106 143 190 227 284 354 440
#     4   9  19  36  67  99 138 183 224 283 339 416
#     4  10  17  35  65 102 144 190 223 286 354 426
#     4  11  23  44  69 100 143 183 232 285 355 420
#     4   8  17  31  55 100 150 184 227 278 335 421
#
# _framework density 22.988171999999999
#
# number of rings (size 3 to 8) (size 9 to 14) (size 15 to 20)
#    0.000    1.818    1.818    1.909    2.545    2.182 
#    3.273    7.273    0.000    0.000    0.000    0.000 
#    0.000    0.000    0.000    0.000    0.000    0.000 
#
# Total GULP energy -122712.827344 kJ/mol
# GULP energy per Si atom -5577.855788 kJ/mol
# Density = 2.293585 g / cm^3
# Si number density = 22.988172 Si / 1000 Ang^3
#
#
#
# Elastic Constant Matrix: (Units=GPa)
#
#
# Indices 1 2 3 4 5 6 
#
# 1 131.6144 24.9874 12.1707 0.0000 6.8979 0.0000
# 2 24.9874 70.2884 2.4175 0.0000 -5.1885 0.0000
# 3 12.1707 2.4175 40.6828 0.0000 13.5296 0.0000
# 4 0.0000 0.0000 0.0000 -0.5195 0.0000 -8.0801
# 5 6.8979 -5.1885 13.5296 0.0000 20.9110 0.0000
# 6 0.0000 0.0000 0.0000 -8.0801 0.0000 16.4774
#
#
#
# Elastic Compliance Matrix: (Units=1/GPa)
#
#
# Indices 1 2 3 4 5 6 
#
# 1 0.008471 -0.003154 -0.001474 0.000000 -0.002623 0.000000
# 2 -0.003154 0.015890 -0.002112 0.000000 0.006350 0.000000
# 3 -0.001474 -0.002112 0.032057 0.000000 -0.020779 0.000000
# 4 0.000000 0.000000 0.000000 -0.223124 0.000000 -0.109414
# 5 -0.002623 0.006350 -0.020779 0.000000 0.063707 0.000000
# 6 0.000000 0.000000 0.000000 -0.109414 0.000000 0.007035
#
#
# Mechanical properties :
#
#
# Convention : Reuss Voigt Hill
#
# Bulk Modulus (GPa) = 23.29042 35.74852 29.51947
# Shear Modulus (GPa) = -73.34515 20.90780 -26.21868
#
# Velocity S-wave (km/s) = -5.65463 3.01907 -3.38084
# Velocity P-wave (km/s) = 5.69909 5.26665 1.53982
#
# Compressibility (1/GPa) = 0.04293611
#
# Stress axis : x y z
#
# Youngs Moduli (GPa) = 118.05560 62.93359 31.19399
#
# Poissons Ratio (x) = 0.19850 0.04599
# Poissons Ratio (y) = 0.37237 0.06589
# Poissons Ratio (z) = 0.17406 0.13294
#
# Static dielectric constant tensor:
#      x y z
#    x 1.955840 0.000000 -0.021750 
#    y 0.000000 1.840040 0.000000 
#    z -0.021750 0.000000 1.863540 
# 
# From -- ./inp_files/135813.got.cif
#   From: 2010.05.17/outbox.cif.g08.bks.cpg/sg12_68_cif.got.tgz:135813.got - 2010.06.03 13:09:07.
