data_PCOD9170405
_publ_section_title
;
Structure prediction by ZEFSAII (Michael W. Deem and Ramdas Pophale) SiO2 
 PCOD9170405
Probable space group: C 2/M
;
_chemical_formula_sum "Si O2"
_cell_formula_units_Z 64
_cell_length_a 20.421415
_cell_length_b 7.477911
_cell_length_c 23.297760
_cell_angle_alpha 90.000000
_cell_angle_beta 128.877410
_cell_angle_gamma 90.000000
_cell_volume 2769.706211
_symmetry_space_group_name_H-M "C 2/M"
_symmetry_group_IT_number 12
_symmetry_cell_setting 'monoclinic'
loop_
_space_group_symop_operation_xyz
x,y,z
-x,y,-z
-x,-y,-z
x,-y,z
1/2+x,1/2+y,z
1/2-x,1/2+y,-z
1/2-x,1/2-y,-z
1/2+x,1/2-y,z
loop_
_atom_site_type_symbol
_atom_site_label
_atom_site_fract_x
_atom_site_fract_y
_atom_site_fract_z
Si Si1 0.741052 0.208024 0.911939
Si Si2 0.755821 0.716561 0.684245
Si Si3 0.085741 0.285394 0.158097
Si Si4 0.573512 0.217703 0.867288
Si Si5 0.297926 0.785708 0.585111
Si Si6 0.909133 0.793409 0.962293
Si Si7 0.338497 0.291044 0.254704
Si Si8 0.510778 0.784009 0.299796
O O1 0.668951 0.284350 0.913800
O O2 0.834303 0.289914 0.958419
O O3 0.699256 0.212123 0.825131
O O4 0.752267 0.000000 0.932281
O O5 0.746138 0.500000 0.678269
O O6 0.851593 0.757311 0.755873
O O7 0.748794 0.780494 0.614994
O O8 0.697537 0.780496 0.704787
O O9 0.085476 0.500000 0.153080
O O10 0.124013 0.207621 0.121518
O O11 0.990072 0.225948 0.117569
O O12 0.525193 0.270808 0.782266
O O13 0.576612 0.000000 0.870022
O O14 0.250000 0.750000 0.500000
O O15 0.394587 0.719627 0.637521
O O16 0.303810 0.000000 0.594665
O O17 0.921285 0.000000 0.985151
O O18 0.000000 0.706237 0.000000
O O19 0.315266 0.500000 0.238934
O O20 0.439128 0.272579 0.305281
O O21 0.511973 0.000000 0.300031
#
# Coordination Sequence:
#
# PCOD9170405 Si02
#       8
#     8   8   8   8   8   8   8   8
#     4   9  17  31  50  71  97 133 170 200 243 303
#     4   9  17  31  52  76 101 130 165 209 254 296
#     4  10  17  31  54  76  96 124 170 215 247 290
#     4   8  14  27  51  75  92 121 167 208 242 289
#     4  10  20  36  55  75 103 138 173 207 249 300
#     4  10  21  35  49  70 105 141 166 199 253 307
#     4  10  18  29  50  78 102 124 160 212 256 291
#     4   9  17  32  52  73 101 136 167 199 248 305
#
# _framework density 23.107144000000002
#
# number of rings (size 3 to 8) (size 9 to 14) (size 15 to 20)
#    0.000    2.625    2.500    1.125    0.000    0.750 
#    0.000    5.625    0.000    3.750    0.000    0.000 
#    0.000    0.000    0.000    0.000    0.000    0.000 
#
# Total GULP energy -178658.374293 kJ/mol
# GULP energy per Si atom -5583.074197 kJ/mol
# Density = 2.305455 g / cm^3
# Si number density = 23.107144 Si / 1000 Ang^3
#
#
#
# Elastic Constant Matrix: (Units=GPa)
#
#
# Indices 1 2 3 4 5 6 
#
# 1 214.0043 9.3104 46.4689 0.0000 1.1067 0.0000
# 2 9.3104 75.6625 9.8198 0.0000 -3.5873 0.0000
# 3 46.4689 9.8198 85.0505 0.0000 -11.0656 0.0000
# 4 0.0000 0.0000 0.0000 20.8857 0.0000 -3.9239
# 5 1.1067 -3.5873 -11.0656 0.0000 37.8799 0.0000
# 6 0.0000 0.0000 0.0000 -3.9239 0.0000 12.5210
#
#
#
# Elastic Compliance Matrix: (Units=1/GPa)
#
#
# Indices 1 2 3 4 5 6 
#
# 1 0.005349 -0.000316 -0.003025 0.000000 -0.001070 0.000000
# 2 -0.000316 0.013463 -0.001262 0.000000 0.000915 0.000000
# 3 -0.003025 -0.001262 0.014088 0.000000 0.004084 0.000000
# 4 0.000000 0.000000 0.000000 0.050875 0.000000 0.015943
# 5 -0.001070 0.000915 0.004084 0.000000 0.027710 0.000000
# 6 0.000000 0.000000 0.000000 0.015943 0.000000 0.084863
#
#
# Mechanical properties :
#
#
# Convention : Reuss Voigt Hill
#
# Bulk Modulus (GPa) = 42.20920 56.21283 49.21101
# Shear Modulus (GPa) = 23.42442 34.86519 29.14480
#
# Velocity S-wave (km/s) = 3.18737 3.88860 3.55532
# Velocity P-wave (km/s) = 5.64377 6.67394 6.18036
#
# Compressibility (1/GPa) = 0.02369152
#
# Stress axis : x y z
#
# Youngs Moduli (GPa) = 186.95122 74.27894 70.98369
#
# Poissons Ratio (x) = 0.02349 0.21474
# Poissons Ratio (y) = 0.05913 0.08962
# Poissons Ratio (z) = 0.56557 0.09378
#
# Static dielectric constant tensor:
#      x y z
#    x 1.916820 0.000000 0.001330 
#    y 0.000000 1.901240 0.000000 
#    z 0.001330 0.000000 1.872450 
# 
# From -- ./inp_files/346227.got.cif
#   From: 2010.05.17/outbox.cif.g08.bks.cpg/sg12_174_cif.got.tgz:346227.got - 2010.06.03 13:09:07.
