data_PCOD9170699
_publ_section_title
;
Structure prediction by ZEFSAII (Michael W. Deem and Ramdas Pophale) SiO2 
 PCOD9170699
Probable space group: C 2/M
;
_chemical_formula_sum "Si O2"
_cell_formula_units_Z 48
_cell_length_a 11.703192
_cell_length_b 22.951454
_cell_length_c 9.799459
_cell_angle_alpha 90.000000
_cell_angle_beta 79.458708
_cell_angle_gamma 90.000000
_cell_volume 2587.763788
_symmetry_space_group_name_H-M "C 2/M"
_symmetry_group_IT_number 12
_symmetry_cell_setting 'monoclinic'
loop_
_space_group_symop_operation_xyz
x,y,z
-x,y,-z
-x,-y,-z
x,-y,z
1/2+x,1/2+y,z
1/2-x,1/2+y,-z
1/2-x,1/2-y,-z
1/2+x,1/2-y,z
loop_
_atom_site_type_symbol
_atom_site_label
_atom_site_fract_x
_atom_site_fract_y
_atom_site_fract_z
Si Si1 0.502572 0.932378 0.333204
Si Si2 0.042748 0.166113 0.836976
Si Si3 0.453132 0.566224 0.661326
Si Si4 0.793157 0.646386 0.683126
Si Si5 0.409696 0.270035 0.641588
Si Si6 0.236280 0.626001 0.624414
O O1 0.500000 0.932466 0.500000
O O2 0.625186 0.902837 0.268913
O O3 0.396353 0.890222 0.313237
O O4 0.490560 0.000000 0.292581
O O5 0.002337 0.108445 0.764757
O O6 0.980069 0.216967 0.764365
O O7 0.181531 0.165889 0.792868
O O8 0.000000 0.166328 0.000000
O O9 0.500000 0.581424 0.500000
O O10 0.483486 0.500000 0.682983
O O11 0.316209 0.577149 0.676319
O O12 0.869545 0.703857 0.639764
O O13 0.753227 0.624322 0.542452
O O14 0.500000 0.283237 0.500000
O O15 0.297770 0.313059 0.654076
#
# Coordination Sequence:
#
# PCOD9170699 Si02
#       6
#     8   8   8   8   8   8
#     4   9  19  31  50  85 119 148 180 230 298 351
#     4  11  24  40  55  82 120 155 195 240 293 355
#     4  10  19  35  61  86 110 148 193 242 291 337
#     4  11  21  34  58  83 117 152 191 244 292 347
#     4  11  21  36  62  87 112 149 198 246 297 343
#     4  10  17  33  56  89 115 142 180 245 291 346
#
# _framework density 18.548833999999999
#
# number of rings (size 3 to 8) (size 9 to 14) (size 15 to 20)
#    0.000    1.667    3.333    3.500    2.333    2.333 
#    0.000    0.000    0.000    0.000    0.000    5.833 
#    0.000    0.000    0.000    0.000    0.000    0.000 
#
# Total GULP energy -133865.552102 kJ/mol
# GULP energy per Si atom -5577.731338 kJ/mol
# Density = 1.850662 g / cm^3
# Si number density = 18.548834 Si / 1000 Ang^3
#
#
#
# Elastic Constant Matrix: (Units=GPa)
#
#
# Indices 1 2 3 4 5 6 
#
# 1 102.1620 25.2472 7.7877 0.0000 -8.0094 0.0000
# 2 25.2472 77.3508 1.7562 0.0000 3.4019 0.0000
# 3 7.7877 1.7562 41.1524 0.0000 9.7748 0.0000
# 4 0.0000 0.0000 0.0000 0.0597 0.0000 -4.7536
# 5 -8.0094 3.4019 9.7748 0.0000 14.0584 0.0000
# 6 0.0000 0.0000 0.0000 -4.7536 0.0000 5.1472
#
#
#
# Elastic Compliance Matrix: (Units=1/GPa)
#
#
# Indices 1 2 3 4 5 6 
#
# 1 0.012110 -0.004340 -0.004785 0.000000 0.011276 0.000000
# 2 -0.004340 0.014624 0.001947 0.000000 -0.007365 0.000000
# 3 -0.004785 0.001947 0.031002 0.000000 -0.024753 0.000000
# 4 0.000000 0.000000 0.000000 -0.230931 0.000000 -0.213271
# 5 0.011276 -0.007365 -0.024753 0.000000 0.096549 0.000000
# 6 0.000000 0.000000 0.000000 -0.213271 0.000000 -0.002681
#
#
# Mechanical properties :
#
#
# Convention : Reuss Voigt Hill
#
# Bulk Modulus (GPa) = 23.05244 32.24970 27.65107
# Shear Modulus (GPa) = -98.98886 16.24468 -41.37209
#
# Velocity S-wave (km/s) = -7.31317 2.96257 -4.72788
# Velocity P-wave (km/s) = 7.67170 5.39690 3.85542
#
# Compressibility (1/GPa) = 0.04337936
#
# Stress axis : x y z
#
# Youngs Moduli (GPa) = 82.57868 68.37905 32.25631
#
# Poissons Ratio (x) = 0.29676 0.15434
# Poissons Ratio (y) = 0.35838 -0.06279
# Poissons Ratio (z) = 0.39513 -0.13310
#
# Static dielectric constant tensor:
#      x y z
#    x 1.682760 0.000000 -0.012710 
#    y 0.000000 1.644800 0.000000 
#    z -0.012710 0.000000 1.595000 
# 
# From -- ./inp_files/50816.got.cif
#   From: 2010.05.17/outbox.cif.g08.bks.cpg/sg12_26_cif.got.tgz:50816.got - 2010.06.03 13:09:07.
