data_PCOD9170945
_publ_section_title
;
Structure prediction by ZEFSAII (Michael W. Deem and Ramdas Pophale) SiO2 
 PCOD9170945
Probable space group: C 2/M
;
_chemical_formula_sum "Si O2"
_cell_formula_units_Z 64
_cell_length_a 22.290999
_cell_length_b 21.626536
_cell_length_c 6.781881
_cell_angle_alpha 90.000000
_cell_angle_beta 67.690598
_cell_angle_gamma 90.000000
_cell_volume 3024.667297
_symmetry_space_group_name_H-M "C 2/M"
_symmetry_group_IT_number 12
_symmetry_cell_setting 'monoclinic'
loop_
_space_group_symop_operation_xyz
x,y,z
-x,y,-z
-x,-y,-z
x,-y,z
1/2+x,1/2+y,z
1/2-x,1/2+y,-z
1/2-x,1/2-y,-z
1/2+x,1/2-y,z
loop_
_atom_site_type_symbol
_atom_site_label
_atom_site_fract_x
_atom_site_fract_y
_atom_site_fract_z
Si Si1 0.745101 0.669908 0.559623
Si Si2 0.289188 0.310763 0.860120
Si Si3 0.590920 0.156164 0.147173
Si Si4 0.206424 0.572259 0.012478
Si Si5 0.570340 0.271336 0.440056
Si Si6 0.977697 0.571708 0.298923
Si Si7 0.139174 0.742163 0.730645
Si Si8 0.167789 0.569337 0.595355
O O1 0.729890 0.679352 0.347026
O O2 0.812957 0.706773 0.482706
O O3 0.684357 0.700276 0.743925
O O4 0.769583 0.602172 0.575290
O O5 0.366751 0.301652 0.745139
O O6 0.250000 0.250000 0.000000
O O7 0.263238 0.376874 0.972809
O O8 0.567916 0.204192 0.340537
O O9 0.532251 0.115421 0.141185
O O10 0.620391 0.198181 0.933697
O O11 0.217035 0.500000 0.052091
O O12 0.185138 0.569963 0.806188
O O13 0.143209 0.608343 0.171915
O O14 0.500000 0.301594 0.500000
O O15 0.582752 0.265318 0.658971
O O16 0.981434 0.500000 0.230526
O O17 0.000000 0.571957 0.500000
O O18 0.904625 0.594402 0.350438
O O19 0.163897 0.500000 0.527873
#
# Coordination Sequence:
#
# PCOD9170945 Si02
#       8
#     8   8   8   8   8   8   8   8
#     4   9  18  34  56  79 106 148 187 247 288 330
#     4  10  17  38  59  84 113 152 193 240 297 349
#     4  12  22  37  55  83 113 157 196 233 289 343
#     4  10  20  34  58  85 107 145 199 246 288 344
#     4  11  25  36  56  89 116 152 193 241 291 353
#     4  10  23  38  51  75 118 165 198 234 281 340
#     4  10  21  37  55  79 112 148 190 240 290 340
#     4   9  18  34  55  79 110 152 195 233 282 344
#
# _framework density 21.159352999999999
#
# number of rings (size 3 to 8) (size 9 to 14) (size 15 to 20)
#    0.000    1.875    3.750    0.750    3.500    2.000 
#    0.000    1.875    0.000    2.625    0.000    0.000 
#    0.000    0.000    0.000   12.500    0.000    1.000 
#
# Total GULP energy -178570.296701 kJ/mol
# GULP energy per Si atom -5580.321772 kJ/mol
# Density = 2.111119 g / cm^3
# Si number density = 21.159353 Si / 1000 Ang^3
#
#
#
# Elastic Constant Matrix: (Units=GPa)
#
#
# Indices 1 2 3 4 5 6 
#
# 1 134.3840 61.3795 39.0661 0.0000 -27.4261 0.0000
# 2 61.3795 134.0206 49.4304 0.0000 -33.0943 0.0000
# 3 39.0661 49.4304 104.0571 0.0000 -12.6155 0.0000
# 4 0.0000 0.0000 0.0000 13.1728 0.0000 -23.5686
# 5 -27.4261 -33.0943 -12.6155 0.0000 35.7981 0.0000
# 6 0.0000 0.0000 0.0000 -23.5686 0.0000 24.4664
#
#
#
# Elastic Compliance Matrix: (Units=1/GPa)
#
#
# Indices 1 2 3 4 5 6 
#
# 1 0.010230 -0.002856 -0.001937 0.000000 0.004515 0.000000
# 2 -0.002856 0.012020 -0.003714 0.000000 0.007615 0.000000
# 3 -0.001937 -0.003714 0.012019 0.000000 -0.000682 0.000000
# 4 0.000000 0.000000 0.000000 -0.104921 0.000000 -0.101071
# 5 0.004515 0.007615 -0.000682 0.000000 0.038193 0.000000
# 6 0.000000 0.000000 0.000000 -0.101071 0.000000 -0.056490
#
#
# Mechanical properties :
#
#
# Convention : Reuss Voigt Hill
#
# Bulk Modulus (GPa) = 57.95456 74.69041 66.32249
# Shear Modulus (GPa) = -75.54821 29.52651 -23.01085
#
# Velocity S-wave (km/s) = -5.98180 3.73961 -3.30131
# Velocity P-wave (km/s) = 4.50113 7.34995 4.10863
#
# Compressibility (1/GPa) = 0.01725490
#
# Stress axis : x y z
#
# Youngs Moduli (GPa) = 97.74854 83.19477 83.20205
#
# Poissons Ratio (x) = 0.23762 0.16113
# Poissons Ratio (y) = 0.27919 0.30904
# Poissons Ratio (z) = 0.18930 0.30902
#
# Static dielectric constant tensor:
#      x y z
#    x 1.819620 0.000000 0.066560 
#    y 0.000000 1.827540 0.000000 
#    z 0.066560 0.000000 1.949200 
# 
# From -- ./inp_files/90395.got.cif
#   From: 2010.05.17/outbox.cif.g08.bks.cpg/sg12_46_cif.got.tgz:90395.got - 2010.06.03 13:09:07.
