data_PCOD9170157
_publ_section_title
;
Structure prediction by ZEFSAII (Michael W. Deem and Ramdas Pophale) SiO2 
 PCOD9170157
Probable space group: C 2/M
;
_chemical_formula_sum "Si O2"
_cell_formula_units_Z 64
_cell_length_a 14.171350
_cell_length_b 16.747588
_cell_length_c 14.520221
_cell_angle_alpha 90.000000
_cell_angle_beta 61.566820
_cell_angle_gamma 90.000000
_cell_volume 3030.468973
_symmetry_space_group_name_H-M "C 2/M"
_symmetry_group_IT_number 12
_symmetry_cell_setting 'monoclinic'
loop_
_space_group_symop_operation_xyz
x,y,z
-x,y,-z
-x,-y,-z
x,-y,z
1/2+x,1/2+y,z
1/2-x,1/2+y,-z
1/2-x,1/2-y,-z
1/2+x,1/2-y,z
loop_
_atom_site_type_symbol
_atom_site_label
_atom_site_fract_x
_atom_site_fract_y
_atom_site_fract_z
Si Si1 0.775976 0.151239 0.028570
Si Si2 0.830294 0.595834 0.441543
Si Si3 0.668392 0.704077 0.177217
Si Si4 0.415102 0.409973 0.107719
Si Si5 0.949546 0.408785 0.883764
Si Si6 0.764620 0.096659 0.329171
Si Si7 0.443610 0.845476 0.683585
Si Si8 0.312396 0.903817 0.234578
O O1 0.753759 0.229564 0.100321
O O2 0.813202 0.087247 0.085557
O O3 0.661051 0.131611 0.036187
O O4 0.858912 0.161215 0.906434
O O5 0.849365 0.500000 0.438251
O O6 0.742195 0.615930 0.559638
O O7 0.802612 0.613680 0.348418
O O8 0.941107 0.640199 0.414376
O O9 0.577303 0.756618 0.267841
O O10 0.722781 0.642769 0.220614
O O11 0.454645 0.500000 0.109174
O O12 0.367655 0.374085 0.223396
O O13 0.500000 0.368254 0.000000
O O14 0.944743 0.500000 0.915176
O O15 0.945932 0.400789 0.774131
O O16 0.067760 0.377749 0.853753
O O17 0.656818 0.130253 0.332217
O O18 0.763681 0.000000 0.319915
O O19 0.305734 0.000000 0.226261
#
# Coordination Sequence:
#
# PCOD9170157 Si02
#       8
#     8   8   8   8   8   8   8   8
#     4  10  20  36  51  76 106 146 190 230 280 329
#     4   9  18  32  57  89 114 139 176 230 290 339
#     4  10  21  35  49  74 108 150 187 225 278 336
#     4  10  20  35  55  82 113 147 186 223 267 331
#     4   9  16  30  55  80 107 139 180 237 285 330
#     4  10  17  30  55  85 113 142 177 227 284 334
#     4  10  17  30  49  78 115 143 176 219 278 344
#     4   9  19  35  52  79 112 145 187 232 284 337
#
# _framework density 21.118843999999999
#
# number of rings (size 3 to 8) (size 9 to 14) (size 15 to 20)
#    0.000    2.375    2.500    2.625    0.000    2.500 
#    9.000    1.875    0.000    1.500    0.000    0.000 
#    0.000    7.000    0.000    0.000    0.000    0.000 
#
# Total GULP energy -178334.620996 kJ/mol
# GULP energy per Si atom -5572.956906 kJ/mol
# Density = 2.107078 g / cm^3
# Si number density = 21.118844 Si / 1000 Ang^3
#
#
#
# Elastic Constant Matrix: (Units=GPa)
#
#
# Indices 1 2 3 4 5 6 
#
# 1 39.6722 11.2928 33.1578 0.0000 3.8923 0.0000
# 2 11.2928 28.9515 23.2129 0.0000 2.4066 0.0000
# 3 33.1578 23.2129 134.9641 0.0000 -17.3934 0.0000
# 4 0.0000 0.0000 0.0000 21.9651 0.0000 -9.0967
# 5 3.8923 2.4066 -17.3934 0.0000 24.8260 0.0000
# 6 0.0000 0.0000 0.0000 -9.0967 0.0000 -79.3069
#
#
#
# Elastic Compliance Matrix: (Units=1/GPa)
#
#
# Indices 1 2 3 4 5 6 
#
# 1 0.035696 -0.005487 -0.009320 0.000000 -0.011594 0.000000
# 2 -0.005487 0.043093 -0.007135 0.000000 -0.008316 0.000000
# 3 -0.009320 -0.007135 0.012316 0.000000 0.010782 0.000000
# 4 0.000000 0.000000 0.000000 0.043462 0.000000 -0.004985
# 5 -0.011594 -0.008316 0.010782 0.000000 0.050458 0.000000
# 6 0.000000 0.000000 0.000000 -0.004985 0.000000 -0.012037
#
#
# Mechanical properties :
#
#
# Convention : Reuss Voigt Hill
#
# Bulk Modulus (GPa) = 21.17763 37.65719 29.41741
# Shear Modulus (GPa) = 21.49498 2.55846 12.02672
#
# Velocity S-wave (km/s) = 3.19378 1.10186 2.38896
# Velocity P-wave (km/s) = 4.86311 4.41459 4.64427
#
# Compressibility (1/GPa) = 0.04721964
#
# Stress axis : x y z
#
# Youngs Moduli (GPa) = 28.01455 23.20554 81.19609
#
# Poissons Ratio (x) = 0.12733 0.75676
# Poissons Ratio (y) = 0.15371 0.57937
# Poissons Ratio (z) = 0.26110 0.16558
#
# Static dielectric constant tensor:
#      x y z
#    x 1.772910 0.000000 -0.028740 
#    y 0.000000 1.784320 0.000000 
#    z -0.028740 0.000000 1.833160 
# 
# From -- ./inp_files/216370.got.cif
#   From: 2010.05.17/outbox.cif.g08.bks.cpg/sg12_109_cif.got.tgz:216370.got - 2010.06.03 13:09:07.
