data_PCOD9170009
_publ_section_title
;
Structure prediction by ZEFSAII (Michael W. Deem and Ramdas Pophale) SiO2 
 PCOD9170009
Probable space group: C 2/M
;
_chemical_formula_sum "Si O2"
_cell_formula_units_Z 56
_cell_length_a 21.092563
_cell_length_b 17.035483
_cell_length_c 17.827018
_cell_angle_alpha 90.000000
_cell_angle_beta 159.864430
_cell_angle_gamma 90.000000
_cell_volume 2205.094274
_symmetry_space_group_name_H-M "C 2/M"
_symmetry_group_IT_number 12
_symmetry_cell_setting 'monoclinic'
loop_
_space_group_symop_operation_xyz
x,y,z
-x,y,-z
-x,-y,-z
x,-y,z
1/2+x,1/2+y,z
1/2-x,1/2+y,-z
1/2-x,1/2-y,-z
1/2+x,1/2-y,z
loop_
_atom_site_type_symbol
_atom_site_label
_atom_site_fract_x
_atom_site_fract_y
_atom_site_fract_z
Si Si1 0.942470 0.792885 0.736841
Si Si2 0.613504 0.914217 0.785183
Si Si3 0.159812 0.909778 0.497237
Si Si4 0.786792 0.338562 0.789640
Si Si5 0.675669 0.410355 0.268004
Si Si6 0.208304 0.338890 0.748564
Si Si7 0.580518 0.876720 0.913956
O O1 0.750000 0.750000 0.500000
O O2 0.962219 0.855039 0.691777
O O3 0.915369 0.841284 0.783910
O O4 0.068656 0.717097 0.887807
O O5 0.392551 0.903581 0.532815
O O6 0.718301 0.853249 0.848563
O O7 0.649082 0.911054 0.912689
O O8 0.660775 0.000000 0.807112
O O9 0.171958 0.874589 0.594193
O O10 0.372209 0.905303 0.701659
O O11 0.103014 0.000000 0.432821
O O12 0.727752 0.250226 0.742933
O O13 0.793860 0.388863 0.873616
O O14 0.000000 0.334558 0.000000
O O15 0.620691 0.500000 0.224990
O O16 0.676575 0.393091 0.180050
O O17 0.000000 0.363925 0.500000
#
# Coordination Sequence:
#
# PCOD9170009 Si02
#       7
#     8   8   8   8   8   8   8
#     4  10  17  29  52  79 111 144 182 226 280 336
#     4  10  19  31  52  80 108 139 181 232 279 326
#     4  10  19  32  55  84 113 147 192 240 281 329
#     4  10  22  37  56  84 113 148 187 235 287 338
#     4  10  17  29  50  78 108 136 179 235 276 315
#     4  10  21  35  56  82 109 148 189 232 275 337
#     4  10  20  32  53  82 116 144 184 235 290 337
#
# _framework density 25.395741000000001
#
# number of rings (size 3 to 8) (size 9 to 14) (size 15 to 20)
#    0.000    2.000    2.857    3.857    2.000    5.429 
#    0.000    0.000    0.000    9.857    0.000    0.000 
#    0.000    0.000    0.000    0.000    0.000    0.000 
#
# Total GULP energy -156837.942555 kJ/mol
# GULP energy per Si atom -5601.355091 kJ/mol
# Density = 2.533794 g / cm^3
# Si number density = 25.395741 Si / 1000 Ang^3
#
#
#
# Elastic Constant Matrix: (Units=GPa)
#
#
# Indices 1 2 3 4 5 6 
#
# 1 127.0985 33.9261 47.4859 0.0040 -43.2010 -0.0056
# 2 33.9261 152.4489 12.0265 0.0051 -15.2181 0.0081
# 3 47.4859 12.0265 59.5628 -0.0019 -15.1274 -0.0199
# 4 0.0040 0.0051 -0.0019 23.3866 0.0044 1.0212
# 5 -43.2010 -15.2181 -15.1274 0.0044 57.6350 -0.0033
# 6 -0.0056 0.0081 -0.0199 1.0212 -0.0033 24.0468
#
#
#
# Elastic Compliance Matrix: (Units=1/GPa)
#
#
# Indices 1 2 3 4 5 6 
#
# 1 0.014455 -0.001698 -0.009153 -0.000004 0.007984 -0.000002
# 2 -0.001698 0.006990 0.000094 -0.000001 0.000598 -0.000003
# 3 -0.009153 0.000094 0.023926 0.000003 -0.000556 0.000017
# 4 -0.000004 -0.000001 0.000003 0.042839 -0.000006 -0.001819
# 5 0.007984 0.000598 -0.000556 -0.000006 0.023347 0.000005
# 6 -0.000002 -0.000003 0.000017 -0.001819 0.000005 0.041663
#
#
# Mechanical properties :
#
#
# Convention : Reuss Voigt Hill
#
# Bulk Modulus (GPa) = 41.91760 58.44301 50.18030
# Shear Modulus (GPa) = 27.36948 37.39180 32.38064
#
# Velocity S-wave (km/s) = 3.28642 3.84130 3.57465
# Velocity P-wave (km/s) = 5.56259 6.53736 6.06957
#
# Compressibility (1/GPa) = 0.02385633
#
# Stress axis : x y z
#
# Youngs Moduli (GPa) = 69.18193 143.06908 41.79527
#
# Poissons Ratio (x) = 0.24288 0.38257
# Poissons Ratio (y) = 0.11745 -0.00393
# Poissons Ratio (z) = 0.63325 -0.01344
#
# Static dielectric constant tensor:
#      x y z
#    x 1.981700 0.000000 0.003960 
#    y 0.000000 1.906700 0.000000 
#    z 0.003960 0.000000 2.116850 
# 
# From -- ./inp_files/284588.got.cif
#   From: 2010.05.17/outbox.cif.g08.bks.cpg/sg12_143_cif.got.tgz:284588.got - 2010.06.03 13:09:07.
