data_PCOD9170100
_publ_section_title
;
Structure prediction by ZEFSAII (Michael W. Deem and Ramdas Pophale) SiO2 
 PCOD9170100
Probable space group: C 2/M
;
_chemical_formula_sum "Si O2"
_cell_formula_units_Z 52
_cell_length_a 24.034549
_cell_length_b 16.819183
_cell_length_c 19.955341
_cell_angle_alpha 90.000000
_cell_angle_beta 153.563738
_cell_angle_gamma 90.000000
_cell_volume 3591.344873
_symmetry_space_group_name_H-M "C 2/M"
_symmetry_group_IT_number 12
_symmetry_cell_setting 'monoclinic'
loop_
_space_group_symop_operation_xyz
x,y,z
-x,y,-z
-x,-y,-z
x,-y,z
1/2+x,1/2+y,z
1/2-x,1/2+y,-z
1/2-x,1/2-y,-z
1/2+x,1/2-y,z
loop_
_atom_site_type_symbol
_atom_site_label
_atom_site_fract_x
_atom_site_fract_y
_atom_site_fract_z
Si Si1 0.000000 0.300725 0.000000
Si Si2 0.673947 0.272173 0.292297
Si Si3 0.213276 0.093249 0.432164
Si Si4 0.469043 0.171367 0.747365
Si Si5 0.066466 0.093936 0.642185
Si Si6 0.928603 0.806079 0.605950
Si Si7 0.863954 0.593897 0.966046
O O1 0.897997 0.245942 0.853237
O O2 0.933391 0.357179 0.982623
O O3 0.680209 0.361262 0.327557
O O4 0.598836 0.223442 0.268330
O O5 0.812396 0.235462 0.442671
O O6 0.359320 0.112619 0.604113
O O7 0.133547 0.135467 0.405473
O O8 0.190807 0.000000 0.406346
O O9 0.498529 0.234910 0.720955
O O10 0.582125 0.126345 0.905214
O O11 0.215520 0.104889 0.799240
O O12 0.000000 0.114369 0.500000
O O13 0.010488 0.145402 0.642031
O O14 0.042055 0.000000 0.628000
O O15 0.891659 0.500000 0.990057
#
# Coordination Sequence:
#
# PCOD9170100 Si02
#       7
#     4   8   8   8   8   8   8
#     4  10  17  30  45  58  86 118 138 166 209 244
#     4   8  16  27  42  63  83 108 142 172 199 245
#     4   9  15  26  45  65  84 107 138 175 211 242
#     4   8  16  28  43  63  83 105 139 177 205 241
#     4  10  20  30  40  60  88 113 140 171 202 247
#     4   9  16  29  44  60  85 114 138 165 211 253
#     4  10  19  29  43  64  86 109 140 173 206 246
#
# _framework density 14.479255999999999
#
# number of rings (size 3 to 8) (size 9 to 14) (size 15 to 20)
#    0.000    2.923    0.000    3.923    0.000    0.615 
#    0.000    5.000    0.000    0.000    0.000    0.000 
#    0.000   51.077    0.000    0.000    0.000    0.000 
#
# Total GULP energy -144751.106542 kJ/mol
# GULP energy per Si atom -5567.350252 kJ/mol
# Density = 1.444630 g / cm^3
# Si number density = 14.479256 Si / 1000 Ang^3
#
#
#
# Elastic Constant Matrix: (Units=GPa)
#
#
# Indices 1 2 3 4 5 6 
#
# 1 72.1629 42.6946 40.2983 -0.0001 -7.9412 -0.0001
# 2 42.6946 102.0042 55.2043 -0.0001 -13.0065 -0.0001
# 3 40.2983 55.2043 107.4703 -0.0001 -22.1189 -0.0001
# 4 -0.0001 -0.0001 -0.0001 19.2149 -0.0001 -0.1850
# 5 -7.9412 -13.0065 -22.1189 -0.0001 19.1940 -0.0001
# 6 -0.0001 -0.0001 -0.0001 -0.1850 -0.0001 26.2528
#
#
#
# Elastic Compliance Matrix: (Units=1/GPa)
#
#
# Indices 1 2 3 4 5 6 
#
# 1 0.019828 -0.005947 -0.004616 0.000000 -0.001146 0.000000
# 2 -0.005947 0.015396 -0.005293 0.000000 0.001873 0.000000
# 3 -0.004616 -0.005293 0.016548 0.000000 0.013573 0.000000
# 4 0.000000 0.000000 0.000000 0.052047 0.000000 0.000367
# 5 -0.001146 0.001873 0.013573 0.000000 0.068537 0.000000
# 6 0.000000 0.000000 0.000000 0.000367 0.000000 0.038094
#
#
# Mechanical properties :
#
#
# Convention : Reuss Voigt Hill
#
# Bulk Modulus (GPa) = 49.85039 62.00354 55.92696
# Shear Modulus (GPa) = 20.09264 22.49500 21.29382
#
# Velocity S-wave (km/s) = 3.72921 3.94585 3.83906
# Velocity P-wave (km/s) = 7.28328 7.97966 7.63941
#
# Compressibility (1/GPa) = 0.02006002
#
# Stress axis : x y z
#
# Youngs Moduli (GPa) = 50.43481 64.95148 60.42955
#
# Poissons Ratio (x) = 0.38627 0.27893
# Poissons Ratio (y) = 0.29994 0.31986
# Poissons Ratio (z) = 0.23280 0.34380
#
# Static dielectric constant tensor:
#      x y z
#    x 1.458590 0.000000 -0.012480 
#    y 0.000000 1.465780 0.000000 
#    z -0.012480 0.000000 1.487380 
# 
# From -- ./inp_files/166207.got.cif
#   From: 2010.05.17/outbox.cif.g08.bks.cpg/sg12_84_cif.got.tgz:166207.got - 2010.06.03 13:09:07.
