data_PCOD9170016
_publ_section_title
;
Structure prediction by ZEFSAII (Michael W. Deem and Ramdas Pophale) SiO2 
 PCOD9170016
Probable space group: C 2/M
;
_chemical_formula_sum "Si O2"
_cell_formula_units_Z 64
_cell_length_a 21.144742
_cell_length_b 7.420382
_cell_length_c 20.557406
_cell_angle_alpha 90.000000
_cell_angle_beta 101.530681
_cell_angle_gamma 90.000000
_cell_volume 3160.401754
_symmetry_space_group_name_H-M "C 2/M"
_symmetry_group_IT_number 12
_symmetry_cell_setting 'monoclinic'
loop_
_space_group_symop_operation_xyz
x,y,z
-x,y,-z
-x,-y,-z
x,-y,z
1/2+x,1/2+y,z
1/2-x,1/2+y,-z
1/2-x,1/2-y,-z
1/2+x,1/2-y,z
loop_
_atom_site_type_symbol
_atom_site_label
_atom_site_fract_x
_atom_site_fract_y
_atom_site_fract_z
Si Si1 0.393769 0.281164 0.141546
Si Si2 0.324413 0.284996 0.997891
Si Si3 0.114843 0.721367 0.636448
Si Si4 0.471774 0.782675 0.650922
Si Si5 0.574900 0.210178 0.491816
Si Si6 0.841104 0.221843 0.854001
Si Si7 0.962994 0.787737 0.797459
Si Si8 0.708009 0.210779 0.765399
O O1 0.393919 0.500000 0.141892
O O2 0.465653 0.215218 0.172476
O O3 0.343302 0.225283 0.186548
O O4 0.368457 0.218065 0.066162
O O5 0.333272 0.500000 0.997773
O O6 0.339525 0.218242 0.928670
O O7 0.250000 0.250000 0.000000
O O8 0.114655 0.500000 0.635921
O O9 0.114462 0.783499 0.561330
O O10 0.172880 0.784610 0.693984
O O11 0.046051 0.775648 0.654034
O O12 0.428226 0.714526 0.581768
O O13 0.449963 0.733213 0.718226
O O14 0.472372 0.000000 0.646718
O O15 0.500000 0.215976 0.500000
O O16 0.593155 0.000000 0.490027
O O17 0.904788 0.282794 0.829252
O O18 0.776194 0.283984 0.804056
O O19 0.839822 0.000000 0.854078
O O20 0.966376 0.000000 0.812318
O O21 0.719000 0.000000 0.754452
#
# Coordination Sequence:
#
# PCOD9170016 Si02
#       8
#     8   8   8   8   8   8   8   8
#     4  10  20  31  48  72  95 122 153 190 235 277
#     4  10  19  33  52  72  93 119 154 194 235 274
#     4   8  13  22  42  71  94 114 149 198 237 266
#     4   9  15  26  46  69  92 121 156 194 234 271
#     4   7  11  20  37  65  95 116 144 192 237 268
#     4   9  19  33  49  69  93 125 159 190 226 277
#     4  10  20  33  46  66  99 130 156 186 227 281
#     4  10  17  29  51  73  92 119 158 197 231 271
#
# _framework density 20.250589000000002
#
# number of rings (size 3 to 8) (size 9 to 14) (size 15 to 20)
#    0.000    2.875    2.500    1.500    0.000    0.500 
#    0.000    3.750    0.000    4.875    0.000    2.625 
#    0.000    0.000    0.000    0.000    0.000    0.000 
#
# Total GULP energy -178458.418532 kJ/mol
# GULP energy per Si atom -5576.825579 kJ/mol
# Density = 2.020450 g / cm^3
# Si number density = 20.250589 Si / 1000 Ang^3
#
#
#
# Elastic Constant Matrix: (Units=GPa)
#
#
# Indices 1 2 3 4 5 6 
#
# 1 92.5222 -6.4967 56.9766 0.0000 -2.0665 0.0000
# 2 -6.4967 61.5212 -8.4578 0.0000 4.4808 0.0000
# 3 56.9766 -8.4578 168.4805 0.0000 14.6224 0.0000
# 4 0.0000 0.0000 0.0000 10.1885 0.0000 -6.7082
# 5 -2.0665 4.4808 14.6224 0.0000 28.2441 0.0000
# 6 0.0000 0.0000 0.0000 -6.7082 0.0000 9.9015
#
#
#
# Elastic Compliance Matrix: (Units=1/GPa)
#
#
# Indices 1 2 3 4 5 6 
#
# 1 0.014016 0.000532 -0.005021 0.000000 0.003540 0.000000
# 2 0.000532 0.016662 0.000924 0.000000 -0.003083 0.000000
# 3 -0.005021 0.000924 0.008088 0.000000 -0.004701 0.000000
# 4 0.000000 0.000000 0.000000 0.177187 0.000000 0.120043
# 5 0.003540 -0.003083 -0.004701 0.000000 0.038588 0.000000
# 6 0.000000 0.000000 0.000000 0.120043 0.000000 0.182323
#
#
# Mechanical properties :
#
#
# Convention : Reuss Voigt Hill
#
# Bulk Modulus (GPa) = 31.60804 45.17422 38.39113
# Shear Modulus (GPa) = 11.00017 28.36693 19.68355
#
# Velocity S-wave (km/s) = 2.33320 3.74678 3.12107
# Velocity P-wave (km/s) = 4.78547 6.40889 5.65573
#
# Compressibility (1/GPa) = 0.03163752
#
# Stress axis : x y z
#
# Youngs Moduli (GPa) = 71.34482 60.01559 123.64499
#
# Poissons Ratio (x) = -0.03193 0.62078
# Poissons Ratio (y) = -0.03796 -0.11426
# Poissons Ratio (z) = 0.35820 -0.05546
#
# Static dielectric constant tensor:
#      x y z
#    x 1.662280 0.000000 0.025040 
#    y 0.000000 1.867640 0.000000 
#    z 0.025040 0.000000 1.741640 
# 
# From -- ./inp_files/319224.got.cif
#   From: 2010.05.17/outbox.cif.g08.bks.cpg/sg12_160_cif.got.tgz:319224.got - 2010.06.03 13:09:07.
