data_PCOD9170955
_publ_section_title
;
Structure prediction by ZEFSAII (Michael W. Deem and Ramdas Pophale) SiO2 
 PCOD9170955
Probable space group: C 2/M
;
_chemical_formula_sum "Si O2"
_cell_formula_units_Z 48
_cell_length_a 12.839057
_cell_length_b 15.419279
_cell_length_c 29.656785
_cell_angle_alpha 90.000000
_cell_angle_beta 26.952288
_cell_angle_gamma 90.000000
_cell_volume 2661.077460
_symmetry_space_group_name_H-M "C 2/M"
_symmetry_group_IT_number 12
_symmetry_cell_setting 'monoclinic'
loop_
_space_group_symop_operation_xyz
x,y,z
-x,y,-z
-x,-y,-z
x,-y,z
1/2+x,1/2+y,z
1/2-x,1/2+y,-z
1/2-x,1/2-y,-z
1/2+x,1/2-y,z
loop_
_atom_site_type_symbol
_atom_site_label
_atom_site_fract_x
_atom_site_fract_y
_atom_site_fract_z
Si Si1 0.993772 0.901300 0.359818
Si Si2 0.786336 0.000000 0.118177
Si Si3 0.419956 0.322451 0.767768
Si Si4 0.561313 0.000000 0.530269
Si Si5 0.062338 0.000000 0.760738
Si Si6 0.059461 0.344196 0.770099
Si Si7 0.579829 0.828650 0.071494
Si Si8 0.362728 0.500000 0.937691
O O1 0.002026 0.837043 0.314185
O O2 0.174365 0.874146 0.328408
O O3 0.068621 0.000000 0.315693
O O4 0.729770 0.918552 0.474908
O O5 0.618825 0.082489 0.177540
O O6 0.917679 0.000000 0.114534
O O7 0.000000 0.000000 0.000000
O O8 0.477410 0.412360 0.769913
O O9 0.528382 0.241564 0.752158
O O10 0.145894 0.313110 0.871064
O O11 0.500000 0.000000 0.500000
O O12 0.336543 0.000000 0.647133
O O13 0.961402 0.000000 0.849540
O O14 0.992866 0.330944 0.848182
O O15 0.750000 0.750000 0.000000
O O16 0.706513 0.916671 0.008637
#
# Coordination Sequence:
#
# PCOD9170955 Si02
#       8
#     8   4   8   4   4   8   8   4
#     4   9  19  40  67  91 115 163 210 258 308 384
#     4  12  21  39  61  79 119 180 216 242 298 368
#     4  11  22  35  62  91 127 161 207 262 307 363
#     4  10  17  39  77  87 113 164 208 258 328 379
#     4  12  23  40  59  96 125 154 208 273 321 355
#     4  11  22  37  62  89 122 165 217 251 302 371
#     4  11  23  38  52  83 125 170 209 242 299 367
#     4  12  25  34  57  86 125 168 214 253 296 365
#
# _framework density 18.037804999999999
#
# number of rings (size 3 to 8) (size 9 to 14) (size 15 to 20)
#    0.500    0.667    5.000    2.500    2.333    4.000 
#    0.000    0.833    0.000    2.000    0.000    0.000 
#    0.000    0.000    0.000    0.000    0.000    0.000 
#
# Total GULP energy -133856.670154 kJ/mol
# GULP energy per Si atom -5577.361256 kJ/mol
# Density = 1.799675 g / cm^3
# Si number density = 18.037805 Si / 1000 Ang^3
#
#
#
# Elastic Constant Matrix: (Units=GPa)
#
#
# Indices 1 2 3 4 5 6 
#
# 1 85.5065 37.1124 32.5601 0.2456 -26.4976 -0.1782
# 2 37.1124 120.8003 37.6191 -0.0940 -16.3857 0.0932
# 3 32.5601 37.6191 85.3598 -0.7964 -26.2111 0.6555
# 4 0.2456 -0.0940 -0.7964 209.6731 0.1096 -166.6565
# 5 -26.4976 -16.3857 -26.2111 0.1096 30.0580 -0.0780
# 6 -0.1782 0.0932 0.6555 -166.6565 -0.0780 163.9188
#
#
#
# Elastic Compliance Matrix: (Units=1/GPa)
#
#
# Indices 1 2 3 4 5 6 
#
# 1 0.017493 -0.003245 -0.001435 -0.000042 0.012401 -0.000010
# 2 -0.003245 0.010296 -0.003352 -0.000006 -0.000171 -0.000002
# 3 -0.001435 -0.003352 0.017468 0.000050 0.012140 -0.000013
# 4 -0.000042 -0.000006 0.000050 0.024855 -0.000022 0.025270
# 5 0.012401 -0.000171 0.012140 -0.000022 0.054694 -0.000031
# 6 -0.000010 -0.000002 -0.000013 0.025270 -0.000031 0.031793
#
#
# Mechanical properties :
#
#
# Convention : Reuss Voigt Hill
#
# Bulk Modulus (GPa) = 34.25598 56.24999 45.25298
# Shear Modulus (GPa) = 27.41312 93.02163 60.21737
#
# Velocity S-wave (km/s) = 3.90264 7.18904 5.78416
# Velocity P-wave (km/s) = 6.27215 10.00809 8.35170
#
# Compressibility (1/GPa) = 0.02919199
#
# Stress axis : x y z
#
# Youngs Moduli (GPa) = 57.16615 97.12663 57.24701
#
# Poissons Ratio (x) = 0.31521 0.08214
# Poissons Ratio (y) = 0.18552 0.19191
# Poissons Ratio (z) = 0.08202 0.32560
#
# Static dielectric constant tensor:
#      x y z
#    x 1.653760 -0.000190 0.036830 
#    y -0.000190 1.586200 -0.000280 
#    z 0.036830 -0.000280 1.700230 
# 
# From -- ./inp_files/374062.got.cif
#   From: 2010.05.17/outbox.cif.g08.bks.cpg/sg12_188_cif.got.tgz:374062.got - 2010.06.03 13:09:07.
