data_PCOD9170283
_publ_section_title
;
Structure prediction by ZEFSAII (Michael W. Deem and Ramdas Pophale) SiO2 
 PCOD9170283
Probable space group: C 2/M
;
_chemical_formula_sum "Si O2"
_cell_formula_units_Z 56
_cell_length_a 14.334609
_cell_length_b 15.511091
_cell_length_c 13.525210
_cell_angle_alpha 90.000000
_cell_angle_beta 76.718092
_cell_angle_gamma 90.000000
_cell_volume 2926.828535
_symmetry_space_group_name_H-M "C 2/M"
_symmetry_group_IT_number 12
_symmetry_cell_setting 'monoclinic'
loop_
_space_group_symop_operation_xyz
x,y,z
-x,y,-z
-x,-y,-z
x,-y,z
1/2+x,1/2+y,z
1/2-x,1/2+y,-z
1/2-x,1/2-y,-z
1/2+x,1/2-y,z
loop_
_atom_site_type_symbol
_atom_site_label
_atom_site_fract_x
_atom_site_fract_y
_atom_site_fract_z
Si Si1 0.983612 0.349835 0.894026
Si Si2 0.820434 0.318019 0.678417
Si Si3 0.397727 0.749588 0.471250
Si Si4 0.771332 0.692837 0.899481
Si Si5 0.028535 0.400866 0.669665
Si Si6 0.371640 0.595593 0.325956
Si Si7 0.940091 0.150946 0.105702
O O1 0.869630 0.356085 0.901226
O O2 0.035144 0.391146 0.786868
O O3 0.020675 0.249641 0.888942
O O4 0.000000 0.385239 0.000000
O O5 0.824239 0.260153 0.579502
O O6 0.797212 0.266707 0.785439
O O7 0.736754 0.387546 0.684923
O O8 0.922144 0.365756 0.667242
O O9 0.500000 0.742401 0.500000
O O10 0.400633 0.836567 0.404814
O O11 0.388480 0.668814 0.402306
O O12 0.670078 0.648101 0.903392
O O13 0.750000 0.750000 0.000000
O O14 0.039767 0.500000 0.637782
O O15 0.382818 0.500000 0.362918
O O16 0.439679 0.608996 0.213800
O O17 0.000000 0.113400 0.000000
#
# Coordination Sequence:
#
# PCOD9170283 Si02
#       7
#     8   8   8   8   8   8   8
#     4  10  18  31  53  81 112 146 181 225 277 336
#     4   9  21  35  56  81 109 141 184 234 278 328
#     4  10  21  37  57  82 109 143 185 229 280 334
#     4  10  17  30  54  85 103 145 183 226 276 333
#     4  10  20  35  56  83 112 142 182 231 282 334
#     4  11  22  37  56  80 112 149 189 230 277 330
#     4  10  19  32  55  81 109 143 192 230 273 327
#
# _framework density 19.133337999999998
#
# number of rings (size 3 to 8) (size 9 to 14) (size 15 to 20)
#    0.000    2.000    4.286    0.857    0.000    4.000 
#    0.000    0.000    0.000    0.000    0.000   10.000 
#    0.000    0.000    0.000    0.000    0.000    0.000 
#
# Total GULP energy -155958.405990 kJ/mol
# GULP energy per Si atom -5569.943071 kJ/mol
# Density = 1.908979 g / cm^3
# Si number density = 19.133338 Si / 1000 Ang^3
#
#
#
# Elastic Constant Matrix: (Units=GPa)
#
#
# Indices 1 2 3 4 5 6 
#
# 1 64.7902 6.5349 28.0773 0.0000 -2.8661 0.0000
# 2 6.5349 98.3782 60.3905 0.0000 2.2350 0.0000
# 3 28.0773 60.3905 188.8280 0.0000 -5.3060 0.0000
# 4 0.0000 0.0000 0.0000 -2.4600 0.0000 0.6227
# 5 -2.8661 2.2350 -5.3060 0.0000 29.4266 0.0000
# 6 0.0000 0.0000 0.0000 0.6227 0.0000 9.3195
#
#
#
# Elastic Compliance Matrix: (Units=1/GPa)
#
#
# Indices 1 2 3 4 5 6 
#
# 1 0.016554 0.000457 -0.002576 0.000000 0.001113 0.000000
# 2 0.000457 0.012746 -0.004191 0.000000 -0.001679 0.000000
# 3 -0.002576 -0.004191 0.007057 0.000000 0.001340 0.000000
# 4 0.000000 0.000000 0.000000 -0.399739 0.000000 0.026709
# 5 0.001113 -0.001679 0.001340 0.000000 0.034460 0.000000
# 6 0.000000 0.000000 0.000000 0.026709 0.000000 0.105517
#
#
# Mechanical properties :
#
#
# Convention : Reuss Voigt Hill
#
# Bulk Modulus (GPa) = 42.13259 60.22244 51.17752
# Shear Modulus (GPa) = -24.64618 24.39013 -0.12802
#
# Velocity S-wave (km/s) = -3.59294 3.57423 -0.25895
# Velocity P-wave (km/s) = 2.20363 6.96972 5.16880
#
# Compressibility (1/GPa) = 0.02373460
#
# Stress axis : x y z
#
# Youngs Moduli (GPa) = 60.40824 78.45863 141.70342
#
# Poissons Ratio (x) = -0.03582 0.36505
# Poissons Ratio (y) = -0.02758 0.59393
# Poissons Ratio (z) = 0.15562 0.32885
#
# Static dielectric constant tensor:
#      x y z
#    x 1.625230 0.000000 -0.010390 
#    y 0.000000 1.651460 0.000000 
#    z -0.010390 0.000000 1.714120 
# 
# From -- ./inp_files/214166.got.cif
#   From: 2010.05.17/outbox.cif.g08.bks.cpg/sg12_108_cif.got.tgz:214166.got - 2010.06.03 13:09:07.
