data_PCOD9170667
_publ_section_title
;
Structure prediction by ZEFSAII (Michael W. Deem and Ramdas Pophale) SiO2 
 PCOD9170667
Probable space group: C 2/M
;
_chemical_formula_sum "Si O2"
_cell_formula_units_Z 64
_cell_length_a 19.382266
_cell_length_b 18.941844
_cell_length_c 11.385456
_cell_angle_alpha 90.000000
_cell_angle_beta 114.609338
_cell_angle_gamma 90.000000
_cell_volume 3800.331629
_symmetry_space_group_name_H-M "C 2/M"
_symmetry_group_IT_number 12
_symmetry_cell_setting 'monoclinic'
loop_
_space_group_symop_operation_xyz
x,y,z
-x,y,-z
-x,-y,-z
x,-y,z
1/2+x,1/2+y,z
1/2-x,1/2+y,-z
1/2-x,1/2-y,-z
1/2+x,1/2-y,z
loop_
_atom_site_type_symbol
_atom_site_label
_atom_site_fract_x
_atom_site_fract_y
_atom_site_fract_z
Si Si1 0.230784 0.581456 0.293570
Si Si2 0.956121 0.775910 0.764029
Si Si3 0.683861 0.665363 0.218061
Si Si4 0.917543 0.650432 0.917605
Si Si5 0.578151 0.799321 0.502044
Si Si6 0.305401 0.717623 0.259994
Si Si7 0.128058 0.774770 0.944559
Si Si8 0.201924 0.581875 0.547864
O O1 0.247484 0.500000 0.279843
O O2 0.147706 0.601509 0.182386
O O3 0.288539 0.636930 0.277682
O O4 0.231584 0.591301 0.435360
O O5 0.892376 0.831034 0.759163
O O6 0.939681 0.710362 0.839138
O O7 0.940075 0.747744 0.623733
O O8 0.043176 0.797075 0.845007
O O9 0.734874 0.737091 0.262508
O O10 0.737208 0.605334 0.310145
O O11 0.658855 0.670612 0.064353
O O12 0.883638 0.697492 0.001757
O O13 0.000000 0.615350 0.000000
O O14 0.500000 0.825975 0.500000
O O15 0.621605 0.749775 0.624930
O O16 0.631958 0.864747 0.510322
O O17 0.318423 0.728661 0.130897
O O18 0.181283 0.500000 0.547503
#
# Coordination Sequence:
#
# PCOD9170667 Si02
#       8
#     8   8   8   8   8   8   8   8
#     4  11  21  35  54  76 109 148 183 224 270 323
#     4  10  17  33  54  85 105 136 180 231 272 320
#     4  10  19  33  58  78 104 141 186 225 269 318
#     4   9  18  32  54  77 110 142 178 222 271 330
#     4  11  20  33  57  84 107 139 179 229 278 327
#     4  11  20  33  54  83 109 139 181 228 275 324
#     4  10  19  32  55  81 114 138 171 231 283 313
#     4  10  22  38  55  78 110 147 185 225 269 323
#
# _framework density 16.840634999999999
#
# number of rings (size 3 to 8) (size 9 to 14) (size 15 to 20)
#    0.000    1.750    5.000    2.250    0.000    2.500 
#    0.000    0.625    0.000    2.625    0.000    0.000 
#    0.000    0.000    0.000    0.000    0.000    0.000 
#
# Total GULP energy -178314.741353 kJ/mol
# GULP energy per Si atom -5572.335667 kJ/mol
# Density = 1.680231 g / cm^3
# Si number density = 16.840635 Si / 1000 Ang^3
#
#
#
# Elastic Constant Matrix: (Units=GPa)
#
#
# Indices 1 2 3 4 5 6 
#
# 1 55.5964 26.5918 26.6607 0.0000 0.9734 0.0000
# 2 26.5918 64.7236 39.7895 0.0000 -5.0449 0.0000
# 3 26.6607 39.7895 111.2881 0.0000 2.9415 0.0000
# 4 0.0000 0.0000 0.0000 10.5414 0.0000 -4.9965
# 5 0.9734 -5.0449 2.9415 0.0000 32.4748 0.0000
# 6 0.0000 0.0000 0.0000 -4.9965 0.0000 7.6778
#
#
#
# Elastic Compliance Matrix: (Units=1/GPa)
#
#
# Indices 1 2 3 4 5 6 
#
# 1 0.023108 -0.008012 -0.002626 0.000000 -0.001699 0.000000
# 2 -0.008012 0.023041 -0.006435 0.000000 0.004402 0.000000
# 3 -0.002626 -0.006435 0.011969 0.000000 -0.002005 0.000000
# 4 0.000000 0.000000 0.000000 0.137179 0.000000 0.089273
# 5 -0.001699 0.004402 -0.002005 0.000000 0.031710 0.000000
# 6 0.000000 0.000000 0.000000 0.089273 0.000000 0.188342
#
#
# Mechanical properties :
#
#
# Convention : Reuss Voigt Hill
#
# Bulk Modulus (GPa) = 41.71667 46.41024 44.06345
# Shear Modulus (GPa) = 10.92931 19.37652 15.15291
#
# Velocity S-wave (km/s) = 2.55028 3.39570 3.00289
# Velocity P-wave (km/s) = 5.78767 6.55688 6.18425
#
# Compressibility (1/GPa) = 0.02397123
#
# Stress axis : x y z
#
# Youngs Moduli (GPa) = 43.27490 43.40060 83.55158
#
# Poissons Ratio (x) = 0.34772 0.21945
# Poissons Ratio (y) = 0.34671 0.53766
# Poissons Ratio (z) = 0.11366 0.27929
#
# Static dielectric constant tensor:
#      x y z
#    x 1.589460 0.000000 0.023260 
#    y 0.000000 1.530970 0.000000 
#    z 0.023260 0.000000 1.610030 
# 
# From -- ./inp_files/168487.got.cif
#   From: 2010.05.17/outbox.cif.g08.bks.cpg/sg12_85_cif.got.tgz:168487.got - 2010.06.03 13:09:07.
