data_PCOD9170415
_publ_section_title
;
Structure prediction by ZEFSAII (Michael W. Deem and Ramdas Pophale) SiO2 
 PCOD9170415
Probable space group: C 2/M
;
_chemical_formula_sum "Si O2"
_cell_formula_units_Z 64
_cell_length_a 21.111900
_cell_length_b 7.466977
_cell_length_c 20.892978
_cell_angle_alpha 90.000000
_cell_angle_beta 72.592356
_cell_angle_gamma 90.000000
_cell_volume 3142.766288
_symmetry_space_group_name_H-M "C 2/M"
_symmetry_group_IT_number 12
_symmetry_cell_setting 'monoclinic'
loop_
_space_group_symop_operation_xyz
x,y,z
-x,y,-z
-x,-y,-z
x,-y,z
1/2+x,1/2+y,z
1/2-x,1/2+y,-z
1/2-x,1/2-y,-z
1/2+x,1/2-y,z
loop_
_atom_site_type_symbol
_atom_site_label
_atom_site_fract_x
_atom_site_fract_y
_atom_site_fract_z
Si Si1 0.921228 0.708787 0.507017
Si Si2 0.394717 0.216624 0.651873
Si Si3 0.044993 0.720162 0.639381
Si Si4 0.668565 0.779775 0.857252
Si Si5 0.435480 0.291743 0.850957
Si Si6 0.817713 0.789803 0.798971
Si Si7 0.426871 0.783523 0.999633
Si Si8 0.418649 0.794637 0.233425
O O1 0.901954 0.500000 0.508604
O O2 0.887077 0.783498 0.581165
O O3 0.917341 0.781836 0.436320
O O4 0.000000 0.713745 0.500000
O O5 0.467460 0.273096 0.656074
O O6 0.339224 0.271827 0.718829
O O7 0.396086 0.000000 0.649007
O O8 0.044862 0.500000 0.639248
O O9 0.075073 0.783246 0.697245
O O10 0.744483 0.718292 0.834141
O O11 0.630020 0.716961 0.805261
O O12 0.667526 0.000000 0.856691
O O13 0.627499 0.724994 0.932319
O O14 0.445052 0.500000 0.831376
O O15 0.377807 0.214015 0.823384
O O16 0.415164 0.277101 0.930929
O O17 0.507004 0.204874 0.817918
O O18 0.814682 0.000000 0.816136
O O19 0.427257 0.000000 0.998927
O O20 0.500000 0.724298 0.000000
O O21 0.397181 0.000000 0.248900
#
# Coordination Sequence:
#
# PCOD9170415 Si02
#       8
#     8   8   8   8   8   8   8   8
#     4   7  11  20  37  68 101 122 147 199 255 279
#     4   9  15  26  47  71  97 127 162 203 241 282
#     4   8  13  22  44  75  98 117 156 210 248 274
#     4   9  19  35  53  72  95 126 164 202 240 283
#     4  11  22  33  49  74 103 130 155 192 246 297
#     4  10  21  35  48  68 103 137 160 190 240 297
#     4  10  19  35  58  77  93 121 163 207 241 277
#     4  10  17  31  55  76  93 123 170 210 236 275
#
# _framework density 20.364222999999999
#
# number of rings (size 3 to 8) (size 9 to 14) (size 15 to 20)
#    0.000    2.750    2.500    1.875    0.000    1.250 
#    0.000    1.250    0.000    4.875    0.000    0.000 
#    0.000    0.000    0.000    0.000    0.000    0.000 
#
# Total GULP energy -178474.279608 kJ/mol
# GULP energy per Si atom -5577.321238 kJ/mol
# Density = 2.031787 g / cm^3
# Si number density = 20.364223 Si / 1000 Ang^3
#
#
#
# Elastic Constant Matrix: (Units=GPa)
#
#
# Indices 1 2 3 4 5 6 
#
# 1 73.0135 -1.2136 29.5792 0.0000 -7.8805 0.0000
# 2 -1.2136 58.5661 -10.9305 0.0003 2.2132 0.0002
# 3 29.5792 -10.9305 134.1513 0.0000 5.2125 0.0000
# 4 0.0000 0.0003 0.0000 27.0702 0.0000 -3.2279
# 5 -7.8805 2.2132 5.2125 0.0000 26.1962 0.0000
# 6 0.0000 0.0002 0.0000 -3.2279 0.0000 1.2887
#
#
#
# Elastic Compliance Matrix: (Units=1/GPa)
#
#
# Indices 1 2 3 4 5 6 
#
# 1 0.015804 -0.000582 -0.003748 0.000000 0.005549 0.000000
# 2 -0.000582 0.017441 0.001626 -0.000001 -0.001972 -0.000004
# 3 -0.003748 0.001626 0.008528 0.000000 -0.002962 0.000000
# 4 0.000000 -0.000001 0.000000 0.052673 0.000000 0.131937
# 5 0.005549 -0.001972 -0.002962 0.000000 0.040599 0.000000
# 6 0.000000 -0.000004 0.000000 0.131937 0.000000 1.106472
#
#
# Mechanical properties :
#
#
# Convention : Reuss Voigt Hill
#
# Bulk Modulus (GPa) = 27.49838 33.40012 30.44925
# Shear Modulus (GPa) = 3.97126 27.46405 15.71766
#
# Velocity S-wave (km/s) = 1.39798 3.67637 2.78119
# Velocity P-wave (km/s) = 4.01726 5.87009 5.02973
#
# Compressibility (1/GPa) = 0.03636578
#
# Stress axis : x y z
#
# Youngs Moduli (GPa) = 63.27698 57.33733 117.25911
#
# Poissons Ratio (x) = 0.03335 0.43943
# Poissons Ratio (y) = 0.03680 -0.19065
# Poissons Ratio (z) = 0.23713 -0.09323
#
# Static dielectric constant tensor:
#      x y z
#    x 1.687100 0.000000 0.016460 
#    y 0.000000 1.785180 0.000000 
#    z 0.016460 0.000000 1.740340 
# 
# From -- ./inp_files/319104.got.cif
#   From: 2010.05.17/outbox.cif.g08.bks.cpg/sg12_160_cif.got.tgz:319104.got - 2010.06.03 13:09:07.
