data_PCOD9170477
_publ_section_title
;
Structure prediction by ZEFSAII (Michael W. Deem and Ramdas Pophale) SiO2 
 PCOD9170477
Probable space group: C 2/M
;
_chemical_formula_sum "Si O2"
_cell_formula_units_Z 40
_cell_length_a 9.789096
_cell_length_b 27.255024
_cell_length_c 8.663222
_cell_angle_alpha 90.000000
_cell_angle_beta 42.075300
_cell_angle_gamma 90.000000
_cell_volume 1548.861398
_symmetry_space_group_name_H-M "C 2/M"
_symmetry_group_IT_number 12
_symmetry_cell_setting 'monoclinic'
loop_
_space_group_symop_operation_xyz
x,y,z
-x,y,-z
-x,-y,-z
x,-y,z
1/2+x,1/2+y,z
1/2-x,1/2+y,-z
1/2-x,1/2-y,-z
1/2+x,1/2-y,z
loop_
_atom_site_type_symbol
_atom_site_label
_atom_site_fract_x
_atom_site_fract_y
_atom_site_fract_z
Si Si1 0.643570 0.297993 0.520108
Si Si2 0.659422 0.293550 0.980900
Si Si3 0.251579 0.393429 0.204010
Si Si4 0.252567 0.403622 0.555747
Si Si5 0.278712 0.557992 0.860209
O O1 0.500000 0.282403 0.500000
O O2 0.750000 0.250000 0.500000
O O3 0.486284 0.320438 0.775895
O O4 0.776243 0.345817 0.374245
O O5 0.500000 0.268896 0.000000
O O6 0.750000 0.250000 0.000000
O O7 0.787442 0.334865 0.788283
O O8 0.181195 0.409020 0.435727
O O9 0.500000 0.399302 0.000000
O O10 0.189294 0.418853 0.094316
O O11 0.490243 0.420741 0.345528
O O12 0.185553 0.431755 0.767683
O O13 0.287661 0.500000 0.875775
#
# Coordination Sequence:
#
# PCOD9170477 Si02
#       5
#     8   8   8   8   8
#     4  12  22  35  55  81 113 156 190 237 284 337
#     4  11  20  36  54  76 109 156 191 230 281 341
#     4   9  17  31  47  70 104 144 178 228 282 336
#     4  10  17  32  47  71 110 145 177 231 287 334
#     4  10  18  29  49  74 109 145 181 228 301 344
#
# _framework density 25.825422
#
# number of rings (size 3 to 8) (size 9 to 14) (size 15 to 20)
#    0.000    1.600    8.000    2.400    0.000    4.400 
#    0.000    0.000    0.000    0.000    0.000    0.000 
#    0.000   12.000    0.000    0.000    0.000    0.000 
#
# Total GULP energy -111663.518057 kJ/mol
# GULP energy per Si atom -5583.175903 kJ/mol
# Density = 2.576664 g / cm^3
# Si number density = 25.825422 Si / 1000 Ang^3
#
#
#
# Elastic Constant Matrix: (Units=GPa)
#
#
# Indices 1 2 3 4 5 6 
#
# 1 183.7346 58.6796 54.4684 0.0000 75.5194 0.0000
# 2 58.6796 170.8198 42.6310 0.0000 31.3575 0.0000
# 3 54.4684 42.6310 201.2399 0.0000 38.3356 0.0000
# 4 0.0000 0.0000 0.0000 27.5803 0.0000 15.9110
# 5 75.5194 31.3575 38.3356 0.0000 56.8566 0.0000
# 6 0.0000 0.0000 0.0000 15.9110 0.0000 26.7219
#
#
#
# Elastic Compliance Matrix: (Units=1/GPa)
#
#
# Indices 1 2 3 4 5 6 
#
# 1 0.012265 -0.001349 -0.000083 0.000000 -0.015492 0.000000
# 2 -0.001349 0.006776 -0.000803 0.000000 -0.001404 0.000000
# 3 -0.000083 -0.000803 0.005802 0.000000 -0.003359 0.000000
# 4 0.000000 0.000000 0.000000 0.055229 0.000000 -0.032885
# 5 -0.015492 -0.001404 -0.003359 0.000000 0.041204 0.000000
# 6 0.000000 0.000000 0.000000 -0.032885 0.000000 0.057003
#
#
# Mechanical properties :
#
#
# Convention : Reuss Voigt Hill
#
# Bulk Modulus (GPa) = 49.08387 96.37247 72.72817
# Shear Modulus (GPa) = 26.37985 48.89945 37.63965
#
# Velocity S-wave (km/s) = 3.19951 4.35611 3.82182
# Velocity P-wave (km/s) = 5.71808 7.91826 6.90635
#
# Compressibility (1/GPa) = 0.02037329
#
# Stress axis : x y z
#
# Youngs Moduli (GPa) = 81.52963 147.58927 172.36786
#
# Poissons Ratio (x) = 0.19908 0.01430
# Poissons Ratio (y) = 0.10997 0.13838
# Poissons Ratio (z) = 0.00676 0.11849
#
# Static dielectric constant tensor:
#      x y z
#    x 2.096580 0.000000 -0.158560 
#    y 0.000000 1.978270 0.000000 
#    z -0.158560 0.000000 2.026060 
# 
# From -- ./inp_files/50415.got.cif
#   From: 2010.05.17/outbox.cif.g08.bks.cpg/sg12_26_cif.got.tgz:50415.got - 2010.06.03 13:09:07.
