data_PCOD9170593
_publ_section_title
;
Structure prediction by ZEFSAII (Michael W. Deem and Ramdas Pophale) SiO2 
 PCOD9170593
Probable space group: C 2/M
;
_chemical_formula_sum "Si O2"
_cell_formula_units_Z 56
_cell_length_a 12.912933
_cell_length_b 14.309654
_cell_length_c 23.344440
_cell_angle_alpha 90.000000
_cell_angle_beta 147.369578
_cell_angle_gamma 90.000000
_cell_volume 2325.958110
_symmetry_space_group_name_H-M "C 2/M"
_symmetry_group_IT_number 12
_symmetry_cell_setting 'monoclinic'
loop_
_space_group_symop_operation_xyz
x,y,z
-x,y,-z
-x,-y,-z
x,-y,z
1/2+x,1/2+y,z
1/2-x,1/2+y,-z
1/2-x,1/2-y,-z
1/2+x,1/2-y,z
loop_
_atom_site_type_symbol
_atom_site_label
_atom_site_fract_x
_atom_site_fract_y
_atom_site_fract_z
Si Si1 0.223553 0.772604 0.166116
Si Si2 0.596558 0.396778 0.931398
Si Si3 0.457359 0.889483 0.874137
Si Si4 0.163713 0.139822 0.531254
Si Si5 0.669530 0.598594 0.305041
Si Si6 0.050094 0.696164 0.250549
Si Si7 0.475294 0.168343 0.591983
O O1 0.324445 0.806726 0.155517
O O2 0.383759 0.795938 0.290225
O O3 0.028953 0.826082 0.090128
O O4 0.168523 0.663669 0.137514
O O5 0.600994 0.500000 0.960690
O O6 0.474431 0.403377 0.816127
O O7 0.814314 0.373362 0.016128
O O8 0.398602 0.834003 0.789041
O O9 0.422172 0.000000 0.855134
O O10 0.341657 0.128178 0.657030
O O11 0.283293 0.118509 0.527554
O O12 0.080986 0.240654 0.471776
O O13 0.000000 0.104314 0.500000
O O14 0.644015 0.500000 0.325213
O O15 0.620710 0.701720 0.304968
O O16 0.885549 0.605573 0.381551
#
# Coordination Sequence:
#
# PCOD9170593 Si02
#       7
#     8   8   8   8   8   8   8
#     4  10  20  36  58  83 117 152 191 236 292 348
#     4   9  19  36  60  83 112 153 193 239 291 342
#     4  11  22  39  59  84 120 158 197 241 291 349
#     4  10  17  32  58  82 110 146 184 233 282 344
#     4  10  19  36  57  82 115 148 194 240 283 343
#     4  11  22  35  57  88 113 152 193 237 292 340
#     4   9  18  33  56  81 108 152 185 224 291 342
#
# _framework density 24.0761
#
# number of rings (size 3 to 8) (size 9 to 14) (size 15 to 20)
#    0.000    2.000    4.286    0.429    0.000    1.714 
#    0.000    5.000    0.000   18.000    0.000    0.000 
#    0.000    0.000    0.000    0.000    0.000    0.000 
#
# Total GULP energy -155891.537572 kJ/mol
# GULP energy per Si atom -5567.554913 kJ/mol
# Density = 2.402130 g / cm^3
# Si number density = 24.076100 Si / 1000 Ang^3
#
#
#
# Elastic Constant Matrix: (Units=GPa)
#
#
# Indices 1 2 3 4 5 6 
#
# 1 64.5290 9.9514 15.7574 0.0003 27.0100 0.0002
# 2 9.9514 76.9870 9.6062 0.0000 18.5709 0.0000
# 3 15.7574 9.6062 76.9957 0.0002 12.5400 0.0000
# 4 0.0003 0.0000 0.0002 -35.1208 0.0003 1.3133
# 5 27.0100 18.5709 12.5400 0.0003 31.0081 0.0001
# 6 0.0002 0.0000 0.0000 1.3133 0.0001 -4.8255
#
#
#
# Elastic Compliance Matrix: (Units=1/GPa)
#
#
# Indices 1 2 3 4 5 6 
#
# 1 0.024962 0.002415 -0.001748 0.000000 -0.022483 0.000000
# 2 0.002415 0.015430 -0.000612 0.000000 -0.011097 0.000000
# 3 -0.001748 -0.000612 0.014039 0.000000 -0.003788 0.000000
# 4 0.000000 0.000000 0.000000 -0.028766 0.000000 -0.007829
# 5 -0.022483 -0.011097 -0.003788 0.000000 0.060012 0.000001
# 6 0.000000 0.000000 0.000000 -0.007829 0.000001 -0.209365
#
#
# Mechanical properties :
#
#
# Convention : Reuss Voigt Hill
#
# Bulk Modulus (GPa) = 18.33496 32.12686 25.23091
# Shear Modulus (GPa) = -47.34064 10.42549 -18.45758
#
# Velocity S-wave (km/s) = -4.43910 2.08318 -2.77182
# Velocity P-wave (km/s) = 4.31766 4.37710 0.50834
#
# Compressibility (1/GPa) = 0.05454062
#
# Stress axis : x y z
#
# Youngs Moduli (GPa) = 40.06092 64.80749 71.23106
#
# Poissons Ratio (x) = -0.15650 0.12452
# Poissons Ratio (y) = -0.09674 0.04359
# Poissons Ratio (z) = 0.07003 0.03966
#
# Static dielectric constant tensor:
#      x y z
#    x 1.956870 0.000000 0.005310 
#    y 0.000000 2.030930 0.000000 
#    z 0.005310 0.000000 1.919600 
# 
# From -- ./inp_files/361475.got.cif
#   From: 2010.05.17/outbox.cif.g08.bks.cpg/sg12_181_cif.got.tgz:361475.got - 2010.06.03 13:09:07.
