data_PCOD9170235
_publ_section_title
;
Structure prediction by ZEFSAII (Michael W. Deem and Ramdas Pophale) SiO2 
 PCOD9170235
Probable space group: C 2/M
;
_chemical_formula_sum "Si O2"
_cell_formula_units_Z 64
_cell_length_a 22.057162
_cell_length_b 18.828377
_cell_length_c 16.829469
_cell_angle_alpha 90.000000
_cell_angle_beta 33.905970
_cell_angle_gamma 90.000000
_cell_volume 3898.845598
_symmetry_space_group_name_H-M "C 2/M"
_symmetry_group_IT_number 12
_symmetry_cell_setting 'monoclinic'
loop_
_space_group_symop_operation_xyz
x,y,z
-x,y,-z
-x,-y,-z
x,-y,z
1/2+x,1/2+y,z
1/2-x,1/2+y,-z
1/2-x,1/2-y,-z
1/2+x,1/2-y,z
loop_
_atom_site_type_symbol
_atom_site_label
_atom_site_fract_x
_atom_site_fract_y
_atom_site_fract_z
Si Si1 0.901941 0.081924 0.429790
Si Si2 0.303241 0.801410 0.616318
Si Si3 0.372064 0.920511 0.657860
Si Si4 0.653275 0.916039 0.125647
Si Si5 0.655522 0.300871 0.634639
Si Si6 0.371401 0.661033 0.624092
Si Si7 0.988990 0.284134 0.728498
Si Si8 0.362116 0.646365 0.813587
O O1 0.850482 0.131927 0.417903
O O2 0.867452 0.104629 0.556620
O O3 0.030096 0.099871 0.288783
O O4 0.880179 0.000000 0.439149
O O5 0.313865 0.863318 0.667860
O O6 0.197611 0.814658 0.677111
O O7 0.306969 0.728053 0.660205
O O8 0.412835 0.796339 0.441835
O O9 0.500000 0.913847 0.500000
O O10 0.352780 0.911015 0.772185
O O11 0.338235 0.000000 0.672505
O O12 0.562062 0.860081 0.195725
O O13 0.640114 0.000000 0.119232
O O14 0.765875 0.883911 0.971477
O O15 0.750000 0.250000 0.500000
O O16 0.544533 0.257366 0.741578
O O17 0.500000 0.678976 0.500000
O O18 0.330742 0.639325 0.755013
O O19 0.900550 0.228000 0.789341
#
# Coordination Sequence:
#
# PCOD9170235 Si02
#       8
#     8   8   8   8   8   8   8   8
#     4  10  19  32  51  78 107 135 171 215 258 303
#     4  11  17  32  57  77 104 134 173 220 257 297
#     4  10  20  32  50  78 108 136 168 211 262 312
#     4  11  22  34  51  78 110 139 167 209 265 314
#     4   9  18  33  51  76 102 134 173 217 252 295
#     4  10  17  30  52  79 101 135 169 211 262 304
#     4  10  18  33  53  75 104 135 176 211 252 305
#     4  10  20  33  52  77 106 139 169 209 263 315
#
# _framework density 16.415115
#
# number of rings (size 3 to 8) (size 9 to 14) (size 15 to 20)
#    0.000    1.875    6.250    1.875    0.000    3.250 
#    0.000    1.875    0.000    6.750    0.000    8.750 
#    0.000    0.000    0.000    0.000    0.000    0.000 
#
# Total GULP energy -178230.222020 kJ/mol
# GULP energy per Si atom -5569.694438 kJ/mol
# Density = 1.637775 g / cm^3
# Si number density = 16.415115 Si / 1000 Ang^3
#
#
#
# Elastic Constant Matrix: (Units=GPa)
#
#
# Indices 1 2 3 4 5 6 
#
# 1 77.6561 69.2320 27.4749 0.0000 2.4753 0.0000
# 2 69.2320 134.6851 34.6352 0.0000 -3.5689 0.0000
# 3 27.4749 34.6352 73.4049 0.0000 13.8217 0.0000
# 4 0.0000 0.0000 0.0000 11.7021 0.0000 5.0991
# 5 2.4753 -3.5689 13.8217 0.0000 12.3582 0.0000
# 6 0.0000 0.0000 0.0000 5.0991 0.0000 21.4732
#
#
#
# Elastic Compliance Matrix: (Units=1/GPa)
#
#
# Indices 1 2 3 4 5 6 
#
# 1 0.024923 -0.012352 -0.002393 0.000000 -0.005883 0.000000
# 2 -0.012352 0.015389 -0.004992 0.000000 0.012501 0.000000
# 3 -0.002393 -0.004992 0.021605 0.000000 -0.025126 0.000000
# 4 0.000000 0.000000 0.000000 0.095318 0.000000 -0.022635
# 5 -0.005883 0.012501 -0.025126 0.000000 0.113808 0.000000
# 6 0.000000 0.000000 0.000000 -0.022635 0.000000 0.051945
#
#
# Mechanical properties :
#
#
# Convention : Reuss Voigt Hill
#
# Bulk Modulus (GPa) = 44.55450 60.93672 52.74561
# Shear Modulus (GPa) = 13.51564 19.40029 16.45796
#
# Velocity S-wave (km/s) = 2.87255 3.44154 3.16984
# Velocity P-wave (km/s) = 6.18088 7.27978 6.75272
#
# Compressibility (1/GPa) = 0.02244442
#
# Stress axis : x y z
#
# Youngs Moduli (GPa) = 40.12302 64.98217 46.28559
#
# Poissons Ratio (x) = 0.80265 0.11075
# Poissons Ratio (y) = 0.49559 0.23104
# Poissons Ratio (z) = 0.09601 0.32437
#
# Static dielectric constant tensor:
#      x y z
#    x 1.570340 0.000000 0.004050 
#    y 0.000000 1.571610 0.000000 
#    z 0.004050 0.000000 1.554490 
# 
# From -- ./inp_files/290442.got.cif
#   From: 2010.05.17/outbox.cif.g08.bks.cpg/sg12_146_cif.got.tgz:290442.got - 2010.06.03 13:09:07.
