data_PCOD9170421
_publ_section_title
;
Structure prediction by ZEFSAII (Michael W. Deem and Ramdas Pophale) SiO2 
 PCOD9170421
Probable space group: C 2/M
;
_chemical_formula_sum "Si O2"
_cell_formula_units_Z 56
_cell_length_a 19.575921
_cell_length_b 18.185066
_cell_length_c 24.282748
_cell_angle_alpha 90.000000
_cell_angle_beta 22.463152
_cell_angle_gamma 90.000000
_cell_volume 3302.932267
_symmetry_space_group_name_H-M "C 2/M"
_symmetry_group_IT_number 12
_symmetry_cell_setting 'monoclinic'
loop_
_space_group_symop_operation_xyz
x,y,z
-x,y,-z
-x,-y,-z
x,-y,z
1/2+x,1/2+y,z
1/2-x,1/2+y,-z
1/2-x,1/2-y,-z
1/2+x,1/2-y,z
loop_
_atom_site_type_symbol
_atom_site_label
_atom_site_fract_x
_atom_site_fract_y
_atom_site_fract_z
Si Si1 0.550520 0.825106 0.792655
Si Si2 0.805434 0.363365 0.126189
Si Si3 0.447322 0.417900 0.782511
Si Si4 0.758506 0.584360 0.948683
Si Si5 0.874360 0.228631 0.357038
Si Si6 0.290791 0.732445 0.065005
Si Si7 0.182042 0.087031 0.330112
O O1 0.445696 0.883811 0.832764
O O2 0.671931 0.772283 0.664149
O O3 0.663525 0.869842 0.752703
O O4 0.407239 0.773026 0.930857
O O5 0.712492 0.399367 0.141787
O O6 0.830655 0.277935 0.090586
O O7 0.675543 0.378551 0.274072
O O8 0.000000 0.392692 0.000000
O O9 0.508949 0.500000 0.724926
O O10 0.605043 0.358828 0.661643
O O11 0.366695 0.413880 0.903877
O O12 0.771729 0.500000 0.919858
O O13 0.687625 0.645082 0.958133
O O14 0.750000 0.250000 0.500000
O O15 0.080754 0.252474 0.212302
O O16 0.000000 0.094982 0.500000
O O17 0.221542 0.000000 0.296143
#
# Coordination Sequence:
#
# PCOD9170421 Si02
#       7
#     8   8   8   8   8   8   8
#     4  11  18  36  54  74 109 141 177 212 258 315
#     4  11  20  34  53  75 104 146 179 211 249 315
#     4  10  19  31  51  79 109 135 171 216 258 310
#     4  10  17  31  55  80 103 131 171 223 273 304
#     4  10  20  33  52  76 102 141 176 215 263 314
#     4  10  19  35  52  77 102 134 182 220 254 317
#     4  11  25  38  49  77 114 145 178 214 258 313
#
# _framework density 16.954632
#
# number of rings (size 3 to 8) (size 9 to 14) (size 15 to 20)
#    0.000    1.571    5.714    1.714    4.000    2.286 
#    0.000    2.857    0.000    0.429    0.000    0.000 
#    0.000    2.857    0.000    0.000    0.000    0.000 
#
# Total GULP energy -155984.796255 kJ/mol
# GULP energy per Si atom -5570.885581 kJ/mol
# Density = 1.691604 g / cm^3
# Si number density = 16.954632 Si / 1000 Ang^3
#
#
#
# Elastic Constant Matrix: (Units=GPa)
#
#
# Indices 1 2 3 4 5 6 
#
# 1 40.8187 34.4509 19.8609 0.0027 13.0135 -0.0015
# 2 34.4509 164.1961 41.5049 -0.0028 15.3696 -0.0041
# 3 19.8609 41.5049 66.3762 -0.0235 21.4400 0.0067
# 4 0.0027 -0.0028 -0.0235 22.8232 0.0031 6.5988
# 5 13.0135 15.3696 21.4400 0.0031 21.8147 0.0040
# 6 -0.0015 -0.0041 0.0067 6.5988 0.0040 19.8655
#
#
#
# Elastic Compliance Matrix: (Units=1/GPa)
#
#
# Indices 1 2 3 4 5 6 
#
# 1 0.034835 -0.005343 -0.002324 -0.000007 -0.014733 0.000008
# 2 -0.005343 0.008067 -0.003867 -0.000004 0.001304 0.000003
# 3 -0.002324 -0.003867 0.024689 0.000033 -0.020154 -0.000016
# 4 -0.000007 -0.000004 0.000033 0.048470 -0.000029 -0.016100
# 5 -0.014733 0.001304 -0.020154 -0.000029 0.073519 0.000001
# 6 0.000008 0.000003 -0.000016 -0.016100 0.000001 0.055687
#
#
# Mechanical properties :
#
#
# Convention : Reuss Voigt Hill
#
# Bulk Modulus (GPa) = 22.45949 51.44716 36.95333
# Shear Modulus (GPa) = 17.65701 24.60564 21.13133
#
# Velocity S-wave (km/s) = 3.23062 3.81368 3.53419
# Velocity P-wave (km/s) = 5.21454 7.05706 6.20457
#
# Compressibility (1/GPa) = 0.04452460
#
# Stress axis : x y z
#
# Youngs Moduli (GPa) = 28.70651 123.96866 40.50433
#
# Poissons Ratio (x) = 0.66230 0.09413
# Poissons Ratio (y) = 0.15336 0.15661
# Poissons Ratio (z) = 0.06671 0.47934
#
# Static dielectric constant tensor:
#      x y z
#    x 1.615150 -0.000010 0.007530 
#    y -0.000010 1.622260 0.000020 
#    z 0.007530 0.000020 1.579510 
# 
# From -- ./inp_files/87349.got.cif
#   From: 2010.05.17/outbox.cif.g08.bks.cpg/sg12_44_cif.got.tgz:87349.got - 2010.06.03 13:09:07.
