data_PCOD9170079
_publ_section_title
;
Structure prediction by ZEFSAII (Michael W. Deem and Ramdas Pophale) SiO2 
 PCOD9170079
Probable space group: C 2/M
;
_chemical_formula_sum "Si O2"
_cell_formula_units_Z 64
_cell_length_a 21.593667
_cell_length_b 19.852241
_cell_length_c 7.887386
_cell_angle_alpha 90.000000
_cell_angle_beta 61.168016
_cell_angle_gamma 90.000000
_cell_volume 2962.045930
_symmetry_space_group_name_H-M "C 2/M"
_symmetry_group_IT_number 12
_symmetry_cell_setting 'monoclinic'
loop_
_space_group_symop_operation_xyz
x,y,z
-x,y,-z
-x,-y,-z
x,-y,z
1/2+x,1/2+y,z
1/2-x,1/2+y,-z
1/2-x,1/2-y,-z
1/2+x,1/2-y,z
loop_
_atom_site_type_symbol
_atom_site_label
_atom_site_fract_x
_atom_site_fract_y
_atom_site_fract_z
Si Si1 0.724722 0.427274 0.636353
Si Si2 0.633319 0.926139 0.712324
Si Si3 0.322626 0.711029 0.360531
Si Si4 0.154471 0.364275 0.016707
Si Si5 0.627900 0.287780 0.095279
Si Si6 0.996064 0.598012 0.693041
Si Si7 0.021946 0.256754 0.775047
Si Si8 0.197351 0.076741 0.071429
O O1 0.706933 0.500000 0.585670
O O2 0.809676 0.419000 0.513547
O O3 0.691081 0.366868 0.577351
O O4 0.700614 0.426972 0.862123
O O5 0.648175 0.864564 0.819893
O O6 0.554593 0.927791 0.745122
O O7 0.647704 0.000000 0.771770
O O8 0.250000 0.750000 0.500000
O O9 0.337186 0.710300 0.138742
O O10 0.397200 0.733741 0.340930
O O11 0.148721 0.290367 0.112697
O O12 0.084746 0.406826 0.148776
O O13 0.224562 0.403484 0.970947
O O14 0.653736 0.353636 0.162956
O O15 0.542715 0.291230 0.193957
O O16 0.013955 0.677215 0.673818
O O17 0.000000 0.571383 0.500000
O O18 0.000000 0.273914 0.000000
O O19 0.177528 0.000000 0.154792
#
# Coordination Sequence:
#
# PCOD9170079 Si02
#       8
#     8   8   8   8   8   8   8   8
#     4   9  19  34  50  74 107 139 173 219 270 317
#     4  11  22  36  53  75 107 143 179 219 267 325
#     4  10  17  29  55  82 106 139 181 225 268 318
#     4  11  21  35  55  78 105 139 182 225 267 321
#     4   9  19  34  53  78 109 143 177 222 273 322
#     4  11  22  35  52  76 107 141 176 218 271 328
#     4   9  18  35  55  78 109 142 180 225 272 319
#     4  10  20  35  54  77 106 139 179 225 272 320
#
# _framework density 21.606687999999998
#
# number of rings (size 3 to 8) (size 9 to 14) (size 15 to 20)
#    0.000    2.000    0.000    5.625    0.000    2.750 
#    0.000    3.125    0.000    3.750    0.000    0.000 
#    0.000   14.500    0.000    0.375    0.000    0.750 
#
# Total GULP energy -178358.556364 kJ/mol
# GULP energy per Si atom -5573.704886 kJ/mol
# Density = 2.155751 g / cm^3
# Si number density = 21.606688 Si / 1000 Ang^3
#
#
#
# Elastic Constant Matrix: (Units=GPa)
#
#
# Indices 1 2 3 4 5 6 
#
# 1 101.0116 58.7618 14.0350 0.0000 -23.3802 0.0000
# 2 58.7618 141.3796 13.3631 0.0000 -11.8849 0.0000
# 3 14.0350 13.3631 33.4382 0.0000 -18.6231 0.0000
# 4 0.0000 0.0000 0.0000 9.5524 0.0000 -2.3378
# 5 -23.3802 -11.8849 -18.6231 0.0000 31.4496 0.0000
# 6 0.0000 0.0000 0.0000 -2.3378 0.0000 30.6548
#
#
#
# Elastic Compliance Matrix: (Units=1/GPa)
#
#
# Indices 1 2 3 4 5 6 
#
# 1 0.015333 -0.005660 0.001467 0.000000 0.010129 0.000000
# 2 -0.005660 0.009491 -0.002631 0.000000 -0.002179 0.000000
# 3 0.001467 -0.002631 0.045352 0.000000 0.026952 0.000000
# 4 0.000000 0.000000 0.000000 0.106677 0.000000 0.008135
# 5 0.010129 -0.002179 0.026952 0.000000 0.054463 0.000000
# 6 0.000000 0.000000 0.000000 0.008135 0.000000 0.033242
#
#
# Mechanical properties :
#
#
# Convention : Reuss Voigt Hill
#
# Bulk Modulus (GPa) = 17.68993 49.79436 33.74214
# Shear Modulus (GPa) = 16.83225 26.97602 21.90413
#
# Velocity S-wave (km/s) = 2.79414 3.53725 3.18742
# Velocity P-wave (km/s) = 4.31447 6.30703 5.40339
#
# Compressibility (1/GPa) = 0.05652935
#
# Stress axis : x y z
#
# Youngs Moduli (GPa) = 65.21846 105.36097 22.04965
#
# Poissons Ratio (x) = 0.59636 -0.03236
# Poissons Ratio (y) = 0.36915 0.05801
# Poissons Ratio (z) = -0.09570 0.27719
#
# Static dielectric constant tensor:
#      x y z
#    x 1.766660 0.000000 0.020900 
#    y 0.000000 1.894530 0.000000 
#    z 0.020900 0.000000 1.896420 
# 
# From -- ./inp_files/89556.got.cif
#   From: 2010.05.17/outbox.cif.g08.bks.cpg/sg12_45_cif.got.tgz:89556.got - 2010.06.03 13:09:07.
