data_PCOD9170035
_publ_section_title
;
Structure prediction by ZEFSAII (Michael W. Deem and Ramdas Pophale) SiO2 
 PCOD9170035
Probable space group: C 2/M
;
_chemical_formula_sum "Si O2"
_cell_formula_units_Z 40
_cell_length_a 14.369482
_cell_length_b 30.179766
_cell_length_c 8.411625
_cell_angle_alpha 90.000000
_cell_angle_beta 150.263609
_cell_angle_gamma 90.000000
_cell_volume 1809.370710
_symmetry_space_group_name_H-M "C 2/M"
_symmetry_group_IT_number 12
_symmetry_cell_setting 'monoclinic'
loop_
_space_group_symop_operation_xyz
x,y,z
-x,y,-z
-x,-y,-z
x,-y,z
1/2+x,1/2+y,z
1/2-x,1/2+y,-z
1/2-x,1/2-y,-z
1/2+x,1/2-y,z
loop_
_atom_site_type_symbol
_atom_site_label
_atom_site_fract_x
_atom_site_fract_y
_atom_site_fract_z
Si Si1 0.551020 0.282200 0.887743
Si Si2 0.321580 0.373344 0.852056
Si Si3 0.168035 0.049755 0.876010
Si Si4 0.452431 0.899112 0.111775
Si Si5 0.822285 0.308048 0.855749
O O1 0.364209 0.294367 0.514649
O O2 0.500000 0.278181 0.000000
O O3 0.686266 0.324619 0.080237
O O4 0.627169 0.233587 0.958203
O O5 0.137034 0.382741 0.476342
O O6 0.500000 0.372561 0.000000
O O7 0.350170 0.412589 0.018863
O O8 0.000000 0.052838 0.500000
O O9 0.169158 0.000000 0.944479
O O10 0.358262 0.060462 0.063122
O O11 0.500000 0.909908 0.000000
O O12 0.308555 0.857322 0.904092
O O13 0.000000 0.313042 0.000000
#
# Coordination Sequence:
#
# PCOD9170035 Si02
#       5
#     8   8   8   8   8
#     4  10  17  29  51  82 119 158 199 241 289 345
#     4  11  22  39  63  91 123 160 201 245 297 355
#     4  11  25  45  66  89 118 153 197 251 307 361
#     4  11  22  39  63  91 123 160 201 245 297 355
#     4  10  17  29  51  82 119 158 199 241 289 345
#
# _framework density 22.107133000000001
#
# number of rings (size 3 to 8) (size 9 to 14) (size 15 to 20)
#    0.000    1.400    0.000   11.400    0.000    2.400 
#    0.000    1.000    0.000    0.000    0.000    0.000 
#    0.000    0.000    0.000    0.000    0.000    0.000 
#
# Total GULP energy -111869.625011 kJ/mol
# GULP energy per Si atom -5593.481251 kJ/mol
# Density = 2.205682 g / cm^3
# Si number density = 22.107133 Si / 1000 Ang^3
#
#
#
# Elastic Constant Matrix: (Units=GPa)
#
#
# Indices 1 2 3 4 5 6 
#
# 1 58.4888 14.7965 -25.0430 0.0000 -2.3657 0.0000
# 2 14.7965 109.2786 -18.9898 0.0000 -13.3297 0.0000
# 3 -25.0430 -18.9898 101.1419 0.0000 1.2141 0.0000
# 4 0.0000 0.0000 0.0000 30.8253 0.0000 0.6606
# 5 -2.3657 -13.3297 1.2141 0.0000 18.4755 0.0000
# 6 0.0000 0.0000 0.0000 0.6606 0.0000 36.8216
#
#
#
# Elastic Compliance Matrix: (Units=1/GPa)
#
#
# Indices 1 2 3 4 5 6 
#
# 1 0.019499 -0.001745 0.004489 0.000000 0.000943 0.000000
# 2 -0.001745 0.010528 0.001457 0.000000 0.007277 0.000000
# 3 0.004489 0.001457 0.011262 0.000000 0.000886 0.000000
# 4 0.000000 0.000000 0.000000 0.032453 0.000000 -0.000582
# 5 0.000943 0.007277 0.000886 0.000000 0.059438 0.000000
# 6 0.000000 0.000000 0.000000 -0.000582 0.000000 0.027168
#
#
# Mechanical properties :
#
#
# Convention : Reuss Voigt Hill
#
# Bulk Modulus (GPa) = 20.12445 23.38185 21.75315
# Shear Modulus (GPa) = 29.67188 37.10087 33.38637
#
# Velocity S-wave (km/s) = 3.66756 4.10107 3.89036
# Velocity P-wave (km/s) = 5.20169 5.74670 5.48097
#
# Compressibility (1/GPa) = 0.04969079
#
# Stress axis : x y z
#
# Youngs Moduli (GPa) = 51.28484 94.98455 88.79765
#
# Poissons Ratio (x) = 0.16576 -0.39861
# Poissons Ratio (y) = 0.08950 -0.12940
# Poissons Ratio (z) = -0.23022 -0.13841
#
# Static dielectric constant tensor:
#      x y z
#    x 1.881670 0.000000 -0.005440 
#    y 0.000000 1.822410 0.000000 
#    z -0.005440 0.000000 1.778930 
# 
# From -- ./inp_files/68747.got.cif
#   From: 2010.05.17/outbox.cif.g08.bks.cpg/sg12_35_cif.got.tgz:68747.got - 2010.06.03 13:09:07.
