data_PCOD9170661
_publ_section_title
;
Structure prediction by ZEFSAII (Michael W. Deem and Ramdas Pophale) SiO2 
 PCOD9170661
Probable space group: C 2/M
;
_chemical_formula_sum "Si O2"
_cell_formula_units_Z 48
_cell_length_a 19.628652
_cell_length_b 15.225460
_cell_length_c 13.955608
_cell_angle_alpha 90.000000
_cell_angle_beta 140.817269
_cell_angle_gamma 90.000000
_cell_volume 2635.034643
_symmetry_space_group_name_H-M "C 2/M"
_symmetry_group_IT_number 12
_symmetry_cell_setting 'monoclinic'
loop_
_space_group_symop_operation_xyz
x,y,z
-x,y,-z
-x,-y,-z
x,-y,z
1/2+x,1/2+y,z
1/2-x,1/2+y,-z
1/2-x,1/2-y,-z
1/2+x,1/2-y,z
loop_
_atom_site_type_symbol
_atom_site_label
_atom_site_fract_x
_atom_site_fract_y
_atom_site_fract_z
Si Si1 0.615982 0.279025 0.661150
Si Si2 0.489582 0.701899 0.261170
Si Si3 0.829068 0.333845 0.576446
Si Si4 0.312117 0.398602 0.417538
Si Si5 0.075798 0.898664 0.997878
Si Si6 0.813520 0.597943 0.346179
O O1 0.500000 0.313388 0.500000
O O2 0.603925 0.284697 0.761737
O O3 0.697783 0.338196 0.688506
O O4 0.625444 0.179457 0.634851
O O5 0.551752 0.792347 0.302618
O O6 0.585341 0.640178 0.410241
O O7 0.441398 0.657409 0.115181
O O8 0.750000 0.250000 0.500000
O O9 0.792802 0.389444 0.628783
O O10 0.805644 0.383030 0.451167
O O11 0.331190 0.500000 0.414464
O O12 0.196033 0.898989 0.169844
O O13 0.044103 0.000000 0.943193
O O14 0.000000 0.864609 0.000000
O O15 0.858635 0.500000 0.380464
#
# Coordination Sequence:
#
# PCOD9170661 Si02
#       6
#     8   8   8   8   8   8
#     4  10  20  36  52  81 112 144 189 225 276 331
#     4  10  20  34  54  77 115 144 181 228 276 332
#     4  10  17  33  54  77 110 142 184 229 268 328
#     4  10  19  31  54  82 109 141 182 234 280 320
#     4  10  21  34  54  84 111 141 182 229 284 331
#     4  11  21  35  55  80 114 147 183 230 276 328
#
# _framework density 18.216080000000002
#
# number of rings (size 3 to 8) (size 9 to 14) (size 15 to 20)
#    0.000    1.833    5.000    3.000    0.000    6.000 
#    0.000    0.000    0.000    0.000    0.000    3.500 
#    0.000    0.000    0.000    0.000    0.000    0.000 
#
# Total GULP energy -133694.726248 kJ/mol
# GULP energy per Si atom -5570.613594 kJ/mol
# Density = 1.817462 g / cm^3
# Si number density = 18.216080 Si / 1000 Ang^3
#
#
#
# Elastic Constant Matrix: (Units=GPa)
#
#
# Indices 1 2 3 4 5 6 
#
# 1 128.7235 54.4884 51.9448 0.0000 -44.9304 0.0000
# 2 54.4884 105.6690 22.0565 0.0000 -21.5745 0.0000
# 3 51.9448 22.0565 52.4196 0.0000 -22.7285 0.0000
# 4 0.0000 0.0000 0.0000 -7.2041 0.0000 13.5504
# 5 -44.9304 -21.5745 -22.7285 0.0000 28.7002 0.0000
# 6 0.0000 0.0000 0.0000 13.5504 0.0000 6.2064
#
#
#
# Elastic Compliance Matrix: (Units=1/GPa)
#
#
# Indices 1 2 3 4 5 6 
#
# 1 0.021363 -0.004418 -0.009518 0.000000 0.022585 0.000000
# 2 -0.004418 0.012183 0.000341 0.000000 0.002512 0.000000
# 3 -0.009518 0.000341 0.033528 0.000000 0.011908 0.000000
# 4 0.000000 0.000000 0.000000 -0.027182 0.000000 0.059347
# 5 0.022585 0.002512 0.011908 0.000000 0.081519 0.000000
# 6 0.000000 0.000000 0.000000 0.059347 0.000000 0.031552
#
#
# Mechanical properties :
#
#
# Convention : Reuss Voigt Hill
#
# Bulk Modulus (GPa) = 25.07238 60.42127 42.74683
# Shear Modulus (GPa) = 25.84689 16.09534 20.97111
#
# Velocity S-wave (km/s) = 3.77092 2.97573 3.39668
# Velocity P-wave (km/s) = 5.72307 6.71177 6.23704
#
# Compressibility (1/GPa) = 0.03988452
#
# Stress axis : x y z
#
# Youngs Moduli (GPa) = 46.81075 82.07918 29.82581
#
# Poissons Ratio (x) = 0.36261 0.28387
# Poissons Ratio (y) = 0.20680 -0.01016
# Poissons Ratio (z) = 0.44553 -0.02796
#
# Static dielectric constant tensor:
#      x y z
#    x 1.698820 0.000000 0.003210 
#    y 0.000000 1.652700 0.000000 
#    z 0.003210 0.000000 1.611970 
# 
# From -- ./inp_files/167639.got.cif
#   From: 2010.05.17/outbox.cif.g08.bks.cpg/sg12_84_cif.got.tgz:167639.got - 2010.06.03 13:09:07.
