data_PCOD9170656
_publ_section_title
;
Structure prediction by ZEFSAII (Michael W. Deem and Ramdas Pophale) SiO2 
 PCOD9170656
Probable space group: C 2/M
;
_chemical_formula_sum "Si O2"
_cell_formula_units_Z 64
_cell_length_a 16.383533
_cell_length_b 22.225964
_cell_length_c 18.804003
_cell_angle_alpha 90.000000
_cell_angle_beta 33.697687
_cell_angle_gamma 90.000000
_cell_volume 3798.948600
_symmetry_space_group_name_H-M "C 2/M"
_symmetry_group_IT_number 12
_symmetry_cell_setting 'monoclinic'
loop_
_space_group_symop_operation_xyz
x,y,z
-x,y,-z
-x,-y,-z
x,-y,z
1/2+x,1/2+y,z
1/2-x,1/2+y,-z
1/2-x,1/2-y,-z
1/2+x,1/2-y,z
loop_
_atom_site_type_symbol
_atom_site_label
_atom_site_fract_x
_atom_site_fract_y
_atom_site_fract_z
Si Si1 0.425009 0.330046 0.383464
Si Si2 0.163835 0.435163 0.354053
Si Si3 0.927594 0.069805 0.261839
Si Si4 0.608923 0.802246 0.659673
Si Si5 0.561464 0.644031 0.036052
Si Si6 0.745192 0.296952 0.186007
Si Si7 0.650343 0.840223 0.240836
Si Si8 0.991258 0.714407 0.898985
O O1 0.432870 0.387190 0.325969
O O2 0.403739 0.268414 0.352855
O O3 0.276918 0.325944 0.538741
O O4 0.585603 0.327830 0.304248
O O5 0.204087 0.500000 0.291655
O O6 0.262523 0.428069 0.351677
O O7 0.176339 0.382510 0.288742
O O8 0.000000 0.436519 0.500000
O O9 0.011759 0.098848 0.133328
O O10 0.968620 0.000000 0.244922
O O11 0.515246 0.837193 0.667627
O O12 0.524370 0.806005 0.795524
O O13 0.514369 0.712443 0.090300
O O14 0.500000 0.632378 0.000000
O O15 0.736948 0.640702 0.902107
O O16 0.702425 0.226792 0.222242
O O17 0.869999 0.307961 0.154546
O O18 0.836104 0.306167 0.046286
#
# Coordination Sequence:
#
# PCOD9170656 Si02
#       8
#     8   8   8   8   8   8   8   8
#     4  10  21  35  48  78 107 134 176 218 258 311
#     4  10  20  33  49  68  98 144 184 210 248 304
#     4  11  22  34  52  74 104 144 179 214 254 303
#     4  10  21  32  52  76 106 137 171 217 264 312
#     4  11  18  32  51  74 106 138 178 214 248 306
#     4   9  19  32  52  77 103 135 168 207 269 319
#     4  10  19  32  48  73 102 141 172 213 262 302
#     4  10  17  33  53  78 103 137 169 207 269 319
#
# _framework density 16.846765999999999
#
# number of rings (size 3 to 8) (size 9 to 14) (size 15 to 20)
#    0.000    1.875    5.000    0.750    1.750    2.750 
#    0.000    0.000    0.000    0.000    0.000    4.375 
#    0.000    0.000    0.000    0.000    0.000    0.000 
#
# Total GULP energy -178183.018422 kJ/mol
# GULP energy per Si atom -5568.219326 kJ/mol
# Density = 1.680842 g / cm^3
# Si number density = 16.846766 Si / 1000 Ang^3
#
#
#
# Elastic Constant Matrix: (Units=GPa)
#
#
# Indices 1 2 3 4 5 6 
#
# 1 33.3210 18.0268 16.7315 0.0050 -7.3675 0.0001
# 2 18.0268 57.0723 13.2117 0.0029 -1.0297 0.0003
# 3 16.7315 13.2117 58.3829 0.0231 -18.9629 -0.0031
# 4 0.0050 0.0029 0.0231 25.4406 -0.0102 2.5539
# 5 -7.3675 -1.0297 -18.9629 -0.0102 32.4662 0.0005
# 6 0.0001 0.0003 -0.0031 2.5539 0.0005 25.6199
#
#
#
# Elastic Compliance Matrix: (Units=1/GPa)
#
#
# Indices 1 2 3 4 5 6 
#
# 1 0.040853 -0.011021 -0.007795 0.000002 0.004368 -0.000001
# 2 -0.011021 0.021602 -0.002863 0.000001 -0.003488 -0.000001
# 3 -0.007795 -0.002863 0.023950 -0.000015 0.012129 0.000004
# 4 0.000002 0.000001 -0.000015 0.039705 0.000004 -0.003958
# 5 0.004368 -0.003488 0.012129 0.000004 0.038766 0.000000
# 6 -0.000001 -0.000001 0.000004 -0.003958 0.000000 0.039427
#
#
# Mechanical properties :
#
#
# Convention : Reuss Voigt Hill
#
# Bulk Modulus (GPa) = 23.23003 27.19069 25.21036
# Shear Modulus (GPa) = 19.08327 23.42577 21.25452
#
# Velocity S-wave (km/s) = 3.36930 3.73301 3.55581
# Velocity P-wave (km/s) = 5.38100 5.89538 5.64405
#
# Compressibility (1/GPa) = 0.04304773
#
# Stress axis : x y z
#
# Youngs Moduli (GPa) = 24.47780 46.29109 41.75434
#
# Poissons Ratio (x) = 0.51016 0.32548
# Poissons Ratio (y) = 0.26976 0.11955
# Poissons Ratio (z) = 0.19081 0.13254
#
# Static dielectric constant tensor:
#      x y z
#    x 1.590130 0.000000 -0.030640 
#    y 0.000000 1.592120 0.000000 
#    z -0.030640 0.000000 1.618830 
# 
# From -- ./inp_files/317783.got.cif
#   From: 2010.05.17/outbox.cif.g08.bks.cpg/sg12_159_cif.got.tgz:317783.got - 2010.06.03 13:09:07.
