data_PCOD9170120
_publ_section_title
;
Structure prediction by ZEFSAII (Michael W. Deem and Ramdas Pophale) SiO2 
 PCOD9170120
Probable space group: C 2/M
;
_chemical_formula_sum "Si O2"
_cell_formula_units_Z 64
_cell_length_a 25.673539
_cell_length_b 7.643716
_cell_length_c 18.461835
_cell_angle_alpha 90.000000
_cell_angle_beta 77.287332
_cell_angle_gamma 90.000000
_cell_volume 3534.159521
_symmetry_space_group_name_H-M "C 2/M"
_symmetry_group_IT_number 12
_symmetry_cell_setting 'monoclinic'
loop_
_space_group_symop_operation_xyz
x,y,z
-x,y,-z
-x,-y,-z
x,-y,z
1/2+x,1/2+y,z
1/2-x,1/2+y,-z
1/2-x,1/2-y,-z
1/2+x,1/2-y,z
loop_
_atom_site_type_symbol
_atom_site_label
_atom_site_fract_x
_atom_site_fract_y
_atom_site_fract_z
Si Si1 0.818467 0.788649 0.595243
Si Si2 0.187645 0.292563 0.004018
Si Si3 0.484932 0.286278 0.422892
Si Si4 0.408481 0.713732 0.683677
Si Si5 0.864312 0.214605 0.428593
Si Si6 0.298992 0.295595 0.312002
Si Si7 0.783106 0.293052 0.154970
Si Si8 0.336383 0.294525 0.833187
O O1 0.866666 0.735503 0.633523
O O2 0.830951 0.730529 0.509754
O O3 0.761855 0.728486 0.642956
O O4 0.817489 0.000000 0.596099
O O5 0.179351 0.500000 0.009283
O O6 0.156302 0.220590 0.082878
O O7 0.250000 0.250000 0.000000
O O8 0.181321 0.226278 0.923371
O O9 0.500000 0.233242 0.500000
O O10 0.484208 0.500000 0.423206
O O11 0.532298 0.227520 0.355343
O O12 0.425602 0.230282 0.419539
O O13 0.410694 0.500000 0.682892
O O14 0.382847 0.775026 0.767154
O O15 0.837119 0.277785 0.363061
O O16 0.863452 0.000000 0.428670
O O17 0.310324 0.500000 0.303523
O O18 0.304458 0.226206 0.229074
O O19 0.777924 0.500000 0.142283
O O20 0.722414 0.219198 0.168535
O O21 0.333238 0.500000 0.816564
#
# Coordination Sequence:
#
# PCOD9170120 Si02
#       8
#     8   8   8   8   8   8   8   8
#     4  10  17  30  47  62  88 121 153 185 218 262
#     4   9  17  28  43  63  87 116 147 178 216 264
#     4   9  14  24  44  66  86 113 150 190 229 260
#     4   9  15  24  43  68  89 114 148 185 222 261
#     4   9  18  29  42  64  91 117 151 194 226 256
#     4  11  21  29  40  65  96 121 149 184 223 263
#     4   9  17  30  45  61  87 120 150 178 212 263
#     4   9  16  27  42  65  93 114 141 180 221 266
#
# _framework density 18.108972000000001
#
# number of rings (size 3 to 8) (size 9 to 14) (size 15 to 20)
#    0.000    2.625    2.500    1.875    0.000    2.500 
#    0.000    0.625    0.000    0.000    0.000    7.000 
#    0.000    7.000    0.000    0.000    0.000    0.000 
#
# Total GULP energy -178343.258060 kJ/mol
# GULP energy per Si atom -5573.226814 kJ/mol
# Density = 1.806776 g / cm^3
# Si number density = 18.108972 Si / 1000 Ang^3
#
#
#
# Elastic Constant Matrix: (Units=GPa)
#
#
# Indices 1 2 3 4 5 6 
#
# 1 50.4368 -10.1578 37.6426 0.0000 8.2667 0.0000
# 2 -10.1578 25.5110 -9.6757 0.0000 -2.4153 0.0000
# 3 37.6426 -9.6757 163.1817 0.0000 -0.4221 0.0000
# 4 0.0000 0.0000 0.0000 15.4200 0.0000 1.6685
# 5 8.2667 -2.4153 -0.4221 0.0000 19.5505 0.0000
# 6 0.0000 0.0000 0.0000 1.6685 0.0000 5.9189
#
#
#
# Elastic Compliance Matrix: (Units=1/GPa)
#
#
# Indices 1 2 3 4 5 6 
#
# 1 0.027584 0.007706 -0.005934 0.000000 -0.010840 0.000000
# 2 0.007706 0.042749 0.000762 0.000000 0.002039 0.000000
# 3 -0.005934 0.000762 0.007549 0.000000 0.002766 0.000000
# 4 0.000000 0.000000 0.000000 0.066891 0.000000 -0.018856
# 5 -0.010840 0.002039 0.002766 0.000000 0.056045 0.000000
# 6 0.000000 0.000000 0.000000 -0.018856 0.000000 0.174267
#
#
# Mechanical properties :
#
#
# Convention : Reuss Voigt Hill
#
# Bulk Modulus (GPa) = 12.05513 30.52754 21.29134
# Shear Modulus (GPa) = 12.57330 22.93257 17.75293
#
# Velocity S-wave (km/s) = 2.63784 3.56246 3.13443
# Velocity P-wave (km/s) = 3.99363 5.81514 4.98823
#
# Compressibility (1/GPa) = 0.08295223
#
# Stress axis : x y z
#
# Youngs Moduli (GPa) = 36.25234 23.39212 132.46077
#
# Poissons Ratio (x) = -0.18027 0.78606
# Poissons Ratio (y) = -0.27937 -0.10098
# Poissons Ratio (z) = 0.21513 -0.01783
#
# Static dielectric constant tensor:
#      x y z
#    x 1.587600 0.000000 0.002080 
#    y 0.000000 1.675230 0.000000 
#    z 0.002080 0.000000 1.662710 
# 
# From -- ./inp_files/287538.got.cif
#   From: 2010.05.17/outbox.cif.g08.bks.cpg/sg12_144_cif.got.tgz:287538.got - 2010.06.03 13:09:07.
