data_PCOD9170261
_publ_section_title
;
Structure prediction by ZEFSAII (Michael W. Deem and Ramdas Pophale) SiO2 
 PCOD9170261
Probable space group: C 2/M
;
_chemical_formula_sum "Si O2"
_cell_formula_units_Z 40
_cell_length_a 21.959166
_cell_length_b 22.044688
_cell_length_c 13.371248
_cell_angle_alpha 90.000000
_cell_angle_beta 165.494898
_cell_angle_gamma 90.000000
_cell_volume 1621.216041
_symmetry_space_group_name_H-M "C 2/M"
_symmetry_group_IT_number 12
_symmetry_cell_setting 'monoclinic'
loop_
_space_group_symop_operation_xyz
x,y,z
-x,y,-z
-x,-y,-z
x,-y,z
1/2+x,1/2+y,z
1/2-x,1/2+y,-z
1/2-x,1/2-y,-z
1/2+x,1/2-y,z
loop_
_atom_site_type_symbol
_atom_site_label
_atom_site_fract_x
_atom_site_fract_y
_atom_site_fract_z
Si Si1 0.813693 0.930341 0.566164
Si Si2 0.377251 0.272307 0.916156
Si Si3 0.150871 0.608091 0.519464
Si Si4 0.774176 0.568765 0.063004
Si Si5 0.374580 0.657100 0.506704
O O1 0.705897 0.897506 0.490796
O O2 0.745502 0.899199 0.354555
O O3 0.752066 0.000000 0.472720
O O4 0.109783 0.923170 0.048716
O O5 0.162980 0.321928 0.570480
O O6 0.290608 0.205900 0.810591
O O7 0.500000 0.271155 0.000000
O O8 0.542432 0.301977 0.265167
O O9 0.905752 0.577034 0.165732
O O10 0.672612 0.500000 0.911397
O O11 0.000000 0.573971 0.500000
O O12 0.590389 0.624035 0.790682
#
# Coordination Sequence:
#
# PCOD9170261 Si02
#       5
#     8   8   8   8   8
#     4  10  17  30  53  83 109 143 191 238 283 330
#     4  11  21  38  58  85 119 149 193 234 282 342
#     4  10  18  31  53  84 113 143 182 242 292 320
#     4  11  20  34  55  87 118 145 190 247 289 327
#     4  11  23  36  59  86 116 154 188 235 287 340
#
# _framework density 24.672837000000001
#
# number of rings (size 3 to 8) (size 9 to 14) (size 15 to 20)
#    0.000    1.400    8.000    3.600    0.000    0.800 
#    0.000    0.000    0.000    2.400    0.000    1.400 
#    0.000    0.000    0.000    0.000    0.000    0.000 
#
# Total GULP energy -111888.084625 kJ/mol
# GULP energy per Si atom -5594.404231 kJ/mol
# Density = 2.461668 g / cm^3
# Si number density = 24.672837 Si / 1000 Ang^3
#
#
#
# Elastic Constant Matrix: (Units=GPa)
#
#
# Indices 1 2 3 4 5 6 
#
# 1 40.9418 -4.0073 35.3561 0.0000 19.4172 0.0000
# 2 -4.0073 135.9162 29.0823 -0.0001 10.8974 0.0000
# 3 35.3561 29.0823 73.4666 -0.0009 13.3660 -0.0004
# 4 0.0000 -0.0001 -0.0009 37.7053 -0.0001 13.8901
# 5 19.4172 10.8974 13.3660 -0.0001 47.6857 0.0000
# 6 0.0000 0.0000 -0.0004 13.8901 0.0000 22.0295
#
#
#
# Elastic Compliance Matrix: (Units=1/GPa)
#
#
# Indices 1 2 3 4 5 6 
#
# 1 0.058508 0.009275 -0.028566 -0.000001 -0.017937 0.000000
# 2 0.009275 0.009554 -0.007546 0.000000 -0.003845 0.000000
# 3 -0.028566 -0.007546 0.029416 0.000001 0.005111 0.000000
# 4 -0.000001 0.000000 0.000001 0.034545 0.000000 -0.021782
# 5 -0.017937 -0.003845 0.005111 0.000000 0.027721 0.000000
# 6 0.000000 0.000000 0.000000 -0.021782 0.000000 0.059127
#
#
# Mechanical properties :
#
#
# Convention : Reuss Voigt Hill
#
# Bulk Modulus (GPa) = 22.82834 41.24300 32.03567
# Shear Modulus (GPa) = 17.41272 34.14366 25.77819
#
# Velocity S-wave (km/s) = 2.65947 3.72406 3.23584
# Velocity P-wave (km/s) = 4.32468 5.93664 5.19358
#
# Compressibility (1/GPa) = 0.04380520
#
# Stress axis : x y z
#
# Youngs Moduli (GPa) = 17.09168 104.66903 33.99468
#
# Poissons Ratio (x) = -0.97085 0.97108
# Poissons Ratio (y) = -0.15853 0.25653
# Poissons Ratio (z) = 0.48824 0.78986
#
# Static dielectric constant tensor:
#      x y z
#    x 2.015780 0.000000 -0.101450 
#    y 0.000000 1.916490 0.000000 
#    z -0.101450 0.000000 2.090800 
# 
# From -- ./inp_files/294311.got.cif
#   From: 2010.05.17/outbox.cif.g08.bks.cpg/sg12_148_cif.got.tgz:294311.got - 2010.06.03 13:09:07.
