data_PCOD9170538
_publ_section_title
;
Structure prediction by ZEFSAII (Michael W. Deem and Ramdas Pophale) SiO2 
 PCOD9170538
Probable space group: C 2/M
;
_chemical_formula_sum "Si O2"
_cell_formula_units_Z 56
_cell_length_a 26.982401
_cell_length_b 13.328047
_cell_length_c 12.303271
_cell_angle_alpha 90.000000
_cell_angle_beta 38.962504
_cell_angle_gamma 90.000000
_cell_volume 2782.199645
_symmetry_space_group_name_H-M "C 2/M"
_symmetry_group_IT_number 12
_symmetry_cell_setting 'monoclinic'
loop_
_space_group_symop_operation_xyz
x,y,z
-x,y,-z
-x,-y,-z
x,-y,z
1/2+x,1/2+y,z
1/2-x,1/2+y,-z
1/2-x,1/2-y,-z
1/2+x,1/2-y,z
loop_
_atom_site_type_symbol
_atom_site_label
_atom_site_fract_x
_atom_site_fract_y
_atom_site_fract_z
Si Si1 0.263185 0.675482 0.641255
Si Si2 0.872114 0.270305 0.982209
Si Si3 0.857247 0.113312 0.689236
Si Si4 0.084448 0.678795 0.325759
Si Si5 0.560415 0.611239 0.994746
Si Si6 0.739220 0.390830 0.600729
Si Si7 0.744456 0.610354 0.926640
O O1 0.325027 0.634603 0.623581
O O2 0.262260 0.621814 0.526802
O O3 0.278803 0.792999 0.586192
O O4 0.176845 0.668399 0.844882
O O5 0.904671 0.326266 0.822409
O O6 0.939389 0.201136 0.920337
O O7 0.806207 0.192966 0.048273
O O8 0.910227 0.205164 0.641312
O O9 0.890301 0.000000 0.639713
O O10 0.783353 0.116126 0.900117
O O11 0.163066 0.629006 0.240018
O O12 0.000000 0.636370 0.500000
O O13 0.545540 0.500000 0.067389
O O14 0.648656 0.611973 0.795306
O O15 0.500000 0.626592 0.000000
O O16 0.772703 0.500000 0.572782
O O17 0.723114 0.500000 0.922177
#
# Coordination Sequence:
#
# PCOD9170538 Si02
#       7
#     8   8   8   8   8   8   8
#     4  10  17  32  54  74 106 138 185 233 265 319
#     4  10  18  35  55  77 107 149 190 222 275 330
#     4  10  19  34  56  80 107 143 186 223 273 333
#     4  11  22  36  52  82 119 146 180 230 279 335
#     4   9  18  32  50  77 110 142 177 217 272 337
#     4   9  19  31  49  79 109 137 178 228 277 324
#     4  10  19  35  58  79 107 146 192 233 267 328
#
# _framework density 20.127959000000001
#
# number of rings (size 3 to 8) (size 9 to 14) (size 15 to 20)
#    0.000    2.143    2.857    1.714    0.000    2.857 
#    0.000    1.429    0.000    0.000    0.000    0.000 
#    0.000   11.429    0.000    0.000    0.000    0.000 
#
# Total GULP energy -156262.910455 kJ/mol
# GULP energy per Si atom -5580.818231 kJ/mol
# Density = 2.008215 g / cm^3
# Si number density = 20.127959 Si / 1000 Ang^3
#
#
#
# Elastic Constant Matrix: (Units=GPa)
#
#
# Indices 1 2 3 4 5 6 
#
# 1 43.7769 -5.6504 13.2932 0.0000 8.0349 0.0000
# 2 -5.6504 50.6125 -4.6655 0.0000 1.0623 0.0000
# 3 13.2932 -4.6655 59.9410 0.0000 10.5696 0.0000
# 4 0.0000 0.0000 0.0000 11.5540 0.0000 0.8302
# 5 8.0349 1.0623 10.5696 0.0000 36.6642 0.0000
# 6 0.0000 0.0000 0.0000 0.8302 0.0000 14.6977
#
#
#
# Elastic Compliance Matrix: (Units=1/GPa)
#
#
# Indices 1 2 3 4 5 6 
#
# 1 0.025371 0.002491 -0.004677 0.000000 -0.004284 0.000000
# 2 0.002491 0.020186 0.001283 0.000000 -0.001501 0.000000
# 3 -0.004677 0.001283 0.018591 0.000000 -0.004372 0.000000
# 4 0.000000 0.000000 0.000000 0.086903 0.000000 -0.004909
# 5 -0.004284 -0.001501 -0.004372 0.000000 0.029517 0.000000
# 6 0.000000 0.000000 0.000000 -0.004909 0.000000 0.068315
#
#
# Mechanical properties :
#
#
# Convention : Reuss Voigt Hill
#
# Bulk Modulus (GPa) = 16.04038 17.80945 16.92492
# Shear Modulus (GPa) = 18.41825 22.67338 20.54581
#
# Velocity S-wave (km/s) = 3.02827 3.35992 3.19840
# Velocity P-wave (km/s) = 4.49597 4.89075 4.69751
#
# Compressibility (1/GPa) = 0.06234265
#
# Stress axis : x y z
#
# Youngs Moduli (GPa) = 39.41471 49.53960 53.78919
#
# Poissons Ratio (x) = -0.12341 0.25159
# Poissons Ratio (y) = -0.09819 -0.06903
# Poissons Ratio (z) = 0.18435 -0.06357
#
# Static dielectric constant tensor:
#      x y z
#    x 1.698850 0.000000 0.028470 
#    y 0.000000 1.768330 0.000000 
#    z 0.028470 0.000000 1.723540 
# 
# From -- ./inp_files/183464.got.cif
#   From: 2010.05.17/outbox.cif.g08.bks.cpg/sg12_92_cif.got.tgz:183464.got - 2010.06.03 13:09:07.
