data_PCOD9170725
_publ_section_title
;
Structure prediction by ZEFSAII (Michael W. Deem and Ramdas Pophale) SiO2 
 PCOD9170725
Probable space group: C 2/M
;
_chemical_formula_sum "Si O2"
_cell_formula_units_Z 64
_cell_length_a 25.782948
_cell_length_b 14.459079
_cell_length_c 18.350969
_cell_angle_alpha 90.000000
_cell_angle_beta 150.028040
_cell_angle_gamma 90.000000
_cell_volume 3417.699476
_symmetry_space_group_name_H-M "C 2/M"
_symmetry_group_IT_number 12
_symmetry_cell_setting 'monoclinic'
loop_
_space_group_symop_operation_xyz
x,y,z
-x,y,-z
-x,-y,-z
x,-y,z
1/2+x,1/2+y,z
1/2-x,1/2+y,-z
1/2-x,1/2-y,-z
1/2+x,1/2-y,z
loop_
_atom_site_type_symbol
_atom_site_label
_atom_site_fract_x
_atom_site_fract_y
_atom_site_fract_z
Si Si1 0.333812 0.609885 0.595095
Si Si2 0.328313 0.336909 0.102673
Si Si3 0.709650 0.777708 0.563756
Si Si4 0.390225 0.895553 0.325473
Si Si5 0.971094 0.318603 0.278371
Si Si6 0.074400 0.895604 0.927328
Si Si7 0.667256 0.104115 0.017094
Si Si8 0.785456 0.766314 0.819555
O O1 0.313227 0.500000 0.559173
O O2 0.300987 0.678599 0.489789
O O3 0.275156 0.652022 0.593645
O O4 0.457012 0.621120 0.758734
O O5 0.434494 0.285687 0.253650
O O6 0.351880 0.383014 0.054065
O O7 0.250000 0.250000 0.000000
O O8 0.270166 0.397145 0.091233
O O9 0.594246 0.820500 0.430531
O O10 0.760278 0.764706 0.704169
O O11 0.500000 0.884298 0.500000
O O12 0.416854 0.882391 0.272919
O O13 0.309779 0.819778 0.256389
O O14 0.351720 0.000000 0.292347
O O15 0.922957 0.347222 0.141611
O O16 0.082075 0.000000 0.963272
O O17 0.113844 0.826041 0.036395
O O18 0.636810 0.000000 0.998254
O O19 0.695911 0.167570 0.120311
#
# Coordination Sequence:
#
# PCOD9170725 Si02
#       8
#     8   8   8   8   8   8   8   8
#     4  10  24  45  66  88 110 149 206 249 295 361
#     4  10  17  33  60  84 117 156 200 236 274 342
#     4  11  24  41  66  86 115 156 192 252 308 348
#     4  11  22  34  54  89 126 160 196 243 298 350
#     4  11  19  39  60  82 122 164 203 238 291 349
#     4  11  21  38  62  87 120 156 195 244 294 345
#     4  11  22  35  57  89 124 163 202 239 281 351
#     4  12  22  38  59  88 126 155 194 242 300 360
#
# _framework density 18.726046
#
# number of rings (size 3 to 8) (size 9 to 14) (size 15 to 20)
#    0.000    1.125    6.250    1.875    0.000    3.000 
#    0.000    1.250    0.000    1.125    0.000    5.250 
#    0.000    0.000    0.000    0.000    0.000    0.000 
#
# Total GULP energy -178634.039836 kJ/mol
# GULP energy per Si atom -5582.313745 kJ/mol
# Density = 1.868343 g / cm^3
# Si number density = 18.726046 Si / 1000 Ang^3
#
#
#
# Elastic Constant Matrix: (Units=GPa)
#
#
# Indices 1 2 3 4 5 6 
#
# 1 83.7114 32.7811 37.0149 0.0000 -13.9458 0.0000
# 2 32.7811 118.7201 37.3414 0.0000 -12.5467 0.0000
# 3 37.0149 37.3414 64.9528 0.0000 -13.2445 0.0000
# 4 0.0000 0.0000 0.0000 20.8151 0.0000 1.2004
# 5 -13.9458 -12.5467 -13.2445 0.0000 27.2898 0.0000
# 6 0.0000 0.0000 0.0000 1.2004 0.0000 14.3694
#
#
#
# Elastic Compliance Matrix: (Units=1/GPa)
#
#
# Indices 1 2 3 4 5 6 
#
# 1 0.016703 -0.001773 -0.007686 0.000000 0.003991 0.000000
# 2 -0.001773 0.010576 -0.004731 0.000000 0.001660 0.000000
# 3 -0.007686 -0.004731 0.023585 0.000000 0.005344 0.000000
# 4 0.000000 0.000000 0.000000 0.048275 0.000000 -0.004033
# 5 0.003991 0.001660 0.005344 0.000000 0.042040 0.000000
# 6 0.000000 0.000000 0.000000 -0.004033 0.000000 0.069929
#
#
# Mechanical properties :
#
#
# Convention : Reuss Voigt Hill
#
# Bulk Modulus (GPa) = 44.47463 53.51769 48.99616
# Shear Modulus (GPa) = 20.24421 23.17799 21.71110
#
# Velocity S-wave (km/s) = 3.29153 3.52197 3.40870
# Velocity P-wave (km/s) = 6.18444 6.72163 6.45862
#
# Compressibility (1/GPa) = 0.02248473
#
# Stress axis : x y z
#
# Youngs Moduli (GPa) = 59.86825 94.55024 42.39894
#
# Poissons Ratio (x) = 0.16763 0.32587
# Poissons Ratio (y) = 0.10614 0.20061
# Poissons Ratio (z) = 0.46014 0.44736
#
# Static dielectric constant tensor:
#      x y z
#    x 1.653230 0.000000 0.010450 
#    y 0.000000 1.665150 0.000000 
#    z 0.010450 0.000000 1.667430 
# 
# From -- ./inp_files/290129.got.cif
#   From: 2010.05.17/outbox.cif.g08.bks.cpg/sg12_146_cif.got.tgz:290129.got - 2010.06.03 13:09:07.
