data_PCOD9170710
_publ_section_title
;
Structure prediction by ZEFSAII (Michael W. Deem and Ramdas Pophale) SiO2 
 PCOD9170710
Probable space group: C 2/M
;
_chemical_formula_sum "Si O2"
_cell_formula_units_Z 48
_cell_length_a 15.698222
_cell_length_b 12.503458
_cell_length_c 22.570500
_cell_angle_alpha 90.000000
_cell_angle_beta 36.187050
_cell_angle_gamma 90.000000
_cell_volume 2615.683826
_symmetry_space_group_name_H-M "C 2/M"
_symmetry_group_IT_number 12
_symmetry_cell_setting 'monoclinic'
loop_
_space_group_symop_operation_xyz
x,y,z
-x,y,-z
-x,-y,-z
x,-y,z
1/2+x,1/2+y,z
1/2-x,1/2+y,-z
1/2-x,1/2-y,-z
1/2+x,1/2-y,z
loop_
_atom_site_type_symbol
_atom_site_label
_atom_site_fract_x
_atom_site_fract_y
_atom_site_fract_z
Si Si1 0.928664 0.000000 0.949824
Si Si2 0.147561 0.869051 0.705427
Si Si3 0.650146 0.322404 0.097605
Si Si4 0.235357 0.000000 0.843348
Si Si5 0.920030 0.376637 0.481000
Si Si6 0.837504 0.375902 0.105564
Si Si7 0.179230 0.702437 0.273320
O O1 0.913568 0.901076 0.915672
O O2 0.078683 0.000000 0.899657
O O3 0.797858 0.000000 0.069117
O O4 0.256531 0.848431 0.589702
O O5 0.229636 0.835938 0.720079
O O6 0.001379 0.799012 0.783908
O O7 0.124848 0.000000 0.718097
O O8 0.750883 0.368973 0.092485
O O9 0.750000 0.250000 0.000000
O O10 0.310766 0.892853 0.779864
O O11 0.927711 0.500000 0.454140
O O12 0.000000 0.379211 0.500000
O O13 0.013650 0.296802 0.388244
O O14 0.847550 0.500000 0.118633
O O15 0.754557 0.304302 0.200654
O O16 0.000000 0.335568 0.000000
#
# Coordination Sequence:
#
# PCOD9170710 Si02
#       7
#     4   8   8   4   8   8   8
#     4  11  22  34  50  80 115 137 167 227 285 331
#     4  10  17  33  58  85 110 135 171 228 290 336
#     4  12  21  37  55  78 105 145 184 224 272 327
#     4  11  20  30  56  93 114 126 165 231 304 326
#     4   8  15  27  52  85 113 132 163 219 287 342
#     4  11  25  39  52  73 109 155 198 221 256 322
#     4  11  17  33  54  85 112 136 174 225 274 331
#
# _framework density 18.350840999999999
#
# number of rings (size 3 to 8) (size 9 to 14) (size 15 to 20)
#    0.000    1.500    5.000    3.000    2.333    0.000 
#    0.000    0.833    0.000    4.500    0.000    0.000 
#    0.000    0.000    0.000    0.000    0.000    0.000 
#
# Total GULP energy -133616.786214 kJ/mol
# GULP energy per Si atom -5567.366092 kJ/mol
# Density = 1.830907 g / cm^3
# Si number density = 18.350841 Si / 1000 Ang^3
#
#
#
# Elastic Constant Matrix: (Units=GPa)
#
#
# Indices 1 2 3 4 5 6 
#
# 1 37.8262 -9.0705 23.2961 0.0000 -6.2686 0.0000
# 2 -9.0705 60.2813 56.2708 -0.0001 -1.2290 0.0000
# 3 23.2961 56.2708 188.3967 -0.0003 -16.4739 0.0001
# 4 0.0000 -0.0001 -0.0003 51.9165 0.0001 9.0241
# 5 -6.2686 -1.2290 -16.4739 0.0001 28.4220 0.0000
# 6 0.0000 0.0000 0.0001 9.0241 0.0000 11.9687
#
#
#
# Elastic Compliance Matrix: (Units=1/GPa)
#
#
# Indices 1 2 3 4 5 6 
#
# 1 0.034811 0.012516 -0.007715 0.000000 0.003747 0.000000
# 2 0.012516 0.027773 -0.010004 0.000000 -0.001837 0.000000
# 3 -0.007715 -0.010004 0.009547 0.000000 0.003399 0.000000
# 4 0.000000 0.000000 0.000000 0.022167 0.000000 -0.016713
# 5 0.003747 -0.001837 0.003399 0.000000 0.037901 0.000000
# 6 0.000000 0.000000 0.000000 -0.016713 0.000000 0.096153
#
#
# Mechanical properties :
#
#
# Convention : Reuss Voigt Hill
#
# Bulk Modulus (GPa) = 16.20077 47.49965 31.85021
# Shear Modulus (GPa) = 19.28036 32.86197 26.07116
#
# Velocity S-wave (km/s) = 3.24489 4.23633 3.77332
# Velocity P-wave (km/s) = 4.78400 7.06180 6.03140
#
# Compressibility (1/GPa) = 0.06172544
#
# Stress axis : x y z
#
# Youngs Moduli (GPa) = 28.72689 36.00654 104.74378
#
# Poissons Ratio (x) = -0.45067 0.80812
# Poissons Ratio (y) = -0.35955 1.04781
# Poissons Ratio (z) = 0.22163 0.36019
#
# Static dielectric constant tensor:
#      x y z
#    x 1.623770 0.000000 -0.038090 
#    y 0.000000 1.625680 0.000000 
#    z -0.038090 0.000000 1.776640 
# 
# From -- ./inp_files/310235.got.cif
#   From: 2010.05.17/outbox.cif.g08.bks.cpg/sg12_156_cif.got.tgz:310235.got - 2010.06.03 13:09:07.
