data_PCOD9170621
_publ_section_title
;
Structure prediction by ZEFSAII (Michael W. Deem and Ramdas Pophale) SiO2 
 PCOD9170621
Probable space group: C 2/M
;
_chemical_formula_sum "Si O2"
_cell_formula_units_Z 58
_cell_length_a 11.336174
_cell_length_b 14.622641
_cell_length_c 15.906658
_cell_angle_alpha 90.000000
_cell_angle_beta 95.538639
_cell_angle_gamma 90.000000
_cell_volume 2624.453859
_symmetry_space_group_name_H-M "C 2/M"
_symmetry_group_IT_number 12
_symmetry_cell_setting 'monoclinic'
loop_
_space_group_symop_operation_xyz
x,y,z
-x,y,-z
-x,-y,-z
x,-y,z
1/2+x,1/2+y,z
1/2-x,1/2+y,-z
1/2-x,1/2-y,-z
1/2+x,1/2-y,z
loop_
_atom_site_type_symbol
_atom_site_label
_atom_site_fract_x
_atom_site_fract_y
_atom_site_fract_z
Si Si1 0.054921 0.822463 0.396663
Si Si2 0.828295 0.608528 0.744353
Si Si3 0.899557 0.391331 0.251408
Si Si4 0.214827 0.889266 0.902834
Si Si5 0.468876 0.389236 0.795312
Si Si6 0.697930 0.751898 0.625489
Si Si7 0.755431 0.110660 0.906121
Si Si8 0.000000 0.000000 0.500000
O O1 0.934579 0.769315 0.416139
O O2 0.041984 0.839790 0.294834
O O3 0.183490 0.775965 0.418415
O O4 0.051978 0.919681 0.441403
O O5 0.804623 0.500000 0.736572
O O6 0.812167 0.636753 0.840294
O O7 0.736812 0.662499 0.680712
O O8 0.962034 0.625553 0.725303
O O9 0.878270 0.500000 0.258695
O O10 0.822633 0.336046 0.312338
O O11 0.861107 0.363961 0.154537
O O12 0.090336 0.865266 0.851309
O O13 0.216341 0.000000 0.908114
O O14 0.232722 0.854777 0.998328
O O15 0.467299 0.500000 0.782109
O O16 0.363645 0.365280 0.852182
O O17 0.756448 0.000000 0.911962
#
# Coordination Sequence:
#
# PCOD9170621 Si02
#       8
#     8   8   8   8   8   8   8   2
#     4  12  26  47  77 107 146 173 229 283 354 427
#     4  10  21  37  60  96 136 185 248 288 347 406
#     4  10  21  37  60  96 136 185 248 288 347 406
#     4   9  17  29  52  89 133 180 240 297 344 393
#     4  10  17  32  62  93 124 176 230 289 349 402
#     4  12  24  43  75 106 140 190 232 286 341 429
#     4   9  17  29  52  89 133 180 240 297 344 393
#     4  12  32  52  84 122 136 172 224 294 356 428
#
# _framework density 22.099836
#
# number of rings (size 3 to 8) (size 9 to 14) (size 15 to 20)
#    0.000    1.655    4.828    0.414    1.931    2.759 
#    0.000    3.448    0.000    0.828    0.000    0.000 
#    0.000    0.000    0.000    0.000    0.000    0.000 
#
# Total GULP energy -161808.721572 kJ/mol
# GULP energy per Si atom -5579.611089 kJ/mol
# Density = 2.204954 g / cm^3
# Si number density = 22.099836 Si / 1000 Ang^3
#
#
#
# Elastic Constant Matrix: (Units=GPa)
#
#
# Indices 1 2 3 4 5 6 
#
# 1 153.9126 48.5345 49.8700 0.0000 -2.2242 0.0000
# 2 48.5345 97.1728 37.4879 0.0000 -2.2654 0.0000
# 3 49.8700 37.4879 86.7262 0.0000 -3.0586 0.0000
# 4 0.0000 0.0000 0.0000 943.3273 0.0000 -261.0316
# 5 -2.2242 -2.2654 -3.0586 0.0000 31.5699 0.0000
# 6 0.0000 0.0000 0.0000 -261.0316 0.0000 91.0231
#
#
#
# Elastic Compliance Matrix: (Units=1/GPa)
#
#
# Indices 1 2 3 4 5 6 
#
# 1 0.008602 -0.002866 -0.003706 0.000000 0.000041 0.000000
# 2 -0.002866 0.013309 -0.004093 0.000000 0.000357 0.000000
# 3 -0.003706 -0.004093 0.015464 0.000000 0.000943 0.000000
# 4 0.000000 0.000000 0.000000 0.005135 0.000000 0.014725
# 5 0.000041 0.000357 0.000943 0.000000 0.031796 0.000000
# 6 0.000000 0.000000 0.000000 0.014725 0.000000 0.053214
#
#
# Mechanical properties :
#
#
# Convention : Reuss Voigt Hill
#
# Bulk Modulus (GPa) = 62.31914 67.73294 65.02604
# Shear Modulus (GPa) = 32.42568 226.64535 129.53551
#
# Velocity S-wave (km/s) = 3.83461 10.13794 7.66427
# Velocity P-wave (km/s) = 6.91851 12.95192 10.38311
#
# Compressibility (1/GPa) = 0.01604643
#
# Stress axis : x y z
#
# Youngs Moduli (GPa) = 116.24640 75.13438 64.66559
#
# Poissons Ratio (x) = 0.21532 0.23968
# Poissons Ratio (y) = 0.33313 0.26465
# Poissons Ratio (z) = 0.43086 0.30750
#
# Static dielectric constant tensor:
#      x y z
#    x 1.818580 0.000000 0.004820 
#    y 0.000000 1.824380 0.000000 
#    z 0.004820 0.000000 1.817320 
# 
# From -- ./inp_files/262922.got.cif
#   From: 2010.05.17/outbox.cif.g08.bks.cpg/sg12_132_cif.got.tgz:262922.got - 2010.06.03 13:09:07.
