data_PCOD9170677
_publ_section_title
;
Structure prediction by ZEFSAII (Michael W. Deem and Ramdas Pophale) SiO2 
 PCOD9170677
Probable space group: C 2/M
;
_chemical_formula_sum "Si O2"
_cell_formula_units_Z 56
_cell_length_a 19.995297
_cell_length_b 17.352160
_cell_length_c 15.901226
_cell_angle_alpha 90.000000
_cell_angle_beta 156.607816
_cell_angle_gamma 90.000000
_cell_volume 2190.419728
_symmetry_space_group_name_H-M "C 2/M"
_symmetry_group_IT_number 12
_symmetry_cell_setting 'monoclinic'
loop_
_space_group_symop_operation_xyz
x,y,z
-x,y,-z
-x,-y,-z
x,-y,z
1/2+x,1/2+y,z
1/2-x,1/2+y,-z
1/2-x,1/2-y,-z
1/2+x,1/2-y,z
loop_
_atom_site_type_symbol
_atom_site_label
_atom_site_fract_x
_atom_site_fract_y
_atom_site_fract_z
Si Si1 0.243207 0.082757 0.344102
Si Si2 0.927190 0.912515 0.105484
Si Si3 0.808759 0.878206 0.250766
Si Si4 0.196552 0.306380 0.735440
Si Si5 0.648356 0.154729 0.219022
Si Si6 0.473032 0.877292 0.193487
Si Si7 0.096123 0.222990 0.384327
O O1 0.233186 0.151272 0.266837
O O2 0.404132 0.086835 0.593738
O O3 0.074190 0.085077 0.204374
O O4 0.251111 0.000000 0.308137
O O5 0.017461 0.860056 0.278693
O O6 0.883942 0.000000 0.077682
O O7 0.774245 0.860565 0.897450
O O8 0.784517 0.784300 0.219534
O O9 0.702740 0.904986 0.210576
O O10 0.000000 0.895242 0.500000
O O11 0.709228 0.905258 0.051492
O O12 0.000000 0.319498 0.500000
O O13 0.582154 0.124575 0.231835
O O14 0.807852 0.209156 0.418780
O O15 0.500000 0.199844 0.000000
O O16 0.462983 0.789858 0.217077
O O17 0.250000 0.250000 0.500000
#
# Coordination Sequence:
#
# PCOD9170677 Si02
#       7
#     8   8   8   8   8   8   8
#     4  11  23  39  61  88 119 154 198 249 294 350
#     4  11  22  36  59  85 115 149 196 245 284 351
#     4  10  21  36  57  89 119 152 199 245 286 348
#     4  11  24  40  56  85 124 166 197 229 293 358
#     4   9  18  31  56  81 110 148 185 236 299 344
#     4  10  19  36  59  87 114 151 194 245 305 347
#     4  10  17  33  55  84 112 145 188 240 301 342
#
# _framework density 25.565877
#
# number of rings (size 3 to 8) (size 9 to 14) (size 15 to 20)
#    0.000    1.714    4.286    1.714    2.000    3.429 
#    2.571    2.143    0.000    8.143    0.000    0.000 
#    0.000    0.000    0.000    0.000    0.000    0.000 
#
# Total GULP energy -156198.762793 kJ/mol
# GULP energy per Si atom -5578.527243 kJ/mol
# Density = 2.550769 g / cm^3
# Si number density = 25.565877 Si / 1000 Ang^3
#
#
#
# Elastic Constant Matrix: (Units=GPa)
#
#
# Indices 1 2 3 4 5 6 
#
# 1 34.9959 4.4930 8.2411 0.0000 2.7322 0.0000
# 2 4.4930 123.9133 23.3741 0.0000 -4.5305 0.0000
# 3 8.2411 23.3741 184.1687 0.0001 -13.3280 0.0000
# 4 0.0000 0.0000 0.0001 7.6693 0.0000 -3.3670
# 5 2.7322 -4.5305 -13.3280 0.0000 38.7880 0.0000
# 6 0.0000 0.0000 0.0000 -3.3670 0.0000 0.6062
#
#
#
# Elastic Compliance Matrix: (Units=1/GPa)
#
#
# Indices 1 2 3 4 5 6 
#
# 1 0.029222 -0.000895 -0.001385 0.000000 -0.002639 0.000001
# 2 -0.000895 0.008310 -0.000964 0.000000 0.000702 0.000000
# 3 -0.001385 -0.000964 0.005756 0.000000 0.001963 0.000001
# 4 0.000000 0.000000 0.000000 -0.090641 0.000000 -0.503458
# 5 -0.002639 0.000702 0.001963 0.000000 0.026724 0.000001
# 6 0.000001 0.000000 0.000001 -0.503458 0.000001 -1.146764
#
#
# Mechanical properties :
#
#
# Convention : Reuss Voigt Hill
#
# Bulk Modulus (GPa) = 27.17329 46.14381 36.65855
# Shear Modulus (GPa) = -4.35298 29.87734 12.76218
#
# Velocity S-wave (km/s) = -1.30627 3.42225 2.23668
# Velocity P-wave (km/s) = 2.89425 5.80550 4.58697
#
# Compressibility (1/GPa) = 0.03680084
#
# Stress axis : x y z
#
# Youngs Moduli (GPa) = 34.22105 120.33563 173.72709
#
# Poissons Ratio (x) = 0.10767 0.24061
# Poissons Ratio (y) = 0.03062 0.16744
# Poissons Ratio (z) = 0.04740 0.11598
#
# Static dielectric constant tensor:
#      x y z
#    x 2.186190 0.000000 0.039580 
#    y 0.000000 2.046980 0.000000 
#    z 0.039580 0.000000 2.074750 
# 
# From -- ./inp_files/290860.got.cif
#   From: 2010.05.17/outbox.cif.g08.bks.cpg/sg12_146_cif.got.tgz:290860.got - 2010.06.03 13:09:07.
