data_PCOD9170791
_publ_section_title
;
Structure prediction by ZEFSAII (Michael W. Deem and Ramdas Pophale) SiO2 
 PCOD9170791
Probable space group: C 2/M
;
_chemical_formula_sum "Si O2"
_cell_formula_units_Z 56
_cell_length_a 21.221330
_cell_length_b 18.688353
_cell_length_c 9.438820
_cell_angle_alpha 90.000000
_cell_angle_beta 120.892297
_cell_angle_gamma 90.000000
_cell_volume 3212.302315
_symmetry_space_group_name_H-M "C 2/M"
_symmetry_group_IT_number 12
_symmetry_cell_setting 'monoclinic'
loop_
_space_group_symop_operation_xyz
x,y,z
-x,y,-z
-x,-y,-z
x,-y,z
1/2+x,1/2+y,z
1/2-x,1/2+y,-z
1/2-x,1/2-y,-z
1/2+x,1/2-y,z
loop_
_atom_site_type_symbol
_atom_site_label
_atom_site_fract_x
_atom_site_fract_y
_atom_site_fract_z
Si Si1 0.300075 0.082363 0.593434
Si Si2 0.936866 0.308486 0.236230
Si Si3 0.023593 0.916505 0.185902
Si Si4 0.607497 0.820569 0.497771
Si Si5 0.079827 0.419555 0.020371
Si Si6 0.068148 0.850093 0.688017
Si Si7 0.151286 0.157156 0.512203
O O1 0.342955 0.118967 0.514004
O O2 0.229147 0.128103 0.553237
O O3 0.279622 0.000000 0.541001
O O4 0.357989 0.083118 0.788928
O O5 0.905610 0.333005 0.351375
O O6 0.907407 0.357340 0.077516
O O7 0.918624 0.224104 0.214145
O O8 0.025346 0.316793 0.338465
O O9 0.090204 0.871655 0.330949
O O10 0.958153 0.905894 0.224956
O O11 0.044004 0.000000 0.203016
O O12 0.000000 0.893855 0.000000
O O13 0.643951 0.742878 0.514051
O O14 0.079763 0.500000 0.956506
O O15 0.000000 0.409747 0.000000
O O16 0.131077 0.870023 0.648547
O O17 0.000000 0.835380 0.500000
#
# Coordination Sequence:
#
# PCOD9170791 Si02
#       7
#     8   8   8   8   8   8   8
#     4  11  23  37  54  80 112 150 186 221 273 328
#     4  10  17  34  58  80 107 135 178 238 274 312
#     4  10  20  33  53  84 112 139 183 228 269 323
#     4  10  19  35  57  82 108 139 182 229 275 329
#     4  10  21  35  52  78 110 145 188 227 266 321
#     4   9  17  34  56  81 106 140 182 222 267 328
#     4  10  20  38  57  78 111 147 182 225 270 327
#
# _framework density 17.432980000000001
#
# number of rings (size 3 to 8) (size 9 to 14) (size 15 to 20)
#    0.000    2.000    5.714    0.857    0.000    5.429 
#    0.000    5.714    0.000    1.714    0.000    0.000 
#    0.000    0.000    0.000    0.000    0.000    0.000 
#
# Total GULP energy -156080.623087 kJ/mol
# GULP energy per Si atom -5574.307967 kJ/mol
# Density = 1.739330 g / cm^3
# Si number density = 17.432980 Si / 1000 Ang^3
#
#
#
# Elastic Constant Matrix: (Units=GPa)
#
#
# Indices 1 2 3 4 5 6 
#
# 1 105.1749 39.9786 19.5492 0.0000 -1.6195 0.0000
# 2 39.9786 72.6354 34.2465 0.0000 -12.4503 0.0000
# 3 19.5492 34.2465 52.0190 0.0000 -7.7680 0.0000
# 4 0.0000 0.0000 0.0000 41.9274 0.0000 -45.8613
# 5 -1.6195 -12.4503 -7.7680 0.0000 13.4426 0.0000
# 6 0.0000 0.0000 0.0000 -45.8613 0.0000 89.0139
#
#
#
# Elastic Compliance Matrix: (Units=1/GPa)
#
#
# Indices 1 2 3 4 5 6 
#
# 1 0.012395 -0.007562 -0.000550 0.000000 -0.005828 0.000000
# 2 -0.007562 0.026491 -0.012116 0.000000 0.016623 0.000000
# 3 -0.000550 -0.012116 0.028151 0.000000 0.004979 0.000000
# 4 0.000000 0.000000 0.000000 0.054648 0.000000 0.028156
# 5 -0.005828 0.016623 0.004979 0.000000 0.091961 0.000000
# 6 0.000000 0.000000 0.000000 0.028156 0.000000 0.025740
#
#
# Mechanical properties :
#
#
# Convention : Reuss Voigt Hill
#
# Bulk Modulus (GPa) = 37.62163 46.37531 41.99847
# Shear Modulus (GPa) = 17.31880 37.94711 27.63296
#
# Velocity S-wave (km/s) = 3.15532 4.67062 3.98565
# Velocity P-wave (km/s) = 5.90782 7.46633 6.73232
#
# Compressibility (1/GPa) = 0.02658045
#
# Stress axis : x y z
#
# Youngs Moduli (GPa) = 80.67892 37.74806 35.52292
#
# Poissons Ratio (x) = 0.28544 0.01954
# Poissons Ratio (y) = 0.61007 0.43041
# Poissons Ratio (z) = 0.04439 0.45737
#
# Static dielectric constant tensor:
#      x y z
#    x 1.598290 0.000000 -0.001120 
#    y 0.000000 1.599690 0.000000 
#    z -0.001120 0.000000 1.574860 
# 
# From -- ./inp_files/88092.got.cif
#   From: 2010.05.17/outbox.cif.g08.bks.cpg/sg12_45_cif.got.tgz:88092.got - 2010.06.03 13:09:07.
