data_PCOD9170566
_publ_section_title
;
Structure prediction by ZEFSAII (Michael W. Deem and Ramdas Pophale) SiO2 
 PCOD9170566
Probable space group: C 2/M
;
_chemical_formula_sum "Si O2"
_cell_formula_units_Z 36
_cell_length_a 15.465701
_cell_length_b 25.372823
_cell_length_c 15.368513
_cell_angle_alpha 90.000000
_cell_angle_beta 160.742230
_cell_angle_gamma 90.000000
_cell_volume 1989.049023
_symmetry_space_group_name_H-M "C 2/M"
_symmetry_group_IT_number 12
_symmetry_cell_setting 'monoclinic'
loop_
_space_group_symop_operation_xyz
x,y,z
-x,y,-z
-x,-y,-z
x,-y,z
1/2+x,1/2+y,z
1/2-x,1/2+y,-z
1/2-x,1/2-y,-z
1/2+x,1/2-y,z
loop_
_atom_site_type_symbol
_atom_site_label
_atom_site_fract_x
_atom_site_fract_y
_atom_site_fract_z
Si Si1 0.644238 0.082172 0.861938
Si Si2 0.899632 0.941866 0.565791
Si Si3 0.839694 0.306419 0.050497
Si Si4 0.774880 0.500000 0.212639
Si Si5 0.887774 0.831576 0.484946
O O1 0.356035 0.063628 0.616365
O O2 0.643630 0.146186 0.862646
O O3 0.708936 0.051140 0.835279
O O4 0.849536 0.066025 0.132919
O O5 0.861092 0.895044 0.460348
O O6 0.910640 0.000000 0.537481
O O7 0.115718 0.307104 0.260713
O O8 0.750000 0.250000 0.000000
O O9 0.610683 0.321672 0.767126
O O10 0.000000 0.500000 0.500000
O O11 0.500000 0.500000 0.000000
O O12 0.000000 0.812482 0.500000
#
# Coordination Sequence:
#
# PCOD9170566 Si02
#       5
#     8   8   8   4   8
#     4  10  20  35  54  78 108 143 190 224 271 343
#     4  10  17  32  56  78 109 149 174 210 270 341
#     4  10  21  39  61  79 107 155 195 224 279 350
#     4  12  22  34  54  80 113 144 183 242 290 318
#     4  10  21  35  56  87 114 139 181 236 283 320
#
# _framework density 18.099101999999998
#
# number of rings (size 3 to 8) (size 9 to 14) (size 15 to 20)
#    0.000    1.778    2.222    2.667    0.000    0.444 
#    0.000    3.333    0.000    8.000    0.000    0.000 
#    0.000    0.000    0.000    0.000    0.000    0.000 
#
# Total GULP energy -100344.232658 kJ/mol
# GULP energy per Si atom -5574.679592 kJ/mol
# Density = 1.805791 g / cm^3
# Si number density = 18.099102 Si / 1000 Ang^3
#
#
#
# Elastic Constant Matrix: (Units=GPa)
#
#
# Indices 1 2 3 4 5 6 
#
# 1 122.2063 34.1949 40.5737 0.0194 13.4999 -0.0007
# 2 34.1949 160.0602 2.2546 0.0025 16.0149 -0.0041
# 3 40.5737 2.2546 104.7818 0.0377 16.1343 -0.0120
# 4 0.0194 0.0025 0.0377 5.6807 0.0179 10.6277
# 5 13.4999 16.0149 16.1343 0.0179 31.1683 -0.0057
# 6 -0.0007 -0.0041 -0.0120 10.6277 -0.0057 14.0296
#
#
#
# Elastic Compliance Matrix: (Units=1/GPa)
#
#
# Indices 1 2 3 4 5 6 
#
# 1 0.010104 -0.001959 -0.003642 -0.000006 -0.001485 0.000000
# 2 -0.001959 0.006982 0.001119 -0.000009 -0.003319 0.000008
# 3 -0.003642 0.001119 0.011709 0.000156 -0.005059 -0.000110
# 4 -0.000006 -0.000009 0.000156 -0.421956 0.000226 0.319638
# 5 -0.001485 -0.003319 -0.005059 0.000226 0.037051 -0.000162
# 6 0.000000 0.000008 -0.000110 0.319638 -0.000162 -0.170854
#
#
# Mechanical properties :
#
#
# Convention : Reuss Voigt Hill
#
# Bulk Modulus (GPa) = 50.42205 60.12163 55.27184
# Shear Modulus (GPa) = -9.77727 30.84408 10.53341
#
# Velocity S-wave (km/s) = -2.32676 4.13265 2.41505
# Velocity P-wave (km/s) = 4.54983 7.48744 6.19527
#
# Compressibility (1/GPa) = 0.01983259
#
# Stress axis : x y z
#
# Youngs Moduli (GPa) = 98.96990 143.21726 85.40726
#
# Poissons Ratio (x) = 0.28053 0.31103
# Poissons Ratio (y) = 0.19386 -0.09559
# Poissons Ratio (z) = 0.36042 -0.16030
#
# Static dielectric constant tensor:
#      x y z
#    x 1.613710 -0.000010 -0.010000 
#    y -0.000010 1.669940 0.000000 
#    z -0.010000 0.000000 1.625990 
# 
# From -- ./inp_files/7939.got.cif
#   From: 2010.05.17/outbox.cif.g08.bks.cpg/sg12_4_cif.got.tgz:7939.got - 2010.06.03 13:09:07.
