data_PCOD9170418
_publ_section_title
;
Structure prediction by ZEFSAII (Michael W. Deem and Ramdas Pophale) SiO2 
 PCOD9170418
Probable space group: C 2/M
;
_chemical_formula_sum "Si O2"
_cell_formula_units_Z 56
_cell_length_a 17.105395
_cell_length_b 17.175235
_cell_length_c 20.204059
_cell_angle_alpha 90.000000
_cell_angle_beta 32.969048
_cell_angle_gamma 90.000000
_cell_volume 3230.142659
_symmetry_space_group_name_H-M "C 2/M"
_symmetry_group_IT_number 12
_symmetry_cell_setting 'monoclinic'
loop_
_space_group_symop_operation_xyz
x,y,z
-x,y,-z
-x,-y,-z
x,-y,z
1/2+x,1/2+y,z
1/2-x,1/2+y,-z
1/2-x,1/2-y,-z
1/2+x,1/2-y,z
loop_
_atom_site_type_symbol
_atom_site_label
_atom_site_fract_x
_atom_site_fract_y
_atom_site_fract_z
Si Si1 0.662581 0.592085 0.369215
Si Si2 0.885888 0.788117 0.369254
Si Si3 0.250584 0.838596 0.028065
Si Si4 0.553896 0.828894 0.788252
Si Si5 0.939217 0.092349 0.220791
Si Si6 0.609206 0.297751 0.861839
Si Si7 0.827353 0.185022 0.766243
O O1 0.500000 0.620892 0.500000
O O2 0.662485 0.500000 0.377145
O O3 0.794092 0.627196 0.317945
O O4 0.696671 0.617889 0.270162
O O5 0.750000 0.750000 0.500000
O O6 0.950415 0.723950 0.273669
O O7 0.866020 0.862737 0.335120
O O8 0.004285 0.807328 0.339718
O O9 0.404134 0.874738 0.899027
O O10 0.250000 0.750000 0.000000
O O11 0.108328 0.883098 0.104514
O O12 0.240085 0.834046 0.114818
O O13 0.554594 0.770818 0.851266
O O14 0.879452 0.128566 0.194812
O O15 0.923697 0.000000 0.235833
O O16 0.755858 0.263314 0.788058
O O17 0.500000 0.310323 0.000000
#
# Coordination Sequence:
#
# PCOD9170418 Si02
#       7
#     8   8   8   8   8   8   8
#     4  10  22  37  50  74 114 150 180 223 279 331
#     4  10  20  36  59  82 103 142 195 232 268 322
#     4  11  17  35  56  83 110 141 180 230 279 329
#     4  10  19  33  57  79 105 143 186 228 268 326
#     4  10  22  35  54  83 116 144 176 229 286 330
#     4  10  17  31  55  79 109 138 176 216 266 328
#     4  10  19  31  58  83 100 138 185 228 270 322
#
# _framework density 17.336696
#
# number of rings (size 3 to 8) (size 9 to 14) (size 15 to 20)
#    0.000    1.857    5.714    0.857    0.000    3.143 
#    0.000    1.429    0.000    1.714    0.000    0.000 
#    0.000    0.000    0.000    0.000    0.000    0.000 
#
# Total GULP energy -156000.450952 kJ/mol
# GULP energy per Si atom -5571.444677 kJ/mol
# Density = 1.729724 g / cm^3
# Si number density = 17.336696 Si / 1000 Ang^3
#
#
#
# Elastic Constant Matrix: (Units=GPa)
#
#
# Indices 1 2 3 4 5 6 
#
# 1 33.0414 2.4109 -12.4567 0.0001 5.5421 -0.0002
# 2 2.4109 70.0973 16.1536 0.0006 0.8441 -0.0005
# 3 -12.4567 16.1536 69.5504 0.0006 -4.4827 -0.0006
# 4 0.0001 0.0006 0.0006 17.8105 -0.0004 -3.6201
# 5 5.5421 0.8441 -4.4827 -0.0004 27.0187 0.0003
# 6 -0.0002 -0.0005 -0.0006 -3.6201 0.0003 16.4525
#
#
#
# Elastic Compliance Matrix: (Units=1/GPa)
#
#
# Indices 1 2 3 4 5 6 
#
# 1 0.033787 -0.002536 0.006266 0.000000 -0.005812 0.000001
# 2 -0.002536 0.015293 -0.004047 0.000000 -0.000629 0.000000
# 3 0.006266 -0.004047 0.016542 0.000000 0.001586 0.000000
# 4 0.000000 0.000000 0.000000 0.058775 0.000001 0.012933
# 5 -0.005812 -0.000629 0.001586 0.000001 0.038486 0.000000
# 6 0.000001 0.000000 0.000000 0.012933 0.000000 0.063627
#
#
# Mechanical properties :
#
#
# Convention : Reuss Voigt Hill
#
# Bulk Modulus (GPa) = 15.38724 20.54498 17.96611
# Shear Modulus (GPa) = 20.09583 23.36175 21.72879
#
# Velocity S-wave (km/s) = 3.40832 3.67486 3.54410
# Velocity P-wave (km/s) = 4.93798 5.46648 5.20894
#
# Compressibility (1/GPa) = 0.06498890
#
# Stress axis : x y z
#
# Youngs Moduli (GPa) = 29.59704 65.38841 60.45081
#
# Poissons Ratio (x) = 0.16583 -0.37877
# Poissons Ratio (y) = 0.07506 0.24463
# Poissons Ratio (z) = -0.18545 0.26461
#
# Static dielectric constant tensor:
#      x y z
#    x 1.606170 0.000000 -0.028540 
#    y 0.000000 1.573730 0.000000 
#    z -0.028540 0.000000 1.625590 
# 
# From -- ./inp_files/271385.got.cif
#   From: 2010.05.17/outbox.cif.g08.bks.cpg/sg12_136_cif.got.tgz:271385.got - 2010.06.03 13:09:07.
