data_PCOD9170452
_publ_section_title
;
Structure prediction by ZEFSAII (Michael W. Deem and Ramdas Pophale) SiO2 
 PCOD9170452
Probable space group: C 2/M
;
_chemical_formula_sum "Si O2"
_cell_formula_units_Z 48
_cell_length_a 30.059651
_cell_length_b 21.358223
_cell_length_c 12.673969
_cell_angle_alpha 90.000000
_cell_angle_beta 19.165880
_cell_angle_gamma 90.000000
_cell_volume 2671.395181
_symmetry_space_group_name_H-M "C 2/M"
_symmetry_group_IT_number 12
_symmetry_cell_setting 'monoclinic'
loop_
_space_group_symop_operation_xyz
x,y,z
-x,y,-z
-x,-y,-z
x,-y,z
1/2+x,1/2+y,z
1/2-x,1/2+y,-z
1/2-x,1/2-y,-z
1/2+x,1/2-y,z
loop_
_atom_site_type_symbol
_atom_site_label
_atom_site_fract_x
_atom_site_fract_y
_atom_site_fract_z
Si Si1 0.224229 0.574931 0.742958
Si Si2 0.903975 0.755927 0.613054
Si Si3 0.965729 0.380241 0.450829
Si Si4 0.867584 0.927386 0.219637
Si Si5 0.553047 0.500000 0.499259
Si Si6 0.523542 0.375322 0.691699
Si Si7 0.646231 0.000000 0.235659
O O1 0.242829 0.500000 0.709867
O O2 0.243852 0.588851 0.574742
O O3 0.342713 0.609799 0.539864
O O4 0.087891 0.594818 0.106388
O O5 0.928419 0.689409 0.501406
O O6 0.943371 0.813621 0.449353
O O7 0.000000 0.761727 0.500000
O O8 0.750000 0.750000 0.000000
O O9 0.855047 0.435491 0.696715
O O10 0.000000 0.374099 0.500000
O O11 0.854363 0.000000 0.212100
O O12 0.000000 0.927453 0.000000
O O13 0.900341 0.879945 0.051549
O O14 0.500000 0.500000 0.500000
O O15 0.505123 0.436030 0.659703
O O16 0.717802 0.500000 0.136246
O O17 0.500000 0.000000 0.500000
#
# Coordination Sequence:
#
# PCOD9170452 Si02
#       7
#     8   8   8   8   4   8   4
#     4  10  17  31  57  86 109 135 186 250 282 312
#     4  11  23  38  53  78 116 157 186 221 279 342
#     4  10  19  31  51  79 105 137 180 225 275 318
#     4   8  15  28  49  80 108 138 183 233 284 320
#     4  12  22  30  46  78 108 140 181 215 263 331
#     4  11  18  32  51  75 113 150 177 226 281 333
#     4  10  18  32  53  76  98 128 177 233 265 303
#
# _framework density 17.968139999999998
#
# number of rings (size 3 to 8) (size 9 to 14) (size 15 to 20)
#    0.000    1.833    2.500    6.500    0.000    0.000 
#    0.000    0.833    0.000    0.000    0.000    4.667 
#    0.000    0.000    0.000    0.000    0.000    0.000 
#
# Total GULP energy -133661.713832 kJ/mol
# GULP energy per Si atom -5569.238076 kJ/mol
# Density = 1.792724 g / cm^3
# Si number density = 17.968140 Si / 1000 Ang^3
#
#
#
# Elastic Constant Matrix: (Units=GPa)
#
#
# Indices 1 2 3 4 5 6 
#
# 1 49.9308 37.5572 35.9945 0.0002 18.1427 0.0002
# 2 37.5572 157.7195 36.9630 0.0008 30.7889 0.0005
# 3 35.9945 36.9630 107.4869 0.0032 36.6828 0.0003
# 4 0.0002 0.0008 0.0032 20.5694 0.0000 -11.6194
# 5 18.1427 30.7889 36.6828 0.0000 31.8276 -0.0001
# 6 0.0002 0.0005 0.0003 -11.6194 -0.0001 -49.3305
#
#
#
# Elastic Compliance Matrix: (Units=1/GPa)
#
#
# Indices 1 2 3 4 5 6 
#
# 1 0.030233 -0.004648 -0.006888 0.000001 -0.004798 0.000000
# 2 -0.004648 0.008533 0.000882 0.000000 -0.006622 0.000000
# 3 -0.006888 0.000882 0.016909 -0.000002 -0.016415 0.000001
# 4 0.000001 0.000000 -0.000002 0.042907 0.000002 -0.010106
# 5 -0.004798 -0.006622 -0.016415 0.000002 0.059479 -0.000001
# 6 0.000000 0.000000 0.000001 -0.010106 -0.000001 -0.017891
#
#
# Mechanical properties :
#
#
# Convention : Reuss Voigt Hill
#
# Bulk Modulus (GPa) = 29.09860 59.57407 44.33634
# Shear Modulus (GPa) = 28.91258 14.25479 21.58369
#
# Velocity S-wave (km/s) = 4.01571 2.81968 3.46962
# Velocity P-wave (km/s) = 6.14256 6.62028 6.38589
#
# Compressibility (1/GPa) = 0.03436591
#
# Stress axis : x y z
#
# Youngs Moduli (GPa) = 33.07608 117.18958 59.14015
#
# Poissons Ratio (x) = 0.54474 0.40738
# Poissons Ratio (y) = 0.15375 -0.05216
# Poissons Ratio (z) = 0.22784 -0.10336
#
# Static dielectric constant tensor:
#      x y z
#    x 1.634580 0.000000 0.000900 
#    y 0.000000 1.646890 0.000000 
#    z 0.000900 0.000000 1.621080 
# 
# From -- ./inp_files/190278.got.cif
#   From: 2010.05.17/outbox.cif.g08.bks.cpg/sg12_96_cif.got.tgz:190278.got - 2010.06.03 13:09:07.
