data_PCOD9170135
_publ_section_title
;
Structure prediction by ZEFSAII (Michael W. Deem and Ramdas Pophale) SiO2 
 PCOD9170135
Probable space group: C 2/M
;
_chemical_formula_sum "Si O2"
_cell_formula_units_Z 64
_cell_length_a 20.776146
_cell_length_b 25.853991
_cell_length_c 9.670407
_cell_angle_alpha 90.000000
_cell_angle_beta 133.248202
_cell_angle_gamma 90.000000
_cell_volume 3783.578795
_symmetry_space_group_name_H-M "C 2/M"
_symmetry_group_IT_number 12
_symmetry_cell_setting 'monoclinic'
loop_
_space_group_symop_operation_xyz
x,y,z
-x,y,-z
-x,-y,-z
x,-y,z
1/2+x,1/2+y,z
1/2-x,1/2+y,-z
1/2-x,1/2-y,-z
1/2+x,1/2-y,z
loop_
_atom_site_type_symbol
_atom_site_label
_atom_site_fract_x
_atom_site_fract_y
_atom_site_fract_z
Si Si1 0.905525 0.438944 0.787293
Si Si2 0.856085 0.235050 0.076652
Si Si3 0.399281 0.663740 0.392398
Si Si4 0.561180 0.253712 0.310549
Si Si5 0.870103 0.650230 0.193189
Si Si6 0.688152 0.760219 0.275851
Si Si7 0.222678 0.623131 0.214555
Si Si8 0.579157 0.860309 0.436212
O O1 0.901579 0.500000 0.756211
O O2 0.824628 0.419759 0.762980
O O3 0.903374 0.405175 0.646031
O O4 0.000000 0.427400 0.000000
O O5 0.858185 0.190146 0.193812
O O6 0.841674 0.289795 0.132723
O O7 0.956398 0.242064 0.169937
O O8 0.798945 0.231586 0.852398
O O9 0.500000 0.648117 0.500000
O O10 0.405190 0.707146 0.521591
O O11 0.328322 0.623455 0.348676
O O12 0.597033 0.260067 0.209128
O O13 0.594975 0.196455 0.398265
O O14 0.863756 0.633234 0.341619
O O15 0.974342 0.642900 0.314628
O O16 0.818282 0.620337 0.998803
O O17 0.750000 0.750000 0.500000
O O18 0.694226 0.820793 0.239563
#
# Coordination Sequence:
#
# PCOD9170135 Si02
#       8
#     8   8   8   8   8   8   8   8
#     4  11  23  39  57  79 104 134 174 225 280 329
#     4   9  19  30  45  68 108 144 178 209 248 302
#     4  10  20  35  50  74 109 147 181 219 257 303
#     4  10  17  30  48  72 104 143 175 212 249 308
#     4   9  18  29  50  78 102 142 176 207 253 311
#     4  11  20  28  45  77 105 139 178 216 253 311
#     4  11  21  34  53  75 106 140 180 220 267 312
#     4  10  17  32  52  74 107 139 174 208 261 317
#
# _framework density 16.915203000000002
#
# number of rings (size 3 to 8) (size 9 to 14) (size 15 to 20)
#    0.000    1.875    5.000    0.375    0.000    3.000 
#    0.000    1.875    0.000    0.375    0.000    0.000 
#    0.000    1.000    0.000    0.000    0.000    0.000 
#
# Total GULP energy -178301.953301 kJ/mol
# GULP energy per Si atom -5571.936041 kJ/mol
# Density = 1.687670 g / cm^3
# Si number density = 16.915203 Si / 1000 Ang^3
#
#
#
# Elastic Constant Matrix: (Units=GPa)
#
#
# Indices 1 2 3 4 5 6 
#
# 1 113.9428 29.0081 36.6516 0.0000 -4.1209 0.0000
# 2 29.0081 43.6702 30.8338 0.0000 -8.5855 0.0000
# 3 36.6516 30.8338 119.9399 0.0000 -21.3767 0.0000
# 4 0.0000 0.0000 0.0000 13.5592 0.0000 1.2211
# 5 -4.1209 -8.5855 -21.3767 0.0000 32.4790 0.0000
# 6 0.0000 0.0000 0.0000 1.2211 0.0000 13.7273
#
#
#
# Elastic Compliance Matrix: (Units=1/GPa)
#
#
# Indices 1 2 3 4 5 6 
#
# 1 0.010939 -0.006131 -0.002048 0.000000 -0.001581 0.000000
# 2 -0.006131 0.031676 -0.005569 0.000000 0.003930 0.000000
# 3 -0.002048 -0.005569 0.011427 0.000000 0.005789 0.000000
# 4 0.000000 0.000000 0.000000 0.074346 0.000000 -0.006613
# 5 -0.001581 0.003930 0.005789 0.000000 0.035437 0.000000
# 6 0.000000 0.000000 0.000000 -0.006613 0.000000 0.073436
#
#
# Mechanical properties :
#
#
# Convention : Reuss Voigt Hill
#
# Bulk Modulus (GPa) = 37.67186 52.28221 44.97704
# Shear Modulus (GPa) = 18.27438 24.02371 21.14905
#
# Velocity S-wave (km/s) = 3.29044 3.77270 3.53979
# Velocity P-wave (km/s) = 6.06262 7.06776 6.58440
#
# Compressibility (1/GPa) = 0.02654501
#
# Stress axis : x y z
#
# Youngs Moduli (GPa) = 91.41734 31.56947 87.51233
#
# Poissons Ratio (x) = 0.19354 0.17926
# Poissons Ratio (y) = 0.56045 0.48739
# Poissons Ratio (z) = 0.18726 0.17582
#
# Static dielectric constant tensor:
#      x y z
#    x 1.694560 0.000000 0.062050 
#    y 0.000000 1.531170 0.000000 
#    z 0.062050 0.000000 1.624950 
# 
# From -- ./inp_files/91081.got.cif
#   From: 2010.05.17/outbox.cif.g08.bks.cpg/sg12_46_cif.got.tgz:91081.got - 2010.06.03 13:09:07.
