data_PCOD9170517
_publ_section_title
;
Structure prediction by ZEFSAII (Michael W. Deem and Ramdas Pophale) SiO2 
 PCOD9170517
Probable space group: C 2/M
;
_chemical_formula_sum "Si O2"
_cell_formula_units_Z 44
_cell_length_a 14.493497
_cell_length_b 23.522587
_cell_length_c 10.856524
_cell_angle_alpha 90.000000
_cell_angle_beta 137.868550
_cell_angle_gamma 90.000000
_cell_volume 2482.927263
_symmetry_space_group_name_H-M "C 2/M"
_symmetry_group_IT_number 12
_symmetry_cell_setting 'monoclinic'
loop_
_space_group_symop_operation_xyz
x,y,z
-x,y,-z
-x,-y,-z
x,-y,z
1/2+x,1/2+y,z
1/2-x,1/2+y,-z
1/2-x,1/2-y,-z
1/2+x,1/2-y,z
loop_
_atom_site_type_symbol
_atom_site_label
_atom_site_fract_x
_atom_site_fract_y
_atom_site_fract_z
Si Si1 0.848656 0.500000 0.792855
Si Si2 0.808129 0.810210 0.607730
Si Si3 0.543746 0.627196 0.686899
Si Si4 0.500000 0.731969 0.000000
Si Si5 0.093134 0.000000 0.714048
Si Si6 0.157857 0.332885 0.056358
Si Si7 0.886238 0.617712 0.717504
O O1 0.744926 0.500000 0.804795
O O2 0.833504 0.555078 0.693228
O O3 0.000000 0.500000 0.000000
O O4 0.750000 0.750000 0.500000
O O5 0.881572 0.801410 0.811004
O O6 0.680872 0.853280 0.466700
O O7 0.926765 0.838411 0.641607
O O8 0.500000 0.625587 0.500000
O O9 0.563314 0.561016 0.747213
O O10 0.689885 0.659293 0.842273
O O11 0.580995 0.772231 0.981857
O O12 0.000000 0.000000 0.500000
O O13 0.160871 0.348564 0.205051
O O14 0.050843 0.376126 0.886170
#
# Coordination Sequence:
#
# PCOD9170517 Si02
#       7
#     4   8   8   4   4   8   8
#     4  12  16  28  54  84 115 140 159 213 287 335
#     4  12  21  37  54  70 107 146 180 226 259 315
#     4  11  19  31  52  80 108 137 172 217 275 319
#     4  10  22  36  52  72 108 148 184 212 258 304
#     4  10  18  28  44  78 113 132 164 214 270 327
#     4  10  17  32  52  82 105 134 178 208 265 330
#     4  10  18  30  52  78 113 139 165 211 269 327
#
# _framework density 17.721018999999998
#
# number of rings (size 3 to 8) (size 9 to 14) (size 15 to 20)
#    0.000    1.455    9.091    1.091    0.000    0.727 
#    0.000    0.000    0.000    2.182    0.000    0.000 
#    0.000    4.364    0.000    0.000    0.000    0.000 
#
# Total GULP energy -122556.112395 kJ/mol
# GULP energy per Si atom -5570.732382 kJ/mol
# Density = 1.768068 g / cm^3
# Si number density = 17.721019 Si / 1000 Ang^3
#
#
#
# Elastic Constant Matrix: (Units=GPa)
#
#
# Indices 1 2 3 4 5 6 
#
# 1 41.0643 21.0756 13.5660 0.0000 25.9542 0.0000
# 2 21.0756 97.6386 28.1723 0.0000 0.4185 0.0000
# 3 13.5660 28.1723 94.3842 0.0000 12.5452 0.0000
# 4 0.0000 0.0000 0.0000 21.0295 0.0000 1.0398
# 5 25.9542 0.4185 12.5452 0.0000 32.0670 0.0000
# 6 0.0000 0.0000 0.0000 1.0398 0.0000 15.7831
#
#
#
# Elastic Compliance Matrix: (Units=1/GPa)
#
#
# Indices 1 2 3 4 5 6 
#
# 1 0.064209 -0.014211 0.002000 0.000000 -0.052566 0.000000
# 2 -0.014211 0.014398 -0.003965 0.000000 0.012866 0.000000
# 3 0.002000 -0.003965 0.012341 0.000000 -0.006395 0.000000
# 4 0.000000 0.000000 0.000000 0.047708 0.000000 -0.003143
# 5 -0.052566 0.012866 -0.006395 0.000000 0.076064 0.000000
# 6 0.000000 0.000000 0.000000 -0.003143 0.000000 0.063566
#
#
# Mechanical properties :
#
#
# Convention : Reuss Voigt Hill
#
# Bulk Modulus (GPa) = 17.06637 39.85721 28.46179
# Shear Modulus (GPa) = 15.14371 25.12747 20.13559
#
# Velocity S-wave (km/s) = 2.92646 3.76965 3.37449
# Velocity P-wave (km/s) = 4.59025 6.44107 5.59275
#
# Compressibility (1/GPa) = 0.05859477
#
# Stress axis : x y z
#
# Youngs Moduli (GPa) = 15.57426 69.45246 81.03032
#
# Poissons Ratio (x) = 0.98701 -0.16205
# Poissons Ratio (y) = 0.22133 0.32129
# Poissons Ratio (z) = -0.03115 0.27539
#
# Static dielectric constant tensor:
#      x y z
#    x 1.586430 0.000000 0.023750 
#    y 0.000000 1.680360 0.000000 
#    z 0.023750 0.000000 1.631880 
# 
# From -- ./inp_files/148741.got.cif
#   From: 2010.05.17/outbox.cif.g08.bks.cpg/sg12_75_cif.got.tgz:148741.got - 2010.06.03 13:09:07.
