data_PCOD9170754
_publ_section_title
;
Structure prediction by ZEFSAII (Michael W. Deem and Ramdas Pophale) SiO2 
 PCOD9170754
Probable space group: C 2/M
;
_chemical_formula_sum "Si O2"
_cell_formula_units_Z 40
_cell_length_a 17.745035
_cell_length_b 13.400947
_cell_length_c 12.290222
_cell_angle_alpha 90.000000
_cell_angle_beta 52.692646
_cell_angle_gamma 90.000000
_cell_volume 2324.637897
_symmetry_space_group_name_H-M "C 2/M"
_symmetry_group_IT_number 12
_symmetry_cell_setting 'monoclinic'
loop_
_space_group_symop_operation_xyz
x,y,z
-x,y,-z
-x,-y,-z
x,-y,z
1/2+x,1/2+y,z
1/2-x,1/2+y,-z
1/2-x,1/2-y,-z
1/2+x,1/2-y,z
loop_
_atom_site_type_symbol
_atom_site_label
_atom_site_fract_x
_atom_site_fract_y
_atom_site_fract_z
Si Si1 0.539949 0.117919 0.844163
Si Si2 0.640207 0.887550 0.412096
Si Si3 0.039971 0.691105 0.302347
Si Si4 0.240430 0.277423 0.635652
Si Si5 0.603836 0.387849 0.355647
O O1 0.470435 0.161113 0.812715
O O2 0.639207 0.174634 0.745233
O O3 0.553472 0.000000 0.811684
O O4 0.500000 0.130396 0.000000
O O5 0.564791 0.823999 0.550949
O O6 0.600640 0.882937 0.324690
O O7 0.738624 0.829622 0.328162
O O8 0.643763 0.000000 0.449907
O O9 0.086509 0.799504 0.283023
O O10 0.250000 0.250000 0.500000
O O11 0.318881 0.350061 0.623341
O O12 0.500000 0.393860 0.500000
O O13 0.628851 0.500000 0.295351
#
# Coordination Sequence:
#
# PCOD9170754 Si02
#       5
#     8   8   8   8   8
#     4  11  23  38  57  82 115 151 186 231 284 338
#     4  10  18  30  54  82 107 139 182 235 279 320
#     4  10  17  34  53  79 110 145 184 229 275 330
#     4  11  20  33  54  83 113 143 187 232 279 327
#     4  10  18  31  51  80 114 146 182 230 285 330
#
# _framework density 17.206980999999999
#
# number of rings (size 3 to 8) (size 9 to 14) (size 15 to 20)
#    0.000    1.600    6.000    3.000    0.000    0.800 
#    0.000    5.000    0.000    4.800    0.000    0.000 
#    0.000    0.000    0.000    0.000    0.000    0.000 
#
# Total GULP energy -111335.183551 kJ/mol
# GULP energy per Si atom -5566.759178 kJ/mol
# Density = 1.716782 g / cm^3
# Si number density = 17.206981 Si / 1000 Ang^3
#
#
#
# Elastic Constant Matrix: (Units=GPa)
#
#
# Indices 1 2 3 4 5 6 
#
# 1 112.5184 49.9294 45.6127 0.0000 18.3894 0.0000
# 2 49.9294 145.2545 40.0352 0.0000 7.0656 0.0000
# 3 45.6127 40.0352 61.7498 0.0000 17.0120 0.0000
# 4 0.0000 0.0000 0.0000 18.8735 0.0000 -0.8964
# 5 18.3894 7.0656 17.0120 0.0000 24.7337 0.0000
# 6 0.0000 0.0000 0.0000 -0.8964 0.0000 14.7554
#
#
#
# Elastic Compliance Matrix: (Units=1/GPa)
#
#
# Indices 1 2 3 4 5 6 
#
# 1 0.013655 -0.002478 -0.007252 0.000000 -0.004457 0.000000
# 2 -0.002478 0.008888 -0.004614 0.000000 0.002477 0.000000
# 3 -0.007252 -0.004614 0.028000 0.000000 -0.012548 0.000000
# 4 0.000000 0.000000 0.000000 0.053138 0.000000 0.003228
# 5 -0.004457 0.002477 -0.012548 0.000000 0.051667 0.000000
# 6 0.000000 0.000000 0.000000 0.003228 0.000000 0.067968
#
#
# Mechanical properties :
#
#
# Convention : Reuss Voigt Hill
#
# Bulk Modulus (GPa) = 45.75865 65.63081 55.69473
# Shear Modulus (GPa) = 19.28341 23.93553 21.60947
#
# Velocity S-wave (km/s) = 3.35128 3.73371 3.54765
# Velocity P-wave (km/s) = 6.45179 7.53739 7.01562
#
# Compressibility (1/GPa) = 0.02185379
#
# Stress axis : x y z
#
# Youngs Moduli (GPa) = 73.23083 112.51661 35.71417
#
# Poissons Ratio (x) = 0.27884 0.25901
# Poissons Ratio (y) = 0.18148 0.16479
# Poissons Ratio (z) = 0.53109 0.51917
#
# Static dielectric constant tensor:
#      x y z
#    x 1.632420 0.000000 0.008470 
#    y 0.000000 1.621730 0.000000 
#    z 0.008470 0.000000 1.582850 
# 
# From -- ./inp_files/166105.got.cif
#   From: 2010.05.17/outbox.cif.g08.bks.cpg/sg12_84_cif.got.tgz:166105.got - 2010.06.03 13:09:07.
