data_PCOD9170962
_publ_section_title
;
Structure prediction by ZEFSAII (Michael W. Deem and Ramdas Pophale) SiO2 
 PCOD9170962
Probable space group: C 2/M
;
_chemical_formula_sum "Si O2"
_cell_formula_units_Z 56
_cell_length_a 24.485192
_cell_length_b 7.260964
_cell_length_c 12.209820
_cell_angle_alpha 90.000000
_cell_angle_beta 105.738996
_cell_angle_gamma 90.000000
_cell_volume 2089.349597
_symmetry_space_group_name_H-M "C 2/M"
_symmetry_group_IT_number 12
_symmetry_cell_setting 'monoclinic'
loop_
_space_group_symop_operation_xyz
x,y,z
-x,y,-z
-x,-y,-z
x,-y,z
1/2+x,1/2+y,z
1/2-x,1/2+y,-z
1/2-x,1/2-y,-z
1/2+x,1/2-y,z
loop_
_atom_site_type_symbol
_atom_site_label
_atom_site_fract_x
_atom_site_fract_y
_atom_site_fract_z
Si Si1 0.641619 0.790428 0.797201
Si Si2 0.933402 0.276221 0.794540
Si Si3 0.110314 0.274774 0.006838
Si Si4 0.192566 0.722506 0.363387
Si Si5 0.654895 0.786138 0.564449
Si Si6 0.472572 0.212452 0.593598
Si Si7 0.265342 0.778468 0.841038
O O1 0.644168 0.702622 0.678371
O O2 0.708492 0.793992 0.865709
O O3 0.621575 0.000000 0.771194
O O4 0.606338 0.712435 0.879232
O O5 0.938153 0.500000 0.797104
O O6 0.933344 0.218227 0.921672
O O7 0.869443 0.230066 0.720368
O O8 0.974485 0.212451 0.718753
O O9 0.109077 0.500000 0.004094
O O10 0.174032 0.220948 0.078927
O O11 0.193174 0.500000 0.369460
O O12 0.193914 0.795178 0.488514
O O13 0.234727 0.775617 0.288198
O O14 0.593492 0.789604 0.473416
O O15 0.670376 0.000000 0.588526
O O16 0.500000 0.297328 0.500000
O O17 0.493482 0.000000 0.610746
O O18 0.263462 0.000000 0.845166
#
# Coordination Sequence:
#
# PCOD9170962 Si02
#       7
#     8   8   8   8   8   8   8
#     4  10  18  25  35  52  75 100 122 148 184 219
#     4   7  10  18  32  48  65  88 120 150 172 204
#     4   8  14  24  36  49  67  95 127 151 174 210
#     4   7  11  21  35  48  64  89 120 151 179 209
#     4   8  14  23  33  49  73  96 117 144 183 224
#     4   8  12  19  34  53  70  91 120 150 176 208
#     4   9  16  26  39  52  67  93 132 164 176 195
#
# _framework density 26.802596999999999
#
# number of rings (size 3 to 8) (size 9 to 14) (size 15 to 20)
#    0.000    3.857    0.000    3.857    0.000    0.571 
#    0.000    0.000    0.000    0.857    0.000    6.000 
#    0.000    0.571    0.000    3.000    0.000    8.571 
#
# Total GULP energy -156224.466638 kJ/mol
# GULP energy per Si atom -5579.445237 kJ/mol
# Density = 2.674159 g / cm^3
# Si number density = 26.802597 Si / 1000 Ang^3
#
#
#
# Elastic Constant Matrix: (Units=GPa)
#
#
# Indices 1 2 3 4 5 6 
#
# 1 85.2324 9.8704 63.2628 0.0000 -26.4214 0.0000
# 2 9.8704 121.9124 12.5720 0.0000 -3.8629 0.0000
# 3 63.2628 12.5720 247.0600 0.0000 -88.5232 0.0000
# 4 0.0000 0.0000 0.0000 -23.0928 0.0000 13.7061
# 5 -26.4214 -3.8629 -88.5232 0.0000 71.7156 0.0000
# 6 0.0000 0.0000 0.0000 13.7061 0.0000 -26.4281
#
#
#
# Elastic Compliance Matrix: (Units=1/GPa)
#
#
# Indices 1 2 3 4 5 6 
#
# 1 0.014639 -0.000810 -0.003210 0.000000 0.001387 0.000000
# 2 -0.000810 0.008291 -0.000289 0.000000 -0.000209 0.000000
# 3 -0.003210 -0.000289 0.007988 0.000000 0.008662 0.000000
# 4 0.000000 0.000000 0.000000 -0.062561 0.000000 -0.032445
# 5 0.001387 -0.000209 0.008662 0.000000 0.025135 0.000000
# 6 0.000000 0.000000 0.000000 -0.032445 0.000000 -0.054665
#
#
# Mechanical properties :
#
#
# Convention : Reuss Voigt Hill
#
# Bulk Modulus (GPa) = 44.84576 69.51278 57.17927
# Shear Modulus (GPa) = -110.81802 29.00559 -40.90621
#
# Velocity S-wave (km/s) = -6.43706 3.29324 -3.91090
# Velocity P-wave (km/s) = 6.20318 6.36019 0.99310
#
# Compressibility (1/GPa) = 0.02229865
#
# Stress axis : x y z
#
# Youngs Moduli (GPa) = 68.30939 120.60650 125.18938
#
# Poissons Ratio (x) = 0.09772 0.40191
# Poissons Ratio (y) = 0.05535 0.03622
# Poissons Ratio (z) = 0.21930 0.03490
#
# Static dielectric constant tensor:
#      x y z
#    x 2.104810 0.000000 -0.008660 
#    y 0.000000 2.001870 0.000000 
#    z -0.008660 0.000000 2.186740 
# 
# From -- ./inp_files/181592.got.cif
#   From: 2010.05.17/outbox.cif.g08.bks.cpg/sg12_91_cif.got.tgz:181592.got - 2010.06.03 13:09:07.
