data_PCOD9170686
_publ_section_title
;
Structure prediction by ZEFSAII (Michael W. Deem and Ramdas Pophale) SiO2 
 PCOD9170686
Probable space group: C 2/M
;
_chemical_formula_sum "Si O2"
_cell_formula_units_Z 36
_cell_length_a 13.716439
_cell_length_b 18.459448
_cell_length_c 8.577523
_cell_angle_alpha 90.000000
_cell_angle_beta 117.818067
_cell_angle_gamma 90.000000
_cell_volume 1920.822975
_symmetry_space_group_name_H-M "C 2/M"
_symmetry_group_IT_number 12
_symmetry_cell_setting 'monoclinic'
loop_
_space_group_symop_operation_xyz
x,y,z
-x,y,-z
-x,-y,-z
x,-y,z
1/2+x,1/2+y,z
1/2-x,1/2+y,-z
1/2-x,1/2-y,-z
1/2+x,1/2-y,z
loop_
_atom_site_type_symbol
_atom_site_label
_atom_site_fract_x
_atom_site_fract_y
_atom_site_fract_z
Si Si1 0.421396 0.733728 0.213610
Si Si2 0.845479 0.714731 0.469802
Si Si3 0.890633 0.918326 0.311710
Si Si4 0.000000 0.326091 0.000000
Si Si5 0.665767 0.915431 0.339661
O O1 0.542582 0.750488 0.376741
O O2 0.341147 0.767921 0.284208
O O3 0.398565 0.648087 0.197375
O O4 0.424701 0.774805 0.052758
O O5 0.750000 0.750000 0.500000
O O6 0.840829 0.629813 0.505592
O O7 0.784641 0.907903 0.344401
O O8 0.000000 0.914432 0.500000
O O9 0.884043 0.000000 0.240464
O O10 0.076596 0.376707 0.162748
O O11 0.643360 0.000000 0.343053
#
# Coordination Sequence:
#
# PCOD9170686 Si02
#       5
#     8   8   8   4   8
#     4  10  19  34  52  82 107 140 183 215 267 319
#     4  10  17  33  56  79 104 135 182 227 260 311
#     4  10  18  32  57  82 105 135 175 227 272 309
#     4  10  23  36  51  78 112 150 176 212 263 328
#     4  10  20  35  55  80 108 141 177 221 271 316
#
# _framework density 18.741968
#
# number of rings (size 3 to 8) (size 9 to 14) (size 15 to 20)
#    0.000    2.000    4.444    0.333    0.000    0.889 
#    0.000   10.556    0.000    0.000    0.000    0.000 
#    0.000    0.000    0.000    0.000    0.000    0.000 
#
# Total GULP energy -100397.968630 kJ/mol
# GULP energy per Si atom -5577.664924 kJ/mol
# Density = 1.869931 g / cm^3
# Si number density = 18.741968 Si / 1000 Ang^3
#
#
#
# Elastic Constant Matrix: (Units=GPa)
#
#
# Indices 1 2 3 4 5 6 
#
# 1 90.3112 47.8675 20.0769 0.0000 -11.8190 0.0000
# 2 47.8675 203.2891 38.3206 0.0000 -25.1126 0.0000
# 3 20.0769 38.3206 36.1093 0.0000 -17.3384 0.0000
# 4 0.0000 0.0000 0.0000 13.4955 0.0000 -7.3518
# 5 -11.8190 -25.1126 -17.3384 0.0000 30.5136 0.0000
# 6 0.0000 0.0000 0.0000 -7.3518 0.0000 34.8202
#
#
#
# Elastic Compliance Matrix: (Units=1/GPa)
#
#
# Indices 1 2 3 4 5 6 
#
# 1 0.013377 -0.002158 -0.004831 0.000000 0.000661 0.000000
# 2 -0.002158 0.006575 -0.004925 0.000000 0.001777 0.000000
# 3 -0.004831 -0.004925 0.045054 0.000000 0.019676 0.000000
# 4 0.000000 0.000000 0.000000 0.083729 0.000000 0.017678
# 5 0.000661 0.001777 0.019676 0.000000 0.045671 0.000000
# 6 0.000000 0.000000 0.000000 0.017678 0.000000 0.032451
#
#
# Mechanical properties :
#
#
# Convention : Reuss Voigt Hill
#
# Bulk Modulus (GPa) = 24.28373 60.24884 42.26629
# Shear Modulus (GPa) = 18.91007 30.66217 24.78612
#
# Velocity S-wave (km/s) = 3.17987 4.04916 3.64055
# Velocity P-wave (km/s) = 5.14462 7.35372 6.34603
#
# Compressibility (1/GPa) = 0.04117983
#
# Stress axis : x y z
#
# Youngs Moduli (GPa) = 74.75669 152.09154 22.19577
#
# Poissons Ratio (x) = 0.32815 0.10722
# Poissons Ratio (y) = 0.16129 0.10931
# Poissons Ratio (z) = 0.36111 0.74900
#
# Static dielectric constant tensor:
#      x y z
#    x 1.666970 0.000000 0.007710 
#    y 0.000000 1.673610 0.000000 
#    z 0.007710 0.000000 1.658440 
# 
# From -- ./inp_files/46666.got.cif
#   From: 2010.05.17/outbox.cif.g08.bks.cpg/sg12_24_cif.got.tgz:46666.got - 2010.06.03 13:09:07.
