data_PCOD9170871
_publ_section_title
;
Structure prediction by ZEFSAII (Michael W. Deem and Ramdas Pophale) SiO2 
 PCOD9170871
Probable space group: C 2/M
;
_chemical_formula_sum "Si O2"
_cell_formula_units_Z 38
_cell_length_a 8.891830
_cell_length_b 28.686015
_cell_length_c 8.602196
_cell_angle_alpha 90.000000
_cell_angle_beta 65.814851
_cell_angle_gamma 90.000000
_cell_volume 2001.581658
_symmetry_space_group_name_H-M "C 2/M"
_symmetry_group_IT_number 12
_symmetry_cell_setting 'monoclinic'
loop_
_space_group_symop_operation_xyz
x,y,z
-x,y,-z
-x,-y,-z
x,-y,z
1/2+x,1/2+y,z
1/2-x,1/2+y,-z
1/2-x,1/2-y,-z
1/2+x,1/2-y,z
loop_
_atom_site_type_symbol
_atom_site_label
_atom_site_fract_x
_atom_site_fract_y
_atom_site_fract_z
Si Si1 0.377972 0.266346 0.810558
Si Si2 0.500000 0.111415 0.000000
Si Si3 0.365840 0.184158 0.310719
Si Si4 0.000000 0.837305 0.000000
Si Si5 0.500000 0.120178 0.500000
Si Si6 0.737715 0.917510 0.143853
Si Si7 0.000000 0.000000 0.000000
O O1 0.491440 0.222371 0.727578
O O2 0.287980 0.288006 0.698163
O O3 0.482731 0.305566 0.855029
O O4 0.250000 0.250000 0.000000
O O5 0.417130 0.146533 0.158006
O O6 0.633973 0.079941 0.028959
O O7 0.369310 0.153376 0.464687
O O8 0.158993 0.869718 0.915158
O O9 0.394483 0.089235 0.663413
O O10 0.865237 0.959156 0.105718
#
# Coordination Sequence:
#
# PCOD9170871 Si02
#       7
#     8   4   8   4   4   8   2
#     4  12  18  31  55  85 120 171 225 257 271 332
#     4  10  17  35  63  88 118 164 211 241 297 374
#     4  11  21  33  55  85 126 174 217 246 290 347
#     4  11  19  35  60  88 116 166 214 263 281 345
#     4  10  24  41  58  90 136 162 194 253 334 364
#     4  10  22  41  67  92 119 153 200 262 318 379
#     4  10  24  44  74  98 108 146 210 254 314 396
#
# _framework density 18.984985999999999
#
# number of rings (size 3 to 8) (size 9 to 14) (size 15 to 20)
#    0.000    1.263    6.316    1.263    0.000    1.684 
#    0.000    0.000    0.000    5.053    0.000    0.000 
#    0.000    0.000    0.000    0.000    0.000    0.000 
#
# Total GULP energy -105809.853129 kJ/mol
# GULP energy per Si atom -5568.939638 kJ/mol
# Density = 1.894178 g / cm^3
# Si number density = 18.984986 Si / 1000 Ang^3
#
#
#
# Elastic Constant Matrix: (Units=GPa)
#
#
# Indices 1 2 3 4 5 6 
#
# 1 95.2976 23.8275 35.2972 0.0000 10.7330 0.0000
# 2 23.8275 87.3821 32.0853 0.0000 -1.5979 0.0000
# 3 35.2972 32.0853 55.7598 0.0000 2.4091 0.0000
# 4 0.0000 0.0000 0.0000 10.2191 0.0000 -9.2467
# 5 10.7330 -1.5979 2.4091 0.0000 29.0322 0.0000
# 6 0.0000 0.0000 0.0000 -9.2467 0.0000 6.2998
#
#
#
# Elastic Compliance Matrix: (Units=1/GPa)
#
#
# Indices 1 2 3 4 5 6 
#
# 1 0.014341 -0.000934 -0.008339 0.000000 -0.004661 0.000000
# 2 -0.000934 0.014636 -0.007909 0.000000 0.001807 0.000000
# 3 -0.008339 -0.007909 0.027749 0.000000 0.000345 0.000000
# 4 0.000000 0.000000 0.000000 -0.298237 0.000000 -0.437746
# 5 -0.004661 0.001807 0.000345 0.000000 0.036238 0.000000
# 6 0.000000 0.000000 0.000000 -0.437746 0.000000 -0.483780
#
#
# Mechanical properties :
#
#
# Convention : Reuss Voigt Hill
#
# Bulk Modulus (GPa) = 44.71889 46.76215 45.74052
# Shear Modulus (GPa) = -7.72516 18.92553 5.60019
#
# Velocity S-wave (km/s) = -2.01939 3.16075 1.71936
# Velocity P-wave (km/s) = 4.26248 6.16482 5.29971
#
# Compressibility (1/GPa) = 0.02236192
#
# Stress axis : x y z
#
# Youngs Moduli (GPa) = 69.73185 68.32684 36.03736
#
# Poissons Ratio (x) = 0.06379 0.30053
# Poissons Ratio (y) = 0.06510 0.28501
# Poissons Ratio (z) = 0.58152 0.54037
#
# Static dielectric constant tensor:
#      x y z
#    x 1.737580 0.000000 -0.001140 
#    y 0.000000 1.620230 0.000000 
#    z -0.001140 0.000000 1.680280 
# 
# From -- ./inp_files/41503.got.cif
#   From: 2010.05.17/outbox.cif.g08.bks.cpg/sg12_21_cif.got.tgz:41503.got - 2010.06.03 13:09:07.
