data_PCOD9170439
_publ_section_title
;
Structure prediction by ZEFSAII (Michael W. Deem and Ramdas Pophale) SiO2 
 PCOD9170439
Probable space group: C 2/M
;
_chemical_formula_sum "Si O2"
_cell_formula_units_Z 58
_cell_length_a 26.545799
_cell_length_b 7.366152
_cell_length_c 23.419745
_cell_angle_alpha 90.000000
_cell_angle_beta 36.774538
_cell_angle_gamma 90.000000
_cell_volume 2741.602362
_symmetry_space_group_name_H-M "C 2/M"
_symmetry_group_IT_number 12
_symmetry_cell_setting 'monoclinic'
loop_
_space_group_symop_operation_xyz
x,y,z
-x,y,-z
-x,-y,-z
x,-y,z
1/2+x,1/2+y,z
1/2-x,1/2+y,-z
1/2-x,1/2-y,-z
1/2+x,1/2-y,z
loop_
_atom_site_type_symbol
_atom_site_label
_atom_site_fract_x
_atom_site_fract_y
_atom_site_fract_z
Si Si1 0.481440 0.221113 0.753101
Si Si2 0.341364 0.216029 0.441209
Si Si3 0.500000 0.500000 0.000000
Si Si4 0.879922 0.290957 0.048846
Si Si5 0.558626 0.220296 0.340021
Si Si6 0.877358 0.278546 0.535932
Si Si7 0.830531 0.716421 0.967798
Si Si8 0.281433 0.220487 0.734753
O O1 0.578715 0.281109 0.668271
O O2 0.452205 0.273405 0.715905
O O3 0.414400 0.286234 0.859892
O O4 0.479734 0.000000 0.757167
O O5 0.250000 0.250000 0.500000
O O6 0.348678 0.282933 0.499428
O O7 0.352263 0.000000 0.435060
O O8 0.453062 0.658558 0.003293
O O9 0.908541 0.500000 0.015096
O O10 0.808059 0.286751 0.162763
O O11 0.834977 0.226210 0.030174
O O12 0.475430 0.275679 0.450657
O O13 0.645662 0.279872 0.287825
O O14 0.559094 0.000000 0.340682
O O15 0.876882 0.500000 0.537915
O O16 0.815590 0.220256 0.642066
O O17 0.835172 0.500000 0.965967
O O18 0.750000 0.750000 0.000000
O O19 0.277240 0.000000 0.738591
#
# Coordination Sequence:
#
# PCOD9170439 Si02
#       8
#     8   8   2   8   8   8   8   8
#     4   8  15  30  50  77 111 150 188 232 301 367
#     4   9  17  32  50  71 102 139 185 240 285 343
#     4  12  26  52  72  82 122 176 222 266 322 394
#     4  11  25  44  66  95 127 165 216 272 318 374
#     4   8  13  23  49  84 119 153 191 239 291 368
#     4   8  15  27  47  80 114 145 192 240 288 352
#     4  10  21  37  62  95 129 160 202 262 325 387
#     4  10  17  31  56  86 116 154 198 242 307 368
#
# _framework density 21.155512000000002
#
# number of rings (size 3 to 8) (size 9 to 14) (size 15 to 20)
#    0.000    2.759    0.690    3.103    0.966    2.759 
#    2.483    1.379    0.000    4.966    0.000    0.000 
#    0.000    0.000    0.000    0.000    0.000    0.000 
#
# Total GULP energy -161512.548517 kJ/mol
# GULP energy per Si atom -5569.398225 kJ/mol
# Density = 2.110736 g / cm^3
# Si number density = 21.155512 Si / 1000 Ang^3
#
#
#
# Elastic Constant Matrix: (Units=GPa)
#
#
# Indices 1 2 3 4 5 6 
#
# 1 83.6689 23.9937 12.2164 0.0048 -18.0678 0.0048
# 2 23.9937 100.4100 9.4584 0.0285 -0.8751 -0.0103
# 3 12.2164 9.4584 94.1407 0.0209 3.3902 -0.0077
# 4 0.0048 0.0285 0.0209 -0.1455 -0.0117 -1.3484
# 5 -18.0678 -0.8751 3.3902 -0.0117 22.6293 -0.0029
# 6 0.0048 -0.0103 -0.0077 -1.3484 -0.0029 14.3551
#
#
#
# Elastic Compliance Matrix: (Units=1/GPa)
#
#
# Indices 1 2 3 4 5 6 
#
# 1 0.016103 -0.003526 -0.002205 -0.000780 0.013051 -0.000080
# 2 -0.003526 0.010833 -0.000548 0.001090 -0.002314 0.000111
# 3 -0.002205 -0.000548 0.011087 0.000875 -0.003442 0.000088
# 4 -0.000780 0.001090 0.000875 -3.674637 -0.002649 -0.345157
# 5 0.013051 -0.002314 -0.003442 -0.002649 0.055036 -0.000245
# 6 -0.000080 0.000111 0.000088 -0.345157 -0.000245 0.037241
#
#
# Mechanical properties :
#
#
# Convention : Reuss Voigt Hill
#
# Bulk Modulus (GPa) = 39.26927 41.06185 40.16556
# Shear Modulus (GPa) = -1.41913 22.87120 10.72603
#
# Velocity S-wave (km/s) = -0.81992 3.29157 2.25413
# Velocity P-wave (km/s) = 4.20787 5.82216 5.07955
#
# Compressibility (1/GPa) = 0.02546521
#
# Stress axis : x y z
#
# Youngs Moduli (GPa) = 62.09849 92.31101 90.19262
#
# Poissons Ratio (x) = 0.32552 0.19890
# Poissons Ratio (y) = 0.21898 0.04940
# Poissons Ratio (z) = 0.13694 0.05056
#
# Static dielectric constant tensor:
#      x y z
#    x 1.755580 -0.000090 -0.002450 
#    y -0.000090 1.919790 0.000000 
#    z -0.002450 0.000000 1.767070 
# 
# From -- ./inp_files/324550.got.cif
#   From: 2010.05.17/outbox.cif.g08.bks.cpg/sg12_163_cif.got.tgz:324550.got - 2010.06.03 13:09:07.
