data_PCOD9170915
_publ_section_title
;
Structure prediction by ZEFSAII (Michael W. Deem and Ramdas Pophale) SiO2 
 PCOD9170915
Probable space group: C 2/M
;
_chemical_formula_sum "Si O2"
_cell_formula_units_Z 50
_cell_length_a 8.840759
_cell_length_b 18.328632
_cell_length_c 16.028706
_cell_angle_alpha 90.000000
_cell_angle_beta 99.821723
_cell_angle_gamma 90.000000
_cell_volume 2559.208280
_symmetry_space_group_name_H-M "C 2/M"
_symmetry_group_IT_number 12
_symmetry_cell_setting 'monoclinic'
loop_
_space_group_symop_operation_xyz
x,y,z
-x,y,-z
-x,-y,-z
x,-y,z
1/2+x,1/2+y,z
1/2-x,1/2+y,-z
1/2-x,1/2-y,-z
1/2+x,1/2-y,z
loop_
_atom_site_type_symbol
_atom_site_label
_atom_site_fract_x
_atom_site_fract_y
_atom_site_fract_z
Si Si1 0.087308 0.687127 0.756968
Si Si2 0.000000 0.000000 0.500000
Si Si3 0.582045 0.339856 0.819533
Si Si4 0.023825 0.141789 0.617879
Si Si5 0.205789 0.914075 0.121033
Si Si6 0.316722 0.828086 0.975939
Si Si7 0.800880 0.265377 0.641882
O O1 0.050835 0.752777 0.817213
O O2 0.158736 0.618051 0.807780
O O3 0.216993 0.722513 0.709522
O O4 0.934389 0.681325 0.688201
O O5 0.994626 0.934663 0.571661
O O6 0.564442 0.364681 0.721333
O O7 0.452569 0.378947 0.861651
O O8 0.748010 0.346771 0.878213
O O9 0.885399 0.200450 0.601231
O O10 0.169762 0.183840 0.591895
O O11 0.245851 0.886597 0.032881
O O12 0.196536 0.000000 0.125156
O O13 0.250000 0.750000 0.000000
O O14 0.000000 0.671660 0.000000
#
# Coordination Sequence:
#
# PCOD9170915 Si02
#       7
#     8   2   8   8   8   8   8
#     4  10  17  36  64  99 121 172 229 259 306 393
#     4  12  28  44  64 110 132 158 210 284 368 380
#     4  10  22  41  67  93 127 189 223 268 327 400
#     4  10  22  41  69  96 130 167 222 273 327 411
#     4  12  25  39  61  99 135 175 219 289 328 379
#     4  12  26  39  65  96 136 181 234 280 315 385
#     4   8  18  37  69  94 120 174 224 250 309 406
#
# _framework density 19.537292000000001
#
# number of rings (size 3 to 8) (size 9 to 14) (size 15 to 20)
#    0.000    1.920    4.800    1.440    5.600    2.240 
#    1.440    0.000    0.000    3.840    0.000    0.000 
#    0.000    0.000    0.000    0.000    0.000    0.000 
#
# Total GULP energy -139219.284929 kJ/mol
# GULP energy per Si atom -5568.771397 kJ/mol
# Density = 1.949282 g / cm^3
# Si number density = 19.537292 Si / 1000 Ang^3
#
#
#
# Elastic Constant Matrix: (Units=GPa)
#
#
# Indices 1 2 3 4 5 6 
#
# 1 110.8617 68.6970 31.1159 0.0000 -4.0330 0.0000
# 2 68.6970 148.8198 30.7268 0.0000 13.7002 0.0000
# 3 31.1159 30.7268 77.3770 0.0000 -31.9293 0.0000
# 4 0.0000 0.0000 0.0000 35.1321 0.0000 -10.9147
# 5 -4.0330 13.7002 -31.9293 0.0000 -23.8955 0.0000
# 6 0.0000 0.0000 0.0000 -10.9147 0.0000 -16.5129
#
#
#
# Elastic Compliance Matrix: (Units=1/GPa)
#
#
# Indices 1 2 3 4 5 6 
#
# 1 0.013295 -0.005357 -0.003489 0.000000 -0.000653 0.000000
# 2 -0.005357 0.008594 0.000740 0.000000 0.004843 0.000000
# 3 -0.003489 0.000740 0.009315 0.000000 -0.011434 0.000000
# 4 0.000000 0.000000 0.000000 0.023615 0.000000 -0.015609
# 5 -0.000653 0.004843 -0.011434 0.000000 -0.023684 0.000000
# 6 0.000000 0.000000 0.000000 -0.015609 0.000000 -0.050242
#
#
# Mechanical properties :
#
#
# Convention : Reuss Voigt Hill
#
# Bulk Modulus (GPa) = 66.70114 66.45976 66.58045
# Shear Modulus (GPa) = 2379.81254 12.71265 1196.26260
#
# Velocity S-wave (km/s) = 34.93897 2.55362 24.77148
# Velocity P-wave (km/s) = 40.76588 6.54105 29.19454
#
# Compressibility (1/GPa) = 0.01499225
#
# Stress axis : x y z
#
# Youngs Moduli (GPa) = 75.21609 116.36460 107.35506
#
# Poissons Ratio (x) = 0.62333 0.37454
# Poissons Ratio (y) = 0.40291 -0.07942
# Poissons Ratio (z) = 0.26241 -0.08609
#
# Static dielectric constant tensor:
#      x y z
#    x 1.716400 0.000000 0.007480 
#    y 0.000000 1.639180 0.000000 
#    z 0.007480 0.000000 1.764100 
# 
# From -- ./inp_files/256689.got.cif
#   From: 2010.05.17/outbox.cif.g08.bks.cpg/sg12_129_cif.got.tgz:256689.got - 2010.06.03 13:09:07.
