data_PCOD9170679
_publ_section_title
;
Structure prediction by ZEFSAII (Michael W. Deem and Ramdas Pophale) SiO2 
 PCOD9170679
Probable space group: C 2/M
;
_chemical_formula_sum "Si O2"
_cell_formula_units_Z 48
_cell_length_a 11.921748
_cell_length_b 14.892759
_cell_length_c 21.816780
_cell_angle_alpha 90.000000
_cell_angle_beta 31.049985
_cell_angle_gamma 90.000000
_cell_volume 1997.905888
_symmetry_space_group_name_H-M "C 2/M"
_symmetry_group_IT_number 12
_symmetry_cell_setting 'monoclinic'
loop_
_space_group_symop_operation_xyz
x,y,z
-x,y,-z
-x,-y,-z
x,-y,z
1/2+x,1/2+y,z
1/2-x,1/2+y,-z
1/2-x,1/2-y,-z
1/2+x,1/2-y,z
loop_
_atom_site_type_symbol
_atom_site_label
_atom_site_fract_x
_atom_site_fract_y
_atom_site_fract_z
Si Si1 0.099700 0.599384 0.129923
Si Si2 0.917977 0.287591 0.107179
Si Si3 0.071851 0.684027 0.552410
Si Si4 0.968149 0.099331 0.322836
Si Si5 0.255402 0.104407 0.799756
Si Si6 0.391507 0.631519 0.612577
O O1 0.173334 0.500000 0.077261
O O2 0.072641 0.659220 0.081987
O O3 0.850448 0.598411 0.268768
O O4 0.210915 0.621562 0.142816
O O5 0.672444 0.332340 0.217742
O O6 0.908058 0.185864 0.137331
O O7 0.000000 0.292042 0.000000
O O8 0.250000 0.750000 0.500000
O O9 0.219388 0.633146 0.432355
O O10 0.957238 0.624549 0.658928
O O11 0.899112 0.759454 0.611596
O O12 0.980432 0.092365 0.390400
O O13 0.003737 0.000000 0.278609
O O14 0.195182 0.000000 0.820844
O O15 0.500000 0.603555 0.500000
#
# Coordination Sequence:
#
# PCOD9170679 Si02
#       6
#     8   8   8   8   8   8
#     4  10  21  37  61  92 117 150 203 250 291 347
#     4  11  23  40  62  86 121 160 197 246 303 348
#     4  10  17  33  55  86 117 158 182 236 303 357
#     4  10  20  34  55  85 115 150 195 240 290 350
#     4  11  22  39  65  91 119 155 200 248 295 351
#     4  10  18  28  54  85 118 151 187 235 292 353
#
# _framework density 24.025155999999999
#
# number of rings (size 3 to 8) (size 9 to 14) (size 15 to 20)
#    0.000    1.667    5.000    4.500    0.000    5.000 
#    0.000    0.000    0.000    6.000    0.000    0.000 
#    0.000    0.000    0.000    0.000    0.000    0.000 
#
# Total GULP energy -133799.827484 kJ/mol
# GULP energy per Si atom -5574.992812 kJ/mol
# Density = 2.397047 g / cm^3
# Si number density = 24.025156 Si / 1000 Ang^3
#
#
#
# Elastic Constant Matrix: (Units=GPa)
#
#
# Indices 1 2 3 4 5 6 
#
# 1 41.2769 40.1745 28.7944 -0.0001 -6.0174 0.0034
# 2 40.1745 184.1271 55.0075 0.0001 4.5357 0.0004
# 3 28.7944 55.0075 127.0461 0.0022 11.9482 0.0069
# 4 -0.0001 0.0001 0.0022 -13.5291 -0.0008 46.2434
# 5 -6.0174 4.5357 11.9482 -0.0008 31.8282 -0.0033
# 6 0.0034 0.0004 0.0069 46.2434 -0.0033 47.1920
#
#
#
# Elastic Compliance Matrix: (Units=1/GPa)
#
#
# Indices 1 2 3 4 5 6 
#
# 1 0.036305 -0.006234 -0.006487 -0.000001 0.010187 0.000000
# 2 -0.006234 0.007309 -0.001599 0.000000 -0.001620 0.000000
# 3 -0.006487 -0.001599 0.010498 -0.000001 -0.004940 -0.000001
# 4 -0.000001 0.000000 -0.000001 -0.016994 0.000001 0.016653
# 5 0.010187 -0.001620 -0.004940 0.000001 0.035430 0.000001
# 6 0.000000 0.000000 -0.000001 0.016653 0.000001 0.004872
#
#
# Mechanical properties :
#
#
# Convention : Reuss Voigt Hill
#
# Bulk Modulus (GPa) = 39.26051 66.71145 52.98598
# Shear Modulus (GPa) = 43.64858 28.32981 35.98920
#
# Velocity S-wave (km/s) = 4.26700 3.43763 3.87457
# Velocity P-wave (km/s) = 6.37599 6.60182 6.48989
#
# Compressibility (1/GPa) = 0.02547089
#
# Stress axis : x y z
#
# Youngs Moduli (GPa) = 27.54453 136.81837 95.25231
#
# Poissons Ratio (x) = 0.85296 0.61792
# Poissons Ratio (y) = 0.17172 0.15233
# Poissons Ratio (z) = 0.17869 0.21881
#
# Static dielectric constant tensor:
#      x y z
#    x 1.525710 -0.000040 0.170850 
#    y -0.000040 2.220900 0.000020 
#    z 0.170850 0.000020 1.834920 
# 
# From -- ./inp_files/340057.got.cif
#   From: 2010.05.17/outbox.cif.g08.bks.cpg/sg12_171_cif.got.tgz:340057.got - 2010.06.03 13:09:07.
