data_PCOD9170147
_publ_section_title
;
Structure prediction by ZEFSAII (Michael W. Deem and Ramdas Pophale) SiO2 
 PCOD9170147
Probable space group: C 2/M
;
_chemical_formula_sum "Si O2"
_cell_formula_units_Z 44
_cell_length_a 13.703024
_cell_length_b 11.399244
_cell_length_c 13.095788
_cell_angle_alpha 90.000000
_cell_angle_beta 51.920013
_cell_angle_gamma 90.000000
_cell_volume 1610.207628
_symmetry_space_group_name_H-M "C 2/M"
_symmetry_group_IT_number 12
_symmetry_cell_setting 'monoclinic'
loop_
_space_group_symop_operation_xyz
x,y,z
-x,y,-z
-x,-y,-z
x,-y,z
1/2+x,1/2+y,z
1/2-x,1/2+y,-z
1/2-x,1/2-y,-z
1/2+x,1/2-y,z
loop_
_atom_site_type_symbol
_atom_site_label
_atom_site_fract_x
_atom_site_fract_y
_atom_site_fract_z
Si Si1 0.738521 0.000000 0.146304
Si Si2 0.801807 0.500000 0.537189
Si Si3 0.748700 0.000000 0.894686
Si Si4 0.484768 0.500000 0.224137
Si Si5 0.254516 0.240670 0.190628
Si Si6 0.125301 0.245917 0.471400
Si Si7 0.471479 0.000000 0.248677
Si Si8 0.993219 0.246549 0.238354
O O1 0.794467 0.122544 0.152185
O O2 0.587656 0.000000 0.254963
O O3 0.751345 0.000000 0.015548
O O4 0.654930 0.500000 0.643694
O O5 0.861890 0.385647 0.546246
O O6 0.843515 0.500000 0.393118
O O7 0.690333 0.878002 0.894034
O O8 0.897964 0.000000 0.772109
O O9 0.496661 0.629576 0.168764
O O10 0.231600 0.208616 0.324079
O O11 0.123579 0.249553 0.214088
O O12 0.108015 0.228700 0.604075
O O13 0.000000 0.201192 0.500000
O O14 0.482332 0.127608 0.192421
#
# Coordination Sequence:
#
# PCOD9170147 Si02
#       8
#     4   4   4   4   8   8   4   8
#     4  10  17  30  49  69  94 124 160 197 231 267
#     4  10  18  29  49  72  99 121 153 195 232 283
#     4  10  20  32  46  70 102 126 151 190 237 286
#     4  10  20  31  44  71 104 131 148 178 237 293
#     4   9  17  29  48  71  94 120 155 197 237 276
#     4   9  16  28  47  70  93 122 157 196 235 270
#     4   8  16  28  45  68  89 118 156 192 223 262
#     4   8  16  29  45  68  99 124 150 186 232 286
#
# _framework density 27.325669999999999
#
# number of rings (size 3 to 8) (size 9 to 14) (size 15 to 20)
#    0.000    2.909    0.000    2.455    0.000    5.091 
#    0.000    3.636    0.000    3.273    0.000    0.000 
#    0.000   16.000    0.000    0.000    0.000    0.000 
#
# Total GULP energy -122664.660160 kJ/mol
# GULP energy per Si atom -5575.666371 kJ/mol
# Density = 2.726348 g / cm^3
# Si number density = 27.325670 Si / 1000 Ang^3
#
#
#
# Elastic Constant Matrix: (Units=GPa)
#
#
# Indices 1 2 3 4 5 6 
#
# 1 113.0524 23.5043 26.9203 0.0000 15.0073 0.0000
# 2 23.5043 265.2616 19.8329 0.0000 13.8227 0.0000
# 3 26.9203 19.8329 118.7603 0.0000 8.0746 0.0000
# 4 0.0000 0.0000 0.0000 -1.7769 0.0000 5.6957
# 5 15.0073 13.8227 8.0746 0.0000 30.3968 0.0000
# 6 0.0000 0.0000 0.0000 5.6957 0.0000 -11.5605
#
#
#
# Elastic Compliance Matrix: (Units=1/GPa)
#
#
# Indices 1 2 3 4 5 6 
#
# 1 0.009958 -0.000524 -0.001886 0.000000 -0.004177 0.000000
# 2 -0.000524 0.003923 -0.000441 0.000000 -0.001408 0.000000
# 3 -0.001886 -0.000441 0.009007 0.000000 -0.001261 0.000000
# 4 0.000000 0.000000 0.000000 0.971612 0.000000 0.478697
# 5 -0.004177 -0.001408 -0.001261 0.000000 0.035936 0.000000
# 6 0.000000 0.000000 0.000000 0.478697 0.000000 0.149345
#
#
# Mechanical properties :
#
#
# Convention : Reuss Voigt Hill
#
# Bulk Modulus (GPa) = 58.18190 70.84325 64.51257
# Shear Modulus (GPa) = 4.19741 31.86632 18.03186
#
# Velocity S-wave (km/s) = 1.24073 3.41862 2.57161
# Velocity P-wave (km/s) = 4.83640 6.44705 5.69891
#
# Compressibility (1/GPa) = 0.01718748
#
# Stress axis : x y z
#
# Youngs Moduli (GPa) = 100.42284 254.93371 111.02325
#
# Poissons Ratio (x) = 0.13350 0.20936
# Poissons Ratio (y) = 0.05259 0.04892
# Poissons Ratio (z) = 0.18937 0.11233
#
# Static dielectric constant tensor:
#      x y z
#    x 2.142960 0.000000 -0.083820 
#    y 0.000000 2.151100 0.000000 
#    z -0.083820 0.000000 2.174010 
# 
# From -- ./inp_files/154455.got.cif
#   From: 2010.05.17/outbox.cif.g08.bks.cpg/sg12_78_cif.got.tgz:154455.got - 2010.06.03 13:09:07.
