data_PCOD9170942
_publ_section_title
;
Structure prediction by ZEFSAII (Michael W. Deem and Ramdas Pophale) SiO2 
 PCOD9170942
Probable space group: C 2/M
;
_chemical_formula_sum "Si O2"
_cell_formula_units_Z 44
_cell_length_a 12.114077
_cell_length_b 14.578807
_cell_length_c 11.589166
_cell_angle_alpha 90.000000
_cell_angle_beta 95.962756
_cell_angle_gamma 90.000000
_cell_volume 2035.674928
_symmetry_space_group_name_H-M "C 2/M"
_symmetry_group_IT_number 12
_symmetry_cell_setting 'monoclinic'
loop_
_space_group_symop_operation_xyz
x,y,z
-x,y,-z
-x,-y,-z
x,-y,z
1/2+x,1/2+y,z
1/2-x,1/2+y,-z
1/2-x,1/2-y,-z
1/2+x,1/2-y,z
loop_
_atom_site_type_symbol
_atom_site_label
_atom_site_fract_x
_atom_site_fract_y
_atom_site_fract_z
Si Si1 0.580261 0.601069 0.742177
Si Si2 0.396573 0.396670 0.902264
Si Si3 0.738753 0.754429 0.209125
Si Si4 0.093138 0.662803 0.377297
Si Si5 0.158232 0.398938 0.618888
Si Si6 0.000000 0.832071 0.500000
O O1 0.624759 0.500000 0.774334
O O2 0.458294 0.606577 0.784890
O O3 0.656732 0.680387 0.803268
O O4 0.567837 0.613554 0.603492
O O5 0.350424 0.500000 0.914851
O O6 0.312385 0.311702 0.893684
O O7 0.500000 0.386228 0.000000
O O8 0.648474 0.820332 0.260613
O O9 0.779790 0.682160 0.310165
O O10 0.164756 0.610214 0.481138
O O11 0.074663 0.762137 0.434120
O O12 0.972171 0.615711 0.362862
O O13 0.195281 0.500000 0.658704
#
# Coordination Sequence:
#
# PCOD9170942 Si02
#       6
#     8   8   8   8   8   4
#     4  11  23  37  57  87 117 149 188 230 278 333
#     4  10  23  43  62  81 109 145 188 238 288 337
#     4  12  20  36  58  84 110 144 192 233 277 328
#     4  10  19  33  51  76 120 154 171 222 270 327
#     4  10  20  33  51  78 115 155 188 216 264 334
#     4  10  17  38  53  78 120 156 177 220 269 332
#
# _framework density 21.614452
#
# number of rings (size 3 to 8) (size 9 to 14) (size 15 to 20)
#    0.000    1.636    5.455    2.455    0.000    2.182 
#    0.000    0.000    0.000    0.545    0.000    0.000 
#    0.000    0.000    0.000    0.000    0.000    0.000 
#
# Total GULP energy -122824.078981 kJ/mol
# GULP energy per Si atom -5582.912681 kJ/mol
# Density = 2.156526 g / cm^3
# Si number density = 21.614452 Si / 1000 Ang^3
#
#
#
# Elastic Constant Matrix: (Units=GPa)
#
#
# Indices 1 2 3 4 5 6 
#
# 1 46.2322 29.7994 4.4719 0.0000 6.5171 0.0000
# 2 29.7994 144.4493 14.1836 0.0000 16.0589 0.0000
# 3 4.4719 14.1836 44.7901 0.0000 18.1849 0.0000
# 4 0.0000 0.0000 0.0000 -3.5663 0.0000 -1.8253
# 5 6.5171 16.0589 18.1849 0.0000 31.3597 0.0000
# 6 0.0000 0.0000 0.0000 -1.8253 0.0000 9.3773
#
#
#
# Elastic Compliance Matrix: (Units=1/GPa)
#
#
# Indices 1 2 3 4 5 6 
#
# 1 0.025166 -0.004895 0.000187 0.000000 -0.002832 0.000000
# 2 -0.004895 0.008331 -0.001086 0.000000 -0.002619 0.000000
# 3 0.000187 -0.001086 0.029352 0.000000 -0.016503 0.000000
# 4 0.000000 0.000000 0.000000 -0.254999 0.000000 -0.049634
# 5 -0.002832 -0.002619 -0.016503 0.000000 0.043388 0.000000
# 6 0.000000 0.000000 0.000000 -0.049634 0.000000 0.096979
#
#
# Mechanical properties :
#
#
# Convention : Reuss Voigt Hill
#
# Bulk Modulus (GPa) = 19.50812 36.93127 28.21970
# Shear Modulus (GPa) = -216.36984 19.90193 -98.23395
#
# Velocity S-wave (km/s) = -10.01607 3.03771 -6.74885
# Velocity P-wave (km/s) = 11.16768 5.42467 6.90253
#
# Compressibility (1/GPa) = 0.05126070
#
# Stress axis : x y z
#
# Youngs Moduli (GPa) = 39.73570 120.04074 34.06923
#
# Poissons Ratio (x) = 0.58763 -0.00638
# Poissons Ratio (y) = 0.19452 0.03700
# Poissons Ratio (z) = -0.00744 0.13036
#
# Static dielectric constant tensor:
#      x y z
#    x 1.812490 0.000000 0.005790 
#    y 0.000000 1.796440 0.000000 
#    z 0.005790 0.000000 1.827480 
# 
# From -- ./inp_files/142104.got.cif
#   From: 2010.05.17/outbox.cif.g08.bks.cpg/sg12_72_cif.got.tgz:142104.got - 2010.06.03 13:09:07.
