data_PCOD9170655
_publ_section_title
;
Structure prediction by ZEFSAII (Michael W. Deem and Ramdas Pophale) SiO2 
 PCOD9170655
Probable space group: C 2/M
;
_chemical_formula_sum "Si O2"
_cell_formula_units_Z 64
_cell_length_a 18.270151
_cell_length_b 18.094718
_cell_length_c 11.828746
_cell_angle_alpha 90.000000
_cell_angle_beta 82.649337
_cell_angle_gamma 90.000000
_cell_volume 3878.365658
_symmetry_space_group_name_H-M "C 2/M"
_symmetry_group_IT_number 12
_symmetry_cell_setting 'monoclinic'
loop_
_space_group_symop_operation_xyz
x,y,z
-x,y,-z
-x,-y,-z
x,-y,z
1/2+x,1/2+y,z
1/2-x,1/2+y,-z
1/2-x,1/2-y,-z
1/2+x,1/2-y,z
loop_
_atom_site_type_symbol
_atom_site_label
_atom_site_fract_x
_atom_site_fract_y
_atom_site_fract_z
Si Si1 0.831982 0.834048 0.683391
Si Si2 0.257925 0.412993 0.292047
Si Si3 0.282404 0.167008 0.470540
Si Si4 0.073571 0.086091 0.152022
Si Si5 0.367204 0.712708 0.024251
Si Si6 0.699627 0.801196 0.140423
Si Si7 0.921897 0.751692 0.467826
Si Si8 0.919259 0.158777 0.236088
O O1 0.758858 0.860837 0.632933
O O2 0.875488 0.893089 0.750086
O O3 0.808044 0.767059 0.770519
O O4 0.884715 0.800839 0.575029
O O5 0.254970 0.500000 0.285024
O O6 0.237635 0.383294 0.419917
O O7 0.201657 0.374403 0.215368
O O8 0.341716 0.385041 0.253243
O O9 0.250000 0.250000 0.500000
O O10 0.368661 0.183598 0.448337
O O11 0.989378 0.107288 0.198228
O O12 0.080089 0.000000 0.120743
O O13 0.100127 0.142223 0.048823
O O14 0.280989 0.698796 0.069008
O O15 0.410209 0.716515 0.133900
O O16 0.362048 0.783252 0.941763
O O17 0.928968 0.800721 0.353647
O O18 0.000000 0.727356 0.500000
#
# Coordination Sequence:
#
# PCOD9170655 Si02
#       8
#     8   8   8   8   8   8   8   8
#     4  10  18  35  56  76 106 148 185 221 269 319
#     4  11  20  30  52  81 108 142 184 227 279 329
#     4  10  17  33  53  75 107 140 177 229 269 315
#     4  11  23  35  49  76 122 157 179 216 263 328
#     4   9  20  33  53  70  98 149 196 223 263 302
#     4   9  17  35  53  73  96 133 191 246 263 304
#     4  11  19  33  57  83 106 138 180 227 277 321
#     4  11  20  34  50  79 114 151 184 214 258 332
#
# _framework density 16.501795999999999
#
# number of rings (size 3 to 8) (size 9 to 14) (size 15 to 20)
#    0.000    1.750    6.250    1.500    0.000    3.500 
#    0.000    0.625    0.000    0.375    0.000    0.000 
#    0.000   13.000    0.000    0.000    0.000    0.000 
#
# Total GULP energy -178264.016500 kJ/mol
# GULP energy per Si atom -5570.750516 kJ/mol
# Density = 1.646424 g / cm^3
# Si number density = 16.501796 Si / 1000 Ang^3
#
#
#
# Elastic Constant Matrix: (Units=GPa)
#
#
# Indices 1 2 3 4 5 6 
#
# 1 82.9659 41.3028 12.6641 0.0000 -9.2209 0.0000
# 2 41.3028 70.1408 31.2652 0.0000 11.9396 0.0000
# 3 12.6641 31.2652 57.0315 0.0000 -27.5641 0.0000
# 4 0.0000 0.0000 0.0000 12.0409 0.0000 0.7320
# 5 -9.2209 11.9396 -27.5641 0.0000 -14.9187 0.0000
# 6 0.0000 0.0000 0.0000 0.7320 0.0000 12.7537
#
#
#
# Elastic Compliance Matrix: (Units=1/GPa)
#
#
# Indices 1 2 3 4 5 6 
#
# 1 0.014704 -0.005849 -0.003547 0.000000 -0.007217 0.000000
# 2 -0.005849 0.014999 0.000330 0.000000 0.015009 0.000000
# 3 -0.003547 0.000330 0.010210 0.000000 -0.016408 0.000000
# 4 0.000000 0.000000 0.000000 0.083341 0.000000 -0.004784
# 5 -0.007217 0.015009 -0.016408 0.000000 -0.020241 0.000000
# 6 0.000000 0.000000 0.000000 -0.004784 0.000000 0.078683
#
#
# Mechanical properties :
#
#
# Convention : Reuss Voigt Hill
#
# Bulk Modulus (GPa) = 45.90806 42.28913 44.09860
# Shear Modulus (GPa) = 24.14417 10.30226 17.22322
#
# Velocity S-wave (km/s) = 3.82923 2.50133 3.23417
# Velocity P-wave (km/s) = 6.88702 5.83308 6.38185
#
# Compressibility (1/GPa) = 0.02178267
#
# Stress axis : x y z
#
# Youngs Moduli (GPa) = 68.00697 66.66974 97.94054
#
# Poissons Ratio (x) = 0.38997 0.34735
# Poissons Ratio (y) = 0.39780 -0.03235
# Poissons Ratio (z) = 0.24119 -0.02202
#
# Static dielectric constant tensor:
#      x y z
#    x 1.582280 0.000000 0.012510 
#    y 0.000000 1.519130 0.000000 
#    z 0.012510 0.000000 1.603190 
# 
# From -- ./inp_files/157815.got.cif
#   From: 2010.05.17/outbox.cif.g08.bks.cpg/sg12_79_cif.got.tgz:157815.got - 2010.06.03 13:09:07.
