data_PCOD9170017
_publ_section_title
;
Structure prediction by ZEFSAII (Michael W. Deem and Ramdas Pophale) SiO2 
 PCOD9170017
Probable space group: C 2/M
;
_chemical_formula_sum "Si O2"
_cell_formula_units_Z 64
_cell_length_a 23.392641
_cell_length_b 15.743173
_cell_length_c 16.407295
_cell_angle_alpha 90.000000
_cell_angle_beta 36.467448
_cell_angle_gamma 90.000000
_cell_volume 3591.389096
_symmetry_space_group_name_H-M "C 2/M"
_symmetry_group_IT_number 12
_symmetry_cell_setting 'monoclinic'
loop_
_space_group_symop_operation_xyz
x,y,z
-x,y,-z
-x,-y,-z
x,-y,z
1/2+x,1/2+y,z
1/2-x,1/2+y,-z
1/2-x,1/2-y,-z
1/2+x,1/2-y,z
loop_
_atom_site_type_symbol
_atom_site_label
_atom_site_fract_x
_atom_site_fract_y
_atom_site_fract_z
Si Si1 0.732614 0.595650 0.944449
Si Si2 0.310789 0.903041 0.314826
Si Si3 0.658510 0.906653 0.896601
Si Si4 0.618652 0.905559 0.584266
Si Si5 0.360483 0.728545 0.520410
Si Si6 0.190516 0.241610 0.238607
Si Si7 0.089217 0.626453 0.141743
Si Si8 0.569608 0.688802 0.219538
O O1 0.733793 0.500000 0.909738
O O2 0.763565 0.669044 0.844592
O O3 0.813075 0.601073 0.924192
O O4 0.629314 0.616467 0.104181
O O5 0.373595 0.896044 0.160012
O O6 0.363008 0.891699 0.340601
O O7 0.226387 0.834884 0.400484
O O8 0.272391 0.000000 0.360001
O O9 0.728880 0.829811 0.838360
O O10 0.707267 0.000000 0.844399
O O11 0.584162 0.906188 0.055609
O O12 0.658102 0.822248 0.494892
O O13 0.503804 0.903974 0.702551
O O14 0.655411 0.000000 0.519952
O O15 0.366408 0.743750 0.610852
O O16 0.457219 0.687387 0.371266
O O17 0.124571 0.209405 0.240532
O O18 0.084214 0.727846 0.147561
#
# Coordination Sequence:
#
# PCOD9170017 Si02
#       8
#     8   8   8   8   8   8   8   8
#     4  11  20  32  53  78 109 140 172 209 251 308
#     4   9  20  35  50  73 100 130 170 215 257 302
#     4  10  17  29  51  73  99 129 161 207 257 299
#     4  10  20  34  52  74 100 130 170 213 259 308
#     4  10  21  34  55  73 104 137 172 212 257 307
#     4  10  19  34  49  76 106 135 172 209 250 301
#     4  10  18  32  50  74 102 131 166 207 254 304
#     4  10  19  33  50  76 105 137 171 206 250 303
#
# _framework density 17.820402000000001
#
# number of rings (size 3 to 8) (size 9 to 14) (size 15 to 20)
#    0.000    2.000    2.500    2.625    0.000    1.500 
#    0.000    1.875    0.000    8.250    0.000    0.000 
#    0.000    8.000    0.000    0.000    0.000    0.000 
#
# Total GULP energy -178175.380298 kJ/mol
# GULP energy per Si atom -5567.980634 kJ/mol
# Density = 1.777984 g / cm^3
# Si number density = 17.820402 Si / 1000 Ang^3
#
#
#
# Elastic Constant Matrix: (Units=GPa)
#
#
# Indices 1 2 3 4 5 6 
#
# 1 36.7579 16.5022 12.5916 0.0000 6.7613 0.0000
# 2 16.5022 91.3980 21.5325 0.0000 -0.5455 0.0000
# 3 12.5916 21.5325 59.9489 0.0000 1.3977 0.0000
# 4 0.0000 0.0000 0.0000 19.0349 0.0000 6.1636
# 5 6.7613 -0.5455 1.3977 0.0000 21.4240 0.0000
# 6 0.0000 0.0000 0.0000 6.1636 0.0000 12.3149
#
#
#
# Elastic Compliance Matrix: (Units=1/GPa)
#
#
# Indices 1 2 3 4 5 6 
#
# 1 0.032950 -0.004846 -0.004942 0.000000 -0.010200 0.000000
# 2 -0.004846 0.012673 -0.003583 0.000000 0.002086 0.000000
# 3 -0.004942 -0.003583 0.019000 0.000000 0.000229 0.000000
# 4 0.000000 0.000000 0.000000 0.062696 0.000000 -0.031379
# 5 -0.010200 0.002086 0.000229 0.000000 0.049934 0.000000
# 6 0.000000 0.000000 0.000000 -0.031379 0.000000 0.096908
#
#
# Mechanical properties :
#
#
# Convention : Reuss Voigt Hill
#
# Bulk Modulus (GPa) = 26.39825 32.15081 29.27453
# Shear Modulus (GPa) = 15.94754 19.72000 17.83377
#
# Velocity S-wave (km/s) = 2.99474 3.33016 3.16690
# Velocity P-wave (km/s) = 5.17722 5.73301 5.46219
#
# Compressibility (1/GPa) = 0.03788130
#
# Stress axis : x y z
#
# Youngs Moduli (GPa) = 30.34933 78.91092 52.63043
#
# Poissons Ratio (x) = 0.38237 0.26012
# Poissons Ratio (y) = 0.14706 0.18855
# Poissons Ratio (z) = 0.15000 0.28270
#
# Static dielectric constant tensor:
#      x y z
#    x 1.593540 0.000000 0.006290 
#    y 0.000000 1.644050 0.000000 
#    z 0.006290 0.000000 1.645650 
# 
# From -- ./inp_files/240679.got.cif
#   From: 2010.05.17/outbox.cif.g08.bks.cpg/sg12_121_cif.got.tgz:240679.got - 2010.06.03 13:09:07.
