data_PCOD9170091
_publ_section_title
;
Structure prediction by ZEFSAII (Michael W. Deem and Ramdas Pophale) SiO2 
 PCOD9170091
Probable space group: C 2/M
;
_chemical_formula_sum "Si O2"
_cell_formula_units_Z 48
_cell_length_a 14.242679
_cell_length_b 29.134868
_cell_length_c 15.066906
_cell_angle_alpha 90.000000
_cell_angle_beta 149.733292
_cell_angle_gamma 90.000000
_cell_volume 3151.241141
_symmetry_space_group_name_H-M "C 2/M"
_symmetry_group_IT_number 12
_symmetry_cell_setting 'monoclinic'
loop_
_space_group_symop_operation_xyz
x,y,z
-x,y,-z
-x,-y,-z
x,-y,z
1/2+x,1/2+y,z
1/2-x,1/2+y,-z
1/2-x,1/2-y,-z
1/2+x,1/2-y,z
loop_
_atom_site_type_symbol
_atom_site_label
_atom_site_fract_x
_atom_site_fract_y
_atom_site_fract_z
Si Si1 0.838086 0.193853 0.942428
Si Si2 0.899433 0.806524 0.688375
Si Si3 0.522577 0.250108 0.416254
Si Si4 0.262040 0.400767 0.637792
Si Si5 0.348068 0.500000 0.736608
Si Si6 0.335772 0.100741 0.239209
Si Si7 0.240968 0.500000 0.845328
O O1 0.663995 0.223777 0.767045
O O2 0.756394 0.142489 0.888164
O O3 0.000000 0.193269 0.000000
O O4 0.938062 0.210772 0.113347
O O5 0.702515 0.783335 0.555136
O O6 0.940760 0.791373 0.622188
O O7 0.881533 0.860682 0.691958
O O8 0.500000 0.263810 0.500000
O O9 0.313136 0.453044 0.656153
O O10 0.272125 0.399721 0.753725
O O11 0.049845 0.390536 0.437868
O O12 0.218960 0.500000 0.719637
O O13 0.551068 0.500000 0.946377
O O14 0.330973 0.050712 0.189893
#
# Coordination Sequence:
#
# PCOD9170091 Si02
#       7
#     8   8   8   8   4   8   4
#     4  12  20  32  52  72  98 136 163 203 243 291
#     4  11  22  34  54  72  98 129 168 201 248 292
#     4  11  22  38  51  72  97 129 165 212 246 290
#     4  10  17  30  43  69  92 132 163 197 235 288
#     4   9  17  25  43  59  97 126 162 194 234 280
#     4  10  18  27  45  64 101 129 164 194 233 285
#     4   9  17  25  35  67  93 133 161 188 230 283
#
# _framework density 15.232094
#
# number of rings (size 3 to 8) (size 9 to 14) (size 15 to 20)
#    0.000    1.500    5.000    2.000    2.333    2.000 
#    0.000    0.000    0.000    0.000    0.000    0.583 
#    0.000    0.000    0.000    5.917    0.000    0.167 
#
# Total GULP energy -133758.940826 kJ/mol
# GULP energy per Si atom -5573.289201 kJ/mol
# Density = 1.519742 g / cm^3
# Si number density = 15.232094 Si / 1000 Ang^3
#
#
#
# Elastic Constant Matrix: (Units=GPa)
#
#
# Indices 1 2 3 4 5 6 
#
# 1 62.7280 32.3219 30.5593 0.0000 -10.1861 0.0000
# 2 32.3219 84.8984 30.0834 0.0000 -6.0122 0.0000
# 3 30.5593 30.0834 95.5772 0.0000 1.0596 0.0000
# 4 0.0000 0.0000 0.0000 21.5532 0.0000 1.9436
# 5 -10.1861 -6.0122 1.0596 0.0000 18.0478 0.0000
# 6 0.0000 0.0000 0.0000 1.9436 0.0000 12.5272
#
#
#
# Elastic Compliance Matrix: (Units=1/GPa)
#
#
# Indices 1 2 3 4 5 6 
#
# 1 0.023876 -0.006198 -0.005813 0.000000 0.011752 0.000000
# 2 -0.006198 0.015271 -0.002844 0.000000 0.001756 0.000000
# 3 -0.005813 -0.002844 0.013272 0.000000 -0.005008 0.000000
# 4 0.000000 0.000000 0.000000 0.047055 0.000000 -0.007301
# 5 0.011752 0.001756 -0.005008 0.000000 0.062920 0.000000
# 6 0.000000 0.000000 0.000000 -0.007301 0.000000 0.080959
#
#
# Mechanical properties :
#
#
# Convention : Reuss Voigt Hill
#
# Bulk Modulus (GPa) = 44.03779 47.68143 45.85961
# Shear Modulus (GPa) = 17.81687 20.44158 19.12923
#
# Velocity S-wave (km/s) = 3.42379 3.66732 3.54764
# Velocity P-wave (km/s) = 6.67860 7.02165 6.85227
#
# Compressibility (1/GPa) = 0.02270777
#
# Stress axis : x y z
#
# Youngs Moduli (GPa) = 41.88338 65.48550 75.34480
#
# Poissons Ratio (x) = 0.40585 0.43802
# Poissons Ratio (y) = 0.25958 0.21431
# Poissons Ratio (z) = 0.24349 0.18627
#
# Static dielectric constant tensor:
#      x y z
#    x 1.482500 0.000000 0.013100 
#    y 0.000000 1.541130 0.000000 
#    z 0.013100 0.000000 1.532750 
# 
# From -- ./inp_files/209803.got.cif
#   From: 2010.05.17/outbox.cif.g08.bks.cpg/sg12_105_cif.got.tgz:209803.got - 2010.06.03 13:09:07.
