data_PCOD9170440
_publ_section_title
;
Structure prediction by ZEFSAII (Michael W. Deem and Ramdas Pophale) SiO2 
 PCOD9170440
Probable space group: C 2/M
;
_chemical_formula_sum "Si O2"
_cell_formula_units_Z 56
_cell_length_a 11.503945
_cell_length_b 27.083176
_cell_length_c 9.193128
_cell_angle_alpha 90.000000
_cell_angle_beta 58.956947
_cell_angle_gamma 90.000000
_cell_volume 2454.025332
_symmetry_space_group_name_H-M "C 2/M"
_symmetry_group_IT_number 12
_symmetry_cell_setting 'monoclinic'
loop_
_space_group_symop_operation_xyz
x,y,z
-x,y,-z
-x,-y,-z
x,-y,z
1/2+x,1/2+y,z
1/2-x,1/2+y,-z
1/2-x,1/2-y,-z
1/2+x,1/2-y,z
loop_
_atom_site_type_symbol
_atom_site_label
_atom_site_fract_x
_atom_site_fract_y
_atom_site_fract_z
Si Si1 0.641576 0.268873 0.450879
Si Si2 0.357251 0.087453 0.230336
Si Si3 0.354133 0.803574 0.088728
Si Si4 0.436266 0.345430 0.263558
Si Si5 0.713460 0.343640 0.917656
Si Si6 0.897879 0.056544 0.428975
Si Si7 0.163802 0.444773 0.074847
O O1 0.500000 0.241652 0.500000
O O2 0.750000 0.250000 0.500000
O O3 0.730566 0.277764 0.249769
O O4 0.586931 0.318163 0.569459
O O5 0.366081 0.144031 0.168671
O O6 0.246715 0.076835 0.422704
O O7 0.504080 0.068950 0.186430
O O8 0.311074 0.058247 0.115243
O O9 0.500000 0.777790 0.000000
O O10 0.324714 0.815010 0.939605
O O11 0.315317 0.332544 0.230690
O O12 0.445379 0.404020 0.281131
O O13 0.576625 0.332273 0.095511
O O14 0.751840 0.401351 0.905888
O O15 0.000000 0.058636 0.500000
O O16 0.889181 0.000000 0.385952
O O17 0.189562 0.500000 0.111179
#
# Coordination Sequence:
#
# PCOD9170440 Si02
#       7
#     8   8   8   8   8   8   8
#     4  12  27  50  76 106 137 177 226 283 355 424
#     4  10  17  31  56  87 122 171 224 269 324 385
#     4  11  20  42  73 101 132 171 226 277 336 412
#     4  11  23  42  67  91 136 176 220 283 335 411
#     4  10  22  39  64  94 127 181 220 269 349 396
#     4  11  21  33  56  91 127 173 226 275 325 388
#     4  10  18  31  53  87 131 173 222 275 323 390
#
# _framework density 22.819648999999998
#
# number of rings (size 3 to 8) (size 9 to 14) (size 15 to 20)
#    0.000    1.286    5.714    3.857    0.000    3.429 
#    2.571    5.000    0.000    1.714    0.000    0.000 
#    0.000    0.000    0.000    0.000    0.000    0.000 
#
# Total GULP energy -156540.330657 kJ/mol
# GULP energy per Si atom -5590.726095 kJ/mol
# Density = 2.276771 g / cm^3
# Si number density = 22.819649 Si / 1000 Ang^3
#
#
#
# Elastic Constant Matrix: (Units=GPa)
#
#
# Indices 1 2 3 4 5 6 
#
# 1 127.6847 24.6798 27.9458 0.0000 9.6054 0.0000
# 2 24.6798 90.3752 9.3669 0.0000 7.7293 0.0000
# 3 27.9458 9.3669 54.9627 0.0000 0.7904 0.0000
# 4 0.0000 0.0000 0.0000 4.4652 0.0000 2.8703
# 5 9.6054 7.7293 0.7904 0.0000 31.5028 0.0000
# 6 0.0000 0.0000 0.0000 2.8703 0.0000 21.9275
#
#
#
# Elastic Compliance Matrix: (Units=1/GPa)
#
#
# Indices 1 2 3 4 5 6 
#
# 1 0.009330 -0.001899 -0.004387 0.000000 -0.002269 0.000000
# 2 -0.001899 0.011888 -0.001027 0.000000 -0.002312 0.000000
# 3 -0.004387 -0.001027 0.020585 0.000000 0.001073 0.000000
# 4 0.000000 0.000000 0.000000 0.244531 0.000000 -0.032009
# 5 -0.002269 -0.002312 0.001073 0.000000 0.032975 0.000000
# 6 0.000000 0.000000 0.000000 -0.032009 0.000000 0.049795
#
#
# Mechanical properties :
#
#
# Convention : Reuss Voigt Hill
#
# Bulk Modulus (GPa) = 36.79871 44.11195 40.45533
# Shear Modulus (GPa) = 12.72950 25.64776 19.18863
#
# Velocity S-wave (km/s) = 2.36441 3.35615 2.90294
# Velocity P-wave (km/s) = 4.85950 5.86438 5.38543
#
# Compressibility (1/GPa) = 0.02717486
#
# Stress axis : x y z
#
# Youngs Moduli (GPa) = 107.18360 84.12016 48.58004
#
# Poissons Ratio (x) = 0.15975 0.21314
# Poissons Ratio (y) = 0.20354 0.04990
# Poissons Ratio (z) = 0.47026 0.08640
#
# Static dielectric constant tensor:
#      x y z
#    x 1.917750 0.000000 -0.017290 
#    y 0.000000 1.876770 0.000000 
#    z -0.017290 0.000000 1.831610 
# 
# From -- ./inp_files/54617.got.cif
#   From: 2010.05.17/outbox.cif.g08.bks.cpg/sg12_28_cif.got.tgz:54617.got - 2010.06.03 13:09:07.
