data_PCOD9170336
_publ_section_title
;
Structure prediction by ZEFSAII (Michael W. Deem and Ramdas Pophale) SiO2 
 PCOD9170336
Probable space group: C 2/M
;
_chemical_formula_sum "Si O2"
_cell_formula_units_Z 32
_cell_length_a 5.211444
_cell_length_b 23.744328
_cell_length_c 17.760134
_cell_angle_alpha 90.000000
_cell_angle_beta 54.721996
_cell_angle_gamma 90.000000
_cell_volume 1794.095591
_symmetry_space_group_name_H-M "C 2/M"
_symmetry_group_IT_number 12
_symmetry_cell_setting 'monoclinic'
loop_
_space_group_symop_operation_xyz
x,y,z
-x,y,-z
-x,-y,-z
x,-y,z
1/2+x,1/2+y,z
1/2-x,1/2+y,-z
1/2-x,1/2-y,-z
1/2+x,1/2-y,z
loop_
_atom_site_type_symbol
_atom_site_label
_atom_site_fract_x
_atom_site_fract_y
_atom_site_fract_z
Si Si1 0.641042 0.674134 0.397693
Si Si2 0.161188 0.712375 0.897844
Si Si3 0.340591 0.565157 0.402984
Si Si4 0.648923 0.660959 0.706084
O O1 0.500000 0.695721 0.500000
O O2 0.578831 0.606236 0.406253
O O3 0.451025 0.691686 0.355313
O O4 0.010685 0.682021 0.327210
O O5 0.389243 0.761640 0.891360
O O6 0.383837 0.672066 0.812131
O O7 0.000000 0.687181 0.000000
O O8 0.427384 0.500000 0.386943
O O9 0.326786 0.595928 0.324293
O O10 0.000000 0.570986 0.500000
#
# Coordination Sequence:
#
# PCOD9170336 Si02
#       4
#     8   8   8   8
#     4  10  17  31  47  73 106 142 169 200 245 296
#     4  10  21  38  60  81  97 124 174 227 270 310
#     4   9  18  30  50  77 108 143 179 206 241 294
#     4  10  19  32  52  76 105 136 167 217 260 300
#
# _framework density 17.836285
#
# number of rings (size 3 to 8) (size 9 to 14) (size 15 to 20)
#    1.500    0.750    2.500    2.250    0.000    1.500 
#    0.000    0.000    0.000   26.250    0.000    1.750 
#    0.000    0.000    0.000    0.000    0.000    0.000 
#
# Total GULP energy -89123.361934 kJ/mol
# GULP energy per Si atom -5570.210121 kJ/mol
# Density = 1.779569 g / cm^3
# Si number density = 17.836285 Si / 1000 Ang^3
#
#
#
# Elastic Constant Matrix: (Units=GPa)
#
#
# Indices 1 2 3 4 5 6 
#
# 1 80.8975 -5.1622 -3.3913 0.0000 -11.5014 0.0000
# 2 -5.1622 78.0478 30.4282 0.0000 -0.3079 0.0000
# 3 -3.3913 30.4282 118.4038 0.0000 -8.4343 0.0000
# 4 0.0000 0.0000 0.0000 17.2470 0.0000 -4.8329
# 5 -11.5014 -0.3079 -8.4343 0.0000 25.7330 0.0000
# 6 0.0000 0.0000 0.0000 -4.8329 0.0000 -7.9020
#
#
#
# Elastic Compliance Matrix: (Units=1/GPa)
#
#
# Indices 1 2 3 4 5 6 
#
# 1 0.013307 0.000650 0.000654 0.000000 0.006170 0.000000
# 2 0.000650 0.014299 -0.003710 0.000000 -0.000754 0.000000
# 3 0.000654 -0.003710 0.009661 0.000000 0.003414 0.000000
# 4 0.000000 0.000000 0.000000 0.049498 0.000000 -0.030274
# 5 0.006170 -0.000754 0.003414 0.000000 0.042728 0.000000
# 6 0.000000 0.000000 0.000000 -0.030274 0.000000 -0.108035
#
#
# Mechanical properties :
#
#
# Convention : Reuss Voigt Hill
#
# Bulk Modulus (GPa) = 30.81241 35.67759 33.24500
# Shear Modulus (GPa) = 134.80800 24.04721 79.42760
#
# Velocity S-wave (km/s) = 8.70315 3.67579 6.68043
# Velocity P-wave (km/s) = 10.87684 6.16940 8.84215
#
# Compressibility (1/GPa) = 0.03245446
#
# Stress axis : x y z
#
# Youngs Moduli (GPa) = 75.14633 69.93505 103.50920
#
# Poissons Ratio (x) = -0.04543 -0.06766
# Poissons Ratio (y) = -0.04882 0.38400
# Poissons Ratio (z) = -0.04912 0.25944
#
# Static dielectric constant tensor:
#      x y z
#    x 1.646220 0.000000 0.020490 
#    y 0.000000 1.633600 0.000000 
#    z 0.020490 0.000000 1.598570 
# 
# From -- ./inp_files/191717.got.cif
#   From: 2010.05.17/outbox.cif.g08.bks.cpg/sg12_96_cif.got.tgz:191717.got - 2010.06.03 13:09:07.
