data_PCOD9170063
_publ_section_title
;
Structure prediction by ZEFSAII (Michael W. Deem and Ramdas Pophale) SiO2 
 PCOD9170063
Probable space group: C 2/M
;
_chemical_formula_sum "Si O2"
_cell_formula_units_Z 56
_cell_length_a 31.243891
_cell_length_b 10.457743
_cell_length_c 25.117626
_cell_angle_alpha 90.000000
_cell_angle_beta 160.371712
_cell_angle_gamma 90.000000
_cell_volume 2756.850314
_symmetry_space_group_name_H-M "C 2/M"
_symmetry_group_IT_number 12
_symmetry_cell_setting 'monoclinic'
loop_
_space_group_symop_operation_xyz
x,y,z
-x,y,-z
-x,-y,-z
x,-y,z
1/2+x,1/2+y,z
1/2-x,1/2+y,-z
1/2-x,1/2-y,-z
1/2+x,1/2-y,z
loop_
_atom_site_type_symbol
_atom_site_label
_atom_site_fract_x
_atom_site_fract_y
_atom_site_fract_z
Si Si1 0.722624 0.636786 0.507502
Si Si2 0.223053 0.848427 0.673113
Si Si3 0.544253 0.345453 0.681289
Si Si4 0.363913 0.231026 0.320358
Si Si5 0.935530 0.351437 0.848316
Si Si6 0.603741 0.354467 0.983172
Si Si7 0.579084 0.354301 0.834008
O O1 0.745417 0.500000 0.506927
O O2 0.750000 0.750000 0.500000
O O3 0.817846 0.642679 0.668550
O O4 0.574996 0.639931 0.350255
O O5 0.188043 0.818635 0.692622
O O6 0.361929 0.806325 0.815595
O O7 0.101685 0.797976 0.497392
O O8 0.225058 0.000000 0.667694
O O9 0.541870 0.500000 0.682550
O O10 0.611006 0.307704 0.704616
O O11 0.611043 0.295318 0.813632
O O12 0.500000 0.178004 0.500000
O O13 0.248444 0.138082 0.172442
O O14 0.984439 0.500000 0.910768
O O15 0.030239 0.247502 0.934062
O O16 0.548625 0.500000 0.918456
O O17 0.604412 0.302748 0.922832
O O18 0.630443 0.500000 0.895542
#
# Coordination Sequence:
#
# PCOD9170063 Si02
#       7
#     8   8   8   8   8   8   8
#     4  10  17  29  53  84 120 156 184 218 274 343
#     4   9  17  33  57  87 118 148 183 230 289 339
#     4   9  16  31  58  88 115 146 186 231 284 344
#     4  10  22  38  57  79 106 149 202 246 281 333
#     4  10  20  34  58  91 122 149 184 232 284 342
#     4  11  24  40  58  82 117 156 191 234 291 345
#     4   9  17  31  54  85 117 150 181 220 281 346
#
# _framework density 20.313034999999999
#
# number of rings (size 3 to 8) (size 9 to 14) (size 15 to 20)
#    0.000    2.286    2.857    0.429    0.000    4.286 
#    0.000    2.857    0.000    2.571    0.000    0.000 
#    0.000    0.000    0.000    0.000    0.000    0.000 
#
# Total GULP energy -155945.941120 kJ/mol
# GULP energy per Si atom -5569.497897 kJ/mol
# Density = 2.026680 g / cm^3
# Si number density = 20.313035 Si / 1000 Ang^3
#
#
#
# Elastic Constant Matrix: (Units=GPa)
#
#
# Indices 1 2 3 4 5 6 
#
# 1 164.1498 43.8914 35.1035 -0.0001 1.3847 -0.0001
# 2 43.8914 56.2797 16.9884 -0.0001 4.3809 -0.0001
# 3 35.1035 16.9884 98.7184 -0.0001 0.9895 -0.0001
# 4 -0.0001 -0.0001 -0.0001 17.2431 -0.0001 -6.5021
# 5 1.3847 4.3809 0.9895 -0.0001 13.6021 -0.0001
# 6 -0.0001 -0.0001 -0.0001 -6.5021 -0.0001 0.2722
#
#
#
# Elastic Compliance Matrix: (Units=1/GPa)
#
#
# Indices 1 2 3 4 5 6 
#
# 1 0.008030 -0.005790 -0.001871 0.000000 0.001183 0.000000
# 2 -0.005790 0.023386 -0.001897 0.000000 -0.006805 -0.000001
# 3 -0.001871 -0.001897 0.011122 0.000000 -0.000007 -0.000001
# 4 0.000000 0.000000 0.000000 -0.007241 -0.000001 -0.173000
# 5 0.001183 -0.006805 -0.000007 -0.000001 0.075590 -0.000003
# 6 0.000000 -0.000001 -0.000001 -0.173000 -0.000003 -0.458782
#
#
# Mechanical properties :
#
#
# Convention : Reuss Voigt Hill
#
# Bulk Modulus (GPa) = 42.69581 56.79050 49.74316
# Shear Modulus (GPa) = -15.57772 21.10111 2.76170
#
# Velocity S-wave (km/s) = -2.77227 3.22653 1.16727
# Velocity P-wave (km/s) = 3.28896 6.47295 5.13402
#
# Compressibility (1/GPa) = 0.02342150
#
# Stress axis : x y z
#
# Youngs Moduli (GPa) = 124.52838 42.75997 89.91398
#
# Poissons Ratio (x) = 0.24758 0.16823
# Poissons Ratio (y) = 0.72102 0.17061
# Poissons Ratio (z) = 0.23299 0.08113
#
# Static dielectric constant tensor:
#      x y z
#    x 1.784010 0.000000 -0.019320 
#    y 0.000000 1.699170 0.000000 
#    z -0.019320 0.000000 1.783380 
# 
# From -- ./inp_files/110568.got.cif
#   From: 2010.05.17/outbox.cif.g08.bks.cpg/sg12_56_cif.got.tgz:110568.got - 2010.06.03 13:09:07.
