data_PCOD9170785
_publ_section_title
;
Structure prediction by ZEFSAII (Michael W. Deem and Ramdas Pophale) SiO2 
 PCOD9170785
Probable space group: C 2/M
;
_chemical_formula_sum "Si O2"
_cell_formula_units_Z 44
_cell_length_a 6.904714
_cell_length_b 24.689250
_cell_length_c 12.133521
_cell_angle_alpha 90.000000
_cell_angle_beta 62.049481
_cell_angle_gamma 90.000000
_cell_volume 1827.151588
_symmetry_space_group_name_H-M "C 2/M"
_symmetry_group_IT_number 12
_symmetry_cell_setting 'monoclinic'
loop_
_space_group_symop_operation_xyz
x,y,z
-x,y,-z
-x,-y,-z
x,-y,z
1/2+x,1/2+y,z
1/2-x,1/2+y,-z
1/2-x,1/2-y,-z
1/2+x,1/2-y,z
loop_
_atom_site_type_symbol
_atom_site_label
_atom_site_fract_x
_atom_site_fract_y
_atom_site_fract_z
Si Si1 0.505916 0.500000 0.296901
Si Si2 0.547667 0.406802 0.106093
Si Si3 0.300143 0.796497 0.260879
Si Si4 0.826960 0.173046 0.297231
Si Si5 0.671428 0.000000 0.580779
Si Si6 0.500000 0.158473 0.000000
Si Si7 0.266417 0.117687 0.454719
O O1 0.527804 0.448617 0.211857
O O2 0.286449 0.500000 0.428782
O O3 0.684672 0.500000 0.345596
O O4 0.362182 0.361143 0.177505
O O5 0.500000 0.432044 0.000000
O O6 0.787300 0.379611 0.044052
O O7 0.075688 0.819444 0.272913
O O8 0.251719 0.734419 0.302476
O O9 0.346860 0.834217 0.353474
O O10 0.471905 0.804492 0.116385
O O11 0.723776 0.139360 0.423875
O O12 0.597667 0.937284 0.603587
O O13 0.000000 0.107257 0.500000
#
# Coordination Sequence:
#
# PCOD9170785 Si02
#       7
#     4   8   8   8   4   4   8
#     4  11  19  37  62  97 116 167 210 258 314 373
#     4  11  24  40  64  92 130 163 210 257 313 371
#     4  10  22  35  58  86 123 158 204 254 308 370
#     4  10  21  36  58  87 119 158 209 252 308 367
#     4  11  16  32  68  88 122 156 216 258 306 384
#     4  10  24  41  58  94 122 165 216 246 312 384
#     4  10  17  34  56  91 116 151 208 259 304 373
#
# _framework density 24.081199000000002
#
# number of rings (size 3 to 8) (size 9 to 14) (size 15 to 20)
#    0.000    1.636    3.636    3.000    3.818    1.818 
#    0.000    0.909    0.000    0.000    0.000    7.636 
#    0.000    0.000    0.000    0.000    0.000    0.000 
#
# Total GULP energy -122968.179823 kJ/mol
# GULP energy per Si atom -5589.462719 kJ/mol
# Density = 2.402639 g / cm^3
# Si number density = 24.081199 Si / 1000 Ang^3
#
#
#
# Elastic Constant Matrix: (Units=GPa)
#
#
# Indices 1 2 3 4 5 6 
#
# 1 56.5496 23.8931 32.8345 0.0000 -1.8670 0.0000
# 2 23.8931 179.1434 63.5722 0.0000 10.6381 0.0000
# 3 32.8345 63.5722 126.3913 0.0000 20.5119 0.0000
# 4 0.0000 0.0000 0.0000 34.3487 0.0000 12.6450
# 5 -1.8670 10.6381 20.5119 0.0000 32.3981 0.0000
# 6 0.0000 0.0000 0.0000 12.6450 0.0000 -12.7671
#
#
#
# Elastic Compliance Matrix: (Units=1/GPa)
#
#
# Indices 1 2 3 4 5 6 
#
# 1 0.021805 -0.001105 -0.005987 0.000000 0.005410 0.000000
# 2 -0.001105 0.006851 -0.003102 0.000000 -0.000349 0.000000
# 3 -0.005987 -0.003102 0.012169 0.000000 -0.007031 0.000000
# 4 0.000000 0.000000 0.000000 0.021334 0.000000 0.021130
# 5 0.005410 -0.000349 -0.007031 0.000000 0.035744 0.000000
# 6 0.000000 0.000000 0.000000 0.021130 0.000000 -0.057398
#
#
# Mechanical properties :
#
#
# Convention : Reuss Voigt Hill
#
# Bulk Modulus (GPa) = 48.93135 66.96487 57.94811
# Shear Modulus (GPa) = 73.84953 26.91491 50.38222
#
# Velocity S-wave (km/s) = 5.54378 3.34679 4.57900
# Velocity P-wave (km/s) = 7.83207 6.54240 7.21611
#
# Compressibility (1/GPa) = 0.02043680
#
# Stress axis : x y z
#
# Youngs Moduli (GPa) = 45.86064 145.96167 82.17902
#
# Poissons Ratio (x) = 0.16128 0.49199
# Poissons Ratio (y) = 0.05067 0.25494
# Poissons Ratio (z) = 0.27456 0.45281
#
# Static dielectric constant tensor:
#      x y z
#    x 2.033260 0.000000 -0.035710 
#    y 0.000000 1.994960 0.000000 
#    z -0.035710 0.000000 1.891780 
# 
# From -- ./inp_files/122369.got.cif
#   From: 2010.05.17/outbox.cif.g08.bks.cpg/sg12_62_cif.got.tgz:122369.got - 2010.06.03 13:09:07.
