data_PCOD9170554
_publ_section_title
;
Structure prediction by ZEFSAII (Michael W. Deem and Ramdas Pophale) SiO2 
 PCOD9170554
Probable space group: C 2/M
;
_chemical_formula_sum "Si O2"
_cell_formula_units_Z 56
_cell_length_a 14.389608
_cell_length_b 21.002545
_cell_length_c 13.527550
_cell_angle_alpha 90.000000
_cell_angle_beta 49.929623
_cell_angle_gamma 90.000000
_cell_volume 3128.569639
_symmetry_space_group_name_H-M "C 2/M"
_symmetry_group_IT_number 12
_symmetry_cell_setting 'monoclinic'
loop_
_space_group_symop_operation_xyz
x,y,z
-x,y,-z
-x,-y,-z
x,-y,z
1/2+x,1/2+y,z
1/2-x,1/2+y,-z
1/2-x,1/2-y,-z
1/2+x,1/2-y,z
loop_
_atom_site_type_symbol
_atom_site_label
_atom_site_fract_x
_atom_site_fract_y
_atom_site_fract_z
Si Si1 0.648134 0.428901 0.106896
Si Si2 0.378519 0.750427 0.465891
Si Si3 0.985598 0.302262 0.208001
Si Si4 0.963931 0.873865 0.631148
Si Si5 0.386141 0.695041 0.003137
Si Si6 0.236110 0.231402 0.262283
Si Si7 0.930152 0.571178 0.944859
O O1 0.630223 0.500000 0.076768
O O2 0.555366 0.417914 0.261225
O O3 0.637284 0.371110 0.036730
O O4 0.785169 0.426855 0.055683
O O5 0.250000 0.750000 0.500000
O O6 0.463661 0.792662 0.338863
O O7 0.432947 0.679495 0.424118
O O8 0.349905 0.766665 0.598739
O O9 0.859395 0.289937 0.234489
O O10 0.075302 0.248603 0.103003
O O11 0.032118 0.371948 0.151765
O O12 0.840546 0.831443 0.711245
O O13 0.000000 0.903570 0.500000
O O14 0.500000 0.687133 0.000000
O O15 0.277672 0.724856 0.142999
O O16 0.962453 0.500000 0.887463
O O17 0.000000 0.581682 0.000000
#
# Coordination Sequence:
#
# PCOD9170554 Si02
#       7
#     8   8   8   8   8   8   8
#     4  11  23  36  53  79 109 148 186 220 267 320
#     4   9  18  31  50  77 108 133 169 223 271 318
#     4  10  17  32  55  79 103 139 176 222 270 317
#     4  10  19  33  52  78 110 137 172 220 278 327
#     4  10  20  34  56  80 106 137 185 230 265 309
#     4   9  19  31  51  84 106 133 176 222 275 320
#     4  10  21  35  52  78 112 141 173 219 271 325
#
# _framework density 17.899553000000001
#
# number of rings (size 3 to 8) (size 9 to 14) (size 15 to 20)
#    0.000    2.143    1.429    3.000    2.000    1.714 
#    0.000    0.000    0.000    6.000    0.000    2.000 
#    0.000    0.000    0.000    0.000    0.000    0.000 
#
# Total GULP energy -156147.436659 kJ/mol
# GULP energy per Si atom -5576.694166 kJ/mol
# Density = 1.785881 g / cm^3
# Si number density = 17.899553 Si / 1000 Ang^3
#
#
#
# Elastic Constant Matrix: (Units=GPa)
#
#
# Indices 1 2 3 4 5 6 
#
# 1 49.6416 14.8641 19.1435 0.0000 -1.8134 0.0000
# 2 14.8641 102.5406 67.2546 0.0000 11.0875 0.0000
# 3 19.1435 67.2546 137.3144 0.0000 8.0059 0.0000
# 4 0.0000 0.0000 0.0000 21.5634 0.0000 2.0627
# 5 -1.8134 11.0875 8.0059 0.0000 20.2606 0.0000
# 6 0.0000 0.0000 0.0000 2.0627 0.0000 21.0787
#
#
#
# Elastic Compliance Matrix: (Units=1/GPa)
#
#
# Indices 1 2 3 4 5 6 
#
# 1 0.021787 -0.002129 -0.002227 0.000000 0.003995 0.000000
# 2 -0.002129 0.015132 -0.006777 0.000000 -0.005794 0.000000
# 3 -0.002227 -0.006777 0.010960 0.000000 -0.000822 0.000000
# 4 0.000000 0.000000 0.000000 0.046813 0.000000 -0.004581
# 5 0.003995 -0.005794 -0.000822 0.000000 0.053210 0.000000
# 6 0.000000 0.000000 0.000000 -0.004581 0.000000 0.047890
#
#
# Mechanical properties :
#
#
# Convention : Reuss Voigt Hill
#
# Bulk Modulus (GPa) = 39.04403 54.66901 46.85652
# Shear Modulus (GPa) = 22.06565 25.12948 23.59756
#
# Velocity S-wave (km/s) = 3.51486 3.75095 3.63482
# Velocity P-wave (km/s) = 6.19133 7.02623 6.62195
#
# Compressibility (1/GPa) = 0.02561211
#
# Stress axis : x y z
#
# Youngs Moduli (GPa) = 45.89914 66.08423 91.23897
#
# Poissons Ratio (x) = 0.14071 0.20323
# Poissons Ratio (y) = 0.09773 0.61832
# Poissons Ratio (z) = 0.10224 0.44785
#
# Static dielectric constant tensor:
#      x y z
#    x 1.654640 0.000000 0.001730 
#    y 0.000000 1.591100 0.000000 
#    z 0.001730 0.000000 1.652570 
# 
# From -- ./inp_files/226560.got.cif
#   From: 2010.05.17/outbox.cif.g08.bks.cpg/sg12_114_cif.got.tgz:226560.got - 2010.06.03 13:09:07.
