data_PCOD9170542
_publ_section_title
;
Structure prediction by ZEFSAII (Michael W. Deem and Ramdas Pophale) SiO2 
 PCOD9170542
Probable space group: C 2/M
;
_chemical_formula_sum "Si O2"
_cell_formula_units_Z 44
_cell_length_a 19.459835
_cell_length_b 22.407537
_cell_length_c 11.584464
_cell_angle_alpha 90.000000
_cell_angle_beta 157.162943
_cell_angle_gamma 90.000000
_cell_volume 1960.496156
_symmetry_space_group_name_H-M "C 2/M"
_symmetry_group_IT_number 12
_symmetry_cell_setting 'monoclinic'
loop_
_space_group_symop_operation_xyz
x,y,z
-x,y,-z
-x,-y,-z
x,-y,z
1/2+x,1/2+y,z
1/2-x,1/2+y,-z
1/2-x,1/2-y,-z
1/2+x,1/2-y,z
loop_
_atom_site_type_symbol
_atom_site_label
_atom_site_fract_x
_atom_site_fract_y
_atom_site_fract_z
Si Si1 0.109136 0.196299 0.789261
Si Si2 0.256088 0.702329 0.373922
Si Si3 0.000000 0.396041 0.000000
Si Si4 0.932763 0.435863 0.652255
Si Si5 0.305222 0.329999 0.713353
Si Si6 0.680307 0.434626 0.855465
O O1 0.184625 0.129462 0.924843
O O2 0.000000 0.196883 0.500000
O O3 0.958881 0.203424 0.652854
O O4 0.250000 0.250000 0.000000
O O5 0.142016 0.646524 0.154161
O O6 0.237491 0.689785 0.481617
O O7 0.180492 0.764549 0.208952
O O8 0.914889 0.432454 0.763968
O O9 0.861951 0.500000 0.501993
O O10 0.828260 0.378374 0.443534
O O11 0.139109 0.434496 0.938718
O O12 0.500000 0.356497 0.000000
O O13 0.500000 0.433761 0.500000
O O14 0.677724 0.500000 0.912938
#
# Coordination Sequence:
#
# PCOD9170542 Si02
#       6
#     8   8   4   8   8   8
#     4  11  23  36  57  87 117 149 189 236 284 339
#     4  10  21  35  57  84 110 141 186 230 288 331
#     4  10  17  32  54  80 107 136 180 238 280 318
#     4  10  20  33  53  81 111 146 186 226 275 334
#     4  10  21  36  57  80 113 150 181 229 281 337
#     4   9  18  35  56  79 110 149 188 231 283 333
#
# _framework density 22.443297000000001
#
# number of rings (size 3 to 8) (size 9 to 14) (size 15 to 20)
#    0.000    2.000    0.909    3.545    2.545    0.364 
#    0.000    3.636    0.000    0.545    0.000    0.000 
#    0.000    0.000    0.000    0.000    0.000    0.000 
#
# Total GULP energy -122611.643085 kJ/mol
# GULP energy per Si atom -5573.256504 kJ/mol
# Density = 2.239222 g / cm^3
# Si number density = 22.443297 Si / 1000 Ang^3
#
#
#
# Elastic Constant Matrix: (Units=GPa)
#
#
# Indices 1 2 3 4 5 6 
#
# 1 33.4541 19.7292 14.2696 0.0000 16.3160 0.0000
# 2 19.7292 184.4925 56.8360 0.0000 27.2432 0.0000
# 3 14.2696 56.8360 82.4853 0.0000 27.5013 0.0000
# 4 0.0000 0.0000 0.0000 31.6275 0.0000 11.6684
# 5 16.3160 27.2432 27.5013 0.0000 42.8432 0.0000
# 6 0.0000 0.0000 0.0000 11.6684 0.0000 13.9719
#
#
#
# Elastic Compliance Matrix: (Units=1/GPa)
#
#
# Indices 1 2 3 4 5 6 
#
# 1 0.037493 -0.001845 -0.001076 0.000000 -0.012415 0.000000
# 2 -0.001845 0.007070 -0.004183 0.000000 -0.001108 0.000000
# 3 -0.001076 -0.004183 0.018026 0.000000 -0.008502 0.000000
# 4 0.000000 0.000000 0.000000 0.045698 0.000000 -0.038164
# 5 -0.012415 -0.001108 -0.008502 0.000000 0.034231 0.000000
# 6 0.000000 0.000000 0.000000 -0.038164 0.000000 0.103444
#
#
# Mechanical properties :
#
#
# Convention : Reuss Voigt Hill
#
# Bulk Modulus (GPa) = 20.66859 53.56686 37.11772
# Shear Modulus (GPa) = 18.09649 31.66165 24.87907
#
# Velocity S-wave (km/s) = 2.84266 3.76006 3.33307
# Velocity P-wave (km/s) = 4.47253 6.53989 5.60240
#
# Compressibility (1/GPa) = 0.04838260
#
# Stress axis : x y z
#
# Youngs Moduli (GPa) = 26.67130 141.44763 55.47498
#
# Poissons Ratio (x) = 0.26094 0.05968
# Poissons Ratio (y) = 0.04920 0.23204
# Poissons Ratio (z) = 0.02869 0.59165
#
# Static dielectric constant tensor:
#      x y z
#    x 0.792020 0.000000 0.174900 
#    y 0.000000 1.934330 0.000000 
#    z 0.174900 0.000000 1.800750 
# 
# From -- ./inp_files/241787.got.cif
#   From: 2010.05.17/outbox.cif.g08.bks.cpg/sg12_121_cif.got.tgz:241787.got - 2010.06.03 13:09:07.
