data_PCOD9170804
_publ_section_title
;
Structure prediction by ZEFSAII (Michael W. Deem and Ramdas Pophale) SiO2 
 PCOD9170804
Probable space group: C 2/M
;
_chemical_formula_sum "Si O2"
_cell_formula_units_Z 32
_cell_length_a 12.569773
_cell_length_b 12.642424
_cell_length_c 15.422803
_cell_angle_alpha 90.000000
_cell_angle_beta 146.058122
_cell_angle_gamma 90.000000
_cell_volume 1368.449832
_symmetry_space_group_name_H-M "C 2/M"
_symmetry_group_IT_number 12
_symmetry_cell_setting 'monoclinic'
loop_
_space_group_symop_operation_xyz
x,y,z
-x,y,-z
-x,-y,-z
x,-y,z
1/2+x,1/2+y,z
1/2-x,1/2+y,-z
1/2-x,1/2-y,-z
1/2+x,1/2-y,z
loop_
_atom_site_type_symbol
_atom_site_label
_atom_site_fract_x
_atom_site_fract_y
_atom_site_fract_z
Si Si1 0.528396 0.622579 0.377914
Si Si2 0.504739 0.673462 0.837381
Si Si3 0.810761 0.000000 0.935315
Si Si4 0.180000 0.621636 0.276879
Si Si5 0.304385 0.000000 0.319270
O O1 0.558635 0.500000 0.373886
O O2 0.484215 0.679120 0.258508
O O3 0.346977 0.626601 0.318362
O O4 0.711310 0.652455 0.559824
O O5 0.669817 0.604077 0.993417
O O6 0.474821 0.791048 0.851303
O O7 0.317489 0.603345 0.735523
O O8 0.000000 0.000000 0.000000
O O9 0.653479 0.000000 0.755337
O O10 0.113192 0.500000 0.237268
O O11 0.500000 0.000000 0.500000
#
# Coordination Sequence:
#
# PCOD9170804 Si02
#       5
#     8   8   4   8   4
#     4   9  16  31  49  81 121 166 198 231 287 337
#     4  10  17  34  59  84 116 161 191 238 296 339
#     4   8  18  36  60  82 113 153 188 240 310 336
#     4   9  19  29  49  87 126 157 199 236 274 343
#     4  10  22  36  62  92 111 139 196 258 292 340
#
# _framework density 23.384125000000001
#
# number of rings (size 3 to 8) (size 9 to 14) (size 15 to 20)
#    0.000    3.000    2.500    2.250    3.500    0.000 
#    0.000    0.000    2.750   20.250    0.000    0.000 
#    0.000    2.500    0.000    0.000    0.000    0.000 
#
# Total GULP energy -89401.841694 kJ/mol
# GULP energy per Si atom -5587.615106 kJ/mol
# Density = 2.333090 g / cm^3
# Si number density = 23.384125 Si / 1000 Ang^3
#
#
#
# Elastic Constant Matrix: (Units=GPa)
#
#
# Indices 1 2 3 4 5 6 
#
# 1 49.9487 39.6686 33.8341 0.0003 -16.5884 0.0002
# 2 39.6686 132.8993 59.9967 0.0002 -2.6747 0.0002
# 3 33.8341 59.9967 113.3089 0.0004 -16.2625 0.0004
# 4 0.0003 0.0002 0.0004 6.6446 0.0004 -3.2913
# 5 -16.5884 -2.6747 -16.2625 0.0004 32.8561 0.0003
# 6 0.0002 0.0002 0.0004 -3.2913 0.0003 23.5435
#
#
#
# Elastic Compliance Matrix: (Units=1/GPa)
#
#
# Indices 1 2 3 4 5 6 
#
# 1 0.033832 -0.008134 -0.003702 -0.000002 0.014587 -0.000001
# 2 -0.008134 0.011958 -0.004685 0.000001 -0.005452 0.000000
# 3 -0.003702 -0.004685 0.013013 -0.000001 0.004191 0.000000
# 4 -0.000002 0.000001 -0.000001 0.161695 -0.000004 0.022604
# 5 0.014587 -0.005452 0.004191 -0.000004 0.039431 -0.000001
# 6 -0.000001 0.000000 0.000000 0.022604 -0.000001 0.045635
#
#
# Mechanical properties :
#
#
# Convention : Reuss Voigt Hill
#
# Bulk Modulus (GPa) = 38.81825 62.57286 50.69556
# Shear Modulus (GPa) = 14.40123 23.45267 18.92695
#
# Velocity S-wave (km/s) = 2.48434 3.17034 2.84807
# Velocity P-wave (km/s) = 4.98653 6.34178 5.70455
#
# Compressibility (1/GPa) = 0.02576108
#
# Stress axis : x y z
#
# Youngs Moduli (GPa) = 29.55756 83.62787 76.84492
#
# Poissons Ratio (x) = 0.68020 0.28448
# Poissons Ratio (y) = 0.24041 0.36005
# Poissons Ratio (z) = 0.10942 0.39183
#
# Static dielectric constant tensor:
#      x y z
#    x 1.890030 0.000000 0.009210 
#    y 0.000000 1.871680 0.000000 
#    z 0.009210 0.000000 1.947530 
# 
# From -- ./inp_files/164504.got.cif
#   From: 2010.05.17/outbox.cif.g08.bks.cpg/sg12_83_cif.got.tgz:164504.got - 2010.06.03 13:09:07.
