data_PCOD9170965
_publ_section_title
;
Structure prediction by ZEFSAII (Michael W. Deem and Ramdas Pophale) SiO2 
 PCOD9170965
Probable space group: C 2/M
;
_chemical_formula_sum "Si O2"
_cell_formula_units_Z 48
_cell_length_a 27.811315
_cell_length_b 7.346043
_cell_length_c 12.583713
_cell_angle_alpha 90.000000
_cell_angle_beta 72.886466
_cell_angle_gamma 90.000000
_cell_volume 2457.061768
_symmetry_space_group_name_H-M "C 2/M"
_symmetry_group_IT_number 12
_symmetry_cell_setting 'monoclinic'
loop_
_space_group_symop_operation_xyz
x,y,z
-x,y,-z
-x,-y,-z
x,-y,z
1/2+x,1/2+y,z
1/2-x,1/2+y,-z
1/2-x,1/2-y,-z
1/2+x,1/2-y,z
loop_
_atom_site_type_symbol
_atom_site_label
_atom_site_fract_x
_atom_site_fract_y
_atom_site_fract_z
Si Si1 0.780602 0.280651 0.132620
Si Si2 0.861413 0.720680 0.259788
Si Si3 0.636613 0.222565 0.085204
Si Si4 0.171122 0.706555 0.278165
Si Si5 0.192752 0.281749 0.498338
Si Si6 0.942546 0.722121 0.041746
O O1 0.775947 0.500000 0.132496
O O2 0.815809 0.233334 0.209967
O O3 0.726150 0.201776 0.188369
O O4 0.812213 0.221614 0.009281
O O5 0.863408 0.500000 0.262471
O O6 0.845802 0.784912 0.386371
O O7 0.912036 0.780202 0.167064
O O8 0.636871 0.287196 0.206531
O O9 0.636973 0.000000 0.086425
O O10 0.590550 0.276749 0.039222
O O11 0.180003 0.789491 0.388828
O O12 0.311449 0.000000 0.504256
O O13 0.153073 0.500000 0.306772
O O14 0.250000 0.250000 0.500000
O O15 0.942527 0.500000 0.042086
O O16 0.000000 0.782429 0.000000
#
# Coordination Sequence:
#
# PCOD9170965 Si02
#       6
#     8   8   8   8   8   8
#     4   9  15  25  40  54  77 110 135 159 189 229
#     4   8  14  24  37  55  77 102 134 167 195 224
#     4   8  15  25  36  55  80 103 130 163 201 236
#     4  10  18  25  36  56  83 110 131 158 196 234
#     4  10  18  27  39  55  81 114 139 160 190 232
#     4   8  13  23  41  59  74  99 135 170 201 238
#
# _framework density 19.535526999999998
#
# number of rings (size 3 to 8) (size 9 to 14) (size 15 to 20)
#    0.000    3.167    1.667    2.500    0.000    0.000 
#    0.000    0.000    0.000    1.000    0.000    7.000 
#    0.000   24.000    0.000    3.000    0.000    3.333 
#
# Total GULP energy -133797.705859 kJ/mol
# GULP energy per Si atom -5574.904411 kJ/mol
# Density = 1.949106 g / cm^3
# Si number density = 19.535527 Si / 1000 Ang^3
#
#
#
# Elastic Constant Matrix: (Units=GPa)
#
#
# Indices 1 2 3 4 5 6 
#
# 1 98.3389 -0.5470 89.0724 0.0000 -4.1601 0.0000
# 2 -0.5470 74.4523 6.7944 0.0000 3.1921 0.0000
# 3 89.0724 6.7944 191.1111 0.0000 29.9542 0.0000
# 4 0.0000 0.0000 0.0000 -2.4698 0.0000 -4.1982
# 5 -4.1601 3.1921 29.9542 0.0000 27.3805 0.0000
# 6 0.0000 0.0000 0.0000 -4.1982 0.0000 5.3386
#
#
#
# Elastic Compliance Matrix: (Units=1/GPa)
#
#
# Indices 1 2 3 4 5 6 
#
# 1 0.023644 0.000644 -0.013993 0.000000 0.018826 0.000000
# 2 0.000644 0.013529 -0.000663 0.000000 -0.000754 0.000000
# 3 -0.013993 -0.000663 0.014603 0.000000 -0.018025 0.000000
# 4 0.000000 0.000000 0.000000 -0.173277 0.000000 -0.136260
# 5 0.018826 -0.000754 -0.018025 0.000000 0.059190 0.000000
# 6 0.000000 0.000000 0.000000 -0.136260 0.000000 0.080162
#
#
# Mechanical properties :
#
#
# Convention : Reuss Voigt Hill
#
# Bulk Modulus (GPa) = 42.10360 61.61574 51.85967
# Shear Modulus (GPa) = 92.94981 23.95538 58.45260
#
# Velocity S-wave (km/s) = 6.90530 3.50558 5.47596
# Velocity P-wave (km/s) = 9.22912 6.92779 8.15999
#
# Compressibility (1/GPa) = 0.02375094
#
# Stress axis : x y z
#
# Youngs Moduli (GPa) = 42.29452 73.91547 68.47785
#
# Poissons Ratio (x) = -0.04757 0.95824
# Poissons Ratio (y) = -0.02722 0.04538
# Poissons Ratio (z) = 0.59184 0.04898
#
# Static dielectric constant tensor:
#      x y z
#    x 1.652040 0.000000 0.030770 
#    y 0.000000 1.900160 0.000000 
#    z 0.030770 0.000000 1.720860 
# 
# From -- ./inp_files/179328.got.cif
#   From: 2010.05.17/outbox.cif.g08.bks.cpg/sg12_90_cif.got.tgz:179328.got - 2010.06.03 13:09:07.
