data_PCOD9170020
_publ_section_title
;
Structure prediction by ZEFSAII (Michael W. Deem and Ramdas Pophale) SiO2 
 PCOD9170020
Probable space group: C 2/M
;
_chemical_formula_sum "Si O2"
_cell_formula_units_Z 40
_cell_length_a 18.851939
_cell_length_b 13.472676
_cell_length_c 17.225319
_cell_angle_alpha 90.000000
_cell_angle_beta 158.911221
_cell_angle_gamma 90.000000
_cell_volume 1574.183402
_symmetry_space_group_name_H-M "C 2/M"
_symmetry_group_IT_number 12
_symmetry_cell_setting 'monoclinic'
loop_
_space_group_symop_operation_xyz
x,y,z
-x,y,-z
-x,-y,-z
x,-y,z
1/2+x,1/2+y,z
1/2-x,1/2+y,-z
1/2-x,1/2-y,-z
1/2+x,1/2-y,z
loop_
_atom_site_type_symbol
_atom_site_label
_atom_site_fract_x
_atom_site_fract_y
_atom_site_fract_z
Si Si1 0.586537 0.888760 0.364130
Si Si2 0.737978 0.816905 0.671764
Si Si3 0.680884 0.386389 0.088319
Si Si4 0.534659 0.331757 0.781189
Si Si5 0.079281 0.888851 0.492989
O O1 0.594610 0.874760 0.466392
O O2 0.491893 0.786661 0.236033
O O3 0.818078 0.878754 0.575762
O O4 0.520219 0.000000 0.275638
O O5 0.731717 0.701567 0.642278
O O6 0.951448 0.861949 0.872189
O O7 0.706088 0.823775 0.731261
O O8 0.720856 0.500000 0.147170
O O9 0.683542 0.369246 0.998902
O O10 0.576022 0.363143 0.734508
O O11 0.000000 0.886577 0.500000
O O12 0.155930 0.000000 0.558129
#
# Coordination Sequence:
#
# PCOD9170020 Si02
#       5
#     8   8   8   8   8
#     4   9  15  26  45  68  95 118 144 192 239 275
#     4   9  17  29  47  72  94 119 152 186 234 285
#     4  10  17  29  51  75  99 119 142 190 247 287
#     4   9  17  27  45  70  89 118 159 189 226 277
#     4  10  20  34  49  64  91 131 166 193 220 262
#
# _framework density 25.41
#
# number of rings (size 3 to 8) (size 9 to 14) (size 15 to 20)
#    0.000    2.600    0.000    6.600    0.000    0.000 
#    0.000    4.000    0.000   21.600    0.000    0.000 
#    0.000    0.000    0.000    0.000    0.000    0.000 
#
# Total GULP energy -111836.872141 kJ/mol
# GULP energy per Si atom -5591.843607 kJ/mol
# Density = 2.535217 g / cm^3
# Si number density = 25.410000 Si / 1000 Ang^3
#
#
#
# Elastic Constant Matrix: (Units=GPa)
#
#
# Indices 1 2 3 4 5 6 
#
# 1 129.8787 9.1131 19.1528 0.0023 -37.2872 0.0033
# 2 9.1131 227.9670 32.8041 0.0000 -16.8946 0.0101
# 3 19.1528 32.8041 88.3851 0.0063 -45.2707 0.0032
# 4 0.0023 0.0000 0.0063 22.6588 0.0022 1.9997
# 5 -37.2872 -16.8946 -45.2707 0.0022 58.7895 0.0052
# 6 0.0033 0.0101 0.0032 1.9997 0.0052 32.0448
#
#
#
# Elastic Compliance Matrix: (Units=1/GPa)
#
#
# Indices 1 2 3 4 5 6 
#
# 1 0.009569 -0.000086 0.001741 -0.000002 0.007385 -0.000002
# 2 -0.000086 0.004635 -0.001729 0.000001 -0.000054 -0.000001
# 3 0.001741 -0.001729 0.019634 -0.000007 0.015726 -0.000004
# 4 -0.000002 0.000001 -0.000007 0.044377 -0.000008 -0.002769
# 5 0.007385 -0.000054 0.015726 -0.000008 0.033788 -0.000007
# 6 -0.000002 -0.000001 -0.000004 -0.002769 -0.000007 0.031379
#
#
# Mechanical properties :
#
#
# Convention : Reuss Voigt Hill
#
# Bulk Modulus (GPa) = 29.68340 63.15232 46.41786
# Shear Modulus (GPa) = 32.30809 48.37600 40.34204
#
# Velocity S-wave (km/s) = 3.56964 4.36801 3.98885
# Velocity P-wave (km/s) = 5.35695 7.09554 6.28663
#
# Compressibility (1/GPa) = 0.03368886
#
# Stress axis : x y z
#
# Youngs Moduli (GPa) = 104.50437 215.75582 50.93324
#
# Poissons Ratio (x) = 0.01850 -0.08867
# Poissons Ratio (y) = 0.00896 0.08808
# Poissons Ratio (z) = -0.18193 0.37312
#
# Static dielectric constant tensor:
#      x y z
#    x 2.228100 0.000000 0.035200 
#    y 0.000000 1.895770 0.000000 
#    z 0.035200 0.000000 2.014670 
# 
# From -- ./inp_files/163879.got.cif
#   From: 2010.05.17/outbox.cif.g08.bks.cpg/sg12_82_cif.got.tgz:163879.got - 2010.06.03 13:09:07.
