data_PCOD9170672
_publ_section_title
;
Structure prediction by ZEFSAII (Michael W. Deem and Ramdas Pophale) SiO2 
 PCOD9170672
Probable space group: C 2/M
;
_chemical_formula_sum "Si O2"
_cell_formula_units_Z 48
_cell_length_a 20.703619
_cell_length_b 16.761134
_cell_length_c 17.818024
_cell_angle_alpha 90.000000
_cell_angle_beta 26.998370
_cell_angle_gamma 90.000000
_cell_volume 2806.930892
_symmetry_space_group_name_H-M "C 2/M"
_symmetry_group_IT_number 12
_symmetry_cell_setting 'monoclinic'
loop_
_space_group_symop_operation_xyz
x,y,z
-x,y,-z
-x,-y,-z
x,-y,z
1/2+x,1/2+y,z
1/2-x,1/2+y,-z
1/2-x,1/2-y,-z
1/2+x,1/2-y,z
loop_
_atom_site_type_symbol
_atom_site_label
_atom_site_fract_x
_atom_site_fract_y
_atom_site_fract_z
Si Si1 0.416109 0.819398 0.507821
Si Si2 0.291837 0.828069 0.860207
Si Si3 0.931386 0.133386 0.488190
Si Si4 0.387694 0.000000 0.004300
Si Si5 0.298874 0.000000 0.270888
Si Si6 0.213390 0.859509 0.109885
Si Si7 0.834468 0.904607 0.159192
O O1 0.500000 0.827764 0.500000
O O2 0.537519 0.843266 0.322402
O O3 0.386888 0.725695 0.528399
O O4 0.271501 0.868178 0.668175
O O5 0.269265 0.732052 0.879483
O O6 0.216752 0.869333 0.867460
O O7 0.232272 0.857370 0.001059
O O8 0.798685 0.076593 0.614372
O O9 0.000000 0.120788 0.500000
O O10 0.056392 0.116202 0.299694
O O11 0.339174 0.000000 0.141218
O O12 0.323062 0.078528 0.032375
O O13 0.557831 0.000000 0.829602
O O14 0.819174 0.000000 0.174594
O O15 0.000000 0.884610 0.000000
#
# Coordination Sequence:
#
# PCOD9170672 Si02
#       7
#     8   8   8   4   4   8   8
#     4   8  17  33  55  80 102 135 182 219 263 312
#     4   9  20  37  59  81 104 139 181 227 266 315
#     4  10  17  33  55  78 106 146 180 217 258 312
#     4  11  23  34  51  82 111 145 174 219 268 315
#     4  11  22  33  50  81 116 140 180 216 259 317
#     4  10  20  37  57  81 108 140 185 219 264 318
#     4  10  21  36  55  82 109 139 177 221 274 322
#
# _framework density 17.100528000000001
#
# number of rings (size 3 to 8) (size 9 to 14) (size 15 to 20)
#    0.000    2.333    1.667    1.750    1.167    4.333 
#    0.000    1.667    0.000    6.000    0.000    0.000 
#    0.000    0.000    0.000    0.000    0.000    0.000 
#
# Total GULP energy -133828.347218 kJ/mol
# GULP energy per Si atom -5576.181134 kJ/mol
# Density = 1.706161 g / cm^3
# Si number density = 17.100528 Si / 1000 Ang^3
#
#
#
# Elastic Constant Matrix: (Units=GPa)
#
#
# Indices 1 2 3 4 5 6 
#
# 1 53.4620 44.8444 65.3404 -0.0001 -0.7910 0.0001
# 2 44.8444 72.8177 82.2913 -0.0001 -14.6436 0.0002
# 3 65.3404 82.2913 177.2071 0.0000 -3.1377 0.0002
# 4 -0.0001 -0.0001 0.0000 29.4829 0.0001 -1.4326
# 5 -0.7910 -14.6436 -3.1377 0.0001 32.2297 -0.0001
# 6 0.0001 0.0002 0.0002 -1.4326 -0.0001 18.5315
#
#
#
# Elastic Compliance Matrix: (Units=1/GPa)
#
#
# Indices 1 2 3 4 5 6 
#
# 1 0.045427 -0.022795 -0.006339 0.000000 -0.009859 0.000000
# 2 -0.022795 0.045686 -0.012475 0.000000 0.018984 0.000000
# 3 -0.006339 -0.012475 0.013694 0.000000 -0.004490 0.000000
# 4 0.000000 0.000000 0.000000 0.034046 0.000000 0.002632
# 5 -0.009859 0.018984 -0.004490 0.000000 0.038973 0.000000
# 6 0.000000 0.000000 0.000000 0.002632 0.000000 0.054166
#
#
# Mechanical properties :
#
#
# Convention : Reuss Voigt Hill
#
# Bulk Modulus (GPa) = 46.31761 76.49325 61.40543
# Shear Modulus (GPa) = 15.50837 23.44952 19.47894
#
# Velocity S-wave (km/s) = 3.01474 3.70709 3.37869
# Velocity P-wave (km/s) = 6.26598 7.94682 7.15592
#
# Compressibility (1/GPa) = 0.02159006
#
# Stress axis : x y z
#
# Youngs Moduli (GPa) = 22.01320 21.88845 73.02501
#
# Poissons Ratio (x) = 0.49895 0.46292
# Poissons Ratio (y) = 0.50179 0.91095
# Poissons Ratio (z) = 0.13955 0.27305
#
# Static dielectric constant tensor:
#      x y z
#    x 1.545740 0.000000 0.021210 
#    y 0.000000 1.579150 0.000000 
#    z 0.021210 0.000000 1.595480 
# 
# From -- ./inp_files/278058.got.cif
#   From: 2010.05.17/outbox.cif.g08.bks.cpg/sg12_140_cif.got.tgz:278058.got - 2010.06.03 13:09:07.
