data_PCOD9170496
_publ_section_title
;
Structure prediction by ZEFSAII (Michael W. Deem and Ramdas Pophale) SiO2 
 PCOD9170496
Probable space group: C 2/M
;
_chemical_formula_sum "Si O2"
_cell_formula_units_Z 32
_cell_length_a 25.120756
_cell_length_b 13.195983
_cell_length_c 16.125847
_cell_angle_alpha 90.000000
_cell_angle_beta 22.231671
_cell_angle_gamma 90.000000
_cell_volume 2022.523676
_symmetry_space_group_name_H-M "C 2/M"
_symmetry_group_IT_number 12
_symmetry_cell_setting 'monoclinic'
loop_
_space_group_symop_operation_xyz
x,y,z
-x,y,-z
-x,-y,-z
x,-y,z
1/2+x,1/2+y,z
1/2-x,1/2+y,-z
1/2-x,1/2-y,-z
1/2+x,1/2-y,z
loop_
_atom_site_type_symbol
_atom_site_label
_atom_site_fract_x
_atom_site_fract_y
_atom_site_fract_z
Si Si1 0.901141 0.183156 0.516496
Si Si2 0.486786 0.887350 0.317970
Si Si3 0.691118 0.619884 0.173043
Si Si4 0.234076 0.500000 0.681786
Si Si5 0.459652 0.000000 0.194554
O O1 0.901164 0.295271 0.479070
O O2 0.829832 0.177858 0.710061
O O3 0.063074 0.150396 0.298597
O O4 0.825120 0.099729 0.569649
O O5 0.460339 0.905828 0.257825
O O6 0.457787 0.000000 0.396437
O O7 0.653382 0.865948 0.086949
O O8 0.676842 0.500000 0.213211
O O9 0.167347 0.500000 0.686689
O O10 0.102987 0.500000 0.935199
#
# Coordination Sequence:
#
# PCOD9170496 Si02
#       5
#     8   8   8   4   4
#     4  11  17  29  56  74  95 124 166 200 246 283
#     4   9  19  34  47  70 105 130 153 199 246 293
#     4  10  17  32  50  77  97 123 164 205 239 287
#     4  11  18  32  57  73  88 130 171 211 235 270
#     4   9  20  35  48  73  97 127 170 201 243 277
#
# _framework density 15.821816999999999
#
# number of rings (size 3 to 8) (size 9 to 14) (size 15 to 20)
#    0.750    1.250    5.000    1.500    0.000    1.000 
#    0.000    2.500    2.750    0.000    0.000    3.500 
#    0.000    0.000    0.000    0.000    0.000    0.000 
#
# Total GULP energy -89083.898364 kJ/mol
# GULP energy per Si atom -5567.743648 kJ/mol
# Density = 1.578581 g / cm^3
# Si number density = 15.821817 Si / 1000 Ang^3
#
#
#
# Elastic Constant Matrix: (Units=GPa)
#
#
# Indices 1 2 3 4 5 6 
#
# 1 63.9656 32.8010 26.0729 0.0000 -20.4929 0.0000
# 2 32.8010 125.5783 51.7600 0.0000 3.2798 0.0000
# 3 26.0729 51.7600 35.8628 0.0000 -9.8434 0.0000
# 4 0.0000 0.0000 0.0000 21.8358 0.0000 12.4597
# 5 -20.4929 3.2798 -9.8434 0.0000 24.1460 0.0000
# 6 0.0000 0.0000 0.0000 12.4597 0.0000 11.8472
#
#
#
# Elastic Compliance Matrix: (Units=1/GPa)
#
#
# Indices 1 2 3 4 5 6 
#
# 1 0.027997 -0.004623 -0.007869 0.000000 0.021182 0.000000
# 2 -0.004623 0.028075 -0.044231 0.000000 -0.025768 0.000000
# 3 -0.007869 -0.044231 0.109512 0.000000 0.043973 0.000000
# 4 0.000000 0.000000 0.000000 0.114523 0.000000 -0.120445
# 5 0.021182 -0.025768 0.043973 0.000000 0.080818 0.000000
# 6 0.000000 0.000000 0.000000 -0.120445 0.000000 0.211081
#
#
# Mechanical properties :
#
#
# Convention : Reuss Voigt Hill
#
# Bulk Modulus (GPa) = 19.17964 49.63048 34.40506
# Shear Modulus (GPa) = 7.11408 19.21732 13.16570
#
# Velocity S-wave (km/s) = 2.12277 3.48890 2.88778
# Velocity P-wave (km/s) = 4.26108 6.90409 5.73686
#
# Compressibility (1/GPa) = 0.05213863
#
# Stress axis : x y z
#
# Youngs Moduli (GPa) = 35.71761 35.61946 9.13142
#
# Poissons Ratio (x) = 0.16466 0.07185
# Poissons Ratio (y) = 0.16512 0.40389
# Poissons Ratio (z) = 0.28105 1.57549
#
# Static dielectric constant tensor:
#      x y z
#    x 1.533310 0.000000 -0.004960 
#    y 0.000000 1.529830 0.000000 
#    z -0.004960 0.000000 1.528640 
# 
# From -- ./inp_files/127431.got.cif
#   From: 2010.05.17/outbox.cif.g08.bks.cpg/sg12_64_cif.got.tgz:127431.got - 2010.06.03 13:09:07.
