data_PCOD9170486
_publ_section_title
;
Structure prediction by ZEFSAII (Michael W. Deem and Ramdas Pophale) SiO2 
 PCOD9170486
Probable space group: C 2/M
;
_chemical_formula_sum "Si O2"
_cell_formula_units_Z 64
_cell_length_a 23.263948
_cell_length_b 13.888503
_cell_length_c 21.820468
_cell_angle_alpha 90.000000
_cell_angle_beta 19.284235
_cell_angle_gamma 90.000000
_cell_volume 2328.369562
_symmetry_space_group_name_H-M "C 2/M"
_symmetry_group_IT_number 12
_symmetry_cell_setting 'monoclinic'
loop_
_space_group_symop_operation_xyz
x,y,z
-x,y,-z
-x,-y,-z
x,-y,z
1/2+x,1/2+y,z
1/2-x,1/2+y,-z
1/2-x,1/2-y,-z
1/2+x,1/2-y,z
loop_
_atom_site_type_symbol
_atom_site_label
_atom_site_fract_x
_atom_site_fract_y
_atom_site_fract_z
Si Si1 0.651131 0.897434 0.200582
Si Si2 0.926576 0.358624 0.175564
Si Si3 0.601199 0.672278 0.644432
Si Si4 0.749295 0.667548 0.236392
Si Si5 0.440541 0.368608 0.186821
Si Si6 0.555454 0.682059 0.316734
Si Si7 0.389775 0.849541 0.896571
Si Si8 0.790417 0.606107 0.698536
O O1 0.550615 0.799744 0.321069
O O2 0.646012 0.898589 0.131917
O O3 0.573509 0.000000 0.298857
O O4 0.851987 0.891588 0.021889
O O5 0.771351 0.373189 0.282992
O O6 0.927553 0.245662 0.190443
O O7 0.963688 0.396708 0.206679
O O8 0.092335 0.373660 0.964019
O O9 0.750000 0.750000 0.500000
O O10 0.620001 0.604252 0.683588
O O11 0.584933 0.642201 0.590268
O O12 0.437322 0.740459 0.828062
O O13 0.586173 0.651815 0.355446
O O14 0.768896 0.785444 0.220811
O O15 0.306973 0.401033 0.269169
O O16 0.728662 0.653912 0.104753
O O17 0.738833 0.500000 0.776875
O O18 0.000000 0.610120 0.500000
#
# Coordination Sequence:
#
# PCOD9170486 Si02
#       8
#     8   8   8   8   8   8   8   8
#     4  11  18  27  48  72  91 121 157 193 237 284
#     4   8  15  28  48  63  85 112 145 191 239 260
#     4  10  18  27  50  70  87 121 160 195 241 279
#     4   9  16  28  46  68  81 113 160 186 222 274
#     4  10  17  33  44  62  91 117 156 198 232 273
#     4  10  17  32  49  69  98 120 152 203 240 272
#     4   9  16  33  48  65  96 120 149 199 244 275
#     4  10  22  34  41  55  93 138 158 182 232 284
#
# _framework density 27.487045999999999
#
# number of rings (size 3 to 8) (size 9 to 14) (size 15 to 20)
#    0.000    2.375    5.000    1.125    1.750    0.500 
#    0.000    1.875    0.000    0.750    0.000    7.000 
#    0.000    0.000    0.000    4.500    0.000    7.125 
#
# Total GULP energy -178401.476700 kJ/mol
# GULP energy per Si atom -5575.046147 kJ/mol
# Density = 2.742448 g / cm^3
# Si number density = 27.487046 Si / 1000 Ang^3
#
#
#
# Elastic Constant Matrix: (Units=GPa)
#
#
# Indices 1 2 3 4 5 6 
#
# 1 354.1643 0.7430 41.1316 -0.0114 -34.5352 -0.0016
# 2 0.7430 76.0959 -5.6191 -0.0351 -4.6962 0.0014
# 3 41.1316 -5.6191 83.8268 -0.0457 -33.9602 0.0102
# 4 -0.0114 -0.0351 -0.0457 -18.1544 0.0097 13.2978
# 5 -34.5352 -4.6962 -33.9602 0.0097 47.9198 -0.0002
# 6 -0.0016 0.0014 0.0102 13.2978 -0.0002 -15.9746
#
#
#
# Elastic Compliance Matrix: (Units=1/GPa)
#
#
# Indices 1 2 3 4 5 6 
#
# 1 0.003080 0.000006 -0.000858 0.000001 0.001613 0.000000
# 2 0.000006 0.013460 0.002013 -0.000071 0.002750 -0.000057
# 3 -0.000858 0.002013 0.017274 -0.000083 0.011821 -0.000058
# 4 0.000001 -0.000071 -0.000083 -0.141145 -0.000037 -0.117494
# 5 0.001613 0.002750 0.011821 -0.000037 0.030678 -0.000024
# 6 0.000000 -0.000057 -0.000058 -0.117494 -0.000024 -0.160405
#
#
# Mechanical properties :
#
#
# Convention : Reuss Voigt Hill
#
# Bulk Modulus (GPa) = 27.67170 65.17755 46.42462
# Shear Modulus (GPa) = -21.99388 34.61360 6.30986
#
# Velocity S-wave (km/s) = -2.83177 3.55247 1.51676
# Velocity P-wave (km/s) = 0.77643 6.37105 4.47143
#
# Compressibility (1/GPa) = 0.03613800
#
# Stress axis : x y z
#
# Youngs Moduli (GPa) = 324.63208 74.29617 57.88987
#
# Poissons Ratio (x) = -0.00045 0.04965
# Poissons Ratio (y) = -0.00199 -0.11656
# Poissons Ratio (z) = 0.27843 -0.14959
#
# Static dielectric constant tensor:
#      x y z
#    x 2.252010 -0.000030 -0.024420 
#    y -0.000030 2.115800 0.000070 
#    z -0.024420 0.000070 2.358540 
# 
# From -- ./inp_files/369723.got.cif
#   From: 2010.05.17/outbox.cif.g08.bks.cpg/sg12_185_cif.got.tgz:369723.got - 2010.06.03 13:09:07.
