data_PCOD9170087
_publ_section_title
;
Structure prediction by ZEFSAII (Michael W. Deem and Ramdas Pophale) SiO2 
 PCOD9170087
Probable space group: C 2/M
;
_chemical_formula_sum "Si O2"
_cell_formula_units_Z 64
_cell_length_a 20.364487
_cell_length_b 16.779979
_cell_length_c 23.964989
_cell_angle_alpha 90.000000
_cell_angle_beta 23.576986
_cell_angle_gamma 90.000000
_cell_volume 3275.528643
_symmetry_space_group_name_H-M "C 2/M"
_symmetry_group_IT_number 12
_symmetry_cell_setting 'monoclinic'
loop_
_space_group_symop_operation_xyz
x,y,z
-x,y,-z
-x,-y,-z
x,-y,z
1/2+x,1/2+y,z
1/2-x,1/2+y,-z
1/2-x,1/2-y,-z
1/2+x,1/2-y,z
loop_
_atom_site_type_symbol
_atom_site_label
_atom_site_fract_x
_atom_site_fract_y
_atom_site_fract_z
Si Si1 0.606369 0.822314 0.769960
Si Si2 0.964383 0.624904 0.397292
Si Si3 0.677966 0.374354 0.847980
Si Si4 0.967672 0.186307 0.659957
Si Si5 0.124950 0.296923 0.949630
Si Si6 0.341652 0.585543 0.661344
Si Si7 0.306883 0.091400 0.402720
Si Si8 0.684066 0.832899 0.378550
O O1 0.691971 0.892619 0.738476
O O2 0.583079 0.858144 0.726760
O O3 0.732524 0.748993 0.667349
O O4 0.465015 0.792082 0.921157
O O5 0.885750 0.594006 0.402185
O O6 0.849042 0.612532 0.541424
O O7 0.148724 0.592841 0.264284
O O8 0.982116 0.721439 0.377585
O O9 0.662503 0.288018 0.890820
O O10 0.711401 0.364983 0.755534
O O11 0.500000 0.411615 0.000000
O O12 0.805598 0.168776 0.822782
O O13 0.885174 0.160124 0.665874
O O14 0.127566 0.132658 0.544245
O O15 0.000000 0.335754 0.000000
O O16 0.500000 0.578145 0.500000
O O17 0.316831 0.500000 0.710067
O O18 0.289754 0.000000 0.397323
O O19 0.500000 0.817079 0.500000
#
# Coordination Sequence:
#
# PCOD9170087 Si02
#       8
#     8   8   8   8   8   8   8   8
#     4  12  19  32  53  80 118 156 188 223 265 334
#     4  10  21  37  59  85 112 145 192 241 282 335
#     4   9  16  32  59  93 120 132 169 237 305 338
#     4  11  20  35  56  80 109 146 194 237 283 330
#     4  10  18  31  51  86 119 144 175 229 282 330
#     4  11  19  29  48  79 112 145 184 224 270 326
#     4  12  26  41  55  74 113 163 202 233 275 335
#     4  10  17  29  57  90 115 138 180 241 282 329
#
# _framework density 19.538830999999998
#
# number of rings (size 3 to 8) (size 9 to 14) (size 15 to 20)
#    0.000    1.375    6.250    3.000    0.000    0.000 
#    0.000    6.875    0.000    3.750    0.000    0.000 
#    0.000    0.000    0.000    0.000    0.000    0.000 
#
# Total GULP energy -178227.900079 kJ/mol
# GULP energy per Si atom -5569.621877 kJ/mol
# Density = 1.949436 g / cm^3
# Si number density = 19.538831 Si / 1000 Ang^3
#
#
#
# Elastic Constant Matrix: (Units=GPa)
#
#
# Indices 1 2 3 4 5 6 
#
# 1 89.7149 14.9113 43.1826 0.0007 17.8499 0.0017
# 2 14.9113 55.2840 13.3893 0.0452 4.0773 -0.0383
# 3 43.1826 13.3893 150.9099 0.0259 21.1152 -0.0112
# 4 0.0007 0.0452 0.0259 -19.8657 0.0021 23.9020
# 5 17.8499 4.0773 21.1152 0.0021 21.2636 -0.0063
# 6 0.0017 -0.0383 -0.0112 23.9020 -0.0063 -12.9596
#
#
#
# Elastic Compliance Matrix: (Units=1/GPa)
#
#
# Indices 1 2 3 4 5 6 
#
# 1 0.014704 -0.002638 -0.002691 -0.000008 -0.009165 0.000002
# 2 -0.002638 0.019050 -0.000852 0.000020 -0.000592 -0.000018
# 3 -0.002691 -0.000852 0.008284 -0.000005 -0.005804 -0.000011
# 4 -0.000008 0.000020 -0.000005 0.041292 0.000026 0.076157
# 5 -0.009165 -0.000592 -0.005804 0.000026 0.060599 0.000024
# 6 0.000002 -0.000018 -0.000011 0.076157 0.000024 0.063297
#
#
# Mechanical properties :
#
#
# Convention : Reuss Voigt Hill
#
# Bulk Modulus (GPa) = 33.69890 48.76391 41.23140
# Shear Modulus (GPa) = 21.78829 12.64936 17.21882
#
# Velocity S-wave (km/s) = 3.34298 2.54716 2.97183
# Velocity P-wave (km/s) = 5.67320 5.80192 5.73792
#
# Compressibility (1/GPa) = 0.02967456
#
# Stress axis : x y z
#
# Youngs Moduli (GPa) = 68.01022 52.49322 120.71153
#
# Poissons Ratio (x) = 0.13849 0.32483
# Poissons Ratio (y) = 0.17943 0.10291
# Poissons Ratio (z) = 0.18301 0.04475
#
# Static dielectric constant tensor:
#      x y z
#    x 1.742600 -0.000020 0.092990 
#    y -0.000020 1.729840 -0.000020 
#    z 0.092990 -0.000020 1.880460 
# 
# From -- ./inp_files/317336.got.cif
#   From: 2010.05.17/outbox.cif.g08.bks.cpg/sg12_159_cif.got.tgz:317336.got - 2010.06.03 13:09:07.
