data_PCOD9170668
_publ_section_title
;
Structure prediction by ZEFSAII (Michael W. Deem and Ramdas Pophale) SiO2 
 PCOD9170668
Probable space group: C 2/M
;
_chemical_formula_sum "Si O2"
_cell_formula_units_Z 56
_cell_length_a 18.329274
_cell_length_b 18.695314
_cell_length_c 14.371001
_cell_angle_alpha 90.000000
_cell_angle_beta 32.483953
_cell_angle_gamma 90.000000
_cell_volume 2644.786287
_symmetry_space_group_name_H-M "C 2/M"
_symmetry_group_IT_number 12
_symmetry_cell_setting 'monoclinic'
loop_
_space_group_symop_operation_xyz
x,y,z
-x,y,-z
-x,-y,-z
x,-y,z
1/2+x,1/2+y,z
1/2-x,1/2+y,-z
1/2-x,1/2-y,-z
1/2+x,1/2-y,z
loop_
_atom_site_type_symbol
_atom_site_label
_atom_site_fract_x
_atom_site_fract_y
_atom_site_fract_z
Si Si1 0.291577 0.809699 0.840946
Si Si2 0.601853 0.646624 0.303689
Si Si3 0.990422 0.227858 0.132745
Si Si4 0.365911 0.316578 0.453284
Si Si5 0.160440 0.419694 0.588365
Si Si6 0.217502 0.678659 0.350100
Si Si7 0.382946 0.869044 0.945110
O O1 0.344382 0.728408 0.768906
O O2 0.331083 0.844995 0.699699
O O3 0.342785 0.835690 0.886072
O O4 0.128076 0.813307 0.011842
O O5 0.500000 0.636369 0.500000
O O6 0.502245 0.635946 0.668140
O O7 0.743613 0.604654 0.142613
O O8 0.048315 0.308155 0.063085
O O9 0.896715 0.226185 0.326035
O O10 0.880593 0.196224 0.178170
O O11 0.243136 0.370393 0.571311
O O12 0.344645 0.255878 0.554081
O O13 0.214203 0.500000 0.524382
O O14 0.178431 0.378533 0.470532
O O15 0.004950 0.420756 0.788022
#
# Coordination Sequence:
#
# PCOD9170668 Si02
#       7
#     8   8   8   8   8   8   8
#     4  11  20  30  57  96 131 149 189 251 307 352
#     4  11  20  33  60  96 121 147 192 254 312 352
#     4  10  17  33  54  88 121 160 192 243 292 350
#     4  11  18  37  60  88 119 153 202 252 297 347
#     4  11  24  41  62  83 119 168 205 242 298 365
#     4  11  20  34  60  93 126 154 201 248 296 359
#     4  11  20  37  58  86 128 155 196 247 303 357
#
# _framework density 21.173732999999999
#
# number of rings (size 3 to 8) (size 9 to 14) (size 15 to 20)
#    0.000    1.143    7.143    2.143    0.000    0.000 
#    0.000    2.857    0.000    9.429    0.000    0.000 
#    0.000    0.000    0.000    0.000    0.000    0.000 
#
# Total GULP energy -155995.805744 kJ/mol
# GULP energy per Si atom -5571.278777 kJ/mol
# Density = 2.112554 g / cm^3
# Si number density = 21.173733 Si / 1000 Ang^3
#
#
#
# Elastic Constant Matrix: (Units=GPa)
#
#
# Indices 1 2 3 4 5 6 
#
# 1 77.2266 11.7259 34.8063 -0.0004 -4.2919 0.0003
# 2 11.7259 64.8149 23.2666 -0.0002 -3.1788 0.0002
# 3 34.8063 23.2666 140.1335 -0.0001 -22.0901 0.0001
# 4 -0.0004 -0.0002 -0.0001 9.4534 0.0002 -3.5444
# 5 -4.2919 -3.1788 -22.0901 0.0002 44.4627 -0.0001
# 6 0.0003 0.0002 0.0001 -3.5444 -0.0001 0.1036
#
#
#
# Elastic Compliance Matrix: (Units=1/GPa)
#
#
# Indices 1 2 3 4 5 6 
#
# 1 0.014713 -0.001432 -0.003481 0.000001 -0.000412 0.000001
# 2 -0.001432 0.016547 -0.002416 0.000001 -0.000156 0.000001
# 3 -0.003481 -0.002416 0.009029 0.000000 0.003977 -0.000001
# 4 0.000001 0.000001 0.000000 -0.008944 -0.000001 -0.305989
# 5 -0.000412 -0.000156 0.003977 -0.000001 0.024416 -0.000001
# 6 0.000001 0.000001 -0.000001 -0.305989 -0.000001 -0.816113
#
#
# Mechanical properties :
#
#
# Convention : Reuss Voigt Hill
#
# Bulk Modulus (GPa) = 39.01809 46.86363 42.94086
# Shear Modulus (GPa) = -6.78288 24.96235 9.08973
#
# Velocity S-wave (km/s) = -1.79176 3.43728 2.07419
# Velocity P-wave (km/s) = 3.76657 6.15907 5.10496
#
# Compressibility (1/GPa) = 0.02562914
#
# Stress axis : x y z
#
# Youngs Moduli (GPa) = 67.96911 60.43263 110.75604
#
# Poissons Ratio (x) = 0.08655 0.38559
# Poissons Ratio (y) = 0.09734 0.26761
# Poissons Ratio (z) = 0.23663 0.14602
#
# Static dielectric constant tensor:
#      x y z
#    x 1.875260 0.000000 0.023460 
#    y 0.000000 1.711350 0.000000 
#    z 0.023460 0.000000 1.888200 
# 
# From -- ./inp_files/234642.got.cif
#   From: 2010.05.17/outbox.cif.g08.bks.cpg/sg12_118_cif.got.tgz:234642.got - 2010.06.03 13:09:07.
