data_PCOD9170676
_publ_section_title
;
Structure prediction by ZEFSAII (Michael W. Deem and Ramdas Pophale) SiO2 
 PCOD9170676
Probable space group: C 2/M
;
_chemical_formula_sum "Si O2"
_cell_formula_units_Z 64
_cell_length_a 14.858089
_cell_length_b 14.054302
_cell_length_c 19.054173
_cell_angle_alpha 90.000000
_cell_angle_beta 54.190042
_cell_angle_gamma 90.000000
_cell_volume 3226.732186
_symmetry_space_group_name_H-M "C 2/M"
_symmetry_group_IT_number 12
_symmetry_cell_setting 'monoclinic'
loop_
_space_group_symop_operation_xyz
x,y,z
-x,y,-z
-x,-y,-z
x,-y,z
1/2+x,1/2+y,z
1/2-x,1/2+y,-z
1/2-x,1/2-y,-z
1/2+x,1/2-y,z
loop_
_atom_site_type_symbol
_atom_site_label
_atom_site_fract_x
_atom_site_fract_y
_atom_site_fract_z
Si Si1 0.912867 0.602207 0.649115
Si Si2 0.919360 0.203348 0.592365
Si Si3 0.700970 0.245375 0.601418
Si Si4 0.020477 0.606659 0.747888
Si Si5 0.123701 0.890539 0.978336
Si Si6 0.454286 0.285785 0.856990
Si Si7 0.672939 0.389938 0.806734
Si Si8 0.507597 0.386665 0.299660
O O1 0.945728 0.500000 0.604175
O O2 0.969800 0.693516 0.590452
O O3 0.780276 0.613273 0.709232
O O4 0.937811 0.600443 0.720121
O O5 0.805875 0.230187 0.605171
O O6 0.923981 0.144681 0.662262
O O7 0.000000 0.154267 0.500000
O O8 0.750000 0.250000 0.500000
O O9 0.624648 0.157302 0.662246
O O10 0.613537 0.334130 0.644993
O O11 0.045114 0.500000 0.761670
O O12 0.968928 0.675969 0.829872
O O13 0.198234 0.866811 0.876738
O O14 0.144509 0.000000 0.991142
O O15 0.123316 0.818926 0.043641
O O16 0.000000 0.887925 0.000000
O O17 0.576895 0.322225 0.823563
O O18 0.430550 0.343710 0.796546
O O19 0.632741 0.500000 0.824561
O O20 0.495430 0.500000 0.300927
#
# Coordination Sequence:
#
# PCOD9170676 Si02
#       8
#     8   8   8   8   8   8   8   8
#     4  10  19  35  56  80 110 143 186 236 286 340
#     4  12  23  40  61  83 119 148 192 246 301 352
#     4  11  22  41  60  82 112 149 192 242 290 353
#     4  10  21  36  54  76 108 151 190 226 280 343
#     4   8  14  26  50  85 118 143 177 233 295 348
#     4  10  17  33  55  82 114 149 186 236 288 346
#     4   9  17  30  56  90 115 142 185 239 297 348
#     4  11  23  39  60  89 119 154 196 245 299 351
#
# _framework density 19.834309000000001
#
# number of rings (size 3 to 8) (size 9 to 14) (size 15 to 20)
#    0.000    1.875    3.750    3.375    0.000    3.000 
#    0.000    0.625    0.000    3.375    0.000    0.000 
#    0.000    0.000    0.000    0.000    0.000    0.000 
#
# Total GULP energy -178264.191997 kJ/mol
# GULP energy per Si atom -5570.756000 kJ/mol
# Density = 1.978917 g / cm^3
# Si number density = 19.834309 Si / 1000 Ang^3
#
#
#
# Elastic Constant Matrix: (Units=GPa)
#
#
# Indices 1 2 3 4 5 6 
#
# 1 79.0208 15.9078 11.0890 0.0000 14.4110 0.0000
# 2 15.9078 136.6933 35.9407 0.0000 18.9125 0.0000
# 3 11.0890 35.9407 80.1968 0.0000 28.5825 0.0000
# 4 0.0000 0.0000 0.0000 14.8696 0.0000 -0.7827
# 5 14.4110 18.9125 28.5825 0.0000 26.6043 0.0000
# 6 0.0000 0.0000 0.0000 -0.7827 0.0000 -6.1412
#
#
#
# Elastic Compliance Matrix: (Units=1/GPa)
#
#
# Indices 1 2 3 4 5 6 
#
# 1 0.014204 -0.000846 0.001528 0.000000 -0.008734 0.000000
# 2 -0.000846 0.008502 -0.002759 0.000000 -0.002622 0.000000
# 3 0.001528 -0.002759 0.021213 0.000000 -0.021657 0.000000
# 4 0.000000 0.000000 0.000000 0.066803 0.000000 -0.008514
# 5 -0.008734 -0.002622 -0.021657 0.000000 0.067450 0.000000
# 6 0.000000 0.000000 0.000000 -0.008514 0.000000 -0.161751
#
#
# Mechanical properties :
#
#
# Convention : Reuss Voigt Hill
#
# Bulk Modulus (GPa) = 25.14795 46.86509 36.00652
# Shear Modulus (GPa) = 147.79436 22.59810 85.19623
#
# Velocity S-wave (km/s) = 8.64154 3.37908 6.56104
# Velocity P-wave (km/s) = 10.59598 6.23729 8.69421
#
# Compressibility (1/GPa) = 0.03976467
#
# Stress axis : x y z
#
# Youngs Moduli (GPa) = 70.40449 117.61565 47.14060
#
# Poissons Ratio (x) = 0.09954 -0.07204
# Poissons Ratio (y) = 0.05959 0.13006
# Poissons Ratio (z) = -0.10759 0.32450
#
# Static dielectric constant tensor:
#      x y z
#    x 1.770480 0.000000 -0.008480 
#    y 0.000000 1.739840 0.000000 
#    z -0.008480 0.000000 1.754850 
# 
# From -- ./inp_files/270259.got.cif
#   From: 2010.05.17/outbox.cif.g08.bks.cpg/sg12_136_cif.got.tgz:270259.got - 2010.06.03 13:09:07.
