data_PCOD9170734
_publ_section_title
;
Structure prediction by ZEFSAII (Michael W. Deem and Ramdas Pophale) SiO2 
 PCOD9170734
Probable space group: C 2/M
;
_chemical_formula_sum "Si O2"
_cell_formula_units_Z 56
_cell_length_a 16.118938
_cell_length_b 17.976154
_cell_length_c 11.962029
_cell_angle_alpha 90.000000
_cell_angle_beta 52.691838
_cell_angle_gamma 90.000000
_cell_volume 2756.872141
_symmetry_space_group_name_H-M "C 2/M"
_symmetry_group_IT_number 12
_symmetry_cell_setting 'monoclinic'
loop_
_space_group_symop_operation_xyz
x,y,z
-x,y,-z
-x,-y,-z
x,-y,z
1/2+x,1/2+y,z
1/2-x,1/2+y,-z
1/2-x,1/2-y,-z
1/2+x,1/2-y,z
loop_
_atom_site_type_symbol
_atom_site_label
_atom_site_fract_x
_atom_site_fract_y
_atom_site_fract_z
Si Si1 0.185297 0.857204 0.580320
Si Si2 0.094984 0.306243 0.630801
Si Si3 0.102048 0.781540 0.235095
Si Si4 0.599625 0.127774 0.867107
Si Si5 0.884951 0.921197 0.146061
Si Si6 0.164890 0.914102 0.342357
Si Si7 0.663405 0.723012 0.939326
O O1 0.143852 0.773317 0.626135
O O2 0.309459 0.850268 0.505626
O O3 0.123829 0.910180 0.714320
O O4 0.165486 0.883418 0.469273
O O5 0.075579 0.353616 0.758049
O O6 0.988188 0.277952 0.661166
O O7 0.105133 0.855101 0.310548
O O8 0.216377 0.745604 0.145901
O O9 0.098375 0.796918 0.104500
O O10 0.711705 0.089413 0.788846
O O11 0.612052 0.206371 0.921623
O O12 0.500000 0.087917 0.000000
O O13 0.832858 0.849069 0.139126
O O14 0.835372 0.000000 0.155538
O O15 0.000000 0.921129 0.000000
O O16 0.129315 0.000000 0.364032
#
# Coordination Sequence:
#
# PCOD9170734 Si02
#       7
#     8   8   8   8   8   8   8
#     4  10  21  38  60  85 115 149 197 249 281 343
#     4  10  19  34  60  89 111 147 201 246 287 334
#     4  10  21  35  59  87 119 157 190 236 295 350
#     4  10  17  33  64  87 109 150 205 255 283 328
#     4  11  22  37  62  88 112 147 192 246 296 345
#     4  10  23  39  54  84 128 163 189 232 299 364
#     4  10  19  35  58  88 117 147 197 249 284 336
#
# _framework density 20.312874000000001
#
# number of rings (size 3 to 8) (size 9 to 14) (size 15 to 20)
#    0.000    1.857    2.857    1.714    2.000    1.429 
#    0.000    2.143    0.000    2.571    0.000    0.000 
#    0.000    0.000    0.000    0.000    0.000    0.000 
#
# Total GULP energy -156100.515629 kJ/mol
# GULP energy per Si atom -5575.018415 kJ/mol
# Density = 2.026664 g / cm^3
# Si number density = 20.312874 Si / 1000 Ang^3
#
#
#
# Elastic Constant Matrix: (Units=GPa)
#
#
# Indices 1 2 3 4 5 6 
#
# 1 58.7015 15.0287 24.3394 0.0000 -17.1480 0.0000
# 2 15.0287 91.1857 25.1180 0.0000 10.8967 0.0000
# 3 24.3394 25.1180 112.4810 0.0000 -5.8285 0.0000
# 4 0.0000 0.0000 0.0000 -10.7195 0.0000 6.0780
# 5 -17.1480 10.8967 -5.8285 0.0000 34.9717 0.0000
# 6 0.0000 0.0000 0.0000 6.0780 0.0000 13.5659
#
#
#
# Elastic Compliance Matrix: (Units=1/GPa)
#
#
# Indices 1 2 3 4 5 6 
#
# 1 0.023085 -0.004312 -0.003406 0.000000 0.012095 0.000000
# 2 -0.004312 0.013108 -0.002335 0.000000 -0.006588 0.000000
# 3 -0.003406 -0.002335 0.010188 0.000000 0.000756 0.000000
# 4 0.000000 0.000000 0.000000 -0.074390 0.000000 0.033329
# 5 0.012095 -0.006588 0.000756 0.000000 0.036704 0.000000
# 6 0.000000 0.000000 0.000000 0.033329 0.000000 0.058781
#
#
# Mechanical properties :
#
#
# Convention : Reuss Voigt Hill
#
# Bulk Modulus (GPa) = 38.05956 43.48226 40.77091
# Shear Modulus (GPa) = 51.89960 20.75576 36.32768
#
# Velocity S-wave (km/s) = 5.06019 3.20003 4.23354
# Velocity P-wave (km/s) = 7.27448 5.92506 6.63417
#
# Compressibility (1/GPa) = 0.02627461
#
# Stress axis : x y z
#
# Youngs Moduli (GPa) = 43.31887 76.29010 98.15481
#
# Poissons Ratio (x) = 0.32896 0.33427
# Poissons Ratio (y) = 0.18679 0.22923
# Poissons Ratio (z) = 0.14752 0.17817
#
# Static dielectric constant tensor:
#      x y z
#    x 1.802350 0.000000 -0.002130 
#    y 0.000000 1.688400 0.000000 
#    z -0.002130 0.000000 1.794460 
# 
# From -- ./inp_files/158213.got.cif
#   From: 2010.05.17/outbox.cif.g08.bks.cpg/sg12_80_cif.got.tgz:158213.got - 2010.06.03 13:09:07.
