data_PCOD9170006
_publ_section_title
;
Structure prediction by ZEFSAII (Michael W. Deem and Ramdas Pophale) SiO2 
 PCOD9170006
Probable space group: C 2/M
;
_chemical_formula_sum "Si O2"
_cell_formula_units_Z 48
_cell_length_a 19.640172
_cell_length_b 18.399114
_cell_length_c 14.417154
_cell_angle_alpha 90.000000
_cell_angle_beta 29.888764
_cell_angle_gamma 90.000000
_cell_volume 2596.139779
_symmetry_space_group_name_H-M "C 2/M"
_symmetry_group_IT_number 12
_symmetry_cell_setting 'monoclinic'
loop_
_space_group_symop_operation_xyz
x,y,z
-x,y,-z
-x,-y,-z
x,-y,z
1/2+x,1/2+y,z
1/2-x,1/2+y,-z
1/2-x,1/2-y,-z
1/2+x,1/2-y,z
loop_
_atom_site_type_symbol
_atom_site_label
_atom_site_fract_x
_atom_site_fract_y
_atom_site_fract_z
Si Si1 0.989546 0.415829 0.902356
Si Si2 0.150653 0.388522 0.234391
Si Si3 0.887828 0.763357 0.777821
Si Si4 0.832762 0.422390 0.583691
Si Si5 0.203990 0.082324 0.132874
Si Si6 0.640194 0.196094 0.588956
O O1 0.032720 0.500000 0.835132
O O2 0.076994 0.358806 0.739684
O O3 0.000000 0.401844 0.000000
O O4 0.834679 0.410629 0.046509
O O5 0.127606 0.302112 0.276911
O O6 0.211793 0.417553 0.257157
O O7 0.998880 0.418724 0.393507
O O8 0.238531 0.408193 0.040315
O O9 0.889289 0.846344 0.742317
O O10 0.016788 0.741331 0.688014
O O11 0.750000 0.750000 0.000000
O O12 0.792200 0.500000 0.591352
O O13 0.792670 0.354881 0.568770
O O14 0.148223 0.000000 0.208909
O O15 0.750000 0.250000 0.500000
#
# Coordination Sequence:
#
# PCOD9170006 Si02
#       6
#     8   8   8   8   8   8
#     4  10  20  35  57  79 103 144 194 232 265 321
#     4   9  16  26  51  80 102 127 167 223 269 310
#     4   9  17  33  53  76 108 137 179 219 267 321
#     4  10  17  29  50  77 104 132 170 216 268 316
#     4  10  17  31  54  77 103 136 183 227 262 311
#     4  11  22  36  51  81 114 143 175 220 280 330
#
# _framework density 18.488990000000001
#
# number of rings (size 3 to 8) (size 9 to 14) (size 15 to 20)
#    0.000    2.167    5.000    2.500    0.000    1.333 
#    0.000    1.667    0.000    0.000    0.000   18.667 
#    0.000    0.000    0.000    0.000    0.000    0.000 
#
# Total GULP energy -133721.833045 kJ/mol
# GULP energy per Si atom -5571.743044 kJ/mol
# Density = 1.844691 g / cm^3
# Si number density = 18.488990 Si / 1000 Ang^3
#
#
#
# Elastic Constant Matrix: (Units=GPa)
#
#
# Indices 1 2 3 4 5 6 
#
# 1 100.4085 63.3457 17.7561 -0.0001 2.4330 0.0000
# 2 63.3457 190.0784 21.8406 0.0000 -12.2561 0.0000
# 3 17.7561 21.8406 15.5436 -0.0002 -5.0887 0.0000
# 4 -0.0001 0.0000 -0.0002 16.2219 0.0001 -5.0289
# 5 2.4330 -12.2561 -5.0887 0.0001 17.4796 0.0001
# 6 0.0000 0.0000 0.0000 -5.0289 0.0001 20.3816
#
#
#
# Elastic Compliance Matrix: (Units=1/GPa)
#
#
# Indices 1 2 3 4 5 6 
#
# 1 0.015352 -0.003996 -0.014965 0.000000 -0.009295 0.000000
# 2 -0.003996 0.007380 -0.004342 0.000000 0.004466 0.000000
# 3 -0.014965 -0.004342 0.096405 0.000001 0.027104 0.000000
# 4 0.000000 0.000000 0.000001 0.066751 0.000000 0.016470
# 5 -0.009295 0.004466 0.027104 0.000000 0.069526 0.000000
# 6 0.000000 0.000000 0.000000 0.016470 0.000000 0.053128
#
#
# Mechanical properties :
#
#
# Convention : Reuss Voigt Hill
#
# Bulk Modulus (GPa) = 13.78751 56.87948 35.33349
# Shear Modulus (GPa) = 13.18133 24.35583 18.76858
#
# Velocity S-wave (km/s) = 2.67297 3.63342 3.18955
# Velocity P-wave (km/s) = 4.12307 6.95939 5.71982
#
# Compressibility (1/GPa) = 0.07252940
#
# Stress axis : x y z
#
# Youngs Moduli (GPa) = 65.13796 135.50819 10.37290
#
# Poissons Ratio (x) = 0.54149 0.15524
# Poissons Ratio (y) = 0.26029 0.04504
# Poissons Ratio (z) = 0.97482 0.58840
#
# Static dielectric constant tensor:
#      x y z
#    x 1.637440 0.000000 0.034180 
#    y 0.000000 1.718800 0.000000 
#    z 0.034180 0.000000 1.629460 
# 
# From -- ./inp_files/226736.got.cif
#   From: 2010.05.17/outbox.cif.g08.bks.cpg/sg12_114_cif.got.tgz:226736.got - 2010.06.03 13:09:07.
