data_PCOD9170334
_publ_section_title
;
Structure prediction by ZEFSAII (Michael W. Deem and Ramdas Pophale) SiO2 
 PCOD9170334
Probable space group: C 2/M
;
_chemical_formula_sum "Si O2"
_cell_formula_units_Z 56
_cell_length_a 29.848882
_cell_length_b 25.514743
_cell_length_c 5.619878
_cell_angle_alpha 90.000000
_cell_angle_beta 126.882073
_cell_angle_gamma 90.000000
_cell_volume 3423.473031
_symmetry_space_group_name_H-M "C 2/M"
_symmetry_group_IT_number 12
_symmetry_cell_setting 'monoclinic'
loop_
_space_group_symop_operation_xyz
x,y,z
-x,y,-z
-x,-y,-z
x,-y,z
1/2+x,1/2+y,z
1/2-x,1/2+y,-z
1/2-x,1/2-y,-z
1/2+x,1/2-y,z
loop_
_atom_site_type_symbol
_atom_site_label
_atom_site_fract_x
_atom_site_fract_y
_atom_site_fract_z
Si Si1 0.853645 0.707713 0.100981
Si Si2 0.633981 0.109436 0.187407
Si Si3 0.445694 0.837982 0.690204
Si Si4 0.574318 0.942535 0.610382
Si Si5 0.743307 0.334870 0.942667
Si Si6 0.202595 0.205747 0.319780
Si Si7 0.300914 0.058784 0.226153
O O1 0.913407 0.702150 0.418072
O O2 0.847012 0.653453 0.935824
O O3 0.799175 0.702841 0.100929
O O4 0.850129 0.758071 0.920975
O O5 0.601740 0.143511 0.278518
O O6 0.684635 0.077144 0.459824
O O7 0.589610 0.069582 0.931311
O O8 0.458825 0.892553 0.594095
O O9 0.500000 0.818783 0.000000
O O10 0.636788 0.941817 0.692750
O O11 0.550090 0.000000 0.491472
O O12 0.705837 0.322863 0.586980
O O13 0.716871 0.325615 0.121037
O O14 0.763779 0.395098 0.000651
O O15 0.250000 0.250000 0.500000
O O16 0.278467 0.000000 0.139683
#
# Coordination Sequence:
#
# PCOD9170334 Si02
#       7
#     8   8   8   8   8   8   8
#     4  10  19  31  46  65  85 115 145 192 236 276
#     4  10  17  31  47  57  87 111 157 189 239 272
#     4  10  21  32  45  61  83 111 151 197 242 284
#     4   9  18  30  43  59  79 112 155 194 240 273
#     4  11  19  32  46  72  91 115 150 189 226 274
#     4  10  21  29  49  69  92 113 147 186 236 271
#     4  10  18  28  44  65  88 119 150 188 230 273
#
# _framework density 16.357657
#
# number of rings (size 3 to 8) (size 9 to 14) (size 15 to 20)
#    0.000    2.000    4.286    3.857    2.000    3.143 
#    0.000    0.714    0.000    0.000    0.000    0.000 
#    0.000    0.000    0.000    0.000    0.000    4.286 
#
# Total GULP energy -155913.034944 kJ/mol
# GULP energy per Si atom -5568.322677 kJ/mol
# Density = 1.632043 g / cm^3
# Si number density = 16.357657 Si / 1000 Ang^3
#
#
#
# Elastic Constant Matrix: (Units=GPa)
#
#
# Indices 1 2 3 4 5 6 
#
# 1 28.2968 18.0232 18.0928 0.0000 -10.9127 0.0000
# 2 18.0232 72.4006 54.1009 0.0000 1.8273 0.0000
# 3 18.0928 54.1009 122.7645 0.0000 -6.0547 0.0000
# 4 0.0000 0.0000 0.0000 7.7410 0.0000 -0.4859
# 5 -10.9127 1.8273 -6.0547 0.0000 19.6401 0.0000
# 6 0.0000 0.0000 0.0000 -0.4859 0.0000 8.0217
#
#
#
# Elastic Compliance Matrix: (Units=1/GPa)
#
#
# Indices 1 2 3 4 5 6 
#
# 1 0.058093 -0.015135 -0.000234 0.000000 0.033614 0.000000
# 2 -0.015135 0.024990 -0.009455 0.000000 -0.013649 0.000000
# 3 -0.000234 -0.009455 0.012575 0.000000 0.004626 0.000000
# 4 0.000000 0.000000 0.000000 0.129675 0.000000 0.007855
# 5 0.033614 -0.013649 0.004626 0.000000 0.072290 0.000000
# 6 0.000000 0.000000 0.000000 0.007855 0.000000 0.125137
#
#
# Mechanical properties :
#
#
# Convention : Reuss Voigt Hill
#
# Bulk Modulus (GPa) = 21.73486 44.87730 33.30608
# Shear Modulus (GPa) = 10.25127 15.96357 13.10742
#
# Velocity S-wave (km/s) = 2.50611 3.12734 2.83380
# Velocity P-wave (km/s) = 4.65727 6.36671 5.57786
#
# Compressibility (1/GPa) = 0.04600903
#
# Stress axis : x y z
#
# Youngs Moduli (GPa) = 17.21387 40.01673 79.52201
#
# Poissons Ratio (x) = 0.60565 0.01860
# Poissons Ratio (y) = 0.26053 0.75190
# Poissons Ratio (z) = 0.00403 0.37837
#
# Static dielectric constant tensor:
#      x y z
#    x 1.643530 0.000000 -0.068390 
#    y 0.000000 1.584870 0.000000 
#    z -0.068390 0.000000 1.638360 
# 
# From -- ./inp_files/29765.got.cif
#   From: 2010.05.17/outbox.cif.g08.bks.cpg/sg12_15_cif.got.tgz:29765.got - 2010.06.03 13:09:07.
