data_PCOD9170561
_publ_section_title
;
Structure prediction by ZEFSAII (Michael W. Deem and Ramdas Pophale) SiO2 
 PCOD9170561
Probable space group: C 2/M
;
_chemical_formula_sum "Si O2"
_cell_formula_units_Z 58
_cell_length_a 31.826859
_cell_length_b 10.289647
_cell_length_c 9.582686
_cell_angle_alpha 90.000000
_cell_angle_beta 114.078315
_cell_angle_gamma 90.000000
_cell_volume 2865.146905
_symmetry_space_group_name_H-M "C 2/M"
_symmetry_group_IT_number 12
_symmetry_cell_setting 'monoclinic'
loop_
_space_group_symop_operation_xyz
x,y,z
-x,y,-z
-x,-y,-z
x,-y,z
1/2+x,1/2+y,z
1/2-x,1/2+y,-z
1/2-x,1/2-y,-z
1/2+x,1/2-y,z
loop_
_atom_site_type_symbol
_atom_site_label
_atom_site_fract_x
_atom_site_fract_y
_atom_site_fract_z
Si Si1 0.702460 0.349596 0.710592
Si Si2 0.000000 0.500000 0.500000
Si Si3 0.797603 0.344304 0.740328
Si Si4 0.386824 0.150279 0.718336
Si Si5 0.931878 0.720560 0.303694
Si Si6 0.325897 0.848143 0.096417
Si Si7 0.096763 0.141818 0.475012
Si Si8 0.539611 0.151119 0.944656
O O1 0.712022 0.500000 0.767958
O O2 0.743948 0.308843 0.664222
O O3 0.700161 0.249412 0.835277
O O4 0.651729 0.350752 0.576844
O O5 0.960888 0.612114 0.421077
O O6 0.800342 0.500000 0.727411
O O7 0.835856 0.296415 0.683879
O O8 0.813891 0.315666 0.920384
O O9 0.412624 0.240947 0.643308
O O10 0.414081 0.150491 0.901495
O O11 0.385681 0.000000 0.667336
O O12 0.880259 0.671641 0.197976
O O13 0.926333 0.836486 0.405823
O O14 0.955906 0.738123 0.186023
O O15 0.314665 0.000000 0.105876
O O16 0.085234 0.000000 0.402146
O O17 0.530653 0.000000 0.885886
O O18 0.500000 0.186194 0.000000
#
# Coordination Sequence:
#
# PCOD9170561 Si02
#       8
#     8   2   8   8   8   8   8   8
#     4   9  19  34  53  79 116 160 201 239 292 357
#     4  12  24  32  64 104 116 152 196 248 304 364
#     4   9  17  32  55  83 117 154 195 250 300 345
#     4  10  21  36  62  89 115 156 202 253 305 349
#     4  11  22  37  61  90 125 152 191 244 304 356
#     4  10  17  32  55  84 119 151 192 246 295 347
#     4  10  24  42  58  83 124 164 201 243 299 360
#     4  10  20  35  59  92 120 142 187 247 301 353
#
# _framework density 20.243289999999998
#
# number of rings (size 3 to 8) (size 9 to 14) (size 15 to 20)
#    0.000    2.069    2.759    0.414    2.897    1.103 
#    0.000    2.414    0.000    0.828    0.000    0.000 
#    0.000    0.000    0.000    0.000    0.000    0.000 
#
# Total GULP energy -161483.144458 kJ/mol
# GULP energy per Si atom -5568.384292 kJ/mol
# Density = 2.019722 g / cm^3
# Si number density = 20.243290 Si / 1000 Ang^3
#
#
#
# Elastic Constant Matrix: (Units=GPa)
#
#
# Indices 1 2 3 4 5 6 
#
# 1 94.3993 14.0528 14.0665 0.0000 -17.9078 0.0000
# 2 14.0528 74.7154 30.6608 0.0000 -23.0221 0.0000
# 3 14.0665 30.6608 32.8919 0.0000 -25.6231 0.0000
# 4 0.0000 0.0000 0.0000 17.1816 0.0000 -7.7749
# 5 -17.9078 -23.0221 -25.6231 0.0000 43.4721 0.0000
# 6 0.0000 0.0000 0.0000 -7.7749 0.0000 20.3687
#
#
#
# Elastic Compliance Matrix: (Units=1/GPa)
#
#
# Indices 1 2 3 4 5 6 
#
# 1 0.011588 -0.000300 -0.001999 0.000000 0.003436 0.000000
# 2 -0.000300 0.021698 -0.020788 0.000000 -0.000885 0.000000
# 3 -0.001999 -0.020788 0.076580 0.000000 0.033305 0.000000
# 4 0.000000 0.000000 0.000000 0.070354 0.000000 0.026855
# 5 0.003436 -0.000885 0.033305 0.000000 0.043581 0.000000
# 6 0.000000 0.000000 0.000000 0.026855 0.000000 0.059346
#
#
# Mechanical properties :
#
#
# Convention : Reuss Voigt Hill
#
# Bulk Modulus (GPa) = 15.70042 35.50743 25.60392
# Shear Modulus (GPa) = 14.26326 25.75291 20.00809
#
# Velocity S-wave (km/s) = 2.65729 3.57062 3.14726
# Velocity P-wave (km/s) = 4.14580 5.88027 5.08749
#
# Compressibility (1/GPa) = 0.06369258
#
# Stress axis : x y z
#
# Youngs Moduli (GPa) = 86.29831 46.08616 13.05825
#
# Poissons Ratio (x) = 0.01385 0.02610
# Poissons Ratio (y) = 0.02593 0.27145
# Poissons Ratio (z) = 0.17247 0.95803
#
# Static dielectric constant tensor:
#      x y z
#    x 1.775180 0.000000 0.005950 
#    y 0.000000 1.694860 0.000000 
#    z 0.005950 0.000000 1.724780 
# 
# From -- ./inp_files/110007.got.cif
#   From: 2010.05.17/outbox.cif.g08.bks.cpg/sg12_56_cif.got.tgz:110007.got - 2010.06.03 13:09:07.
