data_PCOD9170227
_publ_section_title
;
Structure prediction by ZEFSAII (Michael W. Deem and Ramdas Pophale) SiO2 
 PCOD9170227
Probable space group: C 2/M
;
_chemical_formula_sum "Si O2"
_cell_formula_units_Z 50
_cell_length_a 34.896962
_cell_length_b 7.780494
_cell_length_c 18.183370
_cell_angle_alpha 90.000000
_cell_angle_beta 22.430692
_cell_angle_gamma 90.000000
_cell_volume 1883.815470
_symmetry_space_group_name_H-M "C 2/M"
_symmetry_group_IT_number 12
_symmetry_cell_setting 'monoclinic'
loop_
_space_group_symop_operation_xyz
x,y,z
-x,y,-z
-x,-y,-z
x,-y,z
1/2+x,1/2+y,z
1/2-x,1/2+y,-z
1/2-x,1/2-y,-z
1/2+x,1/2-y,z
loop_
_atom_site_type_symbol
_atom_site_label
_atom_site_fract_x
_atom_site_fract_y
_atom_site_fract_z
Si Si1 0.121515 0.700620 0.011607
Si Si2 0.230804 0.187408 0.453164
Si Si3 0.163808 0.304677 0.429190
Si Si4 0.042008 0.304503 0.002195
Si Si5 0.000000 0.500000 0.500000
Si Si6 0.758317 0.296259 0.070296
Si Si7 0.461094 0.301493 0.469778
O O1 0.090797 0.500000 0.074034
O O2 0.236524 0.705543 0.774679
O O3 0.052593 0.772566 0.066582
O O4 0.150831 0.778159 0.040316
O O5 0.250000 0.250000 0.500000
O O6 0.167357 0.301299 0.510567
O O7 0.341672 0.177949 0.224184
O O8 0.183068 0.000000 0.539278
O O9 0.171108 0.500000 0.390450
O O10 0.064581 0.223357 0.570467
O O11 0.998378 0.500000 0.084161
O O12 0.000000 0.223170 0.000000
O O13 0.975282 0.652709 0.605446
O O14 0.767733 0.500000 0.059066
O O15 0.649672 0.255776 0.298833
O O16 0.750000 0.250000 0.000000
O O17 0.487018 0.500000 0.439638
#
# Coordination Sequence:
#
# PCOD9170227 Si02
#       7
#     8   8   8   8   2   8   8
#     4   8  15  28  46  73  99 130 169 218 272 313
#     4  10  19  31  50  76 105 137 175 226 271 317
#     4  10  17  30  52  77 100 132 182 227 268 318
#     4   8  14  27  50  73  98 129 168 211 263 322
#     4  12  22  36  60  82 108 148 188 216 272 346
#     4   9  18  30  51  76 106 138 175 231 277 314
#     4  10  21  37  55  82 111 143 185 231 273 322
#
# _framework density 26.541875999999998
#
# number of rings (size 3 to 8) (size 9 to 14) (size 15 to 20)
#    0.000    2.720    0.800    4.080    1.120    0.640 
#    0.000    0.000    3.520   12.000    0.000    0.000 
#    0.000    0.000    0.000    0.000    0.000    0.000 
#
# Total GULP energy -139251.212642 kJ/mol
# GULP energy per Si atom -5570.048506 kJ/mol
# Density = 2.648147 g / cm^3
# Si number density = 26.541876 Si / 1000 Ang^3
#
#
#
# Elastic Constant Matrix: (Units=GPa)
#
#
# Indices 1 2 3 4 5 6 
#
# 1 278.0083 44.1544 11.1256 0.0000 7.4639 0.0000
# 2 44.1544 128.7286 -4.0192 -0.0001 -0.6510 -0.0001
# 3 11.1256 -4.0192 62.3530 0.0000 -12.5773 0.0000
# 4 0.0000 -0.0001 0.0000 5.6956 0.0000 7.9199
# 5 7.4639 -0.6510 -12.5773 0.0000 42.9429 0.0000
# 6 0.0000 -0.0001 0.0000 7.9199 0.0000 34.2903
#
#
#
# Elastic Compliance Matrix: (Units=1/GPa)
#
#
# Indices 1 2 3 4 5 6 
#
# 1 0.003879 -0.001366 -0.000978 0.000000 -0.000982 0.000000
# 2 -0.001366 0.008268 0.000903 0.000000 0.000627 0.000000
# 3 -0.000978 0.000903 0.017331 0.000000 0.005260 0.000000
# 4 0.000000 0.000000 0.000000 0.258637 0.000000 -0.059736
# 5 -0.000982 0.000627 0.005260 0.000000 0.025007 0.000000
# 6 0.000000 0.000000 0.000000 -0.059736 0.000000 0.042960
#
#
# Mechanical properties :
#
#
# Convention : Reuss Voigt Hill
#
# Bulk Modulus (GPa) = 37.59841 63.51239 50.55540
# Shear Modulus (GPa) = 13.59317 44.44104 29.01710
#
# Velocity S-wave (km/s) = 2.26551 4.09635 3.31003
# Velocity P-wave (km/s) = 4.58692 6.80842 5.80493
#
# Compressibility (1/GPa) = 0.02659687
#
# Stress axis : x y z
#
# Youngs Moduli (GPa) = 257.76519 120.94431 57.69855
#
# Poissons Ratio (x) = 0.16523 0.05644
# Poissons Ratio (y) = 0.35216 -0.05212
# Poissons Ratio (z) = 0.25216 -0.10925
#
# Static dielectric constant tensor:
#      x y z
#    x 2.254810 0.000000 0.076980 
#    y 0.000000 2.106610 0.000000 
#    z 0.076980 0.000000 2.205210 
# 
# From -- ./inp_files/294749.got.cif
#   From: 2010.05.17/outbox.cif.g08.bks.cpg/sg12_148_cif.got.tgz:294749.got - 2010.06.03 13:09:07.
