data_PCOD9170236
_publ_section_title
;
Structure prediction by ZEFSAII (Michael W. Deem and Ramdas Pophale) SiO2 
 PCOD9170236
Probable space group: C 2/M
;
_chemical_formula_sum "Si O2"
_cell_formula_units_Z 32
_cell_length_a 18.662324
_cell_length_b 11.260019
_cell_length_c 10.976796
_cell_angle_alpha 90.000000
_cell_angle_beta 139.017751
_cell_angle_gamma 90.000000
_cell_volume 1512.754758
_symmetry_space_group_name_H-M "C 2/M"
_symmetry_group_IT_number 12
_symmetry_cell_setting 'monoclinic'
loop_
_space_group_symop_operation_xyz
x,y,z
-x,y,-z
-x,-y,-z
x,-y,z
1/2+x,1/2+y,z
1/2-x,1/2+y,-z
1/2-x,1/2-y,-z
1/2+x,1/2-y,z
loop_
_atom_site_type_symbol
_atom_site_label
_atom_site_fract_x
_atom_site_fract_y
_atom_site_fract_z
Si Si1 0.661342 0.745672 0.992257
Si Si2 0.711397 0.130243 0.290338
Si Si3 0.472100 0.363089 0.605077
Si Si4 0.629771 0.372599 0.185997
O O1 0.544330 0.721619 0.781890
O O2 0.681498 0.640930 0.117411
O O3 0.750000 0.750000 0.000000
O O4 0.670444 0.855839 0.096913
O O5 0.842327 0.142276 0.455118
O O6 0.679838 0.000000 0.295523
O O7 0.662261 0.248365 0.289050
O O8 0.500000 0.339174 0.500000
O O9 0.505742 0.500000 0.674418
O O10 0.659154 0.500000 0.279348
O O11 0.500000 0.371178 0.000000
#
# Coordination Sequence:
#
# PCOD9170236 Si02
#       4
#     8   8   8   8
#     4  10  19  32  55  80 110 140 183 224 270 314
#     4   9  20  34  53  80 109 138 181 227 269 317
#     4  10  17  30  52  79 108 144 183 221 268 330
#     4   9  19  36  57  79 108 147 184 220 272 330
#
# _framework density 21.153461
#
# number of rings (size 3 to 8) (size 9 to 14) (size 15 to 20)
#    1.500    1.000    2.500    0.750    0.000    1.500 
#    0.000    2.500    0.000    3.000    0.000    0.000 
#    0.000    0.000    0.000    0.000    0.000    0.000 
#
# Total GULP energy -89099.327557 kJ/mol
# GULP energy per Si atom -5568.707972 kJ/mol
# Density = 2.110532 g / cm^3
# Si number density = 21.153461 Si / 1000 Ang^3
#
#
#
# Elastic Constant Matrix: (Units=GPa)
#
#
# Indices 1 2 3 4 5 6 
#
# 1 78.3823 24.9619 11.1736 0.0000 -11.2553 0.0000
# 2 24.9619 168.9216 53.7932 0.0000 10.1448 0.0000
# 3 11.1736 53.7932 112.8599 0.0000 -8.0432 0.0000
# 4 0.0000 0.0000 0.0000 -18.1132 0.0000 22.2306
# 5 -11.2553 10.1448 -8.0432 0.0000 27.6418 0.0000
# 6 0.0000 0.0000 0.0000 22.2306 0.0000 6.4872
#
#
#
# Elastic Compliance Matrix: (Units=1/GPa)
#
#
# Indices 1 2 3 4 5 6 
#
# 1 0.014571 -0.002681 0.000335 0.000000 0.007015 0.000000
# 2 -0.002681 0.007843 -0.003835 0.000000 -0.005086 0.000000
# 3 0.000335 -0.003835 0.010993 0.000000 0.004743 0.000000
# 4 0.000000 0.000000 0.000000 -0.010605 0.000000 0.036342
# 5 0.007015 -0.005086 0.004743 0.000000 0.042280 0.000000
# 6 0.000000 0.000000 0.000000 0.036342 0.000000 0.029611
#
#
# Mechanical properties :
#
#
# Convention : Reuss Voigt Hill
#
# Bulk Modulus (GPa) = 47.51675 60.00235 53.75955
# Shear Modulus (GPa) = 43.83215 21.21882 32.52549
#
# Velocity S-wave (km/s) = 4.55697 3.17060 3.92547
# Velocity P-wave (km/s) = 7.08517 6.46764 6.78344
#
# Compressibility (1/GPa) = 0.02104521
#
# Stress axis : x y z
#
# Youngs Moduli (GPa) = 68.62763 127.50353 90.96383
#
# Poissons Ratio (x) = 0.34188 -0.03050
# Poissons Ratio (y) = 0.18401 0.34887
# Poissons Ratio (z) = -0.02301 0.48901
#
# Static dielectric constant tensor:
#      x y z
#    x 1.759800 0.000000 -0.035090 
#    y 0.000000 1.792310 0.000000 
#    z -0.035090 0.000000 1.760450 
# 
# From -- ./inp_files/139408.got.cif
#   From: 2010.05.17/outbox.cif.g08.bks.cpg/sg12_70_cif.got.tgz:139408.got - 2010.06.03 13:09:07.
