data_PCOD9170369
_publ_section_title
;
Structure prediction by ZEFSAII (Michael W. Deem and Ramdas Pophale) SiO2 
 PCOD9170369
Probable space group: C 2/M
;
_chemical_formula_sum "Si O2"
_cell_formula_units_Z 56
_cell_length_a 16.351658
_cell_length_b 17.799018
_cell_length_c 17.956533
_cell_angle_alpha 90.000000
_cell_angle_beta 146.813946
_cell_angle_gamma 90.000000
_cell_volume 2860.572860
_symmetry_space_group_name_H-M "C 2/M"
_symmetry_group_IT_number 12
_symmetry_cell_setting 'monoclinic'
loop_
_space_group_symop_operation_xyz
x,y,z
-x,y,-z
-x,-y,-z
x,-y,z
1/2+x,1/2+y,z
1/2-x,1/2+y,-z
1/2-x,1/2-y,-z
1/2+x,1/2-y,z
loop_
_atom_site_type_symbol
_atom_site_label
_atom_site_fract_x
_atom_site_fract_y
_atom_site_fract_z
Si Si1 0.433733 0.668312 0.525516
Si Si2 0.290192 0.414828 0.706564
Si Si3 0.724074 0.161559 0.970246
Si Si4 0.100413 0.692880 0.308994
Si Si5 0.538336 0.162314 0.425649
Si Si6 0.002096 0.133768 0.263022
Si Si7 0.770254 0.088114 0.849425
O O1 0.500000 0.636454 0.500000
O O2 0.255461 0.682490 0.384918
O O3 0.507000 0.751394 0.593713
O O4 0.464660 0.622827 0.624824
O O5 0.236600 0.500000 0.675268
O O6 0.152194 0.364381 0.575018
O O7 0.407243 0.412917 0.728695
O O8 0.355931 0.392435 0.837580
O O9 0.545361 0.150846 0.834410
O O10 0.785762 0.135185 0.936700
O O11 0.750000 0.250000 0.000000
O O12 0.827175 0.124639 0.111384
O O13 0.123612 0.664826 0.411307
O O14 0.053967 0.780260 0.282632
O O15 0.399636 0.107579 0.306055
O O16 0.791643 0.000000 0.882466
#
# Coordination Sequence:
#
# PCOD9170369 Si02
#       7
#     8   8   8   8   8   8   8
#     4  11  19  31  58  83 105 136 180 236 290 319
#     4  11  20  30  50  79 114 151 183 216 264 324
#     4   9  20  36  55  71 108 149 188 226 269 324
#     4   9  17  34  53  75 104 140 177 228 282 322
#     4  10  17  31  51  78 113 145 179 219 273 331
#     4  10  19  35  50  75 106 143 180 227 269 327
#     4  10  21  33  50  81 117 151 186 222 265 330
#
# _framework density 19.576498999999998
#
# number of rings (size 3 to 8) (size 9 to 14) (size 15 to 20)
#    0.000    2.000    2.857    3.429    0.000    2.286 
#    0.000    2.143    0.000    0.429    0.000    0.000 
#    0.000    3.714    0.000    0.000    0.000    0.000 
#
# Total GULP energy -156110.017583 kJ/mol
# GULP energy per Si atom -5575.357771 kJ/mol
# Density = 1.953194 g / cm^3
# Si number density = 19.576499 Si / 1000 Ang^3
#
#
#
# Elastic Constant Matrix: (Units=GPa)
#
#
# Indices 1 2 3 4 5 6 
#
# 1 122.6084 20.5200 43.0173 0.0006 -18.3990 0.0003
# 2 20.5200 40.2696 11.9742 0.0003 -16.0938 0.0003
# 3 43.0173 11.9742 109.8199 0.0014 -10.8508 0.0011
# 4 0.0006 0.0003 0.0014 16.7884 0.0008 -6.4369
# 5 -18.3990 -16.0938 -10.8508 0.0008 28.1555 0.0006
# 6 0.0003 0.0003 0.0011 -6.4369 0.0006 23.3354
#
#
#
# Elastic Compliance Matrix: (Units=1/GPa)
#
#
# Indices 1 2 3 4 5 6 
#
# 1 0.010388 -0.002716 -0.003384 0.000000 0.003932 0.000000
# 2 -0.002716 0.033225 -0.000892 -0.000002 0.016873 -0.000001
# 3 -0.003384 -0.000892 0.010666 -0.000001 0.001389 -0.000001
# 4 0.000000 -0.000002 -0.000001 0.066610 -0.000004 0.018374
# 5 0.003932 0.016873 0.001389 -0.000004 0.048266 -0.000003
# 6 0.000000 -0.000001 -0.000001 0.018374 -0.000003 0.047922
#
#
# Mechanical properties :
#
#
# Convention : Reuss Voigt Hill
#
# Bulk Modulus (GPa) = 24.81690 47.08011 35.94850
# Shear Modulus (GPa) = 20.45052 26.80161 23.62606
#
# Velocity S-wave (km/s) = 3.23561 3.70411 3.47776
# Velocity P-wave (km/s) = 5.16365 6.51118 5.87617
#
# Compressibility (1/GPa) = 0.04029513
#
# Stress axis : x y z
#
# Youngs Moduli (GPa) = 96.26498 30.09785 93.75559
#
# Poissons Ratio (x) = 0.08174 0.31731
# Poissons Ratio (y) = 0.26142 0.08361
# Poissons Ratio (z) = 0.32581 0.02684
#
# Static dielectric constant tensor:
#      x y z
#    x 1.754490 0.000000 0.012560 
#    y 0.000000 1.691540 0.000000 
#    z 0.012560 0.000000 1.732160 
# 
# From -- ./inp_files/217725.got.cif
#   From: 2010.05.17/outbox.cif.g08.bks.cpg/sg12_109_cif.got.tgz:217725.got - 2010.06.03 13:09:07.
