data_PCOD9170903
_publ_section_title
;
Structure prediction by ZEFSAII (Michael W. Deem and Ramdas Pophale) SiO2 
 PCOD9170903
Probable space group: C 2/M
;
_chemical_formula_sum "Si O2"
_cell_formula_units_Z 56
_cell_length_a 11.368850
_cell_length_b 31.672741
_cell_length_c 8.913867
_cell_angle_alpha 90.000000
_cell_angle_beta 124.272227
_cell_angle_gamma 90.000000
_cell_volume 2652.427919
_symmetry_space_group_name_H-M "C 2/M"
_symmetry_group_IT_number 12
_symmetry_cell_setting 'monoclinic'
loop_
_space_group_symop_operation_xyz
x,y,z
-x,y,-z
-x,-y,-z
x,-y,z
1/2+x,1/2+y,z
1/2-x,1/2+y,-z
1/2-x,1/2-y,-z
1/2+x,1/2-y,z
loop_
_atom_site_type_symbol
_atom_site_label
_atom_site_fract_x
_atom_site_fract_y
_atom_site_fract_z
Si Si1 0.694276 0.624377 0.841903
Si Si2 0.383203 0.100933 0.533620
Si Si3 0.437939 0.227699 0.289727
Si Si4 0.545311 0.317174 0.333986
Si Si5 0.652424 0.950371 0.194192
Si Si6 0.793162 0.158205 0.823710
Si Si7 0.152034 0.676570 0.285262
O O1 0.539975 0.641067 0.681968
O O2 0.735188 0.578436 0.813977
O O3 0.809799 0.655556 0.845110
O O4 0.691302 0.630537 0.016859
O O5 0.500000 0.085400 0.500000
O O6 0.345918 0.066130 0.631791
O O7 0.272258 0.125045 0.345511
O O8 0.426471 0.140113 0.672646
O O9 0.500000 0.217361 0.500000
O O10 0.438538 0.278195 0.283424
O O11 0.299436 0.198757 0.189329
O O12 0.547248 0.215144 0.235766
O O13 0.582968 0.321802 0.187472
O O14 0.695902 0.312281 0.527429
O O15 0.681658 0.000000 0.209644
O O16 0.500000 0.943279 0.000000
#
# Coordination Sequence:
#
# PCOD9170903 Si02
#       7
#     8   8   8   8   8   8   8
#     4  11  24  40  62  88 130 167 204 262 325 387
#     4  10  17  36  62  90 124 164 202 251 311 378
#     4  12  21  37  61  87 121 171 229 273 305 357
#     4  11  24  39  59  85 124 175 223 265 315 369
#     4  10  23  41  69 102 127 156 204 264 324 388
#     4  11  23  40  59  87 127 174 217 257 316 377
#     4  10  20  37  61  86 119 170 218 265 312 366
#
# _framework density 21.112732000000001
#
# number of rings (size 3 to 8) (size 9 to 14) (size 15 to 20)
#    0.000    1.286    4.286    3.000    4.000    0.857 
#    2.571    0.714    0.000   17.143    0.000    0.000 
#    0.000    0.000    0.000    0.000    0.000    0.000 
#
# Total GULP energy -156143.522406 kJ/mol
# GULP energy per Si atom -5576.554372 kJ/mol
# Density = 2.106468 g / cm^3
# Si number density = 21.112732 Si / 1000 Ang^3
#
#
#
# Elastic Constant Matrix: (Units=GPa)
#
#
# Indices 1 2 3 4 5 6 
#
# 1 118.0662 56.8969 32.7949 0.0000 -23.4404 0.0000
# 2 56.8969 139.1592 29.3783 0.0000 0.0206 0.0000
# 3 32.7949 29.3783 80.5128 0.0000 -34.2120 0.0000
# 4 0.0000 0.0000 0.0000 44.2751 0.0000 4.3006
# 5 -23.4404 0.0206 -34.2120 0.0000 37.6922 0.0000
# 6 0.0000 0.0000 0.0000 4.3006 0.0000 26.0838
#
#
#
# Elastic Compliance Matrix: (Units=1/GPa)
#
#
# Indices 1 2 3 4 5 6 
#
# 1 0.012467 -0.005129 0.000145 0.000000 0.007888 0.000000
# 2 -0.005129 0.010328 -0.004944 0.000000 -0.007683 0.000000
# 3 0.000145 -0.004944 0.023123 0.000000 0.021081 0.000000
# 4 0.000000 0.000000 0.000000 0.022954 0.000000 -0.003784
# 5 0.007888 -0.007683 0.021081 0.000000 0.050575 0.000000
# 6 0.000000 0.000000 0.000000 -0.003784 0.000000 0.038962
#
#
# Mechanical properties :
#
#
# Convention : Reuss Voigt Hill
#
# Bulk Modulus (GPa) = 38.36972 63.98649 51.17810
# Shear Modulus (GPa) = 26.74472 36.18811 31.46642
#
# Velocity S-wave (km/s) = 3.56302 4.14459 3.86476
# Velocity P-wave (km/s) = 5.92790 7.29907 6.64892
#
# Compressibility (1/GPa) = 0.02606222
#
# Stress axis : x y z
#
# Youngs Moduli (GPa) = 80.20960 96.82374 43.24653
#
# Poissons Ratio (x) = 0.49663 -0.00627
# Poissons Ratio (y) = 0.41141 0.21381
# Poissons Ratio (z) = -0.01163 0.47870
#
# Static dielectric constant tensor:
#      x y z
#    x 1.808160 0.000000 0.025400 
#    y 0.000000 1.734440 0.000000 
#    z 0.025400 0.000000 1.858410 
# 
# From -- ./inp_files/54780.got.cif
#   From: 2010.05.17/outbox.cif.g08.bks.cpg/sg12_28_cif.got.tgz:54780.got - 2010.06.03 13:09:07.
