data_PCOD9170876
_publ_section_title
;
Structure prediction by ZEFSAII (Michael W. Deem and Ramdas Pophale) SiO2 
 PCOD9170876
Probable space group: C 2/M
;
_chemical_formula_sum "Si O2"
_cell_formula_units_Z 32
_cell_length_a 19.575877
_cell_length_b 13.380634
_cell_length_c 12.286665
_cell_angle_alpha 90.000000
_cell_angle_beta 31.972818
_cell_angle_gamma 90.000000
_cell_volume 1704.165400
_symmetry_space_group_name_H-M "C 2/M"
_symmetry_group_IT_number 12
_symmetry_cell_setting 'monoclinic'
loop_
_space_group_symop_operation_xyz
x,y,z
-x,y,-z
-x,-y,-z
x,-y,z
1/2+x,1/2+y,z
1/2-x,1/2+y,-z
1/2-x,1/2-y,-z
1/2+x,1/2-y,z
loop_
_atom_site_type_symbol
_atom_site_label
_atom_site_fract_x
_atom_site_fract_y
_atom_site_fract_z
Si Si1 0.527488 0.500000 0.332425
Si Si2 0.500000 0.159956 0.500000
Si Si3 0.213967 0.500000 0.153108
Si Si4 0.131774 0.781243 0.758434
Si Si5 0.113405 0.202914 0.536210
Si Si6 0.154544 0.000000 0.788417
O O1 0.500000 0.500000 0.500000
O O2 0.457359 0.597479 0.378987
O O3 0.677714 0.500000 0.088782
O O4 0.442898 0.227170 0.481111
O O5 0.615552 0.093399 0.292980
O O6 0.292208 0.500000 0.161096
O O7 0.098656 0.757103 0.678895
O O8 0.231375 0.705625 0.680131
O O9 0.191112 0.894437 0.683828
O O10 0.000000 0.783394 0.000000
O O11 0.000000 0.000000 0.000000
#
# Coordination Sequence:
#
# PCOD9170876 Si02
#       6
#     4   4   4   8   8   4
#     4  12  25  41  60  93 133 170 203 254 315 381
#     4  11  24  43  66  94 128 165 212 263 312 376
#     4  11  24  42  65  97 124 163 218 262 311 369
#     4  10  21  38  64  92 123 163 208 261 310 368
#     4  11  23  40  62  93 127 164 210 252 318 378
#     4  10  17  35  66  91 119 156 212 265 308 359
#
# _framework density 18.777519999999999
#
# number of rings (size 3 to 8) (size 9 to 14) (size 15 to 20)
#    0.000    1.250    3.750    3.750    0.000    3.000 
#    0.000    0.625    0.000    0.000    0.000    0.000 
#    0.000    0.000    0.000    0.000    0.000    0.000 
#
# Total GULP energy -89205.221790 kJ/mol
# GULP energy per Si atom -5575.326362 kJ/mol
# Density = 1.873478 g / cm^3
# Si number density = 18.777520 Si / 1000 Ang^3
#
#
#
# Elastic Constant Matrix: (Units=GPa)
#
#
# Indices 1 2 3 4 5 6 
#
# 1 147.4348 35.2621 52.6311 0.0000 -4.4990 0.0000
# 2 35.2621 90.3297 63.5920 0.0000 -12.2469 0.0000
# 3 52.6311 63.5920 138.0894 0.0000 -10.0387 0.0000
# 4 0.0000 0.0000 0.0000 24.8285 0.0000 -4.1443
# 5 -4.4990 -12.2469 -10.0387 0.0000 27.0017 0.0000
# 6 0.0000 0.0000 0.0000 -4.1443 0.0000 6.2597
#
#
#
# Elastic Compliance Matrix: (Units=1/GPa)
#
#
# Indices 1 2 3 4 5 6 
#
# 1 0.007977 -0.001468 -0.002380 0.000000 -0.000222 0.000000
# 2 -0.001468 0.017268 -0.007031 0.000000 0.004973 0.000000
# 3 -0.002380 -0.007031 0.011435 0.000000 0.000666 0.000000
# 4 0.000000 0.000000 0.000000 0.045280 0.000000 0.029979
# 5 -0.000222 0.004973 0.000666 0.000000 0.039501 0.000000
# 6 0.000000 0.000000 0.000000 0.029979 0.000000 0.179601
#
#
# Mechanical properties :
#
#
# Convention : Reuss Voigt Hill
#
# Bulk Modulus (GPa) = 67.02021 75.42490 71.22256
# Shear Modulus (GPa) = 15.25346 26.57588 20.91467
#
# Velocity S-wave (km/s) = 2.85323 3.76613 3.34101
# Velocity P-wave (km/s) = 6.82816 7.69198 7.27290
#
# Compressibility (1/GPa) = 0.01492087
#
# Stress axis : x y z
#
# Youngs Moduli (GPa) = 125.36442 57.91144 87.45030
#
# Poissons Ratio (x) = 0.08503 0.20815
# Poissons Ratio (y) = 0.18407 0.61485
# Poissons Ratio (z) = 0.29839 0.40717
#
# Static dielectric constant tensor:
#      x y z
#    x 1.626640 0.000000 0.003220 
#    y 0.000000 1.697230 0.000000 
#    z 0.003220 0.000000 1.681260 
# 
# From -- ./inp_files/156481.got.cif
#   From: 2010.05.17/outbox.cif.g08.bks.cpg/sg12_79_cif.got.tgz:156481.got - 2010.06.03 13:09:07.
