data_PCOD9170124
_publ_section_title
;
Structure prediction by ZEFSAII (Michael W. Deem and Ramdas Pophale) SiO2 
 PCOD9170124
Probable space group: C 2/M
;
_chemical_formula_sum "Si O2"
_cell_formula_units_Z 48
_cell_length_a 14.081990
_cell_length_b 21.645344
_cell_length_c 15.375256
_cell_angle_alpha 90.000000
_cell_angle_beta 39.695993
_cell_angle_gamma 90.000000
_cell_volume 2993.348761
_symmetry_space_group_name_H-M "C 2/M"
_symmetry_group_IT_number 12
_symmetry_cell_setting 'monoclinic'
loop_
_space_group_symop_operation_xyz
x,y,z
-x,y,-z
-x,-y,-z
x,-y,z
1/2+x,1/2+y,z
1/2-x,1/2+y,-z
1/2-x,1/2-y,-z
1/2+x,1/2-y,z
loop_
_atom_site_type_symbol
_atom_site_label
_atom_site_fract_x
_atom_site_fract_y
_atom_site_fract_z
Si Si1 0.113584 0.256513 0.995573
Si Si2 0.176203 0.000000 0.886193
Si Si3 0.436604 0.702830 0.788472
Si Si4 0.827811 0.500000 0.591699
Si Si5 0.312380 0.626046 0.335956
Si Si6 0.959373 0.704670 0.428815
Si Si7 0.244701 0.367419 0.180410
O O1 0.258804 0.299710 0.900991
O O2 0.178952 0.189146 0.922951
O O3 0.041573 0.245696 0.140711
O O4 0.000000 0.275222 0.000000
O O5 0.228505 0.066716 0.884450
O O6 0.244341 0.000000 0.742229
O O7 0.000000 0.000000 0.000000
O O8 0.523488 0.639470 0.744989
O O9 0.506630 0.738270 0.657295
O O10 0.770026 0.561681 0.585963
O O11 0.000000 0.500000 0.500000
O O12 0.206792 0.679119 0.449872
O O13 0.312632 0.631261 0.230428
O O14 0.000000 0.719195 0.500000
O O15 0.072882 0.650601 0.317261
#
# Coordination Sequence:
#
# PCOD9170124 Si02
#       7
#     8   4   8   4   8   8   8
#     4  10  18  32  46  65 102 133 161 200 254 293
#     4  10  18  24  42  70  94 132 173 184 225 306
#     4  10  20  29  48  72  92 132 169 201 242 295
#     4  10  20  32  48  72 104 142 162 186 252 310
#     4  10  17  30  47  69 100 126 165 198 233 301
#     4   9  18  31  47  67  97 131 162 206 246 285
#     4   9  17  28  44  65  99 135 156 189 243 294
#
# _framework density 16.035551999999999
#
# number of rings (size 3 to 8) (size 9 to 14) (size 15 to 20)
#    0.000    2.333    1.667    3.500    2.333    0.000 
#    0.000    0.000    0.000    0.000    0.000    1.167 
#    0.000    0.000    0.000    0.000    0.000    0.000 
#
# Total GULP energy -133639.437040 kJ/mol
# GULP energy per Si atom -5568.309877 kJ/mol
# Density = 1.599905 g / cm^3
# Si number density = 16.035552 Si / 1000 Ang^3
#
#
#
# Elastic Constant Matrix: (Units=GPa)
#
#
# Indices 1 2 3 4 5 6 
#
# 1 81.1984 23.4789 19.1901 -0.0003 -18.6470 0.0002
# 2 23.4789 57.9298 13.4620 -0.0004 -13.7456 0.0004
# 3 19.1901 13.4620 67.6644 -0.0003 -3.9305 0.0007
# 4 -0.0003 -0.0004 -0.0003 18.3702 0.0006 -7.4609
# 5 -18.6470 -13.7456 -3.9305 0.0006 22.5948 -0.0007
# 6 0.0002 0.0004 0.0007 -7.4609 -0.0007 17.2255
#
#
#
# Elastic Compliance Matrix: (Units=1/GPa)
#
#
# Indices 1 2 3 4 5 6 
#
# 1 0.016633 -0.003310 -0.003413 0.000000 0.011119 0.000000
# 2 -0.003310 0.021606 -0.002783 0.000000 0.009929 0.000000
# 3 -0.003413 -0.002783 0.016202 0.000000 -0.001691 -0.000001
# 4 0.000000 0.000000 0.000000 0.066056 -0.000001 0.028611
# 5 0.011119 0.009929 -0.001691 -0.000001 0.059181 0.000002
# 6 0.000000 0.000000 -0.000001 0.028611 0.000002 0.070446
#
#
# Mechanical properties :
#
#
# Convention : Reuss Voigt Hill
#
# Bulk Modulus (GPa) = 28.22484 35.45051 31.83767
# Shear Modulus (GPa) = 17.79710 21.68221 19.73966
#
# Velocity S-wave (km/s) = 3.33506 3.68113 3.51236
# Velocity P-wave (km/s) = 5.69823 6.34216 6.02880
#
# Compressibility (1/GPa) = 0.03542979
#
# Stress axis : x y z
#
# Youngs Moduli (GPa) = 60.12272 46.28261 61.71999
#
# Poissons Ratio (x) = 0.15318 0.21064
# Poissons Ratio (y) = 0.19899 0.17178
# Poissons Ratio (z) = 0.20518 0.12882
#
# Static dielectric constant tensor:
#      x y z
#    x 1.542590 0.000000 -0.020810 
#    y 0.000000 1.591840 0.000000 
#    z -0.020810 0.000000 1.565020 
# 
# From -- ./inp_files/218082.got.cif
#   From: 2010.05.17/outbox.cif.g08.bks.cpg/sg12_110_cif.got.tgz:218082.got - 2010.06.03 13:09:07.
