data_PCOD9170331
_publ_section_title
;
Structure prediction by ZEFSAII (Michael W. Deem and Ramdas Pophale) SiO2 
 PCOD9170331
Probable space group: C 2/M
;
_chemical_formula_sum "Si O2"
_cell_formula_units_Z 64
_cell_length_a 26.028489
_cell_length_b 25.757240
_cell_length_c 10.615220
_cell_angle_alpha 90.000000
_cell_angle_beta 33.258397
_cell_angle_gamma 90.000000
_cell_volume 3902.898243
_symmetry_space_group_name_H-M "C 2/M"
_symmetry_group_IT_number 12
_symmetry_cell_setting 'monoclinic'
loop_
_space_group_symop_operation_xyz
x,y,z
-x,y,-z
-x,-y,-z
x,-y,z
1/2+x,1/2+y,z
1/2-x,1/2+y,-z
1/2-x,1/2-y,-z
1/2+x,1/2-y,z
loop_
_atom_site_type_symbol
_atom_site_label
_atom_site_fract_x
_atom_site_fract_y
_atom_site_fract_z
Si Si1 0.036412 0.844596 0.290610
Si Si2 0.033581 0.280317 0.291349
Si Si3 0.865862 0.699352 0.457100
Si Si4 0.359053 0.636090 0.505527
Si Si5 0.888708 0.215899 0.225810
Si Si6 0.887195 0.061277 0.239129
Si Si7 0.250685 0.719395 0.864744
Si Si8 0.305964 0.639936 0.203141
O O1 0.024802 0.782317 0.309007
O O2 0.000000 0.862376 0.500000
O O3 0.966007 0.866207 0.331086
O O4 0.140629 0.861023 0.039283
O O5 0.000000 0.297577 0.500000
O O6 0.966451 0.302076 0.319236
O O7 0.143140 0.290720 0.049328
O O8 0.870193 0.725799 0.310142
O O9 0.806244 0.739347 0.665295
O O10 0.804851 0.647451 0.579248
O O11 0.349232 0.678155 0.414323
O O12 0.344436 0.582786 0.459168
O O13 0.303312 0.663917 0.735134
O O14 0.845442 0.193253 0.187770
O O15 0.000000 0.208972 0.000000
O O16 0.838926 0.093558 0.225353
O O17 0.873699 0.000000 0.254455
O O18 0.000000 0.071714 0.000000
O O19 0.250000 0.750000 0.000000
#
# Coordination Sequence:
#
# PCOD9170331 Si02
#       8
#     8   8   8   8   8   8   8   8
#     4  11  18  27  47  72 104 140 172 204 246 312
#     4  11  19  30  43  69 110 148 184 203 230 307
#     4  11  21  28  44  70 101 142 176 212 249 300
#     4  10  18  32  49  74  99 136 179 211 255 311
#     4  10  17  31  44  64 100 136 171 213 242 295
#     4  10  20  37  60  77  97 131 178 234 279 317
#     4  11  19  30  47  72 108 150 175 199 249 302
#     4  11  19  32  48  71 101 134 172 208 269 314
#
# _framework density 16.398071000000002
#
# number of rings (size 3 to 8) (size 9 to 14) (size 15 to 20)
#    0.000    1.375    7.500    1.875    0.000    0.000 
#    0.000    0.000    0.000    1.500    0.000    1.750 
#    0.000    1.000    0.000    0.000    0.000    0.000 
#
# Total GULP energy -178225.868664 kJ/mol
# GULP energy per Si atom -5569.558396 kJ/mol
# Density = 1.636075 g / cm^3
# Si number density = 16.398071 Si / 1000 Ang^3
#
#
#
# Elastic Constant Matrix: (Units=GPa)
#
#
# Indices 1 2 3 4 5 6 
#
# 1 41.1947 26.3124 24.6840 0.0000 -1.1026 0.0000
# 2 26.3124 66.6919 24.5088 0.0000 -1.1930 0.0000
# 3 24.6840 24.5088 65.5758 0.0000 -9.4380 0.0000
# 4 0.0000 0.0000 0.0000 12.2809 0.0000 -3.8964
# 5 -1.1026 -1.1930 -9.4380 0.0000 36.4625 0.0000
# 6 0.0000 0.0000 0.0000 -3.8964 0.0000 12.0357
#
#
#
# Elastic Compliance Matrix: (Units=1/GPa)
#
#
# Indices 1 2 3 4 5 6 
#
# 1 0.037397 -0.011031 -0.010224 0.000000 -0.001876 0.000000
# 2 -0.011031 0.020682 -0.003665 0.000000 -0.000606 0.000000
# 3 -0.010224 -0.003665 0.021196 0.000000 0.005057 0.000000
# 4 0.000000 0.000000 0.000000 0.090748 0.000000 0.029378
# 5 -0.001876 -0.000606 0.005057 0.000000 0.028658 0.000000
# 6 0.000000 0.000000 0.000000 0.029378 0.000000 0.092597
#
#
# Mechanical properties :
#
#
# Convention : Reuss Voigt Hill
#
# Bulk Modulus (GPa) = 33.97298 36.05251 35.01274
# Shear Modulus (GPa) = 14.24788 18.68631 16.46709
#
# Velocity S-wave (km/s) = 2.95087 3.37937 3.17236
# Velocity P-wave (km/s) = 5.68971 6.10413 5.90056
#
# Compressibility (1/GPa) = 0.02943516
#
# Stress axis : x y z
#
# Youngs Moduli (GPa) = 26.74025 48.35042 47.17920
#
# Poissons Ratio (x) = 0.53334 0.48237
# Poissons Ratio (y) = 0.29496 0.17291
# Poissons Ratio (z) = 0.27340 0.17720
#
# Static dielectric constant tensor:
#      x y z
#    x 1.612920 0.000000 0.015970 
#    y 0.000000 1.534170 0.000000 
#    z 0.015970 0.000000 1.616400 
# 
# From -- ./inp_files/185076.got.cif
#   From: 2010.05.17/outbox.cif.g08.bks.cpg/sg12_93_cif.got.tgz:185076.got - 2010.06.03 13:09:07.
