data_PCOD9170846
_publ_section_title
;
Structure prediction by ZEFSAII (Michael W. Deem and Ramdas Pophale) SiO2 
 PCOD9170846
Probable space group: C 2/M
;
_chemical_formula_sum "Si O2"
_cell_formula_units_Z 64
_cell_length_a 16.462433
_cell_length_b 17.983539
_cell_length_c 18.866836
_cell_angle_alpha 90.000000
_cell_angle_beta 147.846219
_cell_angle_gamma 90.000000
_cell_volume 2972.609235
_symmetry_space_group_name_H-M "C 2/M"
_symmetry_group_IT_number 12
_symmetry_cell_setting 'monoclinic'
loop_
_space_group_symop_operation_xyz
x,y,z
-x,y,-z
-x,-y,-z
x,-y,z
1/2+x,1/2+y,z
1/2-x,1/2+y,-z
1/2-x,1/2-y,-z
1/2+x,1/2-y,z
loop_
_atom_site_type_symbol
_atom_site_label
_atom_site_fract_x
_atom_site_fract_y
_atom_site_fract_z
Si Si1 0.370740 0.186153 0.662046
Si Si2 0.378224 0.344137 0.733482
Si Si3 0.648430 0.824389 0.695025
Si Si4 0.483885 0.847318 0.088296
Si Si5 0.740213 0.086024 0.176724
Si Si6 0.612481 0.916173 0.459677
Si Si7 0.016856 0.833786 0.432880
Si Si8 0.101734 0.176195 0.008831
O O1 0.396396 0.274398 0.693171
O O2 0.473996 0.149180 0.798930
O O3 0.397339 0.147198 0.607535
O O4 0.193253 0.171240 0.546127
O O5 0.271426 0.319682 0.721924
O O6 0.274096 0.404874 0.618399
O O7 0.539289 0.362093 0.890886
O O8 0.534978 0.893744 0.602911
O O9 0.553603 0.748602 0.620241
O O10 0.732261 0.829386 0.833530
O O11 0.636005 0.868233 0.156097
O O12 0.432838 0.763437 0.031231
O O13 0.349029 0.900027 0.962173
O O14 0.910514 0.117229 0.303671
O O15 0.736354 0.000000 0.192974
O O16 0.600489 0.000000 0.424094
O O17 0.000000 0.864539 0.500000
O O18 0.000000 0.149253 0.000000
#
# Coordination Sequence:
#
# PCOD9170846 Si02
#       8
#     8   8   8   8   8   8   8   8
#     4  11  23  39  64  89 125 164 208 257 311 371
#     4  10  20  39  67  97 120 157 208 265 313 363
#     4  11  20  39  68  98 120 153 212 268 310 365
#     4  10  17  35  55  83 120 162 208 253 301 365
#     4  11  21  31  51  86 127 168 206 254 310 361
#     4  12  27  43  60  89 132 174 204 249 323 387
#     4  12  19  36  60  90 122 158 207 261 301 356
#     4   9  16  32  64  94 119 145 201 267 314 352
#
# _framework density 21.529906
#
# number of rings (size 3 to 8) (size 9 to 14) (size 15 to 20)
#    0.000    1.250    6.250    2.250    0.000    2.750 
#    0.000    4.375    0.000    2.250    0.000    0.000 
#    0.000    0.000    0.000    0.000    0.000    0.000 
#
# Total GULP energy -178688.843521 kJ/mol
# GULP energy per Si atom -5584.026360 kJ/mol
# Density = 2.148090 g / cm^3
# Si number density = 21.529906 Si / 1000 Ang^3
#
#
#
# Elastic Constant Matrix: (Units=GPa)
#
#
# Indices 1 2 3 4 5 6 
#
# 1 33.9745 3.0312 17.1820 -0.0001 -12.5422 0.0001
# 2 3.0312 34.9996 12.3508 -0.0005 -5.8755 -0.0005
# 3 17.1820 12.3508 139.0381 0.0012 -21.3666 -0.0008
# 4 -0.0001 -0.0005 0.0012 21.6978 -0.0001 0.2627
# 5 -12.5422 -5.8755 -21.3666 -0.0001 26.1993 -0.0005
# 6 0.0001 -0.0005 -0.0008 0.2627 -0.0005 7.8276
#
#
#
# Elastic Compliance Matrix: (Units=1/GPa)
#
#
# Indices 1 2 3 4 5 6 
#
# 1 0.036269 0.000233 -0.002088 0.000000 0.015712 0.000000
# 2 0.000233 0.030111 -0.001885 0.000001 0.005327 0.000002
# 3 -0.002088 -0.001885 0.008459 -0.000001 0.005477 0.000001
# 4 0.000000 0.000001 -0.000001 0.046106 0.000000 -0.001547
# 5 0.015712 0.005327 0.005477 0.000000 0.051352 0.000004
# 6 0.000000 0.000002 0.000001 -0.001547 0.000004 0.127805
#
#
# Mechanical properties :
#
#
# Convention : Reuss Voigt Hill
#
# Bulk Modulus (GPa) = 14.84554 30.34891 22.59723
# Shear Modulus (GPa) = 15.14986 22.84149 18.99568
#
# Velocity S-wave (km/s) = 2.65555 3.26071 2.97356
# Velocity P-wave (km/s) = 4.03892 5.32006 4.72313
#
# Compressibility (1/GPa) = 0.06736030
#
# Stress axis : x y z
#
# Youngs Moduli (GPa) = 27.57139 33.21044 118.21197
#
# Poissons Ratio (x) = -0.00775 0.24686
# Poissons Ratio (y) = -0.00644 0.22282
# Poissons Ratio (z) = 0.05758 0.06260
#
# Static dielectric constant tensor:
#      x y z
#    x 1.827970 0.000000 -0.013230 
#    y 0.000000 1.730770 0.000000 
#    z -0.013230 0.000000 1.833780 
# 
# From -- ./inp_files/317407.got.cif
#   From: 2010.05.17/outbox.cif.g08.bks.cpg/sg12_159_cif.got.tgz:317407.got - 2010.06.03 13:09:07.
