data_PCOD9170505
_publ_section_title
;
Structure prediction by ZEFSAII (Michael W. Deem and Ramdas Pophale) SiO2 
 PCOD9170505
Probable space group: C 2/M
;
_chemical_formula_sum "Si O2"
_cell_formula_units_Z 60
_cell_length_a 17.771709
_cell_length_b 12.798859
_cell_length_c 14.322348
_cell_angle_alpha 90.000000
_cell_angle_beta 55.296213
_cell_angle_gamma 90.000000
_cell_volume 2678.198149
_symmetry_space_group_name_H-M "C 2/M"
_symmetry_group_IT_number 12
_symmetry_cell_setting 'monoclinic'
loop_
_space_group_symop_operation_xyz
x,y,z
-x,y,-z
-x,-y,-z
x,-y,z
1/2+x,1/2+y,z
1/2-x,1/2+y,-z
1/2-x,1/2-y,-z
1/2+x,1/2-y,z
loop_
_atom_site_type_symbol
_atom_site_label
_atom_site_fract_x
_atom_site_fract_y
_atom_site_fract_z
Si Si1 0.129519 0.886651 0.366123
Si Si2 0.572682 0.782313 0.275143
Si Si3 0.674642 0.829660 0.806197
Si Si4 0.681167 0.612972 0.549086
Si Si5 0.575555 0.622560 0.101148
Si Si6 0.000000 0.739403 0.000000
Si Si7 0.120472 0.334444 0.640796
Si Si8 0.234528 0.117108 0.835824
O O1 0.073525 0.789014 0.367553
O O2 0.228538 0.883517 0.244251
O O3 0.154907 0.878105 0.457491
O O4 0.086429 0.000000 0.378655
O O5 0.582439 0.694688 0.187114
O O6 0.480460 0.848568 0.327011
O O7 0.661667 0.854898 0.211834
O O8 0.634535 0.869478 0.736969
O O9 0.703340 0.707174 0.786607
O O10 0.590664 0.831112 0.936882
O O11 0.651551 0.500000 0.603728
O O12 0.791484 0.623298 0.477074
O O13 0.634487 0.709583 0.630555
O O14 0.555238 0.500000 0.132721
O O15 0.503242 0.682825 0.085817
O O16 0.668716 0.625471 0.973036
O O17 0.226032 0.000000 0.804793
#
# Coordination Sequence:
#
# PCOD9170505 Si02
#       8
#     8   8   8   8   8   4   8   8
#     4   9  19  36  54  74 105 142 173 210 264 315
#     4  11  20  33  54  79 107 135 173 220 258 308
#     4   9  18  34  54  75 105 139 174 217 258 308
#     4   9  20  38  57  75 103 138 172 216 268 316
#     4  10  19  31  49  76 107 139 176 215 256 303
#     4  10  17  32  51  76 108 140 169 214 265 300
#     4  10  20  35  55  82 103 131 177 221 264 306
#     4   9  20  35  51  73 106 147 177 206 257 311
#
# _framework density 22.403122
#
# number of rings (size 3 to 8) (size 9 to 14) (size 15 to 20)
#    0.000    2.400    1.333    1.000    0.000    3.200 
#    0.000    1.667    0.000    0.000    0.000    7.467 
#    0.000    0.000    0.000    0.000    0.000    0.000 
#
# Total GULP energy -167475.539998 kJ/mol
# GULP energy per Si atom -5582.518000 kJ/mol
# Density = 2.235213 g / cm^3
# Si number density = 22.403122 Si / 1000 Ang^3
#
#
#
# Elastic Constant Matrix: (Units=GPa)
#
#
# Indices 1 2 3 4 5 6 
#
# 1 90.1230 -8.1049 17.5967 0.0000 -22.0473 0.0000
# 2 -8.1049 69.7416 10.0559 0.0000 5.0109 0.0000
# 3 17.5967 10.0559 45.4371 0.0000 -18.4075 0.0000
# 4 0.0000 0.0000 0.0000 -5.1753 0.0000 7.7497
# 5 -22.0473 5.0109 -18.4075 0.0000 30.6866 0.0000
# 6 0.0000 0.0000 0.0000 7.7497 0.0000 8.8753
#
#
#
# Elastic Compliance Matrix: (Units=1/GPa)
#
#
# Indices 1 2 3 4 5 6 
#
# 1 0.013674 0.001318 -0.002238 0.000000 0.008266 0.000000
# 2 0.001318 0.015761 -0.006153 0.000000 -0.005318 0.000000
# 3 -0.002238 -0.006153 0.031695 0.000000 0.018409 0.000000
# 4 0.000000 0.000000 0.000000 -0.083737 0.000000 0.073117
# 5 0.008266 -0.005318 0.018409 0.000000 0.050437 0.000000
# 6 0.000000 0.000000 0.000000 0.073117 0.000000 0.048829
#
#
# Mechanical properties :
#
#
# Convention : Reuss Voigt Hill
#
# Bulk Modulus (GPa) = 21.28430 27.15524 24.21977
# Shear Modulus (GPa) = 46.96336 19.26090 33.11213
#
# Velocity S-wave (km/s) = 4.58349 2.93532 3.84867
# Velocity P-wave (km/s) = 6.12637 4.86165 5.53028
#
# Compressibility (1/GPa) = 0.04698300
#
# Stress axis : x y z
#
# Youngs Moduli (GPa) = 73.13291 63.44771 31.55096
#
# Poissons Ratio (x) = -0.08362 0.07062
# Poissons Ratio (y) = -0.09638 0.19413
# Poissons Ratio (z) = 0.16370 0.39038
#
# Static dielectric constant tensor:
#      x y z
#    x 1.852880 0.000000 -0.016440 
#    y 0.000000 1.823350 0.000000 
#    z -0.016440 0.000000 1.850810 
# 
# From -- ./inp_files/277610.got.cif
#   From: 2010.05.17/outbox.cif.g08.bks.cpg/sg12_139_cif.got.tgz:277610.got - 2010.06.03 13:09:07.
