data_PCOD9170481
_publ_section_title
;
Structure prediction by ZEFSAII (Michael W. Deem and Ramdas Pophale) SiO2 
 PCOD9170481
Probable space group: C 2/M
;
_chemical_formula_sum "Si O2"
_cell_formula_units_Z 52
_cell_length_a 22.669155
_cell_length_b 15.163589
_cell_length_c 15.872018
_cell_angle_alpha 90.000000
_cell_angle_beta 151.392531
_cell_angle_gamma 90.000000
_cell_volume 2612.337868
_symmetry_space_group_name_H-M "C 2/M"
_symmetry_group_IT_number 12
_symmetry_cell_setting 'monoclinic'
loop_
_space_group_symop_operation_xyz
x,y,z
-x,y,-z
-x,-y,-z
x,-y,z
1/2+x,1/2+y,z
1/2-x,1/2+y,-z
1/2-x,1/2-y,-z
1/2+x,1/2-y,z
loop_
_atom_site_type_symbol
_atom_site_label
_atom_site_fract_x
_atom_site_fract_y
_atom_site_fract_z
Si Si1 0.855801 0.208965 0.826474
Si Si2 0.778333 0.741682 0.180466
Si Si3 0.787299 0.402752 0.672883
Si Si4 0.000000 0.146237 0.500000
Si Si5 0.314881 0.166760 0.533336
Si Si6 0.507881 0.406285 0.694973
Si Si7 0.587767 0.786646 0.820093
O O1 0.802827 0.191074 0.852981
O O2 0.835640 0.314665 0.780495
O O3 0.778623 0.153684 0.660985
O O4 0.000000 0.191322 0.000000
O O5 0.855118 0.695576 0.200673
O O6 0.881383 0.792322 0.363771
O O7 0.686442 0.808564 0.015927
O O8 0.816054 0.500000 0.746333
O O9 0.831423 0.399423 0.631430
O O10 0.638914 0.396220 0.479133
O O11 0.025773 0.094421 0.616863
O O12 0.250000 0.250000 0.500000
O O13 0.450112 0.181665 0.664072
O O14 0.547346 0.500000 0.780901
O O15 0.575706 0.320036 0.812423
#
# Coordination Sequence:
#
# PCOD9170481 Si02
#       7
#     8   8   8   4   8   8   8
#     4  11  20  32  53  78 107 132 171 212 259 304
#     4  10  19  31  51  79 101 132 172 216 255 302
#     4  10  20  34  51  74 107 140 170 208 258 313
#     4  10  17  32  48  76 109 128 168 212 263 312
#     4  10  18  34  51  72 101 139 176 209 248 301
#     4  10  18  30  50  74 104 138 166 210 263 307
#     4  10  19  33  52  73 105 139 179 211 251 304
#
# _framework density 19.905542000000001
#
# number of rings (size 3 to 8) (size 9 to 14) (size 15 to 20)
#    0.000    1.846    4.615    3.000    0.000    0.308 
#    0.000    0.000    0.000   13.385    0.000    1.615 
#    0.000    0.000    0.000    0.000    0.000    0.000 
#
# Total GULP energy -144760.955284 kJ/mol
# GULP energy per Si atom -5567.729049 kJ/mol
# Density = 1.986024 g / cm^3
# Si number density = 19.905542 Si / 1000 Ang^3
#
#
#
# Elastic Constant Matrix: (Units=GPa)
#
#
# Indices 1 2 3 4 5 6 
#
# 1 139.4687 -11.6940 31.7573 0.0000 20.9043 0.0000
# 2 -11.6940 28.1610 -5.0606 0.0000 3.6050 0.0000
# 3 31.7573 -5.0606 93.5250 0.0000 20.3771 0.0000
# 4 0.0000 0.0000 0.0000 64.9105 0.0000 98.3426
# 5 20.9043 3.6050 20.3771 0.0000 42.4437 0.0000
# 6 0.0000 0.0000 0.0000 98.3426 0.0000 202.7919
#
#
#
# Elastic Compliance Matrix: (Units=1/GPa)
#
#
# Indices 1 2 3 4 5 6 
#
# 1 0.008438 0.003618 -0.001895 0.000000 -0.003553 0.000000
# 2 0.003618 0.038176 0.002158 0.000000 -0.006060 0.000000
# 3 -0.001895 0.002158 0.012608 0.000000 -0.005303 0.000000
# 4 0.000000 0.000000 0.000000 0.058072 0.000000 -0.028162
# 5 -0.003553 -0.006060 -0.005303 0.000000 0.028371 0.000000
# 6 0.000000 0.000000 0.000000 -0.028162 0.000000 0.018588
#
#
# Mechanical properties :
#
#
# Convention : Reuss Voigt Hill
#
# Bulk Modulus (GPa) = 14.92930 32.35113 23.64021
# Shear Modulus (GPa) = 27.96113 78.43934 53.20023
#
# Velocity S-wave (km/s) = 3.75199 6.28421 5.17536
# Velocity P-wave (km/s) = 5.12701 8.30317 6.90032
#
# Compressibility (1/GPa) = 0.06698239
#
# Stress axis : x y z
#
# Youngs Moduli (GPa) = 118.51844 26.19448 79.31481
#
# Poissons Ratio (x) = -0.09477 0.15031
# Poissons Ratio (y) = -0.42880 -0.17113
# Poissons Ratio (z) = 0.22461 -0.05652
#
# Static dielectric constant tensor:
#      x y z
#    x 1.750940 0.000000 -0.004290 
#    y 0.000000 1.760790 0.000000 
#    z -0.004290 0.000000 1.713780 
# 
# From -- ./inp_files/234471.got.cif
#   From: 2010.05.17/outbox.cif.g08.bks.cpg/sg12_118_cif.got.tgz:234471.got - 2010.06.03 13:09:07.
