data_PCOD9170132
_publ_section_title
;
Structure prediction by ZEFSAII (Michael W. Deem and Ramdas Pophale) SiO2 
 PCOD9170132
Probable space group: C 2/M
;
_chemical_formula_sum "Si O2"
_cell_formula_units_Z 36
_cell_length_a 22.766105
_cell_length_b 15.801200
_cell_length_c 5.050927
_cell_angle_alpha 90.000000
_cell_angle_beta 61.600530
_cell_angle_gamma 90.000000
_cell_volume 1598.310936
_symmetry_space_group_name_H-M "C 2/M"
_symmetry_group_IT_number 12
_symmetry_cell_setting 'monoclinic'
loop_
_space_group_symop_operation_xyz
x,y,z
-x,y,-z
-x,-y,-z
x,-y,z
1/2+x,1/2+y,z
1/2-x,1/2+y,-z
1/2-x,1/2-y,-z
1/2+x,1/2-y,z
loop_
_atom_site_type_symbol
_atom_site_label
_atom_site_fract_x
_atom_site_fract_y
_atom_site_fract_z
Si Si1 0.576846 0.591605 0.046938
Si Si2 0.863313 0.314373 0.703341
Si Si3 0.000000 0.240780 0.500000
Si Si4 0.161672 0.121122 0.355083
Si Si5 0.786053 0.342381 0.382414
O O1 0.542378 0.500000 0.145917
O O2 0.535246 0.674189 0.222800
O O3 0.638854 0.587545 0.120308
O O4 0.604347 0.602548 0.692650
O O5 0.835757 0.220255 0.712434
O O6 0.820816 0.368218 0.583049
O O7 0.942376 0.300022 0.501448
O O8 0.845029 0.335249 0.042186
O O9 0.229961 0.100734 0.360120
O O10 0.750000 0.250000 0.500000
#
# Coordination Sequence:
#
# PCOD9170132 Si02
#       5
#     8   8   4   8   8
#     4  11  22  34  48  67  95 136 173 202 227 262
#     4  10  19  29  47  68  91 123 157 194 239 287
#     4  10  21  34  46  68 102 136 167 192 222 280
#     4  10  19  33  49  66  89 120 165 212 244 273
#     4  10  17  30  48  68  86 114 158 204 247 288
#
# _framework density 22.523776000000002
#
# number of rings (size 3 to 8) (size 9 to 14) (size 15 to 20)
#    0.000    1.778    0.000   10.333    0.000    8.000 
#    0.000    5.556    0.000    0.000    0.000    0.000 
#    0.000    0.000    0.000   70.000    0.000   15.778 
#
# Total GULP energy -100369.529717 kJ/mol
# GULP energy per Si atom -5576.084984 kJ/mol
# Density = 2.247251 g / cm^3
# Si number density = 22.523776 Si / 1000 Ang^3
#
#
#
# Elastic Constant Matrix: (Units=GPa)
#
#
# Indices 1 2 3 4 5 6 
#
# 1 150.1437 11.2741 -3.5146 0.0000 0.6899 0.0000
# 2 11.2741 10.2706 0.3211 0.0000 -2.8810 0.0000
# 3 -3.5146 0.3211 69.4727 0.0000 12.5463 0.0000
# 4 0.0000 0.0000 0.0000 17.8304 0.0000 13.5086
# 5 0.6899 -2.8810 12.5463 0.0000 42.5507 0.0000
# 6 0.0000 0.0000 0.0000 13.5086 0.0000 4.1901
#
#
#
# Elastic Compliance Matrix: (Units=1/GPa)
#
#
# Indices 1 2 3 4 5 6 
#
# 1 0.007298 -0.008265 0.000560 0.000000 -0.000843 0.000000
# 2 -0.008265 0.108816 -0.002404 0.000000 0.008210 0.000000
# 3 0.000560 -0.002404 0.015278 0.000000 -0.004677 0.000000
# 4 0.000000 0.000000 0.000000 -0.038880 0.000000 0.125346
# 5 -0.000843 0.008210 -0.004677 0.000000 0.025450 0.000000
# 6 0.000000 0.000000 0.000000 0.125346 0.000000 -0.165449
#
#
# Mechanical properties :
#
#
# Convention : Reuss Voigt Hill
#
# Bulk Modulus (GPa) = 8.99491 27.33867 18.16679
# Shear Modulus (GPa) = 510.80352 27.70135 269.25244
#
# Velocity S-wave (km/s) = 15.07569 3.51076 10.94536
# Velocity P-wave (km/s) = 17.52249 5.34770 12.95445
#
# Compressibility (1/GPa) = 0.11117397
#
# Stress axis : x y z
#
# Youngs Moduli (GPa) = 137.02662 9.18984 65.45306
#
# Poissons Ratio (x) = 0.07595 -0.03663
# Poissons Ratio (y) = 1.13250 0.15733
# Poissons Ratio (z) = -0.07668 0.02209
#
# Static dielectric constant tensor:
#      x y z
#    x 2.004340 0.000000 0.072770 
#    y 0.000000 1.909810 0.000000 
#    z 0.072770 0.000000 1.997810 
# 
# From -- ./inp_files/24662.got.cif
#   From: 2010.05.17/outbox.cif.g08.bks.cpg/sg12_13_cif.got.tgz:24662.got - 2010.06.03 13:09:07.
