data_PCOD9170500
_publ_section_title
;
Structure prediction by ZEFSAII (Michael W. Deem and Ramdas Pophale) SiO2 
 PCOD9170500
Probable space group: C 2/M
;
_chemical_formula_sum "Si O2"
_cell_formula_units_Z 56
_cell_length_a 16.553309
_cell_length_b 25.791057
_cell_length_c 18.001693
_cell_angle_alpha 90.000000
_cell_angle_beta 155.869986
_cell_angle_gamma 90.000000
_cell_volume 3141.863573
_symmetry_space_group_name_H-M "C 2/M"
_symmetry_group_IT_number 12
_symmetry_cell_setting 'monoclinic'
loop_
_space_group_symop_operation_xyz
x,y,z
-x,y,-z
-x,-y,-z
x,-y,z
1/2+x,1/2+y,z
1/2-x,1/2+y,-z
1/2-x,1/2-y,-z
1/2+x,1/2-y,z
loop_
_atom_site_type_symbol
_atom_site_label
_atom_site_fract_x
_atom_site_fract_y
_atom_site_fract_z
Si Si1 0.372094 0.681032 0.454904
Si Si2 0.069724 0.200478 0.775427
Si Si3 0.823527 0.771572 0.803760
Si Si4 0.103426 0.353004 0.718034
Si Si5 0.271045 0.941179 0.279906
Si Si6 0.645464 0.360797 0.285384
Si Si7 0.028199 0.688787 0.810228
O O1 0.500000 0.650798 0.500000
O O2 0.510222 0.694477 0.640445
O O3 0.293129 0.730866 0.343261
O O4 0.166238 0.662439 0.318797
O O5 0.982892 0.254707 0.735254
O O6 0.979943 0.152820 0.747510
O O7 0.302825 0.200057 0.987669
O O8 0.687088 0.803026 0.745980
O O9 0.904096 0.815577 0.815333
O O10 0.000000 0.748029 0.000000
O O11 0.219568 0.402240 0.782167
O O12 0.113790 0.345041 0.814449
O O13 0.874252 0.355930 0.502099
O O14 0.500000 0.941936 0.500000
O O15 0.141587 0.914204 0.236029
O O16 0.213699 0.000000 0.215782
#
# Coordination Sequence:
#
# PCOD9170500 Si02
#       7
#     8   8   8   8   8   8   8
#     4  12  24  34  48  67  98 131 179 223 260 308
#     4  11  22  35  50  70 101 136 180 223 258 310
#     4  11  21  30  45  69  98 135 180 214 255 310
#     4  10  19  33  51  72 104 142 178 218 260 311
#     4   8  16  30  53  83 111 141 176 213 261 318
#     4  10  17  32  51  71 102 141 175 219 259 307
#     4  11  22  34  50  71  98 138 180 220 262 308
#
# _framework density 17.823816999999998
#
# number of rings (size 3 to 8) (size 9 to 14) (size 15 to 20)
#    0.000    1.571    2.857    5.143    4.000    0.000 
#    0.000    0.000    0.000   15.429    0.000    0.000 
#    0.000    2.286    0.000    2.571    0.000    0.714 
#
# Total GULP energy -156324.802525 kJ/mol
# GULP energy per Si atom -5583.028662 kJ/mol
# Density = 1.778325 g / cm^3
# Si number density = 17.823817 Si / 1000 Ang^3
#
#
#
# Elastic Constant Matrix: (Units=GPa)
#
#
# Indices 1 2 3 4 5 6 
#
# 1 118.8297 29.9744 29.1375 0.0002 -16.5360 0.0001
# 2 29.9744 66.4474 4.8064 -0.0001 -8.4130 -0.0001
# 3 29.1375 4.8064 103.7742 0.0007 -21.3290 0.0003
# 4 0.0002 -0.0001 0.0007 4.2133 0.0004 0.0054
# 5 -16.5360 -8.4130 -21.3290 0.0004 19.2537 0.0002
# 6 0.0001 -0.0001 0.0003 0.0054 0.0002 14.6783
#
#
#
# Elastic Compliance Matrix: (Units=1/GPa)
#
#
# Indices 1 2 3 4 5 6 
#
# 1 0.010589 -0.003956 -0.001652 -0.000001 0.005535 0.000000
# 2 -0.003956 0.017474 0.001518 0.000000 0.005919 0.000000
# 3 -0.001652 0.001518 0.012786 -0.000003 0.013408 0.000000
# 4 -0.000001 0.000000 -0.000003 0.237342 -0.000008 -0.000087
# 5 0.005535 0.005919 0.013408 -0.000008 0.074132 -0.000001
# 6 0.000000 0.000000 0.000000 -0.000087 -0.000001 0.068128
#
#
# Mechanical properties :
#
#
# Convention : Reuss Voigt Hill
#
# Bulk Modulus (GPa) = 30.61142 46.32088 38.46615
# Shear Modulus (GPa) = 11.37606 22.63794 17.00700
#
# Velocity S-wave (km/s) = 2.52910 3.56771 3.09232
# Velocity P-wave (km/s) = 5.07348 6.55866 5.86328
#
# Compressibility (1/GPa) = 0.03266754
#
# Stress axis : x y z
#
# Youngs Moduli (GPa) = 94.44000 57.22859 78.21222
#
# Poissons Ratio (x) = 0.22641 0.12922
# Poissons Ratio (y) = 0.37363 -0.11873
# Poissons Ratio (z) = 0.15603 -0.08688
#
# Static dielectric constant tensor:
#      x y z
#    x 1.682900 0.000000 0.029900 
#    y 0.000000 1.581790 0.000000 
#    z 0.029900 0.000000 1.661150 
# 
# From -- ./inp_files/219369.got.cif
#   From: 2010.05.17/outbox.cif.g08.bks.cpg/sg12_110_cif.got.tgz:219369.got - 2010.06.03 13:09:07.
