data_PCOD9170979
_publ_section_title
;
Structure prediction by ZEFSAII (Michael W. Deem and Ramdas Pophale) SiO2 
 PCOD9170979
Probable space group: C 2/M
;
_chemical_formula_sum "Si O2"
_cell_formula_units_Z 52
_cell_length_a 23.116622
_cell_length_b 19.136364
_cell_length_c 23.486667
_cell_angle_alpha 90.000000
_cell_angle_beta 161.023040
_cell_angle_gamma 90.000000
_cell_volume 3378.621795
_symmetry_space_group_name_H-M "C 2/M"
_symmetry_group_IT_number 12
_symmetry_cell_setting 'monoclinic'
loop_
_space_group_symop_operation_xyz
x,y,z
-x,y,-z
-x,-y,-z
x,-y,z
1/2+x,1/2+y,z
1/2-x,1/2+y,-z
1/2-x,1/2-y,-z
1/2+x,1/2-y,z
loop_
_atom_site_type_symbol
_atom_site_label
_atom_site_fract_x
_atom_site_fract_y
_atom_site_fract_z
Si Si1 0.961040 0.085002 0.397948
Si Si2 0.640327 0.346494 0.891873
Si Si3 0.017711 0.274910 0.842744
Si Si4 0.928953 0.642033 0.992827
Si Si5 0.711878 0.500000 0.517587
Si Si6 0.677966 0.500000 0.891423
Si Si7 0.527649 0.000000 0.136529
Si Si8 0.829162 0.147041 0.513260
O O1 0.772489 0.116522 0.203011
O O2 0.000000 0.103858 0.500000
O O3 0.097068 0.119129 0.479011
O O4 0.954283 0.000000 0.390248
O O5 0.562512 0.306112 0.873801
O O6 0.665751 0.429593 0.916366
O O7 0.496968 0.331093 0.707868
O O8 0.831617 0.315318 0.053449
O O9 0.823093 0.296582 0.639233
O O10 0.043325 0.304846 0.929782
O O11 0.031531 0.569879 0.103253
O O12 0.000000 0.671316 0.000000
O O13 0.497926 0.500000 0.311782
O O14 0.756612 0.577531 0.536457
O O15 0.811532 0.500000 0.670245
O O16 0.849831 0.500000 0.010454
#
# Coordination Sequence:
#
# PCOD9170979 Si02
#       8
#     8   8   8   8   4   4   4   8
#     4  11  22  31  44  69 104 140 176 205 230 280
#     4  10  21  34  51  72  96 129 165 210 248 293
#     4  11  21  34  50  70  99 130 166 206 251 289
#     4  12  22  33  48  71 103 139 172 207 242 290
#     4  10  18  25  48  65  92 133 159 196 231 274
#     4  10  18  35  51  71 100 128 168 201 247 287
#     4  12  19  32  45  74 100 133 171 195 231 284
#     4  11  18  32  47  68  95 131 170 202 242 283
#
# _framework density 15.390891
#
# number of rings (size 3 to 8) (size 9 to 14) (size 15 to 20)
#    0.000    1.077    6.154    2.538    0.000    0.000 
#    0.000    0.000    0.000    0.000    0.000    0.538 
#    0.000    0.000    0.000    3.231    0.000    0.000 
#
# Total GULP energy -144938.009611 kJ/mol
# GULP energy per Si atom -5574.538831 kJ/mol
# Density = 1.535586 g / cm^3
# Si number density = 15.390891 Si / 1000 Ang^3
#
#
#
# Elastic Constant Matrix: (Units=GPa)
#
#
# Indices 1 2 3 4 5 6 
#
# 1 58.0173 26.9479 1.9554 -0.0060 0.7889 -0.0055
# 2 26.9479 57.6986 0.3882 -0.0024 3.0763 -0.0026
# 3 1.9554 0.3882 67.0711 -0.0062 4.6983 -0.0110
# 4 -0.0060 -0.0024 -0.0062 12.2440 0.0096 6.4338
# 5 0.7889 3.0763 4.6983 0.0096 20.5563 -0.0051
# 6 -0.0055 -0.0026 -0.0110 6.4338 -0.0051 12.4918
#
#
#
# Elastic Compliance Matrix: (Units=1/GPa)
#
#
# Indices 1 2 3 4 5 6 
#
# 1 0.022048 -0.010338 -0.000642 0.000005 0.000848 0.000005
# 2 -0.010338 0.022319 0.000385 0.000003 -0.003031 -0.000002
# 3 -0.000642 0.000385 0.015171 0.000005 -0.003500 0.000009
# 4 0.000005 0.000003 0.000005 0.111978 -0.000068 -0.057674
# 5 0.000848 -0.003031 -0.003500 -0.000068 0.049868 0.000052
# 6 0.000005 -0.000002 0.000009 -0.057674 0.000052 0.109757
#
#
# Mechanical properties :
#
#
# Convention : Reuss Voigt Hill
#
# Bulk Modulus (GPa) = 26.07824 26.81886 26.44855
# Shear Modulus (GPa) = 13.69425 19.29146 16.49286
#
# Velocity S-wave (km/s) = 2.98613 3.54423 3.27708
# Velocity P-wave (km/s) = 5.37308 5.84908 5.61612
#
# Compressibility (1/GPa) = 0.03834615
#
# Stress axis : x y z
#
# Youngs Moduli (GPa) = 45.35480 44.80483 65.91407
#
# Poissons Ratio (x) = 0.46321 0.04234
# Poissons Ratio (y) = 0.46890 -0.02535
# Poissons Ratio (z) = 0.02913 -0.01723
#
# Static dielectric constant tensor:
#      x y z
#    x 1.521050 0.000000 0.013710 
#    y 0.000000 1.543590 -0.000010 
#    z 0.013710 -0.000010 1.549270 
# 
# From -- ./inp_files/349911.got.cif
#   From: 2010.05.17/outbox.cif.g08.bks.cpg/sg12_175_cif.got.tgz:349911.got - 2010.06.03 13:09:07.
