data_PCOD9170537
_publ_section_title
;
Structure prediction by ZEFSAII (Michael W. Deem and Ramdas Pophale) SiO2 
 PCOD9170537
Probable space group: C 2/M
;
_chemical_formula_sum "Si O2"
_cell_formula_units_Z 64
_cell_length_a 21.236914
_cell_length_b 18.029685
_cell_length_c 11.523977
_cell_angle_alpha 90.000000
_cell_angle_beta 55.042093
_cell_angle_gamma 90.000000
_cell_volume 3616.343563
_symmetry_space_group_name_H-M "C 2/M"
_symmetry_group_IT_number 12
_symmetry_cell_setting 'monoclinic'
loop_
_space_group_symop_operation_xyz
x,y,z
-x,y,-z
-x,-y,-z
x,-y,z
1/2+x,1/2+y,z
1/2-x,1/2+y,-z
1/2-x,1/2-y,-z
1/2+x,1/2-y,z
loop_
_atom_site_type_symbol
_atom_site_label
_atom_site_fract_x
_atom_site_fract_y
_atom_site_fract_z
Si Si1 0.300990 0.727363 0.332088
Si Si2 0.835147 0.386727 0.296357
Si Si3 0.077498 0.583770 0.559702
Si Si4 0.838062 0.702062 0.667900
Si Si5 0.546136 0.320198 0.567240
Si Si6 0.664191 0.585761 0.574876
Si Si7 0.571358 0.081746 0.013003
Si Si8 0.444648 0.807082 0.763378
O O1 0.250000 0.750000 0.500000
O O2 0.354082 0.798864 0.267954
O O3 0.248234 0.721841 0.274387
O O4 0.334701 0.647296 0.324661
O O5 0.887370 0.415412 0.347001
O O6 0.746338 0.402490 0.422336
O O7 0.856331 0.418178 0.149389
O O8 0.062307 0.500000 0.541436
O O9 0.140687 0.623532 0.412903
O O10 0.002145 0.635062 0.637826
O O11 0.889157 0.762028 0.543990
O O12 0.868370 0.702162 0.766496
O O13 0.500000 0.340978 0.500000
O O14 0.591842 0.388071 0.574624
O O15 0.490407 0.271327 0.709824
O O16 0.659555 0.500000 0.614064
O O17 0.571309 0.150689 0.100219
O O18 0.565457 0.000000 0.077932
O O19 0.500000 0.088104 0.000000
#
# Coordination Sequence:
#
# PCOD9170537 Si02
#       8
#     8   8   8   8   8   8   8   8
#     4  10  17  32  54  73 103 135 172 216 259 313
#     4  11  20  33  54  76 106 143 177 212 255 309
#     4  11  18  28  46  74 105 134 166 206 262 317
#     4  10  18  32  49  74 100 136 173 212 261 311
#     4   9  18  34  54  74 102 133 172 222 267 310
#     4  11  20  31  52  82 107 132 168 218 272 311
#     4  11  22  35  51  76 111 146 180 214 247 309
#     4  10  21  33  50  73 106 141 173 213 259 307
#
# _framework density 17.697433
#
# number of rings (size 3 to 8) (size 9 to 14) (size 15 to 20)
#    0.000    1.625    6.250    3.375    0.000    1.750 
#    0.000    0.625    0.000    0.000    0.000    1.750 
#    0.000    0.000    0.000    0.000    0.000    0.000 
#
# Total GULP energy -178327.100493 kJ/mol
# GULP energy per Si atom -5572.721890 kJ/mol
# Density = 1.765715 g / cm^3
# Si number density = 17.697433 Si / 1000 Ang^3
#
#
#
# Elastic Constant Matrix: (Units=GPa)
#
#
# Indices 1 2 3 4 5 6 
#
# 1 91.3996 27.5221 2.6717 0.0000 11.0450 0.0000
# 2 27.5221 119.5060 5.3944 0.0000 4.5095 0.0000
# 3 2.6717 5.3944 32.2020 0.0000 9.5705 0.0000
# 4 0.0000 0.0000 0.0000 0.0809 0.0000 -17.7970
# 5 11.0450 4.5095 9.5705 0.0000 14.5614 0.0000
# 6 0.0000 0.0000 0.0000 -17.7970 0.0000 -10.5179
#
#
#
# Elastic Compliance Matrix: (Units=1/GPa)
#
#
# Indices 1 2 3 4 5 6 
#
# 1 0.012969 -0.002699 0.002549 0.000000 -0.010677 0.000000
# 2 -0.002699 0.009045 -0.001326 0.000000 0.000118 0.000000
# 3 0.002549 -0.001326 0.039168 0.000000 -0.027267 0.000000
# 4 0.000000 0.000000 0.000000 0.033119 0.000000 -0.056039
# 5 -0.010677 0.000118 -0.027267 0.000000 0.094658 0.000000
# 6 0.000000 0.000000 0.000000 -0.056039 0.000000 -0.000255
#
#
# Mechanical properties :
#
#
# Convention : Reuss Voigt Hill
#
# Bulk Modulus (GPa) = 17.17303 34.92042 26.04672
# Shear Modulus (GPa) = 23.68919 14.65950 19.17434
#
# Velocity S-wave (km/s) = 3.66261 2.88121 3.29516
# Velocity P-wave (km/s) = 5.25462 5.55367 5.40621
#
# Compressibility (1/GPa) = 0.05823086
#
# Stress axis : x y z
#
# Youngs Moduli (GPa) = 77.10437 110.56099 25.53081
#
# Poissons Ratio (x) = 0.29841 -0.06509
# Poissons Ratio (y) = 0.20811 0.03386
# Poissons Ratio (z) = -0.19657 0.14663
#
# Static dielectric constant tensor:
#      x y z
#    x 1.639880 0.000000 -0.003400 
#    y 0.000000 1.645790 0.000000 
#    z -0.003400 0.000000 1.629340 
# 
# From -- ./inp_files/168435.got.cif
#   From: 2010.05.17/outbox.cif.g08.bks.cpg/sg12_85_cif.got.tgz:168435.got - 2010.06.03 13:09:07.
