data_PCOD9170704
_publ_section_title
;
Structure prediction by ZEFSAII (Michael W. Deem and Ramdas Pophale) SiO2 
 PCOD9170704
Probable space group: C 2/M
;
_chemical_formula_sum "Si O2"
_cell_formula_units_Z 52
_cell_length_a 15.879056
_cell_length_b 22.352545
_cell_length_c 10.815136
_cell_angle_alpha 90.000000
_cell_angle_beta 48.240796
_cell_angle_gamma 90.000000
_cell_volume 2863.476302
_symmetry_space_group_name_H-M "C 2/M"
_symmetry_group_IT_number 12
_symmetry_cell_setting 'monoclinic'
loop_
_space_group_symop_operation_xyz
x,y,z
-x,y,-z
-x,-y,-z
x,-y,z
1/2+x,1/2+y,z
1/2-x,1/2+y,-z
1/2-x,1/2-y,-z
1/2+x,1/2-y,z
loop_
_atom_site_type_symbol
_atom_site_label
_atom_site_fract_x
_atom_site_fract_y
_atom_site_fract_z
Si Si1 0.015540 0.774853 0.147951
Si Si2 0.170197 0.000000 0.251686
Si Si3 0.918036 0.000000 0.385947
Si Si4 0.253213 0.334516 0.172556
Si Si5 0.403832 0.602350 0.197404
Si Si6 0.500000 0.830715 0.000000
Si Si7 0.215422 0.624656 0.928909
Si Si8 0.109098 0.774363 0.322014
O O1 0.939271 0.833624 0.220280
O O2 0.060453 0.757555 0.236365
O O3 0.130571 0.797199 0.966966
O O4 0.958075 0.717471 0.143095
O O5 0.153800 0.000000 0.416941
O O6 0.234201 0.940520 0.145093
O O7 0.047180 0.000000 0.307478
O O8 0.898170 0.943865 0.314592
O O9 0.290260 0.386319 0.230360
O O10 0.166739 0.286416 0.313035
O O11 0.214398 0.359943 0.076901
O O12 0.500000 0.585906 0.000000
O O13 0.403171 0.867209 0.025444
O O14 0.299381 0.674030 0.787401
O O15 0.000000 0.796866 0.500000
#
# Coordination Sequence:
#
# PCOD9170704 Si02
#       8
#     8   4   4   8   8   4   8   8
#     4  10  17  33  57  87 113 153 191 239 285 350
#     4  11  26  41  56  87 118 154 198 236 296 345
#     4  11  23  40  58  83 128 157 181 244 300 347
#     4  10  18  37  59  86 118 147 200 237 288 347
#     4  10  19  33  60  85 115 152 202 238 283 347
#     4  12  18  39  66  81 114 154 208 244 284 336
#     4  11  23  39  62  85 114 164 199 242 284 346
#     4  11  21  34  58  92 126 151 186 236 311 353
#
# _framework density 18.159745999999998
#
# number of rings (size 3 to 8) (size 9 to 14) (size 15 to 20)
#    0.000    1.385    5.385    3.923    4.308    0.923 
#    2.769    1.538    0.000    0.000    0.000    2.154 
#    0.000    0.000    0.000    0.000    0.000    0.000 
#
# Total GULP energy -144930.368004 kJ/mol
# GULP energy per Si atom -5574.244923 kJ/mol
# Density = 1.811841 g / cm^3
# Si number density = 18.159746 Si / 1000 Ang^3
#
#
#
# Elastic Constant Matrix: (Units=GPa)
#
#
# Indices 1 2 3 4 5 6 
#
# 1 128.2469 48.1644 19.4580 0.0000 -1.2721 0.0000
# 2 48.1644 98.0018 23.6767 0.0000 0.5169 0.0000
# 3 19.4580 23.6767 24.2456 0.0000 0.0204 0.0000
# 4 0.0000 0.0000 0.0000 -33.5061 0.0000 0.8422
# 5 -1.2721 0.5169 0.0204 0.0000 16.0593 0.0000
# 6 0.0000 0.0000 0.0000 0.8422 0.0000 36.2339
#
#
#
# Elastic Compliance Matrix: (Units=1/GPa)
#
#
# Indices 1 2 3 4 5 6 
#
# 1 0.009888 -0.003857 -0.004170 0.000000 0.000913 0.000000
# 2 -0.003857 0.014862 -0.011417 0.000000 -0.000769 0.000000
# 3 -0.004170 -0.011417 0.055740 0.000000 -0.000034 0.000000
# 4 0.000000 0.000000 0.000000 -0.029828 0.000000 0.000693
# 5 0.000913 -0.000769 -0.000034 0.000000 0.062366 0.000000
# 6 0.000000 0.000000 0.000000 0.000693 0.000000 0.027582
#
#
# Mechanical properties :
#
#
# Convention : Reuss Voigt Hill
#
# Bulk Modulus (GPa) = 24.03714 48.12140 36.07927
# Shear Modulus (GPa) = 25.85787 14.37044 20.11416
#
# Velocity S-wave (km/s) = 3.77757 2.81612 3.33171
# Velocity P-wave (km/s) = 5.68260 6.09348 5.89162
#
# Compressibility (1/GPa) = 0.04160229
#
# Stress axis : x y z
#
# Youngs Moduli (GPa) = 101.13657 67.28667 17.94043
#
# Poissons Ratio (x) = 0.25952 0.07480
# Poissons Ratio (y) = 0.39007 0.20483
# Poissons Ratio (z) = 0.42170 0.76822
#
# Static dielectric constant tensor:
#      x y z
#    x 1.660640 0.000000 0.027740 
#    y 0.000000 1.629010 0.000000 
#    z 0.027740 0.000000 1.694320 
# 
# From -- ./inp_files/147575.got.cif
#   From: 2010.05.17/outbox.cif.g08.bks.cpg/sg12_74_cif.got.tgz:147575.got - 2010.06.03 13:09:07.
