data_PCOD9170751
_publ_section_title
;
Structure prediction by ZEFSAII (Michael W. Deem and Ramdas Pophale) SiO2 
 PCOD9170751
Probable space group: C 2/M
;
_chemical_formula_sum "Si O2"
_cell_formula_units_Z 40
_cell_length_a 16.167741
_cell_length_b 19.722449
_cell_length_c 18.960934
_cell_angle_alpha 90.000000
_cell_angle_beta 157.647623
_cell_angle_gamma 90.000000
_cell_volume 2299.313940
_symmetry_space_group_name_H-M "C 2/M"
_symmetry_group_IT_number 12
_symmetry_cell_setting 'monoclinic'
loop_
_space_group_symop_operation_xyz
x,y,z
-x,y,-z
-x,-y,-z
x,-y,z
1/2+x,1/2+y,z
1/2-x,1/2+y,-z
1/2-x,1/2-y,-z
1/2+x,1/2-y,z
loop_
_atom_site_type_symbol
_atom_site_label
_atom_site_fract_x
_atom_site_fract_y
_atom_site_fract_z
Si Si1 0.969237 0.078512 0.770672
Si Si2 0.783321 0.227516 0.365768
Si Si3 0.366848 0.177148 0.100964
Si Si4 0.182225 0.864063 0.203284
Si Si5 0.574113 0.160473 0.416804
O O1 0.878561 0.088552 0.779171
O O2 0.789353 0.115311 0.580418
O O3 0.994360 0.000000 0.774225
O O4 0.193622 0.119872 0.944793
O O5 0.585852 0.178380 0.227404
O O6 0.695049 0.288333 0.246273
O O7 0.854178 0.267493 0.492986
O O8 0.000000 0.199183 0.500000
O O9 0.442872 0.168801 0.241617
O O10 0.250000 0.250000 0.000000
O O11 0.413751 0.873795 0.348034
O O12 0.000000 0.868602 0.000000
#
# Coordination Sequence:
#
# PCOD9170751 Si02
#       5
#     8   8   8   8   8
#     4  11  24  36  52  81 115 155 191 219 272 339
#     4   9  19  32  54  83 111 137 182 231 283 325
#     4  12  20  36  60  82 109 146 187 235 278 322
#     4  10  17  34  52  81 116 151 181 220 266 336
#     4  10  20  34  55  79 115 146 179 225 277 331
#
# _framework density 17.396494000000001
#
# number of rings (size 3 to 8) (size 9 to 14) (size 15 to 20)
#    0.000    1.600    6.000    2.400    0.000    2.800 
#    0.000    0.000    0.000    0.600    0.000    1.400 
#    0.000    0.000    0.000    0.000    0.000    0.000 
#
# Total GULP energy -111611.250664 kJ/mol
# GULP energy per Si atom -5580.562533 kJ/mol
# Density = 1.735690 g / cm^3
# Si number density = 17.396494 Si / 1000 Ang^3
#
#
#
# Elastic Constant Matrix: (Units=GPa)
#
#
# Indices 1 2 3 4 5 6 
#
# 1 50.1510 36.7547 35.5055 0.0271 20.0862 0.0075
# 2 36.7547 73.7860 55.2788 0.0936 15.9945 0.0366
# 3 35.5055 55.2788 130.0041 0.0707 12.9026 0.0364
# 4 0.0271 0.0936 0.0707 13.1968 0.0387 5.9643
# 5 20.0862 15.9945 12.9026 0.0387 47.5075 0.0167
# 6 0.0075 0.0366 0.0364 5.9643 0.0167 8.6192
#
#
#
# Elastic Compliance Matrix: (Units=1/GPa)
#
#
# Indices 1 2 3 4 5 6 
#
# 1 0.035926 -0.013422 -0.003130 0.000059 -0.009821 0.000017
# 2 -0.013422 0.025895 -0.007238 -0.000123 -0.001077 0.000020
# 3 -0.003130 -0.007238 0.011563 0.000002 0.000620 -0.000018
# 4 0.000059 -0.000123 0.000002 0.110259 -0.000047 -0.076296
# 5 -0.009821 -0.001077 0.000620 -0.000047 0.025396 -0.000006
# 6 0.000017 0.000020 -0.000018 -0.076296 -0.000006 0.168815
#
#
# Mechanical properties :
#
#
# Convention : Reuss Voigt Hill
#
# Bulk Modulus (GPa) = 38.75408 56.55767 47.65588
# Shear Modulus (GPa) = 11.51983 22.29150 16.90567
#
# Velocity S-wave (km/s) = 2.57610 3.58352 3.12073
# Velocity P-wave (km/s) = 5.58334 7.05008 6.35914
#
# Compressibility (1/GPa) = 0.02580373
#
# Stress axis : x y z
#
# Youngs Moduli (GPa) = 27.83531 38.61794 86.48252
#
# Poissons Ratio (x) = 0.51832 0.27069
# Poissons Ratio (y) = 0.37360 0.62596
# Poissons Ratio (z) = 0.08712 0.27952
#
# Static dielectric constant tensor:
#      x y z
#    x 1.624490 -0.000010 0.015520 
#    y -0.000010 1.556370 0.000000 
#    z 0.015520 0.000000 1.618920 
# 
# From -- ./inp_files/74071.got.cif
#   From: 2010.05.17/outbox.cif.g08.bks.cpg/sg12_38_cif.got.tgz:74071.got - 2010.06.03 13:09:07.
