data_PCOD9170028
_publ_section_title
;
Structure prediction by ZEFSAII (Michael W. Deem and Ramdas Pophale) SiO2 
 PCOD9170028
Probable space group: C 2/M
;
_chemical_formula_sum "Si O2"
_cell_formula_units_Z 64
_cell_length_a 20.396253
_cell_length_b 7.747061
_cell_length_c 21.236045
_cell_angle_alpha 90.000000
_cell_angle_beta 51.908710
_cell_angle_gamma 90.000000
_cell_volume 2640.898047
_symmetry_space_group_name_H-M "C 2/M"
_symmetry_group_IT_number 12
_symmetry_cell_setting 'monoclinic'
loop_
_space_group_symop_operation_xyz
x,y,z
-x,y,-z
-x,-y,-z
x,-y,z
1/2+x,1/2+y,z
1/2-x,1/2+y,-z
1/2-x,1/2-y,-z
1/2+x,1/2-y,z
loop_
_atom_site_type_symbol
_atom_site_label
_atom_site_fract_x
_atom_site_fract_y
_atom_site_fract_z
Si Si1 0.673894 0.700831 0.353213
Si Si2 0.072278 0.796694 0.230010
Si Si3 0.655929 0.208900 0.700598
Si Si4 0.346149 0.295830 0.439959
Si Si5 0.499917 0.702693 0.413741
Si Si6 0.819889 0.201957 0.011881
Si Si7 0.256066 0.801632 0.821827
Si Si8 0.000903 0.693783 0.144635
O O1 0.664066 0.500000 0.377162
O O2 0.749540 0.776709 0.348605
O O3 0.579508 0.774696 0.405293
O O4 0.715499 0.706491 0.258537
O O5 0.160942 0.708271 0.185047
O O6 0.025135 0.696796 0.203841
O O7 0.032241 0.791915 0.322508
O O8 0.079991 0.000000 0.207564
O O9 0.628147 0.250949 0.646420
O O10 0.592116 0.273440 0.792908
O O11 0.658295 0.000000 0.705242
O O12 0.353174 0.500000 0.442748
O O13 0.250000 0.250000 0.500000
O O14 0.407471 0.222006 0.457899
O O15 0.493925 0.500000 0.434506
O O16 0.808027 0.277733 0.089671
O O17 0.806871 0.000000 0.028249
O O18 0.750000 0.250000 0.000000
O O19 0.915847 0.228750 0.934944
O O20 0.236853 0.000000 0.815907
O O21 0.992422 0.500000 0.124962
#
# Coordination Sequence:
#
# PCOD9170028 Si02
#       8
#     8   8   8   8   8   8   8   8
#     4   9  19  38  62  84 110 151 197 238 286 343
#     4  10  17  29  51  77 105 142 185 230 280 335
#     4  10  22  40  61  87 117 149 190 239 288 345
#     4  11  22  38  61  91 122 152 186 230 286 344
#     4   8  16  32  56  84 109 142 190 231 271 331
#     4  11  22  33  49  76 112 151 193 244 299 348
#     4  10  20  33  50  78 111 143 188 244 294 337
#     4  11  21  32  50  79 111 144 185 236 292 344
#
# _framework density 24.234179000000001
#
# number of rings (size 3 to 8) (size 9 to 14) (size 15 to 20)
#    0.000    2.000    2.500    2.625    0.000    2.500 
#    0.000    1.875    0.000    7.500    0.000    0.000 
#    0.000    0.000    0.000    0.000    0.000    0.000 
#
# Total GULP energy -178373.920912 kJ/mol
# GULP energy per Si atom -5574.185028 kJ/mol
# Density = 2.417902 g / cm^3
# Si number density = 24.234179 Si / 1000 Ang^3
#
#
#
# Elastic Constant Matrix: (Units=GPa)
#
#
# Indices 1 2 3 4 5 6 
#
# 1 144.4168 -2.1747 36.1693 -0.0001 -33.7799 -0.0014
# 2 -2.1747 52.3804 -2.6237 -0.0002 -6.9853 -0.0037
# 3 36.1693 -2.6237 123.1771 0.0002 -24.6507 0.0000
# 4 -0.0001 -0.0002 0.0002 13.2316 -0.0001 -5.9888
# 5 -33.7799 -6.9853 -24.6507 -0.0001 41.1626 0.0007
# 6 -0.0014 -0.0037 0.0000 -5.9888 0.0007 5.4108
#
#
#
# Elastic Compliance Matrix: (Units=1/GPa)
#
#
# Indices 1 2 3 4 5 6 
#
# 1 0.008817 0.001200 -0.001221 0.000002 0.006708 0.000005
# 2 0.001200 0.019861 0.001071 0.000012 0.004996 0.000027
# 3 -0.001221 0.001071 0.009471 0.000000 0.004851 -0.000001
# 4 0.000002 0.000012 0.000000 0.151449 0.000001 0.167629
# 5 0.006708 0.004996 0.004851 0.000001 0.033552 0.000002
# 6 0.000005 0.000027 -0.000001 0.167629 0.000002 0.370354
#
#
# Mechanical properties :
#
#
# Convention : Reuss Voigt Hill
#
# Bulk Modulus (GPa) = 24.84666 42.52401 33.68533
# Shear Modulus (GPa) = 8.26691 31.20121 19.73406
#
# Velocity S-wave (km/s) = 1.84896 3.59205 2.85670
# Velocity P-wave (km/s) = 3.85139 5.89822 4.98107
#
# Compressibility (1/GPa) = 0.04024686
#
# Stress axis : x y z
#
# Youngs Moduli (GPa) = 113.41238 50.35048 105.59007
#
# Poissons Ratio (x) = -0.06040 0.12893
# Poissons Ratio (y) = -0.13604 -0.11305
# Poissons Ratio (z) = 0.13849 -0.05391
#
# Static dielectric constant tensor:
#      x y z
#    x 1.987830 0.000000 -0.059740 
#    y 0.000000 1.942830 0.000000 
#    z -0.059740 0.000000 2.064920 
# 
# From -- ./inp_files/346088.got.cif
#   From: 2010.05.17/outbox.cif.g08.bks.cpg/sg12_174_cif.got.tgz:346088.got - 2010.06.03 13:09:07.
