data_PCOD9170856
_publ_section_title
;
Structure prediction by ZEFSAII (Michael W. Deem and Ramdas Pophale) SiO2 
 PCOD9170856
Probable space group: C 2/M
;
_chemical_formula_sum "Si O2"
_cell_formula_units_Z 64
_cell_length_a 14.823100
_cell_length_b 24.389122
_cell_length_c 12.101328
_cell_angle_alpha 90.000000
_cell_angle_beta 141.580568
_cell_angle_gamma 90.000000
_cell_volume 2718.622746
_symmetry_space_group_name_H-M "C 2/M"
_symmetry_group_IT_number 12
_symmetry_cell_setting 'monoclinic'
loop_
_space_group_symop_operation_xyz
x,y,z
-x,y,-z
-x,-y,-z
x,-y,z
1/2+x,1/2+y,z
1/2-x,1/2+y,-z
1/2-x,1/2-y,-z
1/2+x,1/2-y,z
loop_
_atom_site_type_symbol
_atom_site_label
_atom_site_fract_x
_atom_site_fract_y
_atom_site_fract_z
Si Si1 0.141327 0.859669 0.257582
Si Si2 0.897903 0.060433 0.293888
Si Si3 0.608068 0.061982 0.924489
Si Si4 0.150194 0.361305 0.361365
Si Si5 0.161576 0.733505 0.199265
Si Si6 0.951231 0.706297 0.324851
Si Si7 0.294476 0.377048 0.915178
Si Si8 0.086053 0.817284 0.696510
O O1 0.207914 0.880573 0.437089
O O2 0.175527 0.795024 0.262861
O O3 0.216050 0.891234 0.225680
O O4 0.967758 0.868138 0.090340
O O5 0.914834 0.121601 0.260340
O O6 0.000000 0.059590 0.500000
O O7 0.924762 0.000000 0.264797
O O8 0.722010 0.062188 0.136388
O O9 0.463410 0.097128 0.802393
O O10 0.707826 0.083015 0.915874
O O11 0.564704 0.000000 0.860786
O O12 0.189359 0.312007 0.318624
O O13 0.055558 0.336357 0.368944
O O14 0.263082 0.710624 0.197221
O O15 0.000000 0.729971 0.000000
O O16 0.792260 0.680447 0.154018
O O17 0.977029 0.766285 0.296119
O O18 0.000000 0.710071 0.500000
O O19 0.000000 0.822258 0.500000
#
# Coordination Sequence:
#
# PCOD9170856 Si02
#       8
#     8   8   8   8   8   8   8   8
#     4  11  20  38  57  90 128 162 200 251 316 386
#     4   9  19  37  60  84 116 158 204 259 309 355
#     4  10  23  43  63  90 122 160 219 267 304 372
#     4  11  24  37  63  90 125 171 210 254 322 369
#     4  12  22  38  57  91 132 164 198 260 312 377
#     4  10  17  35  58  88 121 162 207 252 303 376
#     4  10  20  36  62  85 123 165 197 258 318 364
#     4  10  19  33  56  86 120 155 203 250 300 370
#
# _framework density 23.541332000000001
#
# number of rings (size 3 to 8) (size 9 to 14) (size 15 to 20)
#    0.000    1.625    3.750    1.875    0.000    3.000 
#    0.000    6.875    0.000    2.250    0.000    0.000 
#    0.000    0.000    0.000    0.000    0.000    0.000 
#
# Total GULP energy -178337.996797 kJ/mol
# GULP energy per Si atom -5573.062400 kJ/mol
# Density = 2.348775 g / cm^3
# Si number density = 23.541332 Si / 1000 Ang^3
#
#
#
# Elastic Constant Matrix: (Units=GPa)
#
#
# Indices 1 2 3 4 5 6 
#
# 1 61.3072 -10.6306 0.7540 0.0000 10.5099 0.0000
# 2 -10.6306 78.5092 -6.9553 0.0000 13.7619 0.0000
# 3 0.7540 -6.9553 111.9796 0.0000 16.1248 0.0000
# 4 0.0000 0.0000 0.0000 29.9271 0.0000 -2.2693
# 5 10.5099 13.7619 16.1248 0.0000 34.7912 0.0000
# 6 0.0000 0.0000 0.0000 -2.2693 0.0000 16.2727
#
#
#
# Elastic Compliance Matrix: (Units=1/GPa)
#
#
# Indices 1 2 3 4 5 6 
#
# 1 0.018287 0.003924 0.001221 0.000000 -0.007642 0.000000
# 2 0.003924 0.014855 0.002050 0.000000 -0.008011 0.000000
# 3 0.001221 0.002050 0.009878 0.000000 -0.005758 0.000000
# 4 0.000000 0.000000 0.000000 0.033772 0.000000 0.004710
# 5 -0.007642 -0.008011 -0.005758 0.000000 0.036889 0.000000
# 6 0.000000 0.000000 0.000000 0.004710 0.000000 0.062109
#
#
# Mechanical properties :
#
#
# Convention : Reuss Voigt Hill
#
# Bulk Modulus (GPa) = 17.41876 24.23693 20.82784
# Shear Modulus (GPa) = 27.69518 34.10672 30.90095
#
# Velocity S-wave (km/s) = 3.43366 3.81044 3.62695
# Velocity P-wave (km/s) = 4.80992 5.44767 5.13870
#
# Compressibility (1/GPa) = 0.05740936
#
# Stress axis : x y z
#
# Youngs Moduli (GPa) = 54.68432 67.31941 101.23045
#
# Poissons Ratio (x) = -0.26416 -0.12361
# Poissons Ratio (y) = -0.21458 -0.20750
# Poissons Ratio (z) = -0.06677 -0.13799
#
# Static dielectric constant tensor:
#      x y z
#    x 2.287210 0.000000 0.030990 
#    y 0.000000 1.901120 0.000000 
#    z 0.030990 0.000000 2.012670 
# 
# From -- ./inp_files/228201.got.cif
#   From: 2010.05.17/outbox.cif.g08.bks.cpg/sg12_115_cif.got.tgz:228201.got - 2010.06.03 13:09:07.
