data_PCOD9170543
_publ_section_title
;
Structure prediction by ZEFSAII (Michael W. Deem and Ramdas Pophale) SiO2 
 PCOD9170543
Probable space group: C 2/M
;
_chemical_formula_sum "Si O2"
_cell_formula_units_Z 52
_cell_length_a 12.713023
_cell_length_b 20.714155
_cell_length_c 12.817723
_cell_angle_alpha 90.000000
_cell_angle_beta 68.315221
_cell_angle_gamma 90.000000
_cell_volume 3136.537729
_symmetry_space_group_name_H-M "C 2/M"
_symmetry_group_IT_number 12
_symmetry_cell_setting 'monoclinic'
loop_
_space_group_symop_operation_xyz
x,y,z
-x,y,-z
-x,-y,-z
x,-y,z
1/2+x,1/2+y,z
1/2-x,1/2+y,-z
1/2-x,1/2-y,-z
1/2+x,1/2-y,z
loop_
_atom_site_type_symbol
_atom_site_label
_atom_site_fract_x
_atom_site_fract_y
_atom_site_fract_z
Si Si1 0.246168 0.833226 0.386130
Si Si2 0.500000 0.879751 0.000000
Si Si3 0.451133 0.925193 0.248928
Si Si4 0.326990 0.685011 0.354062
Si Si5 0.091327 0.808818 0.252182
Si Si6 0.338644 0.157023 0.769565
Si Si7 0.734578 0.825136 0.983078
O O1 0.337821 0.885722 0.317278
O O2 0.303177 0.762138 0.358912
O O3 0.206080 0.840372 0.519530
O O4 0.141476 0.831592 0.344407
O O5 0.478695 0.918196 0.114924
O O6 0.387580 0.837553 0.023366
O O7 0.554702 0.890491 0.270971
O O8 0.441149 0.000000 0.279389
O O9 0.459946 0.676463 0.286517
O O10 0.245269 0.654675 0.297056
O O11 0.112963 0.730843 0.240608
O O12 0.167052 0.841474 0.134069
O O13 0.270341 0.142695 0.901533
O O14 0.750000 0.750000 0.000000
#
# Coordination Sequence:
#
# PCOD9170543 Si02
#       7
#     8   4   8   8   8   8   8
#     4  10  20  34  52  81 105 145 187 226 271 322
#     4  10  19  36  52  84 114 140 187 222 276 330
#     4  11  21  37  58  80 111 146 189 231 267 326
#     4  10  20  33  53  75 116 143 175 227 280 333
#     4  10  17  32  54  80 108 142 175 227 276 330
#     4   9  20  32  48  83 110 140 177 221 280 327
#     4   9  18  27  51  79 113 139 166 227 277 326
#
# _framework density 16.578790000000001
#
# number of rings (size 3 to 8) (size 9 to 14) (size 15 to 20)
#    0.000    2.154    3.077    0.692    0.000    1.231 
#    0.000    1.538    0.000    2.769    0.000    2.154 
#    0.000    0.000    0.000    0.000    0.000    0.000 
#
# Total GULP energy -144922.294995 kJ/mol
# GULP energy per Si atom -5573.934423 kJ/mol
# Density = 1.654106 g / cm^3
# Si number density = 16.578790 Si / 1000 Ang^3
#
#
#
# Elastic Constant Matrix: (Units=GPa)
#
#
# Indices 1 2 3 4 5 6 
#
# 1 128.5514 34.2760 57.7671 0.0000 4.7398 0.0000
# 2 34.2760 61.9698 19.9583 0.0000 1.3094 0.0000
# 3 57.7671 19.9583 84.2230 0.0000 7.4582 0.0000
# 4 0.0000 0.0000 0.0000 11.1420 0.0000 -1.4877
# 5 4.7398 1.3094 7.4582 0.0000 28.1812 0.0000
# 6 0.0000 0.0000 0.0000 -1.4877 0.0000 10.0307
#
#
#
# Elastic Compliance Matrix: (Units=1/GPa)
#
#
# Indices 1 2 3 4 5 6 
#
# 1 0.012266 -0.004411 -0.007376 0.000000 0.000094 0.000000
# 2 -0.004411 0.019059 -0.001514 0.000000 0.000257 0.000000
# 3 -0.007376 -0.001514 0.017587 0.000000 -0.003344 0.000000
# 4 0.000000 0.000000 0.000000 0.091564 0.000000 0.013581
# 5 0.000094 0.000257 -0.003344 0.000000 0.036342 0.000000
# 6 0.000000 0.000000 0.000000 0.013581 0.000000 0.101709
#
#
# Mechanical properties :
#
#
# Convention : Reuss Voigt Hill
#
# Bulk Modulus (GPa) = 44.82214 55.41634 50.11924
# Shear Modulus (GPa) = 15.99664 20.72028 18.35846
#
# Velocity S-wave (km/s) = 3.10963 3.53910 3.33129
# Velocity P-wave (km/s) = 6.32358 7.08512 6.71515
#
# Compressibility (1/GPa) = 0.02231040
#
# Stress axis : x y z
#
# Youngs Moduli (GPa) = 81.52412 52.46952 56.85915
#
# Poissons Ratio (x) = 0.23144 0.41941
# Poissons Ratio (y) = 0.35960 0.08607
# Poissons Ratio (z) = 0.60135 0.07942
#
# Static dielectric constant tensor:
#      x y z
#    x 1.537880 0.000000 0.005410 
#    y 0.000000 1.529410 0.000000 
#    z 0.005410 0.000000 1.594360 
# 
# From -- ./inp_files/133077.got.cif
#   From: 2010.05.17/outbox.cif.g08.bks.cpg/sg12_67_cif.got.tgz:133077.got - 2010.06.03 13:09:07.
