data_PCOD9170807
_publ_section_title
;
Structure prediction by ZEFSAII (Michael W. Deem and Ramdas Pophale) SiO2 
 PCOD9170807
Probable space group: C 2/M
;
_chemical_formula_sum "Si O2"
_cell_formula_units_Z 52
_cell_length_a 33.083542
_cell_length_b 14.426016
_cell_length_c 9.352134
_cell_angle_alpha 90.000000
_cell_angle_beta 39.148566
_cell_angle_gamma 90.000000
_cell_volume 2817.914986
_symmetry_space_group_name_H-M "C 2/M"
_symmetry_group_IT_number 12
_symmetry_cell_setting 'monoclinic'
loop_
_space_group_symop_operation_xyz
x,y,z
-x,y,-z
-x,-y,-z
x,-y,z
1/2+x,1/2+y,z
1/2-x,1/2+y,-z
1/2-x,1/2-y,-z
1/2+x,1/2-y,z
loop_
_atom_site_type_symbol
_atom_site_label
_atom_site_fract_x
_atom_site_fract_y
_atom_site_fract_z
Si Si1 0.353651 0.108601 0.521145
Si Si2 0.500000 0.653044 0.500000
Si Si3 0.560577 0.212368 0.937188
Si Si4 0.200933 0.894630 0.946077
Si Si5 0.098244 0.898377 0.988893
Si Si6 0.439130 0.105548 0.774136
Si Si7 0.117762 0.266139 0.284623
O O1 0.386108 0.154671 0.294678
O O2 0.276798 0.113200 0.723806
O O3 0.375364 0.169534 0.597168
O O4 0.372229 0.000000 0.485322
O O5 0.550308 0.712537 0.454921
O O6 0.455516 0.602903 0.737630
O O7 0.584824 0.312824 0.922239
O O8 0.500000 0.222190 0.000000
O O9 0.543511 0.154007 0.125365
O O10 0.164308 0.885566 0.894962
O O11 0.186187 0.000000 0.038784
O O12 0.171580 0.813086 0.123741
O O13 0.097669 0.000000 0.921456
O O14 0.500000 0.104460 0.500000
O O15 0.384538 0.166449 0.847033
O O16 0.419069 0.000000 0.851905
#
# Coordination Sequence:
#
# PCOD9170807 Si02
#       7
#     8   4   8   8   8   8   8
#     4  11  24  39  58  86 120 157 194 237 292 347
#     4  10  17  34  59  88 114 146 191 234 293 342
#     4  12  24  39  57  86 120 153 191 240 297 351
#     4   9  20  39  63  86 113 153 199 241 289 346
#     4  10  20  37  60  85 115 151 193 239 290 345
#     4  11  21  36  57  83 117 155 194 237 284 340
#     4  11  19  38  60  89 115 152 194 243 286 339
#
# _framework density 18.453361000000001
#
# number of rings (size 3 to 8) (size 9 to 14) (size 15 to 20)
#    0.000    1.385    3.846    3.462    0.000    4.000 
#    0.000    0.769    0.000    0.923    0.000    0.000 
#    0.000    0.000    0.000    0.000    0.000    0.000 
#
# Total GULP energy -145102.836412 kJ/mol
# GULP energy per Si atom -5580.878324 kJ/mol
# Density = 1.841136 g / cm^3
# Si number density = 18.453361 Si / 1000 Ang^3
#
#
#
# Elastic Constant Matrix: (Units=GPa)
#
#
# Indices 1 2 3 4 5 6 
#
# 1 96.3703 61.5253 48.6707 0.0000 9.2822 0.0000
# 2 61.5253 174.5650 59.5121 0.0000 9.0150 0.0000
# 3 48.6707 59.5121 72.9965 0.0000 3.0066 0.0000
# 4 0.0000 0.0000 0.0000 1.3683 0.0000 4.7537
# 5 9.2822 9.0150 3.0066 0.0000 29.4526 0.0000
# 6 0.0000 0.0000 0.0000 4.7537 0.0000 13.7328
#
#
#
# Elastic Compliance Matrix: (Units=1/GPa)
#
#
# Indices 1 2 3 4 5 6 
#
# 1 0.016997 -0.002758 -0.008936 0.000000 -0.003600 0.000000
# 2 -0.002758 0.008475 -0.005020 0.000000 -0.001212 0.000000
# 3 -0.008936 -0.005020 0.023670 0.000000 0.001936 0.000000
# 4 0.000000 0.000000 0.000000 -3.607053 0.000000 1.248611
# 5 -0.003600 -0.001212 0.001936 0.000000 0.035261 0.000000
# 6 0.000000 0.000000 0.000000 1.248611 0.000000 -0.359398
#
#
# Mechanical properties :
#
#
# Convention : Reuss Voigt Hill
#
# Bulk Modulus (GPa) = 63.63919 75.92757 69.78338
# Shear Modulus (GPa) = -1.30094 20.52566 9.61236
#
# Velocity S-wave (km/s) = -0.84055 3.33873 2.28480
# Velocity P-wave (km/s) = 5.79822 7.48985 6.69766
#
# Compressibility (1/GPa) = 0.01571359
#
# Stress axis : x y z
#
# Youngs Moduli (GPa) = 58.83229 117.99723 42.24679
#
# Poissons Ratio (x) = 0.32548 0.37752
# Poissons Ratio (y) = 0.16228 0.21209
# Poissons Ratio (z) = 0.52573 0.59237
#
# Static dielectric constant tensor:
#      x y z
#    x 1.625770 0.000000 -0.005610 
#    y 0.000000 1.671000 0.000000 
#    z -0.005610 0.000000 1.634950 
# 
# From -- ./inp_files/111907.got.cif
#   From: 2010.05.17/outbox.cif.g08.bks.cpg/sg12_56_cif.got.tgz:111907.got - 2010.06.03 13:09:07.
