data_PCOD9170155
_publ_section_title
;
Structure prediction by ZEFSAII (Michael W. Deem and Ramdas Pophale) SiO2 
 PCOD9170155
Probable space group: C 2/M
;
_chemical_formula_sum "Si O2"
_cell_formula_units_Z 48
_cell_length_a 12.284685
_cell_length_b 20.296298
_cell_length_c 12.829597
_cell_angle_alpha 90.000000
_cell_angle_beta 134.898983
_cell_angle_gamma 90.000000
_cell_volume 2265.912941
_symmetry_space_group_name_H-M "C 2/M"
_symmetry_group_IT_number 12
_symmetry_cell_setting 'monoclinic'
loop_
_space_group_symop_operation_xyz
x,y,z
-x,y,-z
-x,-y,-z
x,-y,z
1/2+x,1/2+y,z
1/2-x,1/2+y,-z
1/2-x,1/2-y,-z
1/2+x,1/2-y,z
loop_
_atom_site_type_symbol
_atom_site_label
_atom_site_fract_x
_atom_site_fract_y
_atom_site_fract_z
Si Si1 0.549149 0.730790 0.759017
Si Si2 0.614487 0.141770 0.304396
Si Si3 0.778963 0.857015 0.640844
Si Si4 0.500000 0.228145 0.500000
Si Si5 0.202643 0.000000 0.807340
Si Si6 0.858260 0.000000 0.665202
Si Si7 0.681879 0.145880 0.124039
Si Si8 0.841839 0.500000 0.679214
O O1 0.519595 0.804845 0.777421
O O2 0.434456 0.684583 0.746032
O O3 0.486706 0.731617 0.597279
O O4 0.716325 0.698901 0.867738
O O5 0.710783 0.144194 0.476322
O O6 0.718039 0.154617 0.272404
O O7 0.561194 0.066696 0.252400
O O8 0.647434 0.819390 0.615160
O O9 0.815313 0.932287 0.693879
O O10 0.279151 0.929005 0.884822
O O11 0.221896 0.000000 0.694166
O O12 0.033084 0.000000 0.741683
O O13 0.754005 0.000000 0.491147
O O14 0.500000 0.156084 0.000000
#
# Coordination Sequence:
#
# PCOD9170155 Si02
#       8
#     8   8   8   4   4   4   8   4
#     4  11  19  33  53  74 104 134 165 206 248 302
#     4   9  19  33  50  75 101 130 163 206 249 297
#     4  10  19  32  52  77 105 131 164 200 250 307
#     4  10  20  33  52  77 104 134 158 202 256 301
#     4  10  18  34  49  71 102 129 167 208 256 290
#     4  10  17  30  49  76 103 130 164 199 247 304
#     4  11  22  34  51  74 101 135 173 210 246 288
#     4   8  17  29  50  75 100 126 160 205 248 306
#
# _framework density 21.183515
#
# number of rings (size 3 to 8) (size 9 to 14) (size 15 to 20)
#    0.000    2.000    1.667    4.500    0.000    1.000 
#    0.000    0.833    0.000    0.000    0.000    0.583 
#    0.000    0.167    0.000    0.000    0.000    0.000 
#
# Total GULP energy -133883.870880 kJ/mol
# GULP energy per Si atom -5578.494620 kJ/mol
# Density = 2.113530 g / cm^3
# Si number density = 21.183515 Si / 1000 Ang^3
#
#
#
# Elastic Constant Matrix: (Units=GPa)
#
#
# Indices 1 2 3 4 5 6 
#
# 1 55.4632 49.5406 7.2001 0.0000 28.7712 0.0000
# 2 49.5406 153.2692 27.3980 0.0000 47.8658 0.0000
# 3 7.2001 27.3980 35.9903 0.0000 20.0895 0.0000
# 4 0.0000 0.0000 0.0000 7.4281 0.0000 15.3920
# 5 28.7712 47.8658 20.0895 0.0000 37.7900 0.0000
# 6 0.0000 0.0000 0.0000 15.3920 0.0000 34.2442
#
#
#
# Elastic Compliance Matrix: (Units=1/GPa)
#
#
# Indices 1 2 3 4 5 6 
#
# 1 0.034562 -0.005128 0.011449 0.000000 -0.025905 0.000000
# 2 -0.005128 0.011573 -0.002533 0.000000 -0.009408 0.000000
# 3 0.011449 -0.002533 0.043366 0.000000 -0.028563 0.000000
# 4 0.000000 0.000000 0.000000 1.962062 0.000000 -0.881906
# 5 -0.025905 -0.009408 -0.028563 0.000000 0.073285 0.000000
# 6 0.000000 0.000000 0.000000 -0.881906 0.000000 0.425600
#
#
# Mechanical properties :
#
#
# Convention : Reuss Voigt Hill
#
# Bulk Modulus (GPa) = 10.30095 45.88888 28.09492
# Shear Modulus (GPa) = 1.94157 26.59804 14.26981
#
# Velocity S-wave (km/s) = 0.95840 3.54729 2.59825
# Velocity P-wave (km/s) = 2.46941 6.20381 4.72151
#
# Compressibility (1/GPa) = 0.09707842
#
# Stress axis : x y z
#
# Youngs Moduli (GPa) = 28.93353 86.41004 23.05943
#
# Poissons Ratio (x) = 0.44310 -0.26401
# Poissons Ratio (y) = 0.14837 0.05840
# Poissons Ratio (z) = -0.33126 0.21884
#
# Static dielectric constant tensor:
#      x y z
#    x 1.741240 0.000000 -0.025730 
#    y 0.000000 1.807510 0.000000 
#    z -0.025730 0.000000 1.787780 
# 
# From -- ./inp_files/132542.got.cif
#   From: 2010.05.17/outbox.cif.g08.bks.cpg/sg12_67_cif.got.tgz:132542.got - 2010.06.03 13:09:07.
