data_PCOD9170943
_publ_section_title
;
Structure prediction by ZEFSAII (Michael W. Deem and Ramdas Pophale) SiO2 
 PCOD9170943
Probable space group: C 2/M
;
_chemical_formula_sum "Si O2"
_cell_formula_units_Z 44
_cell_length_a 15.534167
_cell_length_b 17.007985
_cell_length_c 28.665976
_cell_angle_alpha 90.000000
_cell_angle_beta 163.386405
_cell_angle_gamma 90.000000
_cell_volume 2165.437448
_symmetry_space_group_name_H-M "C 2/M"
_symmetry_group_IT_number 12
_symmetry_cell_setting 'monoclinic'
loop_
_space_group_symop_operation_xyz
x,y,z
-x,y,-z
-x,-y,-z
x,-y,z
1/2+x,1/2+y,z
1/2-x,1/2+y,-z
1/2-x,1/2-y,-z
1/2+x,1/2-y,z
loop_
_atom_site_type_symbol
_atom_site_label
_atom_site_fract_x
_atom_site_fract_y
_atom_site_fract_z
Si Si1 0.155205 0.823187 0.916575
Si Si2 0.439533 0.709987 0.703389
Si Si3 0.500000 0.680805 0.000000
Si Si4 0.708876 0.405166 0.769522
Si Si5 0.173442 0.907792 0.173584
Si Si6 0.801057 0.180581 0.489205
O O1 0.963000 0.803240 0.770635
O O2 0.949494 0.878395 0.841297
O O3 0.250000 0.750000 0.000000
O O4 0.455841 0.868231 0.055133
O O5 0.734780 0.762437 0.847764
O O6 0.502320 0.632684 0.703947
O O7 0.183942 0.767932 0.550142
O O8 0.447143 0.626611 0.017023
O O9 0.711858 0.500000 0.773140
O O10 0.571036 0.371915 0.649286
O O11 0.506695 0.874496 0.337191
O O12 0.179882 0.000000 0.174209
O O13 0.750000 0.250000 0.500000
#
# Coordination Sequence:
#
# PCOD9170943 Si02
#       6
#     8   8   4   8   8   8
#     4  12  21  37  61  88 122 158 205 248 293 360
#     4  10  19  37  62  85 116 163 208 237 290 371
#     4  10  17  38  57  80 110 158 208 230 285 356
#     4  11  22  38  62  92 124 155 197 258 310 349
#     4  11  22  35  59  88 118 151 198 256 297 341
#     4   9  20  40  61  81 114 164 204 233 298 370
#
# _framework density 20.319219
#
# number of rings (size 3 to 8) (size 9 to 14) (size 15 to 20)
#    0.000    1.455    3.636    3.545    0.000    2.182 
#    0.000    8.182    0.000    6.545    0.000    0.000 
#    0.000    0.000    0.000    0.000    0.000    0.000 
#
# Total GULP energy -122639.023365 kJ/mol
# GULP energy per Si atom -5574.501062 kJ/mol
# Density = 2.027297 g / cm^3
# Si number density = 20.319219 Si / 1000 Ang^3
#
#
#
# Elastic Constant Matrix: (Units=GPa)
#
#
# Indices 1 2 3 4 5 6 
#
# 1 100.8428 45.4185 16.4966 0.0145 -26.8058 0.0056
# 2 45.4185 163.3335 27.9366 -0.0034 -13.9350 -0.0089
# 3 16.4966 27.9366 63.5760 -0.1018 -13.7381 0.0180
# 4 0.0145 -0.0034 -0.1018 12.3852 0.0598 5.9881
# 5 -26.8058 -13.9350 -13.7381 0.0598 37.1972 0.0053
# 6 0.0056 -0.0089 0.0180 5.9881 0.0053 23.1093
#
#
#
# Elastic Compliance Matrix: (Units=1/GPa)
#
#
# Indices 1 2 3 4 5 6 
#
# 1 0.013593 -0.002988 -0.000369 -0.000066 0.008540 0.000011
# 2 -0.002988 0.007358 -0.002529 -0.000019 -0.000331 0.000010
# 3 -0.000369 -0.002529 0.018121 0.000149 0.005479 -0.000055
# 4 -0.000066 -0.000019 0.000149 0.092308 -0.000145 -0.023919
# 5 0.008540 -0.000331 0.005479 -0.000145 0.034938 0.000023
# 6 0.000011 0.000010 -0.000055 -0.023919 0.000023 0.049470
#
#
# Mechanical properties :
#
#
# Convention : Reuss Voigt Hill
#
# Bulk Modulus (GPa) = 36.63199 56.38399 46.50799
# Shear Modulus (GPa) = 21.12749 30.39840 25.76295
#
# Velocity S-wave (km/s) = 3.22806 3.87207 3.56464
# Velocity P-wave (km/s) = 5.65342 6.91374 6.31510
#
# Compressibility (1/GPa) = 0.02729855
#
# Stress axis : x y z
#
# Youngs Moduli (GPa) = 73.56953 135.91169 55.18604
#
# Poissons Ratio (x) = 0.40611 0.02035
# Poissons Ratio (y) = 0.21983 0.13959
# Poissons Ratio (z) = 0.02713 0.34377
#
# Static dielectric constant tensor:
#      x y z
#    x 1.489730 0.000200 0.503570 
#    y 0.000200 1.732340 -0.000580 
#    z 0.503570 -0.000580 0.620000 
# 
# From -- ./inp_files/361827.got.cif
#   From: 2010.05.17/outbox.cif.g08.bks.cpg/sg12_181_cif.got.tgz:361827.got - 2010.06.03 13:09:07.
