data_PCOD9170641
_publ_section_title
;
Structure prediction by ZEFSAII (Michael W. Deem and Ramdas Pophale) SiO2 
 PCOD9170641
Probable space group: C 2/M
;
_chemical_formula_sum "Si O2"
_cell_formula_units_Z 40
_cell_length_a 22.006832
_cell_length_b 16.972526
_cell_length_c 16.899544
_cell_angle_alpha 90.000000
_cell_angle_beta 157.772628
_cell_angle_gamma 90.000000
_cell_volume 2387.788696
_symmetry_space_group_name_H-M "C 2/M"
_symmetry_group_IT_number 12
_symmetry_cell_setting 'monoclinic'
loop_
_space_group_symop_operation_xyz
x,y,z
-x,y,-z
-x,-y,-z
x,-y,z
1/2+x,1/2+y,z
1/2-x,1/2+y,-z
1/2-x,1/2-y,-z
1/2+x,1/2-y,z
loop_
_atom_site_type_symbol
_atom_site_label
_atom_site_fract_x
_atom_site_fract_y
_atom_site_fract_z
Si Si1 0.500000 0.810905 0.000000
Si Si2 0.532223 0.906294 0.727689
Si Si3 0.000000 0.818802 0.500000
Si Si4 0.208095 0.703933 0.646961
Si Si5 0.325540 0.093797 0.928054
Si Si6 0.813400 0.588543 0.245617
O O1 0.355845 0.755457 0.795489
O O2 0.427456 0.863845 0.982456
O O3 0.378813 0.854047 0.519123
O O4 0.668036 0.890296 0.824119
O O5 0.495203 0.000000 0.675673
O O6 0.597062 0.890555 0.892960
O O7 0.925921 0.762678 0.478399
O O8 0.853547 0.871095 0.292019
O O9 0.265911 0.651492 0.792149
O O10 0.322400 0.000000 0.911968
O O11 0.748235 0.500000 0.175427
O O12 0.000000 0.586470 0.500000
#
# Coordination Sequence:
#
# PCOD9170641 Si02
#       6
#     4   8   4   8   8   8
#     4  10  23  34  49  72 104 142 166 204 255 292
#     4   9  17  31  56  79 100 131 169 205 246 298
#     4  10  19  32  53  78  98 128 164 216 257 286
#     4  10  17  33  50  80 107 131 163 200 254 304
#     4  10  21  37  54  72  96 135 176 210 249 298
#     4   8  13  26  50  76 101 128 155 197 246 298
#
# _framework density 16.751901
#
# number of rings (size 3 to 8) (size 9 to 14) (size 15 to 20)
#    0.000    2.600    3.000    2.400    0.000    1.600 
#    0.000    2.000    0.000    0.000    0.000    0.000 
#    0.000    0.000    0.000    0.000    0.000    0.000 
#
# Total GULP energy -111418.910027 kJ/mol
# GULP energy per Si atom -5570.945501 kJ/mol
# Density = 1.671377 g / cm^3
# Si number density = 16.751901 Si / 1000 Ang^3
#
#
#
# Elastic Constant Matrix: (Units=GPa)
#
#
# Indices 1 2 3 4 5 6 
#
# 1 81.6315 52.4836 56.6259 0.0000 -12.2469 0.0000
# 2 52.4836 103.8813 63.3113 0.0000 -7.1195 0.0000
# 3 56.6259 63.3113 93.8052 0.0000 -5.4628 -0.0001
# 4 0.0000 0.0000 0.0000 14.4893 0.0000 -11.4409
# 5 -12.2469 -7.1195 -5.4628 0.0000 26.3514 0.0000
# 6 0.0000 0.0000 -0.0001 -11.4409 0.0000 3.8532
#
#
#
# Elastic Compliance Matrix: (Units=1/GPa)
#
#
# Indices 1 2 3 4 5 6 
#
# 1 0.024066 -0.005188 -0.010584 0.000000 0.007589 0.000000
# 2 -0.005188 0.017593 -0.008711 0.000000 0.000536 0.000000
# 3 -0.010584 -0.008711 0.022780 0.000000 -0.002550 0.000000
# 4 0.000000 0.000000 0.000000 -0.051333 0.000000 -0.152417
# 5 0.007589 0.000536 -0.002550 0.000000 0.041092 0.000000
# 6 0.000000 0.000000 0.000000 -0.152417 0.000000 -0.193029
#
#
# Mechanical properties :
#
#
# Convention : Reuss Voigt Hill
#
# Bulk Modulus (GPa) = 64.62783 69.35107 66.98945
# Shear Modulus (GPa) = -59.02808 16.06525 -21.48141
#
# Velocity S-wave (km/s) = -5.94249 3.10015 -3.58484
# Velocity P-wave (km/s) = 2.90190 7.36908 4.78969
#
# Compressibility (1/GPa) = 0.01547321
#
# Stress axis : x y z
#
# Youngs Moduli (GPa) = 41.55158 56.83952 43.89751
#
# Poissons Ratio (x) = 0.29490 0.46462
# Poissons Ratio (y) = 0.21558 0.38239
# Poissons Ratio (z) = 0.43979 0.49513
#
# Static dielectric constant tensor:
#      x y z
#    x 1.571660 0.000000 -0.005580 
#    y 0.000000 1.590940 0.000000 
#    z -0.005580 0.000000 1.541220 
# 
# From -- ./inp_files/226411.got.cif
#   From: 2010.05.17/outbox.cif.g08.bks.cpg/sg12_114_cif.got.tgz:226411.got - 2010.06.03 13:09:07.
