data_PCOD9170518
_publ_section_title
;
Structure prediction by ZEFSAII (Michael W. Deem and Ramdas Pophale) SiO2 
 PCOD9170518
Probable space group: C 2/M
;
_chemical_formula_sum "Si O2"
_cell_formula_units_Z 64
_cell_length_a 18.867670
_cell_length_b 16.491323
_cell_length_c 16.778989
_cell_angle_alpha 90.000000
_cell_angle_beta 37.530964
_cell_angle_gamma 90.000000
_cell_volume 3180.477933
_symmetry_space_group_name_H-M "C 2/M"
_symmetry_group_IT_number 12
_symmetry_cell_setting 'monoclinic'
loop_
_space_group_symop_operation_xyz
x,y,z
-x,y,-z
-x,-y,-z
x,-y,z
1/2+x,1/2+y,z
1/2-x,1/2+y,-z
1/2-x,1/2-y,-z
1/2+x,1/2-y,z
loop_
_atom_site_type_symbol
_atom_site_label
_atom_site_fract_x
_atom_site_fract_y
_atom_site_fract_z
Si Si1 0.337287 0.651851 0.191501
Si Si2 0.354596 0.199967 0.944616
Si Si3 0.384381 0.155898 0.155968
Si Si4 0.050697 0.403482 0.725157
Si Si5 0.502738 0.592579 0.279055
Si Si6 0.208430 0.904111 0.194827
Si Si7 0.737706 0.597420 0.581195
Si Si8 0.581135 0.634650 0.044105
O O1 0.359005 0.748168 0.171194
O O2 0.249614 0.631243 0.340566
O O3 0.456837 0.611929 0.117805
O O4 0.325684 0.623574 0.109906
O O5 0.437566 0.151901 0.811085
O O6 0.422484 0.269586 0.932245
O O7 0.250000 0.250000 0.000000
O O8 0.299979 0.135759 0.053037
O O9 0.408572 0.124000 0.223007
O O10 0.266373 0.115110 0.227564
O O11 0.500000 0.136476 0.000000
O O12 0.026452 0.500000 0.746350
O O13 0.152347 0.385805 0.572024
O O14 0.474889 0.500000 0.325652
O O15 0.580979 0.628054 0.280851
O O16 0.380840 0.629683 0.356826
O O17 0.586141 0.593731 0.125987
O O18 0.204364 0.000000 0.187672
O O19 0.725117 0.500000 0.599286
#
# Coordination Sequence:
#
# PCOD9170518 Si02
#       8
#     8   8   8   8   8   8   8   8
#     4  10  17  32  56  81 116 148 193 251 295 332
#     4  12  21  34  56  85 116 145 188 240 294 351
#     4  12  20  34  55  88 119 148 196 251 292 347
#     4  11  23  40  60  85 117 157 197 238 292 352
#     4   9  19  35  54  81 116 153 194 240 294 350
#     4  11  21  33  54  84 117 152 188 241 301 352
#     4   9  21  39  59  82 115 157 202 243 284 351
#     4  10  17  32  52  82 114 146 186 248 295 333
#
# _framework density 20.122761000000001
#
# number of rings (size 3 to 8) (size 9 to 14) (size 15 to 20)
#    0.000    1.500    6.250    0.750    0.000    1.500 
#    0.000    3.125    0.000    3.750    0.000    1.750 
#    0.000    0.000    0.000    0.000    0.000    0.000 
#
# Total GULP energy -178280.466543 kJ/mol
# GULP energy per Si atom -5571.264579 kJ/mol
# Density = 2.007696 g / cm^3
# Si number density = 20.122761 Si / 1000 Ang^3
#
#
#
# Elastic Constant Matrix: (Units=GPa)
#
#
# Indices 1 2 3 4 5 6 
#
# 1 63.2340 15.8522 23.5635 0.0000 -5.4251 0.0000
# 2 15.8522 39.8765 30.4576 0.0000 -2.1764 0.0000
# 3 23.5635 30.4576 106.2203 0.0000 11.7266 0.0000
# 4 0.0000 0.0000 0.0000 21.8863 0.0000 -2.6468
# 5 -5.4251 -2.1764 11.7266 0.0000 24.5240 0.0000
# 6 0.0000 0.0000 0.0000 -2.6468 0.0000 25.2762
#
#
#
# Elastic Compliance Matrix: (Units=1/GPa)
#
#
# Indices 1 2 3 4 5 6 
#
# 1 0.018690 -0.004501 -0.003450 0.000000 0.005385 0.000000
# 2 -0.004501 0.034616 -0.009667 0.000000 0.006699 0.000000
# 3 -0.003450 -0.009667 0.013862 0.000000 -0.008250 0.000000
# 4 0.000000 0.000000 0.000000 0.046277 0.000000 0.004846
# 5 0.005385 0.006699 -0.008250 0.000000 0.046507 0.000000
# 6 0.000000 0.000000 0.000000 0.004846 0.000000 0.040070
#
#
# Mechanical properties :
#
#
# Convention : Reuss Voigt Hill
#
# Bulk Modulus (GPa) = 31.31576 38.78639 35.05108
# Shear Modulus (GPa) = 20.33330 23.63446 21.98388
#
# Velocity S-wave (km/s) = 3.18223 3.43084 3.30887
# Velocity P-wave (km/s) = 5.39428 5.91700 5.66168
#
# Compressibility (1/GPa) = 0.03193280
#
# Stress axis : x y z
#
# Youngs Moduli (GPa) = 53.50382 28.88853 72.13791
#
# Poissons Ratio (x) = 0.13003 0.24888
# Poissons Ratio (y) = 0.24082 0.69734
# Poissons Ratio (z) = 0.18459 0.27926
#
# Static dielectric constant tensor:
#      x y z
#    x 1.818720 0.000000 -0.013950 
#    y 0.000000 1.728210 0.000000 
#    z -0.013950 0.000000 1.732920 
# 
# From -- ./inp_files/285197.got.cif
#   From: 2010.05.17/outbox.cif.g08.bks.cpg/sg12_143_cif.got.tgz:285197.got - 2010.06.03 13:09:07.
