data_PCOD9170852
_publ_section_title
;
Structure prediction by ZEFSAII (Michael W. Deem and Ramdas Pophale) SiO2 
 PCOD9170852
Probable space group: C 2/M
;
_chemical_formula_sum "Si O2"
_cell_formula_units_Z 64
_cell_length_a 15.978084
_cell_length_b 17.780379
_cell_length_c 25.539409
_cell_angle_alpha 90.000000
_cell_angle_beta 151.009931
_cell_angle_gamma 90.000000
_cell_volume 3516.510816
_symmetry_space_group_name_H-M "C 2/M"
_symmetry_group_IT_number 12
_symmetry_cell_setting 'monoclinic'
loop_
_space_group_symop_operation_xyz
x,y,z
-x,y,-z
-x,-y,-z
x,-y,z
1/2+x,1/2+y,z
1/2-x,1/2+y,-z
1/2-x,1/2-y,-z
1/2+x,1/2-y,z
loop_
_atom_site_type_symbol
_atom_site_label
_atom_site_fract_x
_atom_site_fract_y
_atom_site_fract_z
Si Si1 0.764107 0.683830 0.580510
Si Si2 0.350911 0.589457 0.578668
Si Si3 0.956832 0.412721 0.215283
Si Si4 0.917197 0.210654 0.251737
Si Si5 0.111052 0.726532 0.880963
Si Si6 0.046157 0.330108 0.470277
Si Si7 0.144801 0.916152 0.123995
Si Si8 0.703301 0.721147 0.223646
O O1 0.658710 0.633951 0.481700
O O2 0.860200 0.626218 0.671671
O O3 0.646418 0.751454 0.536892
O O4 0.926596 0.731835 0.646349
O O5 0.364851 0.500000 0.581022
O O6 0.503011 0.628345 0.695582
O O7 0.171566 0.614986 0.507236
O O8 0.972016 0.500000 0.210865
O O9 0.873159 0.361154 0.125052
O O10 0.830051 0.406310 0.196438
O O11 0.876933 0.230922 0.169071
O O12 0.762567 0.226669 0.207365
O O13 0.925221 0.741891 0.805345
O O14 0.250000 0.750000 0.000000
O O15 0.000000 0.366490 0.500000
O O16 0.874447 0.308361 0.345702
O O17 0.115780 0.851469 0.149625
O O18 0.139860 0.000000 0.144070
O O19 0.000000 0.911694 0.000000
#
# Coordination Sequence:
#
# PCOD9170852 Si02
#       8
#     8   8   8   8   8   8   8   8
#     4  10  17  35  57  82 111 147 195 234 284 343
#     4  11  20  34  56  84 121 157 187 230 285 349
#     4  10  19  36  58  85 118 147 188 252 300 335
#     4  10  20  39  56  84 116 153 205 234 281 351
#     4  11  24  39  60  89 113 154 205 241 297 355
#     4  11  21  35  56  84 117 153 196 237 282 350
#     4  10  20  34  57  89 116 142 187 252 310 341
#     4  12  20  36  63  82 118 158 194 240 286 351
#
# _framework density 18.199857999999999
#
# number of rings (size 3 to 8) (size 9 to 14) (size 15 to 20)
#    0.000    1.375    5.000    4.125    0.000    1.750 
#    0.000    3.125    0.000    1.500    0.000    1.750 
#    0.000    0.000    0.000    0.000    0.000    0.000 
#
# Total GULP energy -178495.445939 kJ/mol
# GULP energy per Si atom -5577.982686 kJ/mol
# Density = 1.815843 g / cm^3
# Si number density = 18.199858 Si / 1000 Ang^3
#
#
#
# Elastic Constant Matrix: (Units=GPa)
#
#
# Indices 1 2 3 4 5 6 
#
# 1 63.1219 0.9385 0.1475 -0.0004 -7.2272 -0.0001
# 2 0.9385 113.4351 14.0553 0.0005 -12.0885 0.0000
# 3 0.1475 14.0553 59.8750 0.0018 -13.0020 0.0002
# 4 -0.0004 0.0005 0.0018 18.9534 0.0001 1.2930
# 5 -7.2272 -12.0885 -13.0020 0.0001 22.1670 -0.0001
# 6 -0.0001 0.0000 0.0002 1.2930 -0.0001 6.6846
#
#
#
# Elastic Compliance Matrix: (Units=1/GPa)
#
#
# Indices 1 2 3 4 5 6 
#
# 1 0.016560 0.000384 0.001246 0.000000 0.006339 0.000000
# 2 0.000384 0.009451 -0.001230 0.000000 0.004558 0.000000
# 3 0.001246 -0.001230 0.019401 -0.000002 0.011115 0.000000
# 4 0.000000 0.000000 -0.000002 0.053466 -0.000001 -0.010342
# 5 0.006339 0.004558 0.011115 -0.000001 0.056184 0.000001
# 6 0.000000 0.000000 0.000000 -0.010342 0.000001 0.151598
#
#
# Mechanical properties :
#
#
# Convention : Reuss Voigt Hill
#
# Bulk Modulus (GPa) = 21.63990 29.63495 25.63743
# Shear Modulus (GPa) = 15.56360 24.31373 19.93866
#
# Velocity S-wave (km/s) = 2.92747 3.65900 3.31348
# Velocity P-wave (km/s) = 4.83143 5.84547 5.36247
#
# Compressibility (1/GPa) = 0.04621093
#
# Stress axis : x y z
#
# Youngs Moduli (GPa) = 60.38817 105.81444 51.54460
#
# Poissons Ratio (x) = -0.04066 -0.06420
# Poissons Ratio (y) = -0.02320 0.06338
# Poissons Ratio (z) = -0.07522 0.13012
#
# Static dielectric constant tensor:
#      x y z
#    x 1.656530 0.000000 0.006400 
#    y 0.000000 1.616440 0.000000 
#    z 0.006400 0.000000 1.655900 
# 
# From -- ./inp_files/340887.got.cif
#   From: 2010.05.17/outbox.cif.g08.bks.cpg/sg12_171_cif.got.tgz:340887.got - 2010.06.03 13:09:07.
