data_PCOD9170910
_publ_section_title
;
Structure prediction by ZEFSAII (Michael W. Deem and Ramdas Pophale) SiO2 
 PCOD9170910
Probable space group: C 2/M
;
_chemical_formula_sum "Si O2"
_cell_formula_units_Z 48
_cell_length_a 28.129264
_cell_length_b 15.156330
_cell_length_c 9.367724
_cell_angle_alpha 90.000000
_cell_angle_beta 36.826710
_cell_angle_gamma 90.000000
_cell_volume 2393.872084
_symmetry_space_group_name_H-M "C 2/M"
_symmetry_group_IT_number 12
_symmetry_cell_setting 'monoclinic'
loop_
_space_group_symop_operation_xyz
x,y,z
-x,y,-z
-x,-y,-z
x,-y,z
1/2+x,1/2+y,z
1/2-x,1/2+y,-z
1/2-x,1/2-y,-z
1/2+x,1/2-y,z
loop_
_atom_site_type_symbol
_atom_site_label
_atom_site_fract_x
_atom_site_fract_y
_atom_site_fract_z
Si Si1 0.288643 0.153175 0.382240
Si Si2 0.423492 0.670941 0.757189
Si Si3 0.930177 0.229447 0.060437
Si Si4 0.841910 0.897741 0.490423
Si Si5 0.338825 0.245920 0.724877
Si Si6 0.244658 0.596625 0.229692
O O1 0.250000 0.250000 0.500000
O O2 0.379010 0.182036 0.161522
O O3 0.250339 0.112250 0.333627
O O4 0.264851 0.097897 0.576989
O O5 0.500000 0.625429 0.500000
O O6 0.400872 0.752290 0.705197
O O7 0.447668 0.696163 0.859346
O O8 0.336553 0.624194 0.977002
O O9 0.886688 0.148499 0.249350
O O10 0.000000 0.251127 0.000000
O O11 0.855391 0.833418 0.591574
O O12 0.862931 0.000000 0.460639
O O13 0.324883 0.162333 0.656567
O O14 0.250000 0.250000 0.000000
O O15 0.232714 0.500000 0.196762
#
# Coordination Sequence:
#
# PCOD9170910 Si02
#       6
#     8   8   8   8   8   8
#     4  10  17  36  63  88 114 158 211 256 293 349
#     4  11  23  38  60  92 128 165 197 249 316 374
#     4  11  22  39  63  91 122 166 205 255 306 363
#     4  11  21  38  65  92 120 159 208 252 300 366
#     4  10  21  39  59  89 124 161 202 245 305 368
#     4  11  21  38  64  92 122 161 206 253 304 363
#
# _framework density 20.051196000000001
#
# number of rings (size 3 to 8) (size 9 to 14) (size 15 to 20)
#    0.000    1.333    6.667    2.500    0.000    3.333 
#    0.000    1.667    0.000    2.500    0.000    0.000 
#    0.000    0.000    0.000    0.000    0.000    0.000 
#
# Total GULP energy -133634.884623 kJ/mol
# GULP energy per Si atom -5568.120193 kJ/mol
# Density = 2.000556 g / cm^3
# Si number density = 20.051196 Si / 1000 Ang^3
#
#
#
# Elastic Constant Matrix: (Units=GPa)
#
#
# Indices 1 2 3 4 5 6 
#
# 1 122.0768 18.2732 26.8776 0.0000 7.1018 0.0000
# 2 18.2732 58.3309 31.0408 0.0000 -5.8377 0.0000
# 3 26.8776 31.0408 87.8292 0.0000 14.8057 0.0000
# 4 0.0000 0.0000 0.0000 8.1196 0.0000 -3.8004
# 5 7.1018 -5.8377 14.8057 0.0000 31.9173 0.0000
# 6 0.0000 0.0000 0.0000 -3.8004 0.0000 -3.2101
#
#
#
# Elastic Compliance Matrix: (Units=1/GPa)
#
#
# Indices 1 2 3 4 5 6 
#
# 1 0.008974 -0.002024 -0.001770 0.000000 -0.001546 0.000000
# 2 -0.002024 0.023607 -0.009251 0.000000 0.009060 0.000000
# 3 -0.001770 -0.009251 0.016724 0.000000 -0.009056 0.000000
# 4 0.000000 0.000000 0.000000 0.079246 0.000000 -0.093819
# 5 -0.001546 0.009060 -0.009056 0.000000 0.037533 0.000000
# 6 0.000000 0.000000 0.000000 -0.093819 0.000000 -0.200446
#
#
# Mechanical properties :
#
#
# Convention : Reuss Voigt Hill
#
# Bulk Modulus (GPa) = 43.07717 46.73555 44.90636
# Shear Modulus (GPa) = -9385.94696 20.16839 -4682.88929
#
# Velocity S-wave (km/s) = -68.49199 3.17495 -48.37909
# Velocity P-wave (km/s) = 78.95151 6.06623 55.66211
#
# Compressibility (1/GPa) = 0.02321415
#
# Stress axis : x y z
#
# Youngs Moduli (GPa) = 111.43011 42.35985 59.79543
#
# Poissons Ratio (x) = 0.08573 0.10587
# Poissons Ratio (y) = 0.22552 0.55318
# Poissons Ratio (z) = 0.19728 0.39188
#
# Static dielectric constant tensor:
#      x y z
#    x 1.793200 0.000000 -0.047400 
#    y 0.000000 1.795420 0.000000 
#    z -0.047400 0.000000 1.817660 
# 
# From -- ./inp_files/104937.got.cif
#   From: 2010.05.17/outbox.cif.g08.bks.cpg/sg12_53_cif.got.tgz:104937.got - 2010.06.03 13:09:07.
