data_PCOD9170129
_publ_section_title
;
Structure prediction by ZEFSAII (Michael W. Deem and Ramdas Pophale) SiO2 
 PCOD9170129
Probable space group: C 2/M
;
_chemical_formula_sum "Si O2"
_cell_formula_units_Z 56
_cell_length_a 24.776627
_cell_length_b 16.732167
_cell_length_c 9.723580
_cell_angle_alpha 90.000000
_cell_angle_beta 58.861069
_cell_angle_gamma 90.000000
_cell_volume 3450.258760
_symmetry_space_group_name_H-M "C 2/M"
_symmetry_group_IT_number 12
_symmetry_cell_setting 'monoclinic'
loop_
_space_group_symop_operation_xyz
x,y,z
-x,y,-z
-x,-y,-z
x,-y,z
1/2+x,1/2+y,z
1/2-x,1/2+y,-z
1/2-x,1/2-y,-z
1/2+x,1/2-y,z
loop_
_atom_site_type_symbol
_atom_site_label
_atom_site_fract_x
_atom_site_fract_y
_atom_site_fract_z
Si Si1 0.311864 0.799250 0.602684
Si Si2 0.988367 0.091539 0.849730
Si Si3 0.752461 0.590673 0.446539
Si Si4 0.214699 0.670985 0.860773
Si Si5 0.135227 0.182749 0.941438
Si Si6 0.880780 0.167108 0.365177
Si Si7 0.239895 0.594812 0.120632
O O1 0.277904 0.843451 0.519905
O O2 0.266429 0.733370 0.733078
O O3 0.369227 0.748128 0.466367
O O4 0.315936 0.867107 0.713108
O O5 0.051879 0.126713 0.700612
O O6 0.977019 0.000000 0.821939
O O7 0.927337 0.146481 0.908773
O O8 0.000000 0.090225 0.000000
O O9 0.760974 0.500000 0.484611
O O10 0.788637 0.606071 0.255799
O O11 0.678045 0.608525 0.524751
O O12 0.154360 0.727972 0.960898
O O13 0.235508 0.631880 0.974932
O O14 0.125736 0.184630 0.789265
O O15 0.194082 0.124796 0.899708
O O16 0.237449 0.500000 0.121426
#
# Coordination Sequence:
#
# PCOD9170129 Si02
#       7
#     8   8   8   8   8   8   8
#     4  10  18  31  49  70  97 133 163 200 247 290
#     4   9  18  28  45  74 103 130 160 193 234 286
#     4  11  18  28  49  73 100 128 161 205 252 282
#     4  10  19  33  46  70 100 135 161 199 245 295
#     4  10  17  31  48  69 101 135 159 194 238 293
#     4  10  17  30  47  72 103 129 161 196 238 292
#     4  11  21  31  49  75 101 128 164 204 246 290
#
# _framework density 16.230665999999999
#
# number of rings (size 3 to 8) (size 9 to 14) (size 15 to 20)
#    0.000    1.857    4.286    4.286    0.000    1.143 
#    0.000    0.000    0.000    7.714    0.000   20.000 
#    0.000    0.000    0.000    0.000    0.000    0.000 
#
# Total GULP energy -155977.266758 kJ/mol
# GULP energy per Si atom -5570.616670 kJ/mol
# Density = 1.619372 g / cm^3
# Si number density = 16.230666 Si / 1000 Ang^3
#
#
#
# Elastic Constant Matrix: (Units=GPa)
#
#
# Indices 1 2 3 4 5 6 
#
# 1 27.6741 23.2623 35.0734 0.0000 -7.9945 0.0000
# 2 23.2623 98.6396 45.0471 0.0000 -10.7747 0.0000
# 3 35.0734 45.0471 81.7146 0.0000 -1.4186 0.0000
# 4 0.0000 0.0000 0.0000 20.8398 0.0000 -0.9419
# 5 -7.9945 -10.7747 -1.4186 0.0000 30.4056 0.0000
# 6 0.0000 0.0000 0.0000 -0.9419 0.0000 22.5160
#
#
#
# Elastic Compliance Matrix: (Units=1/GPa)
#
#
# Indices 1 2 3 4 5 6 
#
# 1 0.092655 -0.001968 -0.038304 0.000000 0.021877 0.000000
# 2 -0.001968 0.014222 -0.006923 0.000000 0.004199 0.000000
# 3 -0.038304 -0.006923 0.032304 0.000000 -0.011017 0.000000
# 4 0.000000 0.000000 0.000000 0.048076 0.000000 0.002011
# 5 0.021877 0.004199 -0.011017 0.000000 0.039615 0.000000
# 6 0.000000 0.000000 0.000000 0.002011 0.000000 0.044497
#
#
# Mechanical properties :
#
#
# Convention : Reuss Voigt Hill
#
# Bulk Modulus (GPa) = 22.32624 46.08823 34.20723
# Shear Modulus (GPa) = 13.13406 21.72865 17.43135
#
# Velocity S-wave (km/s) = 2.84775 3.66285 3.28071
# Velocity P-wave (km/s) = 4.95967 6.80779 5.95585
#
# Compressibility (1/GPa) = 0.04479035
#
# Stress axis : x y z
#
# Youngs Moduli (GPa) = 10.79271 70.31230 30.95624
#
# Poissons Ratio (x) = 0.13840 1.18576
# Poissons Ratio (y) = 0.02124 0.21430
# Poissons Ratio (z) = 0.41341 0.48674
#
# Static dielectric constant tensor:
#      x y z
#    x 1.537400 0.000000 0.006340 
#    y 0.000000 1.563320 0.000000 
#    z 0.006340 0.000000 1.572960 
# 
# From -- ./inp_files/97621.got.cif
#   From: 2010.05.17/outbox.cif.g08.bks.cpg/sg12_49_cif.got.tgz:97621.got - 2010.06.03 13:09:07.
