data_PCOD9170309
_publ_section_title
;
Structure prediction by ZEFSAII (Michael W. Deem and Ramdas Pophale) SiO2 
 PCOD9170309
Probable space group: C 2/M
;
_chemical_formula_sum "Si O2"
_cell_formula_units_Z 48
_cell_length_a 14.059325
_cell_length_b 13.148559
_cell_length_c 23.328479
_cell_angle_alpha 90.000000
_cell_angle_beta 148.484823
_cell_angle_gamma 90.000000
_cell_volume 2254.248698
_symmetry_space_group_name_H-M "C 2/M"
_symmetry_group_IT_number 12
_symmetry_cell_setting 'monoclinic'
loop_
_space_group_symop_operation_xyz
x,y,z
-x,y,-z
-x,-y,-z
x,-y,z
1/2+x,1/2+y,z
1/2-x,1/2+y,-z
1/2-x,1/2-y,-z
1/2+x,1/2-y,z
loop_
_atom_site_type_symbol
_atom_site_label
_atom_site_fract_x
_atom_site_fract_y
_atom_site_fract_z
Si Si1 0.857625 0.885689 0.190872
Si Si2 0.128653 0.892534 0.011051
Si Si3 0.370080 0.768592 0.835935
Si Si4 0.505860 0.809499 0.218565
Si Si5 0.397999 0.880177 0.361176
Si Si6 0.269081 0.678742 0.600178
O O1 0.698649 0.837363 0.147410
O O2 0.912412 0.804005 0.170586
O O3 0.049326 0.881624 0.324582
O O4 0.819042 0.000000 0.152591
O O5 0.054993 0.792781 0.942083
O O6 0.106685 0.000000 0.967419
O O7 0.335358 0.881635 0.137870
O O8 0.000000 0.896231 0.000000
O O9 0.397422 0.830539 0.791590
O O10 0.218537 0.682885 0.744336
O O11 0.654323 0.791332 0.344712
O O12 0.301675 0.864565 0.374279
O O13 0.599666 0.833729 0.471658
O O14 0.405176 0.000000 0.352880
#
# Coordination Sequence:
#
# PCOD9170309 Si02
#       6
#     8   8   8   8   8   8
#     4  10  20  37  57  80 115 149 185 232 281 327
#     4  11  21  38  58  78 111 148 183 233 281 330
#     4  11  22  35  57  87 114 146 190 228 280 341
#     4   9  21  38  57  78 112 148 189 231 277 334
#     4  10  17  30  56  87 113 144 187 233 279 331
#     4   8  17  32  56  80 114 144 185 233 280 321
#
# _framework density 21.293126999999998
#
# number of rings (size 3 to 8) (size 9 to 14) (size 15 to 20)
#    1.000    1.167    1.667    3.000    0.000    2.000 
#    0.000    1.667    0.000    1.000    0.000    4.667 
#    0.000    0.000    0.000    0.000    0.000    0.000 
#
# Total GULP energy -133650.640816 kJ/mol
# GULP energy per Si atom -5568.776701 kJ/mol
# Density = 2.124466 g / cm^3
# Si number density = 21.293127 Si / 1000 Ang^3
#
#
#
# Elastic Constant Matrix: (Units=GPa)
#
#
# Indices 1 2 3 4 5 6 
#
# 1 54.0173 -2.1392 1.3891 0.0000 14.3581 0.0000
# 2 -2.1392 46.5696 28.8163 0.0001 9.1371 0.0001
# 3 1.3891 28.8163 98.6100 0.0002 14.5835 0.0000
# 4 0.0000 0.0001 0.0002 -5.2997 0.0000 -16.2851
# 5 14.3581 9.1371 14.5835 0.0000 24.9366 0.0000
# 6 0.0000 0.0001 0.0000 -16.2851 0.0000 -10.2467
#
#
#
# Elastic Compliance Matrix: (Units=1/GPa)
#
#
# Indices 1 2 3 4 5 6 
#
# 1 0.022539 0.003386 0.000871 0.000000 -0.014728 0.000000
# 2 0.003386 0.027459 -0.006892 0.000000 -0.007981 0.000000
# 3 0.000871 -0.006892 0.012965 0.000000 -0.005558 0.000000
# 4 0.000000 0.000000 0.000000 0.048586 0.000000 -0.077217
# 5 -0.014728 -0.007981 -0.005558 0.000000 0.054757 0.000000
# 6 0.000000 0.000000 0.000000 -0.077217 0.000000 0.025129
#
#
# Mechanical properties :
#
#
# Convention : Reuss Voigt Hill
#
# Bulk Modulus (GPa) = 17.33297 28.36991 22.85144
# Shear Modulus (GPa) = 23.15518 13.28676 18.22097
#
# Velocity S-wave (km/s) = 3.30123 2.50070 2.92844
# Velocity P-wave (km/s) = 4.76326 4.65730 4.71057
#
# Compressibility (1/GPa) = 0.05769352
#
# Stress axis : x y z
#
# Youngs Moduli (GPa) = 44.36754 36.41796 77.13292
#
# Poissons Ratio (x) = -0.12331 -0.06719
# Poissons Ratio (y) = -0.15023 0.53157
# Poissons Ratio (z) = -0.03865 0.25098
#
# Static dielectric constant tensor:
#      x y z
#    x 1.765120 0.000000 -0.003590 
#    y 0.000000 1.779060 0.000000 
#    z -0.003590 0.000000 1.828710 
# 
# From -- ./inp_files/376156.got.cif
#   From: 2010.05.17/outbox.cif.g08.bks.cpg/sg12_189_cif.got.tgz:376156.got - 2010.06.03 13:09:07.
