data_PCOD9170354
_publ_section_title
;
Structure prediction by ZEFSAII (Michael W. Deem and Ramdas Pophale) SiO2 
 PCOD9170354
Probable space group: C 2/M
;
_chemical_formula_sum "Si O2"
_cell_formula_units_Z 64
_cell_length_a 25.203752
_cell_length_b 7.545023
_cell_length_c 16.546980
_cell_angle_alpha 90.000000
_cell_angle_beta 98.082250
_cell_angle_gamma 90.000000
_cell_volume 3115.366942
_symmetry_space_group_name_H-M "C 2/M"
_symmetry_group_IT_number 12
_symmetry_cell_setting 'monoclinic'
loop_
_space_group_symop_operation_xyz
x,y,z
-x,y,-z
-x,-y,-z
x,-y,z
1/2+x,1/2+y,z
1/2-x,1/2+y,-z
1/2-x,1/2-y,-z
1/2+x,1/2-y,z
loop_
_atom_site_type_symbol
_atom_site_label
_atom_site_fract_x
_atom_site_fract_y
_atom_site_fract_z
Si Si1 0.881542 0.217804 0.282347
Si Si2 0.448801 0.796620 0.714924
Si Si3 0.233579 0.800149 0.761444
Si Si4 0.145009 0.281893 0.197404
Si Si5 0.298439 0.788861 0.069517
Si Si6 0.977154 0.796593 0.413130
Si Si7 0.043741 0.790139 0.848701
Si Si8 0.101638 0.712448 0.014249
O O1 0.821038 0.280757 0.286879
O O2 0.924462 0.278996 0.358213
O O3 0.907453 0.271136 0.200695
O O4 0.880094 0.000000 0.281446
O O5 0.392983 0.726589 0.737189
O O6 0.477499 0.703879 0.646379
O O7 0.490381 0.790885 0.798887
O O8 0.441345 0.000000 0.689034
O O9 0.293503 0.721796 0.777408
O O10 0.214987 0.805485 0.850510
O O11 0.239338 0.000000 0.730004
O O12 0.146100 0.500000 0.194840
O O13 0.116508 0.223108 0.107284
O O14 0.350399 0.724241 0.033481
O O15 0.302829 0.000000 0.084926
O O16 0.250000 0.750000 0.000000
O O17 0.000000 0.714154 0.500000
O O18 0.962856 0.000000 0.429657
O O19 0.051561 0.754755 0.945424
O O20 0.039661 0.000000 0.836627
O O21 0.103444 0.500000 0.019837
#
# Coordination Sequence:
#
# PCOD9170354 Si02
#       8
#     8   8   8   8   8   8   8   8
#     4   8  15  27  49  76  97 122 157 199 246 292
#     4  10  20  35  53  73  99 131 168 203 247 303
#     4  10  17  31  50  69  96 129 170 213 249 290
#     4   9  19  33  48  67  96 138 176 209 248 297
#     4  11  20  29  44  67  96 131 174 219 261 290
#     4   9  18  35  58  83 106 125 151 195 253 310
#     4  10  19  32  49  71  98 130 171 216 263 295
#     4  10  19  31  46  66  95 133 178 217 257 295
#
# _framework density 20.543327000000001
#
# number of rings (size 3 to 8) (size 9 to 14) (size 15 to 20)
#    0.000    2.375    2.500    1.875    0.000    1.250 
#    0.000    5.000    0.000    0.750    0.000    0.000 
#    0.000    0.000    0.000    0.000    0.000    0.125 
#
# Total GULP energy -178356.450573 kJ/mol
# GULP energy per Si atom -5573.639080 kJ/mol
# Density = 2.049657 g / cm^3
# Si number density = 20.543327 Si / 1000 Ang^3
#
#
#
# Elastic Constant Matrix: (Units=GPa)
#
#
# Indices 1 2 3 4 5 6 
#
# 1 94.3169 -0.5732 62.7728 0.0000 0.4626 0.0000
# 2 -0.5732 55.8113 -1.0770 0.0000 0.5414 0.0000
# 3 62.7728 -1.0770 101.9083 0.0000 24.6940 0.0000
# 4 0.0000 0.0000 0.0000 9.0197 0.0000 -3.3797
# 5 0.4626 0.5414 24.6940 0.0000 22.6396 0.0000
# 6 0.0000 0.0000 0.0000 -3.3797 0.0000 7.3389
#
#
#
# Elastic Compliance Matrix: (Units=1/GPa)
#
#
# Indices 1 2 3 4 5 6 
#
# 1 0.023485 -0.000337 -0.019513 0.000000 0.020812 0.000000
# 2 -0.000337 0.017938 0.000679 0.000000 -0.001163 0.000000
# 3 -0.019513 0.000679 0.029559 0.000000 -0.031859 0.000000
# 4 0.000000 0.000000 0.000000 0.133991 0.000000 0.061706
# 5 0.020812 -0.001163 -0.031859 0.000000 0.078523 0.000000
# 6 0.000000 0.000000 0.000000 0.061706 0.000000 0.164678
#
#
# Mechanical properties :
#
#
# Convention : Reuss Voigt Hill
#
# Bulk Modulus (GPa) = 30.63640 41.58685 36.11162
# Shear Modulus (GPa) = 10.05232 20.52721 15.28977
#
# Velocity S-wave (km/s) = 2.21446 3.16447 2.73109
# Velocity P-wave (km/s) = 4.63507 5.79993 5.24991
#
# Compressibility (1/GPa) = 0.03264091
#
# Stress axis : x y z
#
# Youngs Moduli (GPa) = 42.57982 55.74619 33.83026
#
# Poissons Ratio (x) = 0.01880 0.66013
# Poissons Ratio (y) = 0.01436 -0.02297
# Poissons Ratio (z) = 0.83086 -0.03785
#
# Static dielectric constant tensor:
#      x y z
#    x 1.777590 0.000000 0.005160 
#    y 0.000000 1.801900 0.000000 
#    z 0.005160 0.000000 1.697210 
# 
# From -- ./inp_files/287637.got.cif
#   From: 2010.05.17/outbox.cif.g08.bks.cpg/sg12_144_cif.got.tgz:287637.got - 2010.06.03 13:09:07.
