data_PCOD9170194
_publ_section_title
;
Structure prediction by ZEFSAII (Michael W. Deem and Ramdas Pophale) SiO2 
 PCOD9170194
Probable space group: C 2/M
;
_chemical_formula_sum "Si O2"
_cell_formula_units_Z 56
_cell_length_a 15.627734
_cell_length_b 14.192353
_cell_length_c 24.998908
_cell_angle_alpha 90.000000
_cell_angle_beta 33.650249
_cell_angle_gamma 90.000000
_cell_volume 3072.392548
_symmetry_space_group_name_H-M "C 2/M"
_symmetry_group_IT_number 12
_symmetry_cell_setting 'monoclinic'
loop_
_space_group_symop_operation_xyz
x,y,z
-x,y,-z
-x,-y,-z
x,-y,z
1/2+x,1/2+y,z
1/2-x,1/2+y,-z
1/2-x,1/2-y,-z
1/2+x,1/2-y,z
loop_
_atom_site_type_symbol
_atom_site_label
_atom_site_fract_x
_atom_site_fract_y
_atom_site_fract_z
Si Si1 0.177816 0.302456 0.795896
Si Si2 0.270584 0.392066 0.371907
Si Si3 0.099756 0.277199 0.546343
Si Si4 0.693925 0.892964 0.285930
Si Si5 0.903544 0.390916 0.994312
Si Si6 0.372082 0.386266 0.794039
Si Si7 0.089613 0.109434 0.396312
O O1 0.195172 0.190128 0.791884
O O2 0.289166 0.346129 0.784336
O O3 0.243954 0.342825 0.704697
O O4 0.005237 0.334847 0.898941
O O5 0.251887 0.500000 0.401894
O O6 0.156155 0.322782 0.461748
O O7 0.227232 0.393671 0.332267
O O8 0.448238 0.363081 0.290696
O O9 0.250000 0.250000 0.500000
O O10 0.015922 0.178311 0.582968
O O11 0.978355 0.351807 0.633725
O O12 0.712331 0.000000 0.256722
O O13 0.895332 0.500000 0.981795
O O14 0.733720 0.357303 0.100114
O O15 0.000000 0.388256 0.000000
O O16 0.361799 0.500000 0.796082
O O17 0.000000 0.111862 0.500000
O O18 0.097565 0.000000 0.376348
#
# Coordination Sequence:
#
# PCOD9170194 Si02
#       7
#     8   8   8   8   8   8   8
#     4  10  17  30  51  73  99 128 161 200 245 289
#     4  10  19  33  51  69  96 131 165 203 242 283
#     4  11  21  32  49  71  93 121 161 204 242 285
#     4  10  21  34  48  68  96 132 168 198 233 284
#     4   8  14  26  48  77 102 122 152 202 256 295
#     4   9  17  30  52  80 100 119 158 208 253 292
#     4  10  20  32  46  68  99 129 154 184 231 293
#
# _framework density 18.226837
#
# number of rings (size 3 to 8) (size 9 to 14) (size 15 to 20)
#    0.000    2.286    0.000    6.429    0.000    3.429 
#    0.000    0.714    0.000    3.857    0.000    0.000 
#    0.000    0.000    0.000    0.000    0.000    0.000 
#
# Total GULP energy -155897.281928 kJ/mol
# GULP energy per Si atom -5567.760069 kJ/mol
# Density = 1.818535 g / cm^3
# Si number density = 18.226837 Si / 1000 Ang^3
#
#
#
# Elastic Constant Matrix: (Units=GPa)
#
#
# Indices 1 2 3 4 5 6 
#
# 1 16.0927 -2.9070 -3.1336 -0.0001 -2.2077 0.0000
# 2 -2.9070 108.0903 39.0024 -0.0002 -1.9460 0.0001
# 3 -3.1336 39.0024 96.6055 -0.0009 3.5291 0.0002
# 4 -0.0001 -0.0002 -0.0009 19.2133 0.0002 -1.0494
# 5 -2.2077 -1.9460 3.5291 0.0002 14.8686 0.0000
# 6 0.0000 0.0001 0.0002 -1.0494 0.0000 16.9497
#
#
#
# Elastic Compliance Matrix: (Units=1/GPa)
#
#
# Indices 1 2 3 4 5 6 
#
# 1 0.063919 0.001480 0.001132 0.000000 0.009416 0.000000
# 2 0.001480 0.010955 -0.004474 0.000000 0.002715 0.000000
# 3 0.001132 -0.004474 0.012316 0.000001 -0.003341 0.000000
# 4 0.000000 0.000000 0.000001 0.052224 -0.000001 0.003233
# 5 0.009416 0.002715 -0.003341 -0.000001 0.069802 0.000000
# 6 0.000000 0.000000 0.000000 0.003233 0.000000 0.059198
#
#
# Mechanical properties :
#
#
# Convention : Reuss Voigt Hill
#
# Bulk Modulus (GPa) = 11.98084 31.85689 21.91887
# Shear Modulus (GPa) = 16.66887 22.72811 19.69849
#
# Velocity S-wave (km/s) = 3.02739 3.53506 3.29103
# Velocity P-wave (km/s) = 4.33677 5.84621 5.14712
#
# Compressibility (1/GPa) = 0.08346660
#
# Stress axis : x y z
#
# Youngs Moduli (GPa) = 15.64471 91.28645 81.19289
#
# Poissons Ratio (x) = -0.13512 -0.09189
# Poissons Ratio (y) = -0.02316 0.36324
# Poissons Ratio (z) = -0.01771 0.40840
#
# Static dielectric constant tensor:
#      x y z
#    x 1.652410 0.000000 -0.023590 
#    y 0.000000 1.625310 0.000000 
#    z -0.023590 0.000000 1.729370 
# 
# From -- ./inp_files/339907.got.cif
#   From: 2010.05.17/outbox.cif.g08.bks.cpg/sg12_170_cif.got.tgz:339907.got - 2010.06.03 13:09:07.
