data_PCOD9170392
_publ_section_title
;
Structure prediction by ZEFSAII (Michael W. Deem and Ramdas Pophale) SiO2 
 PCOD9170392
Probable space group: C 2/M
;
_chemical_formula_sum "Si O2"
_cell_formula_units_Z 48
_cell_length_a 9.080664
_cell_length_b 17.675764
_cell_length_c 11.930583
_cell_angle_alpha 90.000000
_cell_angle_beta 83.312955
_cell_angle_gamma 90.000000
_cell_volume 1901.922727
_symmetry_space_group_name_H-M "C 2/M"
_symmetry_group_IT_number 12
_symmetry_cell_setting 'monoclinic'
loop_
_space_group_symop_operation_xyz
x,y,z
-x,y,-z
-x,-y,-z
x,-y,z
1/2+x,1/2+y,z
1/2-x,1/2+y,-z
1/2-x,1/2-y,-z
1/2+x,1/2-y,z
loop_
_atom_site_type_symbol
_atom_site_label
_atom_site_fract_x
_atom_site_fract_y
_atom_site_fract_z
Si Si1 0.416946 0.915987 0.860182
Si Si2 0.699818 0.359245 0.703031
Si Si3 0.621960 0.418237 0.309896
Si Si4 0.498691 0.753366 0.162490
Si Si5 0.869840 0.234368 0.599750
Si Si6 0.850708 0.881654 0.950431
O O1 0.327553 0.907833 0.750167
O O2 0.519244 0.841269 0.863261
O O3 0.483204 0.000000 0.862229
O O4 0.289481 0.905632 0.965026
O O5 0.556821 0.404889 0.673941
O O6 0.640923 0.302410 0.807933
O O7 0.756715 0.303489 0.600607
O O8 0.660929 0.500000 0.351362
O O9 0.692422 0.349357 0.372124
O O10 0.658615 0.412525 0.175063
O O11 0.560604 0.751768 0.283472
O O12 0.613758 0.708043 0.073619
O O13 0.000000 0.237085 0.500000
O O14 0.000000 0.910138 0.000000
#
# Coordination Sequence:
#
# PCOD9170392 Si02
#       6
#     8   8   8   8   8   8
#     4  11  19  30  52  78 106 133 164 208 250 286
#     4   9  18  34  53  73  98 133 170 201 246 302
#     4  10  20  32  50  79 104 125 167 213 248 288
#     4   9  20  33  49  78 101 133 171 205 242 299
#     4   9  19  35  55  74  97 131 170 207 250 300
#     4  10  17  31  53  75  99 139 171 198 240 298
#
# _framework density 25.237617
#
# number of rings (size 3 to 8) (size 9 to 14) (size 15 to 20)
#    0.000    2.667    3.333    1.500    0.000    3.667 
#    0.000    0.833    0.000   17.000    0.000    0.000 
#    0.000    0.000    0.000    0.000    0.000    0.000 
#
# Total GULP energy -134220.795283 kJ/mol
# GULP energy per Si atom -5592.533137 kJ/mol
# Density = 2.518018 g / cm^3
# Si number density = 25.237617 Si / 1000 Ang^3
#
#
#
# Elastic Constant Matrix: (Units=GPa)
#
#
# Indices 1 2 3 4 5 6 
#
# 1 35.5719 9.3051 15.7036 0.0000 4.2904 0.0000
# 2 9.3051 202.9082 34.8375 0.0000 -10.5997 0.0000
# 3 15.7036 34.8375 78.4819 0.0000 -12.1629 0.0000
# 4 0.0000 0.0000 0.0000 2.6733 0.0000 -3.6656
# 5 4.2904 -10.5997 -12.1629 0.0000 41.6993 0.0000
# 6 0.0000 0.0000 0.0000 -3.6656 0.0000 16.2904
#
#
#
# Elastic Compliance Matrix: (Units=1/GPa)
#
#
# Indices 1 2 3 4 5 6 
#
# 1 0.032011 -0.000551 -0.007010 0.000000 -0.005478 0.000000
# 2 -0.000551 0.005364 -0.002148 0.000000 0.000794 0.000000
# 3 -0.007010 -0.002148 0.015841 0.000000 0.004796 0.000000
# 4 0.000000 0.000000 0.000000 0.540994 0.000000 0.121732
# 5 -0.005478 0.000794 0.004796 0.000000 0.026145 0.000000
# 6 0.000000 0.000000 0.000000 0.121732 0.000000 0.088778
#
#
# Mechanical properties :
#
#
# Convention : Reuss Voigt Hill
#
# Bulk Modulus (GPa) = 29.58600 48.51715 39.05158
# Shear Modulus (GPa) = 6.75844 29.27366 18.01605
#
# Velocity S-wave (km/s) = 1.63821 3.40946 2.67471
# Velocity P-wave (km/s) = 3.91494 5.89619 5.00459
#
# Compressibility (1/GPa) = 0.03379977
#
# Stress axis : x y z
#
# Youngs Moduli (GPa) = 31.23889 186.43502 63.12729
#
# Poissons Ratio (x) = 0.10266 0.44251
# Poissons Ratio (y) = 0.01720 0.13558
# Poissons Ratio (z) = 0.21898 0.40042
#
# Static dielectric constant tensor:
#      x y z
#    x 2.087330 0.000000 0.037880 
#    y 0.000000 2.046990 0.000000 
#    z 0.037880 0.000000 2.013850 
# 
# From -- ./inp_files/131088.got.cif
#   From: 2010.05.17/outbox.cif.g08.bks.cpg/sg12_66_cif.got.tgz:131088.got - 2010.06.03 13:09:07.
