data_PCOD9170620
_publ_section_title
;
Structure prediction by ZEFSAII (Michael W. Deem and Ramdas Pophale) SiO2 
 PCOD9170620
Probable space group: C 2/M
;
_chemical_formula_sum "Si O2"
_cell_formula_units_Z 40
_cell_length_a 9.941048
_cell_length_b 27.321498
_cell_length_c 8.457420
_cell_angle_alpha 90.000000
_cell_angle_beta 44.517568
_cell_angle_gamma 90.000000
_cell_volume 1610.541215
_symmetry_space_group_name_H-M "C 2/M"
_symmetry_group_IT_number 12
_symmetry_cell_setting 'monoclinic'
loop_
_space_group_symop_operation_xyz
x,y,z
-x,y,-z
-x,-y,-z
x,-y,z
1/2+x,1/2+y,z
1/2-x,1/2+y,-z
1/2-x,1/2-y,-z
1/2+x,1/2-y,z
loop_
_atom_site_type_symbol
_atom_site_label
_atom_site_fract_x
_atom_site_fract_y
_atom_site_fract_z
Si Si1 0.216551 0.845960 0.316230
Si Si2 0.277304 0.693127 0.011237
Si Si3 0.783416 0.446099 0.124159
Si Si4 0.726956 0.656599 0.651192
Si Si5 0.771053 0.054819 0.197831
O O1 0.310352 0.830489 0.073161
O O2 0.199428 0.904221 0.305691
O O3 0.302102 0.831733 0.413490
O O4 0.000000 0.824798 0.500000
O O5 0.497364 0.670775 0.834713
O O6 0.250000 0.750000 0.000000
O O7 0.200638 0.682527 0.250972
O O8 0.690826 0.500000 0.213245
O O9 0.786536 0.433370 0.934620
O O10 0.000000 0.449889 0.000000
O O11 0.769270 0.599236 0.649825
O O12 0.704537 0.000000 0.296788
O O13 0.000000 0.053094 0.000000
#
# Coordination Sequence:
#
# PCOD9170620 Si02
#       5
#     8   8   8   8   8
#     4  10  20  37  65  91 121 158 213 262 302 372
#     4  10  20  37  58  83 120 159 198 262 325 357
#     4  10  21  38  61  93 136 172 200 248 318 382
#     4  10  19  37  61  89 120 155 208 262 301 371
#     4  10  17  32  62  93 124 166 204 243 303 374
#
# _framework density 24.836372000000001
#
# number of rings (size 3 to 8) (size 9 to 14) (size 15 to 20)
#    0.000    2.000    4.000    1.200    0.000    2.000 
#    3.600    1.000    0.000    3.600    0.000    0.000 
#    0.000    0.000    0.000    0.000    0.000    0.000 
#
# Total GULP energy -111636.801371 kJ/mol
# GULP energy per Si atom -5581.840069 kJ/mol
# Density = 2.477984 g / cm^3
# Si number density = 24.836372 Si / 1000 Ang^3
#
#
#
# Elastic Constant Matrix: (Units=GPa)
#
#
# Indices 1 2 3 4 5 6 
#
# 1 167.4380 32.6163 76.9535 0.0000 52.5363 0.0000
# 2 32.6163 119.0545 32.1494 0.0000 34.4929 0.0000
# 3 76.9535 32.1494 136.4697 0.0000 44.6866 0.0000
# 4 0.0000 0.0000 0.0000 -8.1497 0.0000 33.3669
# 5 52.5363 34.4929 44.6866 0.0000 68.3023 0.0000
# 6 0.0000 0.0000 0.0000 33.3669 0.0000 -38.7640
#
#
#
# Elastic Compliance Matrix: (Units=1/GPa)
#
#
# Indices 1 2 3 4 5 6 
#
# 1 0.009085 -0.000206 -0.003589 0.000000 -0.004536 0.000000
# 2 -0.000206 0.009927 -0.000805 0.000000 -0.004328 0.000000
# 3 -0.003589 -0.000805 0.010823 0.000000 -0.003913 0.000000
# 4 0.000000 0.000000 0.000000 0.048611 0.000000 0.041843
# 5 -0.004536 -0.004328 -0.003913 0.000000 0.022876 0.000000
# 6 0.000000 0.000000 0.000000 0.041843 0.000000 0.010220
#
#
# Mechanical properties :
#
#
# Convention : Reuss Voigt Hill
#
# Bulk Modulus (GPa) = 48.46238 78.48896 63.47567
# Shear Modulus (GPa) = 39.17859 23.02725 31.10292
#
# Velocity S-wave (km/s) = 3.97604 3.04823 3.54264
# Velocity P-wave (km/s) = 6.37445 6.63777 6.50744
#
# Compressibility (1/GPa) = 0.02063456
#
# Stress axis : x y z
#
# Youngs Moduli (GPa) = 110.06790 100.73198 92.39826
#
# Poissons Ratio (x) = 0.02071 0.33165
# Poissons Ratio (y) = 0.02262 0.07443
# Poissons Ratio (z) = 0.39507 0.08114
#
# Static dielectric constant tensor:
#      x y z
#    x 2.006300 0.000000 -0.109000 
#    y 0.000000 2.198140 0.000000 
#    z -0.109000 0.000000 2.069660 
# 
# From -- ./inp_files/52348.got.cif
#   From: 2010.05.17/outbox.cif.g08.bks.cpg/sg12_27_cif.got.tgz:52348.got - 2010.06.03 13:09:07.
