data_PCOD9170782
_publ_section_title
;
Structure prediction by ZEFSAII (Michael W. Deem and Ramdas Pophale) SiO2 
 PCOD9170782
Probable space group: C 2/M
;
_chemical_formula_sum "Si O2"
_cell_formula_units_Z 52
_cell_length_a 17.313346
_cell_length_b 22.705179
_cell_length_c 11.112062
_cell_angle_alpha 90.000000
_cell_angle_beta 36.433375
_cell_angle_gamma 90.000000
_cell_volume 2594.208516
_symmetry_space_group_name_H-M "C 2/M"
_symmetry_group_IT_number 12
_symmetry_cell_setting 'monoclinic'
loop_
_space_group_symop_operation_xyz
x,y,z
-x,y,-z
-x,-y,-z
x,-y,z
1/2+x,1/2+y,z
1/2-x,1/2+y,-z
1/2-x,1/2-y,-z
1/2+x,1/2-y,z
loop_
_atom_site_type_symbol
_atom_site_label
_atom_site_fract_x
_atom_site_fract_y
_atom_site_fract_z
Si Si1 0.182705 0.869777 0.603234
Si Si2 0.560891 0.168013 0.601196
Si Si3 0.500000 0.707572 0.000000
Si Si4 0.689062 0.872993 0.186797
Si Si5 0.658925 0.000000 0.289700
Si Si6 0.136644 0.000000 0.753051
Si Si7 0.100552 0.201359 0.474721
Si Si8 0.321313 0.739359 0.036522
O O1 0.335473 0.853712 0.431421
O O2 0.136470 0.844092 0.533506
O O3 0.149866 0.938604 0.663581
O O4 0.109829 0.833242 0.800764
O O5 0.413539 0.144588 0.788546
O O6 0.620514 0.142844 0.400806
O O7 0.545517 0.238171 0.603037
O O8 0.548996 0.747584 0.048678
O O9 0.815419 0.832721 0.034283
O O10 0.705360 0.941873 0.164083
O O11 0.500000 0.000000 0.500000
O O12 0.737131 0.000000 0.316906
O O13 0.000000 0.000000 0.000000
O O14 0.222649 0.227602 0.250477
O O15 0.000000 0.179269 0.500000
O O16 0.250000 0.750000 0.000000
#
# Coordination Sequence:
#
# PCOD9170782 Si02
#       8
#     8   8   4   8   4   4   8   8
#     4  12  23  37  58  83 117 155 195 236 302 351
#     4  10  17  34  56  84 109 145 184 235 288 348
#     4  12  22  33  54  88 114 153 188 232 302 360
#     4  10  18  32  55  80 115 143 182 227 291 344
#     4  12  18  34  56  84 119 149 188 240 290 360
#     4  12  24  38  55  86 125 153 197 257 295 346
#     4  11  21  38  59  80 113 154 191 240 289 350
#     4  11  23  37  55  84 119 148 193 244 298 352
#
# _framework density 20.044649
#
# number of rings (size 3 to 8) (size 9 to 14) (size 15 to 20)
#    0.000    0.923   10.000    1.385    0.000    0.000 
#    0.000    0.385    0.000    0.923    0.000    0.000 
#    0.000    4.923    0.000    0.000    0.000    0.000 
#
# Total GULP energy -144823.225196 kJ/mol
# GULP energy per Si atom -5570.124046 kJ/mol
# Density = 1.999903 g / cm^3
# Si number density = 20.044649 Si / 1000 Ang^3
#
#
#
# Elastic Constant Matrix: (Units=GPa)
#
#
# Indices 1 2 3 4 5 6 
#
# 1 185.3688 79.1048 33.8286 -0.0015 6.1793 0.0014
# 2 79.1048 113.3808 3.7577 -0.0003 7.8315 0.0001
# 3 33.8286 3.7577 25.1254 -0.0013 4.9856 0.0012
# 4 -0.0015 -0.0003 -0.0013 3.0111 0.0014 2.9398
# 5 6.1793 7.8315 4.9856 0.0014 28.3956 -0.0015
# 6 0.0014 0.0001 0.0012 2.9398 -0.0015 30.9549
#
#
#
# Elastic Compliance Matrix: (Units=1/GPa)
#
#
# Indices 1 2 3 4 5 6 
#
# 1 0.011083 -0.007408 -0.014237 -0.000003 0.002131 0.000000
# 2 -0.007408 0.013961 0.008631 0.000004 -0.003754 -0.000001
# 3 -0.014237 0.008631 0.059613 0.000030 -0.009749 -0.000005
# 4 -0.000003 0.000004 0.000030 0.366043 -0.000026 -0.034763
# 5 0.002131 -0.003754 -0.009749 -0.000026 0.037500 0.000004
# 6 0.000000 -0.000001 -0.000005 -0.034763 0.000004 0.035606
#
#
# Mechanical properties :
#
#
# Convention : Reuss Voigt Hill
#
# Bulk Modulus (GPa) = 17.05648 61.91747 39.48697
# Shear Modulus (GPa) = 8.78152 26.28458 17.53305
#
# Velocity S-wave (km/s) = 2.09535 3.62512 2.96074
# Velocity P-wave (km/s) = 3.79232 6.96267 5.60627
#
# Compressibility (1/GPa) = 0.05862875
#
# Stress axis : x y z
#
# Youngs Moduli (GPa) = 90.22802 71.62565 16.77497
#
# Poissons Ratio (x) = 0.53059 0.23883
# Poissons Ratio (y) = 0.66840 -0.14478
# Poissons Ratio (z) = 1.28458 -0.61818
#
# Static dielectric constant tensor:
#      x y z
#    x 1.751730 0.000000 -0.008210 
#    y 0.000000 1.759690 0.000000 
#    z -0.008210 0.000000 1.861640 
# 
# From -- ./inp_files/148599.got.cif
#   From: 2010.05.17/outbox.cif.g08.bks.cpg/sg12_75_cif.got.tgz:148599.got - 2010.06.03 13:09:07.
