data_PCOD9170940
_publ_section_title
;
Structure prediction by ZEFSAII (Michael W. Deem and Ramdas Pophale) SiO2 
 PCOD9170940
Probable space group: C 2/M
;
_chemical_formula_sum "Si O2"
_cell_formula_units_Z 56
_cell_length_a 19.810020
_cell_length_b 14.995551
_cell_length_c 17.789395
_cell_angle_alpha 90.000000
_cell_angle_beta 31.685755
_cell_angle_gamma 90.000000
_cell_volume 2775.766539
_symmetry_space_group_name_H-M "C 2/M"
_symmetry_group_IT_number 12
_symmetry_cell_setting 'monoclinic'
loop_
_space_group_symop_operation_xyz
x,y,z
-x,y,-z
-x,-y,-z
x,-y,z
1/2+x,1/2+y,z
1/2-x,1/2+y,-z
1/2-x,1/2-y,-z
1/2+x,1/2-y,z
loop_
_atom_site_type_symbol
_atom_site_label
_atom_site_fract_x
_atom_site_fract_y
_atom_site_fract_z
Si Si1 0.340687 0.397464 0.903685
Si Si2 0.122239 0.863966 0.594892
Si Si3 0.976996 0.333336 0.321390
Si Si4 0.758166 0.760877 0.093982
Si Si5 0.237189 0.402451 0.382127
Si Si6 0.136659 0.241150 0.843217
Si Si7 0.872562 0.600336 0.264935
O O1 0.300739 0.500000 0.956400
O O2 0.477015 0.399702 0.731372
O O3 0.246846 0.334547 0.943361
O O4 0.354691 0.333265 0.964288
O O5 0.105152 0.757792 0.606683
O O6 0.180406 0.893012 0.619488
O O7 0.225036 0.892959 0.435127
O O8 0.907899 0.390285 0.451135
O O9 0.958178 0.378286 0.257853
O O10 0.119491 0.306134 0.210280
O O11 0.786226 0.742171 0.153453
O O12 0.256748 0.500000 0.330694
O O13 0.283219 0.327042 0.282661
O O14 0.109330 0.327373 0.817404
O O15 0.000000 0.203564 0.000000
O O16 0.898296 0.500000 0.215125
#
# Coordination Sequence:
#
# PCOD9170940 Si02
#       7
#     8   8   8   8   8   8   8
#     4  10  21  39  64  92 120 159 211 258 301 364
#     4  10  17  37  66  92 119 156 206 256 300 357
#     4  10  19  40  65  91 122 161 210 252 305 359
#     4  10  25  40  62  90 128 169 201 253 314 368
#     4  11  21  37  64  93 122 159 204 255 306 362
#     4  12  26  43  59  88 131 166 203 252 314 376
#     4  11  22  39  67  96 123 162 209 258 305 363
#
# _framework density 20.174606000000001
#
# number of rings (size 3 to 8) (size 9 to 14) (size 15 to 20)
#    0.000    1.429    2.857    4.286    4.000    3.429 
#    0.000    0.714    0.000    2.571    0.000    0.000 
#    0.000    0.000    0.000    0.000    0.000    0.000 
#
# Total GULP energy -156332.266016 kJ/mol
# GULP energy per Si atom -5583.295215 kJ/mol
# Density = 2.012869 g / cm^3
# Si number density = 20.174606 Si / 1000 Ang^3
#
#
#
# Elastic Constant Matrix: (Units=GPa)
#
#
# Indices 1 2 3 4 5 6 
#
# 1 71.1147 11.1128 30.1437 0.0000 17.1693 0.0000
# 2 11.1128 113.7291 2.7511 0.0000 14.4035 0.0001
# 3 30.1437 2.7511 79.7445 -0.0001 -4.0865 0.0001
# 4 0.0000 0.0000 -0.0001 7.2888 0.0001 -5.1148
# 5 17.1693 14.4035 -4.0865 0.0001 36.6060 -0.0001
# 6 0.0000 0.0001 0.0001 -5.1148 -0.0001 -4.8844
#
#
#
# Elastic Compliance Matrix: (Units=1/GPa)
#
#
# Indices 1 2 3 4 5 6 
#
# 1 0.019986 -0.000481 -0.008055 0.000000 -0.010084 0.000000
# 2 -0.000481 0.009286 -0.000316 0.000000 -0.003464 0.000000
# 3 -0.008055 -0.000316 0.015887 0.000000 0.005676 0.000000
# 4 0.000000 0.000000 0.000000 0.079084 0.000000 -0.082813
# 5 -0.010084 -0.003464 0.005676 0.000000 0.034044 0.000000
# 6 0.000000 0.000000 0.000000 -0.082813 0.000000 -0.118013
#
#
# Mechanical properties :
#
#
# Convention : Reuss Voigt Hill
#
# Bulk Modulus (GPa) = 36.42354 39.17817 37.80085
# Shear Modulus (GPa) = 74.48431 22.50746 48.49588
#
# Velocity S-wave (km/s) = 6.08276 3.34373 4.90818
# Velocity P-wave (km/s) = 8.21137 5.86252 7.13427
#
# Compressibility (1/GPa) = 0.02745477
#
# Stress axis : x y z
#
# Youngs Moduli (GPa) = 50.03573 107.68767 62.94635
#
# Poissons Ratio (x) = 0.05179 0.50702
# Poissons Ratio (y) = 0.02406 0.01989
# Poissons Ratio (z) = 0.40303 0.03404
#
# Static dielectric constant tensor:
#      x y z
#    x 1.698930 0.000000 -0.026290 
#    y 0.000000 1.738790 0.000000 
#    z -0.026290 0.000000 1.756920 
# 
# From -- ./inp_files/284479.got.cif
#   From: 2010.05.17/outbox.cif.g08.bks.cpg/sg12_143_cif.got.tgz:284479.got - 2010.06.03 13:09:07.
