data_PCOD9170523
_publ_section_title
;
Structure prediction by ZEFSAII (Michael W. Deem and Ramdas Pophale) SiO2 
 PCOD9170523
Probable space group: C 2/M
;
_chemical_formula_sum "Si O2"
_cell_formula_units_Z 28
_cell_length_a 12.664878
_cell_length_b 10.706229
_cell_length_c 10.189353
_cell_angle_alpha 90.000000
_cell_angle_beta 118.818453
_cell_angle_gamma 90.000000
_cell_volume 1210.495963
_symmetry_space_group_name_H-M "C 2/M"
_symmetry_group_IT_number 12
_symmetry_cell_setting 'monoclinic'
loop_
_space_group_symop_operation_xyz
x,y,z
-x,y,-z
-x,-y,-z
x,-y,z
1/2+x,1/2+y,z
1/2-x,1/2+y,-z
1/2-x,1/2-y,-z
1/2+x,1/2-y,z
loop_
_atom_site_type_symbol
_atom_site_label
_atom_site_fract_x
_atom_site_fract_y
_atom_site_fract_z
Si Si1 0.120483 0.354585 0.440685
Si Si2 0.162926 0.000000 0.405830
Si Si3 0.876897 0.728827 0.256511
Si Si4 0.288243 0.500000 0.878106
Si Si5 0.608251 0.500000 0.793689
O O1 0.075271 0.500000 0.412955
O O2 0.261595 0.381523 0.493853
O O3 0.120082 0.307357 0.589080
O O4 0.018328 0.282373 0.297382
O O5 0.177508 0.000000 0.255667
O O6 0.023581 0.000000 0.351125
O O7 0.792399 0.623295 0.144671
O O8 0.833080 0.869572 0.212246
O O9 0.393048 0.500000 0.048705
#
# Coordination Sequence:
#
# PCOD9170523 Si02
#       5
#     8   4   8   4   4
#     4   8  15  34  58  63  88 141 165 174 233 321
#     4   8  18  34  50  70  94 134 163 186 241 297
#     4  10  17  32  53  74  91 127 170 199 229 280
#     4  10  18  38  52  59  98 150 162 168 238 325
#     4  12  23  25  46  89 104 104 159 230 238 244
#
# _framework density 23.131015999999999
#
# number of rings (size 3 to 8) (size 9 to 14) (size 15 to 20)
#    0.857    1.714    2.857    2.143    0.000    3.429 
#    0.000    0.000    0.000    6.857    0.000   18.000 
#    0.000    0.000    0.000    0.000    0.000    0.000 
#
# Total GULP energy -78010.021361 kJ/mol
# GULP energy per Si atom -5572.144383 kJ/mol
# Density = 2.307837 g / cm^3
# Si number density = 23.131016 Si / 1000 Ang^3
#
#
#
# Elastic Constant Matrix: (Units=GPa)
#
#
# Indices 1 2 3 4 5 6 
#
# 1 35.7153 4.9373 15.7921 0.0000 12.5788 0.0000
# 2 4.9373 174.7209 25.8993 0.0000 1.8797 0.0000
# 3 15.7921 25.8993 67.7083 0.0000 10.8487 0.0000
# 4 0.0000 0.0000 0.0000 4.4908 0.0000 -10.7761
# 5 12.5788 1.8797 10.8487 0.0000 29.4515 0.0000
# 6 0.0000 0.0000 0.0000 -10.7761 0.0000 15.0836
#
#
#
# Elastic Compliance Matrix: (Units=1/GPa)
#
#
# Indices 1 2 3 4 5 6 
#
# 1 0.035226 0.000060 -0.006193 0.000000 -0.012768 0.000000
# 2 0.000060 0.006074 -0.002414 0.000000 0.000476 0.000000
# 3 -0.006193 -0.002414 0.017735 0.000000 -0.003734 0.000000
# 4 0.000000 0.000000 0.000000 -0.311726 0.000000 -0.222705
# 5 -0.012768 0.000476 -0.003734 0.000000 0.040752 0.000000
# 6 0.000000 0.000000 0.000000 -0.222705 0.000000 -0.092809
#
#
# Mechanical properties :
#
#
# Convention : Reuss Voigt Hill
#
# Bulk Modulus (GPa) = 23.84262 41.26688 32.55475
# Shear Modulus (GPa) = -18.26997 25.23958 3.48480
#
# Velocity S-wave (km/s) = -2.81347 3.30685 1.22875
# Velocity P-wave (km/s) = 0.47344 5.69733 4.01469
#
# Compressibility (1/GPa) = 0.04194170
#
# Stress axis : x y z
#
# Youngs Moduli (GPa) = 28.38799 164.62543 56.38483
#
# Poissons Ratio (x) = -0.00987 0.34921
# Poissons Ratio (y) = -0.00170 0.13610
# Poissons Ratio (z) = 0.17581 0.39737
#
# Static dielectric constant tensor:
#      x y z
#    x 1.958400 0.000000 0.103610 
#    y 0.000000 1.986360 0.000000 
#    z 0.103610 0.000000 1.843310 
# 
# From -- ./inp_files/211071.got.cif
#   From: 2010.05.17/outbox.cif.g08.bks.cpg/sg12_106_cif.got.tgz:211071.got - 2010.06.03 13:09:07.
