data_PCOD9170089
_publ_section_title
;
Structure prediction by ZEFSAII (Michael W. Deem and Ramdas Pophale) SiO2 
 PCOD9170089
Probable space group: C 2/M
;
_chemical_formula_sum "Si O2"
_cell_formula_units_Z 56
_cell_length_a 16.462282
_cell_length_b 22.424876
_cell_length_c 6.981187
_cell_angle_alpha 90.000000
_cell_angle_beta 60.200531
_cell_angle_gamma 90.000000
_cell_volume 2236.423360
_symmetry_space_group_name_H-M "C 2/M"
_symmetry_group_IT_number 12
_symmetry_cell_setting 'monoclinic'
loop_
_space_group_symop_operation_xyz
x,y,z
-x,y,-z
-x,-y,-z
x,-y,z
1/2+x,1/2+y,z
1/2-x,1/2+y,-z
1/2-x,1/2-y,-z
1/2+x,1/2-y,z
loop_
_atom_site_type_symbol
_atom_site_label
_atom_site_fract_x
_atom_site_fract_y
_atom_site_fract_z
Si Si1 0.141014 0.739111 0.658183
Si Si2 0.625105 0.892625 0.678241
Si Si3 0.015074 0.844454 0.750401
Si Si4 0.571640 0.066116 0.140686
Si Si5 0.174313 0.203045 0.000459
Si Si6 0.761075 0.070148 0.088282
Si Si7 0.826851 0.067994 0.565642
O O1 0.250000 0.750000 0.500000
O O2 0.117322 0.674227 0.616590
O O3 0.080578 0.788680 0.632131
O O4 0.127181 0.754183 0.897287
O O5 0.537949 0.928456 0.692948
O O6 0.732966 0.913821 0.555271
O O7 0.599847 0.890395 0.935700
O O8 0.077914 0.898309 0.599930
O O9 0.914816 0.824797 0.784722
O O10 0.000000 0.854767 0.000000
O O11 0.589304 0.000000 0.037055
O O12 0.648226 0.072306 0.214929
O O13 0.213014 0.138581 0.873996
O O14 0.250000 0.250000 0.000000
O O15 0.797524 0.072047 0.823925
O O16 0.785891 0.000000 0.122529
O O17 0.844461 0.000000 0.501795
#
# Coordination Sequence:
#
# PCOD9170089 Si02
#       7
#     8   8   8   8   8   8   8
#     4  11  23  41  60  85 125 160 199 255 315 366
#     4  10  17  29  58  84 121 156 198 250 309 362
#     4  10  24  40  58  86 123 163 204 260 317 375
#     4   9  17  29  55  93 121 151 196 247 307 377
#     4  11  24  40  64  91 121 163 214 256 314 378
#     4   9  20  38  61  91 129 166 207 259 318 375
#     4  10  19  36  60  89 121 160 208 260 306 371
#
# _framework density 25.039982999999999
#
# number of rings (size 3 to 8) (size 9 to 14) (size 15 to 20)
#    0.000    2.000    1.429    4.286    8.000    1.429 
#    0.000    3.571    0.000    0.000    0.000    2.000 
#    0.000    0.000    0.000    0.000    0.000    0.000 
#
# Total GULP energy -156024.321182 kJ/mol
# GULP energy per Si atom -5572.297185 kJ/mol
# Density = 2.498299 g / cm^3
# Si number density = 25.039983 Si / 1000 Ang^3
#
#
#
# Elastic Constant Matrix: (Units=GPa)
#
#
# Indices 1 2 3 4 5 6 
#
# 1 95.0463 42.8321 29.6889 0.0000 -32.4816 0.0000
# 2 42.8321 192.4305 34.1534 0.0000 -22.5178 0.0000
# 3 29.6889 34.1534 114.5581 0.0000 -27.9271 0.0000
# 4 0.0000 0.0000 0.0000 33.0295 0.0000 -15.2140
# 5 -32.4816 -22.5178 -27.9271 0.0000 34.1137 0.0000
# 6 0.0000 0.0000 0.0000 -15.2140 0.0000 36.5293
#
#
#
# Elastic Compliance Matrix: (Units=1/GPa)
#
#
# Indices 1 2 3 4 5 6 
#
# 1 0.016253 -0.001939 -0.000217 0.000000 0.014019 0.000000
# 2 -0.001939 0.005950 -0.000954 0.000000 0.001300 0.000000
# 3 -0.000217 -0.000954 0.011077 0.000000 0.008231 0.000000
# 4 0.000000 0.000000 0.000000 0.037463 0.000000 0.015603
# 5 0.014019 0.001300 0.008231 0.000000 0.050258 0.000000
# 6 0.000000 0.000000 0.000000 0.015603 0.000000 0.033874
#
#
# Mechanical properties :
#
#
# Convention : Reuss Voigt Hill
#
# Bulk Modulus (GPa) = 36.95548 68.37597 52.66573
# Shear Modulus (GPa) = 29.39195 40.42520 34.90858
#
# Velocity S-wave (km/s) = 3.42979 4.02235 3.73783
# Velocity P-wave (km/s) = 5.52044 6.99560 6.30134
#
# Compressibility (1/GPa) = 0.02705958
#
# Stress axis : x y z
#
# Youngs Moduli (GPa) = 61.52565 168.07432 90.28055
#
# Poissons Ratio (x) = 0.32587 0.01957
# Poissons Ratio (y) = 0.11929 0.08617
# Poissons Ratio (z) = 0.01334 0.16042
#
# Static dielectric constant tensor:
#      x y z
#    x 1.938650 0.000000 -0.048880 
#    y 0.000000 1.984280 0.000000 
#    z -0.048880 0.000000 2.007640 
# 
# From -- ./inp_files/77344.got.cif
#   From: 2010.05.17/outbox.cif.g08.bks.cpg/sg12_39_cif.got.tgz:77344.got - 2010.06.03 13:09:07.
