data_PCOD9170643
_publ_section_title
;
Structure prediction by ZEFSAII (Michael W. Deem and Ramdas Pophale) SiO2 
 PCOD9170643
Probable space group: C 2/M
;
_chemical_formula_sum "Si O2"
_cell_formula_units_Z 64
_cell_length_a 12.746561
_cell_length_b 22.074035
_cell_length_c 27.008755
_cell_angle_alpha 90.000000
_cell_angle_beta 152.177456
_cell_angle_gamma 90.000000
_cell_volume 3546.903491
_symmetry_space_group_name_H-M "C 2/M"
_symmetry_group_IT_number 12
_symmetry_cell_setting 'monoclinic'
loop_
_space_group_symop_operation_xyz
x,y,z
-x,y,-z
-x,-y,-z
x,-y,z
1/2+x,1/2+y,z
1/2-x,1/2+y,-z
1/2-x,1/2-y,-z
1/2+x,1/2-y,z
loop_
_atom_site_type_symbol
_atom_site_label
_atom_site_fract_x
_atom_site_fract_y
_atom_site_fract_z
Si Si1 0.225027 0.932230 0.572035
Si Si2 0.164403 0.698699 0.133666
Si Si3 0.312481 0.665486 0.832211
Si Si4 0.115772 0.429917 0.817610
Si Si5 0.905622 0.332446 0.590902
Si Si6 0.839509 0.191979 0.104783
Si Si7 0.428846 0.180771 0.797249
Si Si8 0.543903 0.260077 0.575590
O O1 0.405368 0.933318 0.691553
O O2 0.333092 0.901111 0.569346
O O3 0.000000 0.901206 0.500000
O O4 0.161259 0.000000 0.531408
O O5 0.142540 0.771732 0.121143
O O6 0.335899 0.679130 0.162231
O O7 0.211550 0.680126 0.209953
O O8 0.911984 0.676584 0.017273
O O9 0.301097 0.607677 0.863280
O O10 0.484750 0.659742 0.858381
O O11 0.068336 0.677918 0.705742
O O12 0.171491 0.500000 0.854062
O O13 0.040520 0.382992 0.829287
O O14 0.670705 0.297668 0.495317
O O15 0.039004 0.304972 0.600699
O O16 0.895611 0.263836 0.122038
O O17 0.265273 0.204148 0.685262
O O18 0.500000 0.252185 0.500000
#
# Coordination Sequence:
#
# PCOD9170643 Si02
#       8
#     8   8   8   8   8   8   8   8
#     4   9  17  31  49  68  96 139 184 215 241 295
#     4  10  20  34  54  77  98 132 177 220 266 312
#     4  10  17  33  51  72 107 135 169 211 266 311
#     4  10  20  31  51  79 107 138 173 214 261 315
#     4  10  19  29  44  72 102 133 169 207 252 306
#     4  10  20  33  55  77  97 133 175 222 264 317
#     4  11  19  34  52  74 109 143 172 215 263 311
#     4  11  21  29  45  73 109 143 166 205 260 317
#
# _framework density 18.043908999999999
#
# number of rings (size 3 to 8) (size 9 to 14) (size 15 to 20)
#    0.000    1.875    3.750    4.125    0.000    0.000 
#    0.000    0.000    0.000    7.125    0.000    1.750 
#    0.000    0.000    0.000    0.000    0.000    0.000 
#
# Total GULP energy -178175.993496 kJ/mol
# GULP energy per Si atom -5567.999797 kJ/mol
# Density = 1.800284 g / cm^3
# Si number density = 18.043909 Si / 1000 Ang^3
#
#
#
# Elastic Constant Matrix: (Units=GPa)
#
#
# Indices 1 2 3 4 5 6 
#
# 1 108.5156 45.2316 -6.2227 -0.0007 -0.5664 -0.0004
# 2 45.2316 96.3376 -1.9638 -0.0010 2.0130 -0.0006
# 3 -6.2227 -1.9638 27.0313 0.0012 6.4495 -0.0019
# 4 -0.0007 -0.0010 0.0012 1.5646 -0.0010 2.5661
# 5 -0.5664 2.0130 6.4495 -0.0010 27.5565 0.0000
# 6 -0.0004 -0.0006 -0.0019 2.5661 0.0000 24.6017
#
#
#
# Elastic Compliance Matrix: (Units=1/GPa)
#
#
# Indices 1 2 3 4 5 6 
#
# 1 0.011596 -0.005401 0.002252 -0.000001 0.000106 0.000000
# 2 -0.005401 0.012937 -0.000055 0.000006 -0.001043 0.000000
# 3 0.002252 -0.000055 0.039714 -0.000048 -0.009245 0.000008
# 4 -0.000001 0.000006 -0.000048 0.771028 0.000038 -0.080422
# 5 0.000106 -0.001043 -0.009245 0.000038 0.038531 -0.000005
# 6 0.000000 0.000000 0.000008 -0.080422 -0.000005 0.049036
#
#
# Mechanical properties :
#
#
# Convention : Reuss Voigt Hill
#
# Bulk Modulus (GPa) = 17.28905 33.99717 25.64311
# Shear Modulus (GPa) = 5.27132 23.73387 14.50259
#
# Velocity S-wave (km/s) = 1.71106 3.63070 2.83810
# Velocity P-wave (km/s) = 3.67506 6.03806 4.99821
#
# Compressibility (1/GPa) = 0.05784008
#
# Stress axis : x y z
#
# Youngs Moduli (GPa) = 86.23571 77.30013 25.17981
#
# Poissons Ratio (x) = 0.41748 -0.05670
# Poissons Ratio (y) = 0.46574 0.00137
# Poissons Ratio (z) = -0.19419 0.00422
#
# Static dielectric constant tensor:
#      x y z
#    x 1.688380 0.000000 0.022500 
#    y 0.000000 1.637710 0.000000 
#    z 0.022500 0.000000 1.672970 
# 
# From -- ./inp_files/359148.got.cif
#   From: 2010.05.17/outbox.cif.g08.bks.cpg/sg12_180_cif.got.tgz:359148.got - 2010.06.03 13:09:07.
