data_PCOD9170373
_publ_section_title
;
Structure prediction by ZEFSAII (Michael W. Deem and Ramdas Pophale) SiO2 
 PCOD9170373
Probable space group: C 2/M
;
_chemical_formula_sum "Si O2"
_cell_formula_units_Z 60
_cell_length_a 16.504558
_cell_length_b 25.380345
_cell_length_c 9.585415
_cell_angle_alpha 90.000000
_cell_angle_beta 111.710684
_cell_angle_gamma 90.000000
_cell_volume 3730.420498
_symmetry_space_group_name_H-M "C 2/M"
_symmetry_group_IT_number 12
_symmetry_cell_setting 'monoclinic'
loop_
_space_group_symop_operation_xyz
x,y,z
-x,y,-z
-x,-y,-z
x,-y,z
1/2+x,1/2+y,z
1/2-x,1/2+y,-z
1/2-x,1/2-y,-z
1/2+x,1/2-y,z
loop_
_atom_site_type_symbol
_atom_site_label
_atom_site_fract_x
_atom_site_fract_y
_atom_site_fract_z
Si Si1 0.877371 0.105215 0.005109
Si Si2 0.000000 0.213479 0.500000
Si Si3 0.314308 0.301182 0.771216
Si Si4 0.602160 0.798481 0.064504
Si Si5 0.767248 0.862667 0.179003
Si Si6 0.145854 0.135946 0.473402
Si Si7 0.356166 0.248128 0.210827
Si Si8 0.553587 0.440043 0.218323
O O1 0.862282 0.159316 0.909831
O O2 0.887954 0.063899 0.884980
O O3 0.802837 0.101233 0.075472
O O4 0.970329 0.098298 0.141390
O O5 0.932506 0.174779 0.533196
O O6 0.943318 0.247780 0.357248
O O7 0.368342 0.246338 0.804851
O O8 0.307269 0.330901 0.619389
O O9 0.218616 0.287179 0.766558
O O10 0.665299 0.848808 0.116974
O O11 0.500000 0.809598 0.000000
O O12 0.624990 0.772373 0.930449
O O13 0.799377 0.877169 0.353983
O O14 0.815514 0.806679 0.179884
O O15 0.107509 0.083542 0.379727
O O16 0.524920 0.500000 0.220269
#
# Coordination Sequence:
#
# PCOD9170373 Si02
#       8
#     8   4   8   8   8   8   8   8
#     4  10  17  31  52  66  96 133 157 201 239 296
#     4  10  20  30  45  70 102 134 177 196 244 278
#     4  10  19  30  47  66  92 139 178 197 245 274
#     4  11  20  28  48  70  99 132 178 216 231 269
#     4  10  19  34  45  68 100 133 174 200 245 284
#     4  10  21  32  49  67  99 140 161 201 249 305
#     4  10  18  31  44  67  99 131 176 221 219 282
#     4  10  21  34  51  79  99 119 161 210 245 304
#
# _framework density 16.083977999999998
#
# number of rings (size 3 to 8) (size 9 to 14) (size 15 to 20)
#    0.000    1.867    2.667    4.000    3.733    5.867 
#    0.000    3.667    0.000    0.000    0.000    0.000 
#    0.000    5.867    0.267    0.067    0.000    0.000 
#
# Total GULP energy -167206.569967 kJ/mol
# GULP energy per Si atom -5573.552332 kJ/mol
# Density = 1.604737 g / cm^3
# Si number density = 16.083978 Si / 1000 Ang^3
#
#
#
# Elastic Constant Matrix: (Units=GPa)
#
#
# Indices 1 2 3 4 5 6 
#
# 1 63.5819 4.3217 18.6049 0.0000 10.4672 0.0000
# 2 4.3217 23.2711 7.1710 0.0000 4.2295 0.0000
# 3 18.6049 7.1710 75.3142 0.0000 4.5065 0.0000
# 4 0.0000 0.0000 0.0000 1.8760 0.0000 -3.2338
# 5 10.4672 4.2295 4.5065 0.0000 26.1838 0.0000
# 6 0.0000 0.0000 0.0000 -3.2338 0.0000 10.1866
#
#
#
# Elastic Compliance Matrix: (Units=1/GPa)
#
#
# Indices 1 2 3 4 5 6 
#
# 1 0.018003 -0.000963 -0.003975 0.000000 -0.006357 0.000000
# 2 -0.000963 0.045442 -0.003711 0.000000 -0.006317 0.000000
# 3 -0.003975 -0.003711 0.014633 0.000000 -0.000330 0.000000
# 4 0.000000 0.000000 0.000000 1.177360 0.000000 0.373761
# 5 -0.006357 -0.006317 -0.000330 0.000000 0.041810 0.000000
# 6 0.000000 0.000000 0.000000 0.373761 0.000000 0.216821
#
#
# Mechanical properties :
#
#
# Convention : Reuss Voigt Hill
#
# Bulk Modulus (GPa) = 16.45285 24.70693 20.57989
# Shear Modulus (GPa) = 3.22242 16.45391 9.83817
#
# Velocity S-wave (km/s) = 1.41699 3.20191 2.47589
# Velocity P-wave (km/s) = 3.59565 5.39112 4.58219
#
# Compressibility (1/GPa) = 0.06077975
#
# Stress axis : x y z
#
# Youngs Moduli (GPa) = 55.54645 22.00599 68.33973
#
# Poissons Ratio (x) = 0.02119 0.27166
# Poissons Ratio (y) = 0.05349 0.25360
# Poissons Ratio (z) = 0.22081 0.08166
#
# Static dielectric constant tensor:
#      x y z
#    x 1.551810 0.000000 -0.012550 
#    y 0.000000 1.534390 0.000000 
#    z -0.012550 0.000000 1.582350 
# 
# From -- ./inp_files/66549.got.cif
#   From: 2010.05.17/outbox.cif.g08.bks.cpg/sg12_34_cif.got.tgz:66549.got - 2010.06.03 13:09:07.
