data_PCOD9170113
_publ_section_title
;
Structure prediction by ZEFSAII (Michael W. Deem and Ramdas Pophale) SiO2 
 PCOD9170113
Probable space group: C 2/M
;
_chemical_formula_sum "Si O2"
_cell_formula_units_Z 64
_cell_length_a 9.106894
_cell_length_b 22.040902
_cell_length_c 17.223717
_cell_angle_alpha 90.000000
_cell_angle_beta 91.267966
_cell_angle_gamma 90.000000
_cell_volume 3456.369553
_symmetry_space_group_name_H-M "C 2/M"
_symmetry_group_IT_number 12
_symmetry_cell_setting 'monoclinic'
loop_
_space_group_symop_operation_xyz
x,y,z
-x,y,-z
-x,-y,-z
x,-y,z
1/2+x,1/2+y,z
1/2-x,1/2+y,-z
1/2-x,1/2-y,-z
1/2+x,1/2-y,z
loop_
_atom_site_type_symbol
_atom_site_label
_atom_site_fract_x
_atom_site_fract_y
_atom_site_fract_z
Si Si1 0.790651 0.746004 0.091160
Si Si2 0.910193 0.430241 0.579460
Si Si3 0.167143 0.154225 0.637440
Si Si4 0.623089 0.769122 0.555987
Si Si5 0.064926 0.135542 0.248086
Si Si6 0.121696 0.638523 0.694444
Si Si7 0.047480 0.162659 0.086243
Si Si8 0.616783 0.780830 0.237245
O O1 0.954121 0.773888 0.094758
O O2 0.719746 0.679131 0.101539
O O3 0.706959 0.784108 0.157570
O O4 0.750000 0.750000 0.000000
O O5 0.865613 0.500000 0.588630
O O6 0.768021 0.386869 0.583759
O O7 0.000000 0.426306 0.500000
O O8 0.015368 0.409620 0.651864
O O9 0.073659 0.205159 0.591819
O O10 0.278722 0.192647 0.693780
O O11 0.057072 0.117773 0.691069
O O12 0.500000 0.796735 0.500000
O O13 0.750000 0.750000 0.500000
O O14 0.659880 0.814700 0.625124
O O15 0.227240 0.112920 0.270457
O O16 0.079414 0.210003 0.250898
O O17 0.012266 0.121803 0.160000
O O18 0.030569 0.678849 0.756189
O O19 0.000000 0.140891 0.000000
#
# Coordination Sequence:
#
# PCOD9170113 Si02
#       8
#     8   8   8   8   8   8   8   8
#     4   9  17  27  40  62  98 151 190 209 239 304
#     4  10  23  44  61  74 101 142 186 226 271 330
#     4  11  20  33  54  77 105 140 177 218 271 323
#     4  12  21  31  46  73 109 132 166 213 261 328
#     4  11  18  30  49  77 112 138 171 221 263 312
#     4  11  21  33  53  81 105 146 179 218 278 320
#     4   9  18  28  41  64 103 153 184 209 243 309
#     4  10  17  30  46  70 111 148 176 205 263 319
#
# _framework density 18.516538000000001
#
# number of rings (size 3 to 8) (size 9 to 14) (size 15 to 20)
#    0.000    1.625    3.750    3.375    5.250    0.000 
#    0.000    0.625    0.000    1.875    0.000    0.000 
#    0.000    3.000    0.000    0.000    0.000    0.000 
#
# Total GULP energy -178156.762080 kJ/mol
# GULP energy per Si atom -5567.398815 kJ/mol
# Density = 1.847439 g / cm^3
# Si number density = 18.516538 Si / 1000 Ang^3
#
#
#
# Elastic Constant Matrix: (Units=GPa)
#
#
# Indices 1 2 3 4 5 6 
#
# 1 56.1992 -4.3393 11.1959 0.0000 2.3212 0.0000
# 2 -4.3393 37.7635 10.8781 0.0000 -0.3792 0.0000
# 3 11.1959 10.8781 94.6427 0.0000 -12.0260 0.0000
# 4 0.0000 0.0000 0.0000 10.4270 0.0000 -0.5359
# 5 2.3212 -0.3792 -12.0260 0.0000 39.3275 0.0000
# 6 0.0000 0.0000 0.0000 -0.5359 0.0000 10.7285
#
#
#
# Elastic Compliance Matrix: (Units=1/GPa)
#
#
# Indices 1 2 3 4 5 6 
#
# 1 0.018655 0.002927 -0.002788 0.000000 -0.001925 0.000000
# 2 0.002927 0.027867 -0.003680 0.000000 -0.001029 0.000000
# 3 -0.002788 -0.003680 0.011793 0.000000 0.003735 0.000000
# 4 0.000000 0.000000 0.000000 0.096151 0.000000 0.004803
# 5 -0.001925 -0.001029 0.003735 0.000000 0.026673 0.000000
# 6 0.000000 0.000000 0.000000 0.004803 0.000000 0.093450
#
#
# Mechanical properties :
#
#
# Convention : Reuss Voigt Hill
#
# Bulk Modulus (GPa) = 19.51842 24.89720 22.20781
# Shear Modulus (GPa) = 16.73646 23.48797 20.11222
#
# Velocity S-wave (km/s) = 3.00970 3.56545 3.29929
# Velocity P-wave (km/s) = 4.75833 5.51588 5.15105
#
# Compressibility (1/GPa) = 0.05123367
#
# Stress axis : x y z
#
# Youngs Moduli (GPa) = 53.60550 35.88518 84.79263
#
# Poissons Ratio (x) = -0.10505 0.23639
# Poissons Ratio (y) = -0.15692 0.31204
# Poissons Ratio (z) = 0.14945 0.13206
#
# Static dielectric constant tensor:
#      x y z
#    x 1.719970 0.000000 -0.020410 
#    y 0.000000 1.623060 0.000000 
#    z -0.020410 0.000000 1.729310 
# 
# From -- ./inp_files/258937.got.cif
#   From: 2010.05.17/outbox.cif.g08.bks.cpg/sg12_130_cif.got.tgz:258937.got - 2010.06.03 13:09:07.
