data_PCOD9170853
_publ_section_title
;
Structure prediction by ZEFSAII (Michael W. Deem and Ramdas Pophale) SiO2 
 PCOD9170853
Probable space group: C 2/M
;
_chemical_formula_sum "Si O2"
_cell_formula_units_Z 64
_cell_length_a 12.783214
_cell_length_b 29.605089
_cell_length_c 14.906730
_cell_angle_alpha 90.000000
_cell_angle_beta 33.148313
_cell_angle_gamma 90.000000
_cell_volume 3084.777139
_symmetry_space_group_name_H-M "C 2/M"
_symmetry_group_IT_number 12
_symmetry_cell_setting 'monoclinic'
loop_
_space_group_symop_operation_xyz
x,y,z
-x,y,-z
-x,-y,-z
x,-y,z
1/2+x,1/2+y,z
1/2-x,1/2+y,-z
1/2-x,1/2-y,-z
1/2+x,1/2-y,z
loop_
_atom_site_type_symbol
_atom_site_label
_atom_site_fract_x
_atom_site_fract_y
_atom_site_fract_z
Si Si1 0.027752 0.101747 0.077127
Si Si2 0.985466 0.178144 0.322489
Si Si3 0.721612 0.248110 0.832019
Si Si4 0.721709 0.819344 0.056831
Si Si5 0.262085 0.051421 0.053345
Si Si6 0.923979 0.909201 0.640940
Si Si7 0.549969 0.867234 0.859917
Si Si8 0.776467 0.675600 0.644528
O O1 0.846097 0.131066 0.240795
O O2 0.100617 0.066941 0.098876
O O3 0.000000 0.080392 0.000000
O O4 0.196279 0.139325 0.943466
O O5 0.101477 0.212904 0.303171
O O6 0.963568 0.128535 0.381559
O O7 0.790532 0.189119 0.408514
O O8 0.141109 0.176957 0.128825
O O9 0.763943 0.275395 0.893765
O O10 0.721234 0.283595 0.750854
O O11 0.500000 0.232331 0.000000
O O12 0.516152 0.829510 0.162263
O O13 0.178737 0.059545 0.212611
O O14 0.320528 0.000000 0.998722
O O15 0.432870 0.087362 0.920122
O O16 0.770068 0.877431 0.701580
O O17 0.000000 0.935568 0.500000
O O18 0.500000 0.858701 0.000000
O O19 0.000000 0.667682 0.500000
#
# Coordination Sequence:
#
# PCOD9170853 Si02
#       8
#     8   8   8   8   8   8   8   8
#     4  10  17  39  65  87 116 149 202 243 299 362
#     4  11  23  38  56  87 119 151 207 253 292 348
#     4  12  23  34  62  88 113 156 209 251 296 350
#     4  10  17  35  57  86 109 149 202 253 291 339
#     4  10  21  39  65  92 121 149 192 255 298 355
#     4  11  23  39  59  85 123 167 197 235 302 360
#     4   9  18  34  59  84 113 151 194 242 297 348
#     4  11  23  40  58  81 118 164 195 241 304 350
#
# _framework density 20.747042
#
# number of rings (size 3 to 8) (size 9 to 14) (size 15 to 20)
#    0.000    1.500    8.750    0.375    1.750    4.750 
#    0.000    0.000    0.000    0.375    0.000    0.000 
#    0.000    0.000    0.000    0.000    0.000    0.000 
#
# Total GULP energy -178406.829994 kJ/mol
# GULP energy per Si atom -5575.213437 kJ/mol
# Density = 2.069982 g / cm^3
# Si number density = 20.747042 Si / 1000 Ang^3
#
#
#
# Elastic Constant Matrix: (Units=GPa)
#
#
# Indices 1 2 3 4 5 6 
#
# 1 124.0238 35.1356 21.0476 -0.0001 -20.7731 0.0001
# 2 35.1356 87.6698 -0.5867 0.0000 2.0561 0.0000
# 3 21.0476 -0.5867 16.2106 -0.0001 -1.2516 0.0001
# 4 -0.0001 0.0000 -0.0001 -62.2860 0.0001 27.0061
# 5 -20.7731 2.0561 -1.2516 0.0001 34.8602 -0.0001
# 6 0.0001 0.0000 0.0001 27.0061 -0.0001 4.6709
#
#
#
# Elastic Compliance Matrix: (Units=1/GPa)
#
#
# Indices 1 2 3 4 5 6 
#
# 1 0.014183 -0.005996 -0.018003 0.000000 0.008159 0.000000
# 2 -0.005996 0.013959 0.007973 0.000000 -0.004110 0.000000
# 3 -0.018003 0.007973 0.084721 0.000000 -0.008156 0.000000
# 4 0.000000 0.000000 0.000000 -0.004578 0.000000 0.026470
# 5 0.008159 -0.004110 -0.008156 0.000000 0.033498 0.000000
# 6 0.000000 0.000000 0.000000 0.026470 0.000000 0.061049
#
#
# Mechanical properties :
#
#
# Convention : Reuss Voigt Hill
#
# Bulk Modulus (GPa) = 12.37426 37.67746 25.02586
# Shear Modulus (GPa) = 19.09697 6.93619 13.01658
#
# Velocity S-wave (km/s) = 3.03721 1.83043 2.50750
# Velocity P-wave (km/s) = 4.27514 4.76100 4.52460
#
# Compressibility (1/GPa) = 0.08081293
#
# Stress axis : x y z
#
# Youngs Moduli (GPa) = 70.50479 71.63695 11.80339
#
# Poissons Ratio (x) = 0.42955 0.21249
# Poissons Ratio (y) = 0.42276 -0.09411
# Poissons Ratio (z) = 1.26927 -0.57118
#
# Static dielectric constant tensor:
#      x y z
#    x 1.819450 0.000000 0.026330 
#    y 0.000000 1.760360 0.000000 
#    z 0.026330 0.000000 1.920610 
# 
# From -- ./inp_files/209859.got.cif
#   From: 2010.05.17/outbox.cif.g08.bks.cpg/sg12_105_cif.got.tgz:209859.got - 2010.06.03 13:09:07.
