data_PCOD9170208
_publ_section_title
;
Structure prediction by ZEFSAII (Michael W. Deem and Ramdas Pophale) SiO2 
 PCOD9170208
Probable space group: C 2/M
;
_chemical_formula_sum "Si O2"
_cell_formula_units_Z 42
_cell_length_a 18.494251
_cell_length_b 7.680669
_cell_length_c 16.372855
_cell_angle_alpha 90.000000
_cell_angle_beta 52.636841
_cell_angle_gamma 90.000000
_cell_volume 1848.505732
_symmetry_space_group_name_H-M "C 2/M"
_symmetry_group_IT_number 12
_symmetry_cell_setting 'monoclinic'
loop_
_space_group_symop_operation_xyz
x,y,z
-x,y,-z
-x,-y,-z
x,-y,z
1/2+x,1/2+y,z
1/2-x,1/2+y,-z
1/2-x,1/2-y,-z
1/2+x,1/2-y,z
loop_
_atom_site_type_symbol
_atom_site_label
_atom_site_fract_x
_atom_site_fract_y
_atom_site_fract_z
Si Si1 0.189211 0.292594 0.463927
Si Si2 0.000000 0.000000 0.500000
Si Si3 0.981613 0.298123 0.627192
Si Si4 0.167483 0.209888 0.761941
Si Si5 0.593233 0.793843 0.977725
Si Si6 0.477804 0.297398 0.809557
O O1 0.181835 0.500000 0.459735
O O2 0.250000 0.250000 0.500000
O O3 0.087662 0.234313 0.553972
O O4 0.246338 0.225353 0.347856
O O5 0.054999 0.844448 0.410051
O O6 0.971356 0.500000 0.608121
O O7 0.951981 0.287729 0.741633
O O8 0.166963 0.257194 0.857663
O O9 0.073866 0.272579 0.781460
O O10 0.165434 0.000000 0.758952
O O11 0.584403 0.000000 0.992584
O O12 0.500000 0.722656 0.000000
O O13 0.595092 0.720476 0.067521
O O14 0.491842 0.500000 0.782128
#
# Coordination Sequence:
#
# PCOD9170208 Si02
#       6
#     8   2   8   8   8   8
#     4  10  20  32  53  82 117 150 182 226 285 345
#     4  12  26  44  60  78 114 152 200 242 284 328
#     4  11  23  39  59  85 113 149 195 240 281 339
#     4   9  17  29  46  74 114 152 181 218 275 347
#     4   9  17  27  41  69 109 149 185 222 268 331
#     4  10  17  30  51  76 110 150 185 225 278 336
#
# _framework density 22.721056000000001
#
# number of rings (size 3 to 8) (size 9 to 14) (size 15 to 20)
#    0.000    2.095    2.857    1.429    1.333    3.810 
#    0.000    0.000    0.000    0.000    0.000    1.333 
#    0.000    0.000    0.000    0.000    0.000    0.000 
#
# Total GULP energy -116938.280605 kJ/mol
# GULP energy per Si atom -5568.489553 kJ/mol
# Density = 2.266934 g / cm^3
# Si number density = 22.721056 Si / 1000 Ang^3
#
#
#
# Elastic Constant Matrix: (Units=GPa)
#
#
# Indices 1 2 3 4 5 6 
#
# 1 27.2696 4.7740 17.3071 0.0000 12.2113 0.0001
# 2 4.7740 100.5237 21.7344 0.0000 15.9312 0.0001
# 3 17.3071 21.7344 188.4790 0.0000 36.4713 0.0000
# 4 0.0000 0.0000 0.0000 31.7943 0.0000 9.7609
# 5 12.2113 15.9312 36.4713 0.0000 35.5106 0.0000
# 6 0.0001 0.0001 0.0000 9.7609 0.0000 -1.1789
#
#
#
# Elastic Compliance Matrix: (Units=1/GPa)
#
#
# Indices 1 2 3 4 5 6 
#
# 1 0.043646 0.000409 -0.001392 0.000000 -0.013763 0.000001
# 2 0.000409 0.010735 -0.000395 0.000000 -0.004551 0.000000
# 3 -0.001392 -0.000395 0.006680 0.000000 -0.006205 0.000000
# 4 0.000000 0.000000 0.000000 0.008880 0.000000 0.073524
# 5 -0.013763 -0.004551 -0.006205 0.000000 0.041308 0.000000
# 6 0.000001 0.000000 0.000000 0.073524 0.000000 -0.239492
#
#
# Mechanical properties :
#
#
# Convention : Reuss Voigt Hill
#
# Bulk Modulus (GPa) = 17.15095 44.87814 31.01454
# Shear Modulus (GPa) = -47.14591 31.38898 -7.87846
#
# Velocity S-wave (km/s) = -4.56015 3.72088 -1.86414
# Velocity P-wave (km/s) = 4.49018 6.18503 3.00773
#
# Compressibility (1/GPa) = 0.05830581
#
# Stress axis : x y z
#
# Youngs Moduli (GPa) = 22.91181 93.15200 149.71051
#
# Poissons Ratio (x) = -0.03813 0.20836
# Poissons Ratio (y) = -0.00938 0.05911
# Poissons Ratio (z) = 0.03189 0.03678
#
# Static dielectric constant tensor:
#      x y z
#    x 1.908750 0.000000 0.011770 
#    y 0.000000 1.793900 0.000000 
#    z 0.011770 0.000000 1.874970 
# 
# From -- ./inp_files/221426.got.cif
#   From: 2010.05.17/outbox.cif.g08.bks.cpg/sg12_111_cif.got.tgz:221426.got - 2010.06.03 13:09:07.
