data_PCOD9170284
_publ_section_title
;
Structure prediction by ZEFSAII (Michael W. Deem and Ramdas Pophale) SiO2 
 PCOD9170284
Probable space group: C 2/M
;
_chemical_formula_sum "Si O2"
_cell_formula_units_Z 36
_cell_length_a 14.365464
_cell_length_b 28.038827
_cell_length_c 8.896991
_cell_angle_alpha 90.000000
_cell_angle_beta 24.905993
_cell_angle_gamma 90.000000
_cell_volume 1509.174776
_symmetry_space_group_name_H-M "C 2/M"
_symmetry_group_IT_number 12
_symmetry_cell_setting 'monoclinic'
loop_
_space_group_symop_operation_xyz
x,y,z
-x,y,-z
-x,-y,-z
x,-y,z
1/2+x,1/2+y,z
1/2-x,1/2+y,-z
1/2-x,1/2-y,-z
1/2+x,1/2-y,z
loop_
_atom_site_type_symbol
_atom_site_label
_atom_site_fract_x
_atom_site_fract_y
_atom_site_fract_z
Si Si1 0.318382 0.000000 0.900295
Si Si2 0.181589 0.603938 0.100809
Si Si3 0.000000 0.769262 0.000000
Si Si4 0.414951 0.818561 0.328386
Si Si5 0.884404 0.000000 0.333471
Si Si6 0.386337 0.396571 0.333576
O O1 0.500000 0.000000 0.500000
O O2 0.334382 0.051688 0.954436
O O3 0.082295 0.000000 0.163955
O O4 0.000000 0.601961 0.500000
O O5 0.106742 0.649614 0.116596
O O6 0.421019 0.607966 0.825776
O O7 0.791227 0.802328 0.265582
O O8 0.979360 0.731971 0.165884
O O9 0.284429 0.853495 0.405712
O O10 0.773700 0.051379 0.510239
O O11 0.000000 0.000000 0.000000
O O12 0.500000 0.396407 0.000000
#
# Coordination Sequence:
#
# PCOD9170284 Si02
#       6
#     4   8   4   8   4   8
#     4   8  16  24  42  82 119 135 172 213 256 324
#     4  10  17  30  54  85 113 146 174 217 273 323
#     4  10  24  42  58  78 104 140 188 248 270 320
#     4  11  21  40  59  77 110 139 185 233 281 321
#     4   8  16  24  44  82 113 139 170 207 261 314
#     4  10  17  31  54  83 115 142 173 218 264 324
#
# _framework density 23.854095000000001
#
# number of rings (size 3 to 8) (size 9 to 14) (size 15 to 20)
#    0.000    2.222    3.333    0.000    3.111    0.000 
#    0.000   13.333    0.000    2.667    0.000    4.667 
#    0.000    0.000    0.000    0.000    0.000    0.000 
#
# Total GULP energy -100434.723140 kJ/mol
# GULP energy per Si atom -5579.706841 kJ/mol
# Density = 2.379980 g / cm^3
# Si number density = 23.854095 Si / 1000 Ang^3
#
#
#
# Elastic Constant Matrix: (Units=GPa)
#
#
# Indices 1 2 3 4 5 6 
#
# 1 79.0112 43.3186 32.4016 0.0000 -32.1375 0.0000
# 2 43.3186 201.4922 35.9860 0.0000 -28.3897 0.0000
# 3 32.4016 35.9860 49.1447 0.0000 -22.8087 0.0000
# 4 0.0000 0.0000 0.0000 -17.0482 0.0000 -10.9703
# 5 -32.1375 -28.3897 -22.8087 0.0000 42.4733 0.0000
# 6 0.0000 0.0000 0.0000 -10.9703 0.0000 41.2040
#
#
#
# Elastic Compliance Matrix: (Units=1/GPa)
#
#
# Indices 1 2 3 4 5 6 
#
# 1 0.021079 -0.001644 -0.007728 0.000000 0.010701 0.000000
# 2 -0.001644 0.005981 -0.002687 0.000000 0.001311 0.000000
# 3 -0.007728 -0.002687 0.031785 0.000000 0.009426 0.000000
# 4 0.000000 0.000000 0.000000 -0.050078 0.000000 -0.013333
# 5 0.010701 0.001311 0.009426 0.000000 0.037579 0.000000
# 6 0.000000 0.000000 0.000000 -0.013333 0.000000 0.020720
#
#
# Mechanical properties :
#
#
# Convention : Reuss Voigt Hill
#
# Bulk Modulus (GPa) = 28.79508 61.45115 45.12312
# Shear Modulus (GPa) = 48.65664 27.85527 38.25596
#
# Velocity S-wave (km/s) = 4.52127 3.42092 4.00903
# Velocity P-wave (km/s) = 6.27323 6.43590 6.35508
#
# Compressibility (1/GPa) = 0.03472815
#
# Stress axis : x y z
#
# Youngs Moduli (GPa) = 47.43970 167.19489 31.46096
#
# Poissons Ratio (x) = 0.27486 0.24311
# Poissons Ratio (y) = 0.07799 0.08455
# Poissons Ratio (z) = 0.36659 0.44932
#
# Static dielectric constant tensor:
#      x y z
#    x 1.923960 0.000000 0.085750 
#    y 0.000000 1.900600 0.000000 
#    z 0.085750 0.000000 1.988950 
# 
# From -- ./inp_files/123386.got.cif
#   From: 2010.05.17/outbox.cif.g08.bks.cpg/sg12_62_cif.got.tgz:123386.got - 2010.06.03 13:09:07.
