data_PCOD9170628
_publ_section_title
;
Structure prediction by ZEFSAII (Michael W. Deem and Ramdas Pophale) SiO2 
 PCOD9170628
Probable space group: C 2/M
;
_chemical_formula_sum "Si O2"
_cell_formula_units_Z 44
_cell_length_a 30.030283
_cell_length_b 8.425803
_cell_length_c 7.046927
_cell_angle_alpha 90.000000
_cell_angle_beta 76.719043
_cell_angle_gamma 90.000000
_cell_volume 1735.390703
_symmetry_space_group_name_H-M "C 2/M"
_symmetry_group_IT_number 12
_symmetry_cell_setting 'monoclinic'
loop_
_space_group_symop_operation_xyz
x,y,z
-x,y,-z
-x,-y,-z
x,-y,z
1/2+x,1/2+y,z
1/2-x,1/2+y,-z
1/2-x,1/2-y,-z
1/2+x,1/2-y,z
loop_
_atom_site_type_symbol
_atom_site_label
_atom_site_fract_x
_atom_site_fract_y
_atom_site_fract_z
Si Si1 0.886378 0.500000 0.069009
Si Si2 0.198884 0.320979 0.725531
Si Si3 0.377679 0.326726 0.669764
Si Si4 0.977513 0.826706 0.731813
Si Si5 0.711006 0.813384 0.269464
Si Si6 0.476702 0.000000 0.242471
Si Si7 0.905286 0.500000 0.601664
O O1 0.852725 0.351361 0.152562
O O2 0.932056 0.500000 0.149624
O O3 0.897143 0.500000 0.834728
O O4 0.218944 0.500000 0.713527
O O5 0.235371 0.219133 0.806067
O O6 0.201715 0.273867 0.502096
O O7 0.378862 0.500000 0.574882
O O8 0.422418 0.323855 0.761025
O O9 0.326905 0.293898 0.797243
O O10 0.385666 0.165086 0.544218
O O11 0.000000 0.829227 0.500000
O O12 0.995829 0.664691 0.804599
O O13 0.989626 0.000000 0.803635
O O14 0.701741 0.000000 0.241676
O O15 0.544046 0.000000 0.524723
#
# Coordination Sequence:
#
# PCOD9170628 Si02
#       7
#     4   8   8   8   8   4   4
#     4  10  24  43  65  96 136 174 227 275 328 392
#     4   8  18  35  55  85 133 166 210 277 314 385
#     4  11  22  37  63  94 130 173 220 273 332 396
#     4  10  21  36  62 101 132 168 226 275 324 402
#     4  10  17  32  63  96 123 171 220 261 336 392
#     4  12  22  42  74  94 134 182 216 277 337 385
#     4  12  23  42  67  98 130 178 230 268 328 401
#
# _framework density 25.354521999999999
#
# number of rings (size 3 to 8) (size 9 to 14) (size 15 to 20)
#    0.545    1.273    2.727    2.455    0.000    0.727 
#    0.000    5.455    0.000    2.182    0.000    0.000 
#    0.000    0.000    0.000    0.000    0.000    0.000 
#
# Total GULP energy -122743.795807 kJ/mol
# GULP energy per Si atom -5579.263446 kJ/mol
# Density = 2.529681 g / cm^3
# Si number density = 25.354522 Si / 1000 Ang^3
#
#
#
# Elastic Constant Matrix: (Units=GPa)
#
#
# Indices 1 2 3 4 5 6 
#
# 1 218.5581 82.7275 59.1467 0.0000 9.4096 0.0000
# 2 82.7275 218.0168 15.5890 0.0000 7.3410 0.0000
# 3 59.1467 15.5890 124.8820 0.0000 -8.6190 0.0000
# 4 0.0000 0.0000 0.0000 -4.0832 0.0000 -1.6923
# 5 9.4096 7.3410 -8.6190 0.0000 37.0643 0.0000
# 6 0.0000 0.0000 0.0000 -1.6923 0.0000 13.2650
#
#
#
# Elastic Compliance Matrix: (Units=1/GPa)
#
#
# Indices 1 2 3 4 5 6 
#
# 1 0.006204 -0.002093 -0.002802 0.000000 -0.001812 0.000000
# 2 -0.002093 0.005376 0.000288 0.000000 -0.000467 0.000000
# 3 -0.002802 0.000288 0.009496 0.000000 0.002863 0.000000
# 4 0.000000 0.000000 0.000000 -0.232607 0.000000 -0.029674
# 5 -0.001812 -0.000467 0.002863 0.000000 0.028198 0.000000
# 6 0.000000 0.000000 0.000000 -0.029674 0.000000 0.071600
#
#
# Mechanical properties :
#
#
# Convention : Reuss Voigt Hill
#
# Bulk Modulus (GPa) = 84.30067 97.37592 90.83829
# Shear Modulus (GPa) = -50.72851 36.18215 -7.27318
#
# Velocity S-wave (km/s) = -4.47785 3.78173 -1.69553
# Velocity P-wave (km/s) = 2.56635 7.58668 5.66321
#
# Compressibility (1/GPa) = 0.01186230
#
# Stress axis : x y z
#
# Youngs Moduli (GPa) = 161.18876 186.01119 105.30365
#
# Poissons Ratio (x) = 0.38927 0.29507
# Poissons Ratio (y) = 0.33732 -0.03031
# Poissons Ratio (z) = 0.45167 -0.05355
#
# Static dielectric constant tensor:
#      x y z
#    x 2.089440 0.000000 0.005680 
#    y 0.000000 2.022710 0.000000 
#    z 0.005680 0.000000 2.008490 
# 
# From -- ./inp_files/108179.got.cif
#   From: 2010.05.17/outbox.cif.g08.bks.cpg/sg12_55_cif.got.tgz:108179.got - 2010.06.03 13:09:07.
