data_PCOD9170830
_publ_section_title
;
Structure prediction by ZEFSAII (Michael W. Deem and Ramdas Pophale) SiO2 
 PCOD9170830
Probable space group: C 2/M
;
_chemical_formula_sum "Si O2"
_cell_formula_units_Z 52
_cell_length_a 17.657209
_cell_length_b 21.098510
_cell_length_c 7.971127
_cell_angle_alpha 90.000000
_cell_angle_beta 129.720959
_cell_angle_gamma 90.000000
_cell_volume 2284.091830
_symmetry_space_group_name_H-M "C 2/M"
_symmetry_group_IT_number 12
_symmetry_cell_setting 'monoclinic'
loop_
_space_group_symop_operation_xyz
x,y,z
-x,y,-z
-x,-y,-z
x,-y,z
1/2+x,1/2+y,z
1/2-x,1/2+y,-z
1/2-x,1/2-y,-z
1/2+x,1/2-y,z
loop_
_atom_site_type_symbol
_atom_site_label
_atom_site_fract_x
_atom_site_fract_y
_atom_site_fract_z
Si Si1 0.789701 0.290529 0.842284
Si Si2 0.185971 0.500000 0.090087
Si Si3 0.151537 0.572755 0.581872
Si Si4 0.287849 0.599130 0.461229
Si Si5 0.804663 0.842829 0.970055
Si Si6 0.538624 0.881699 0.863573
Si Si7 0.492908 0.574079 0.287404
O O1 0.754795 0.331380 0.635309
O O2 0.798471 0.215815 0.833212
O O3 0.709648 0.308753 0.871257
O O4 0.893172 0.319788 0.053571
O O5 0.263869 0.555341 0.265942
O O6 0.104154 0.444363 0.941089
O O7 0.131495 0.500000 0.602361
O O8 0.222798 0.571394 0.519771
O O9 0.214964 0.609492 0.808624
O O10 0.053402 0.609809 0.390336
O O11 0.404052 0.595270 0.648644
O O12 0.903663 0.882507 0.101222
O O13 0.500000 0.882023 0.000000
O O14 0.500000 0.580322 0.500000
O O15 0.474649 0.500000 0.223154
#
# Coordination Sequence:
#
# PCOD9170830 Si02
#       7
#     8   4   8   8   8   8   8
#     4  10  24  45  64  89 124 179 210 250 308 387
#     4  10  17  34  65  94 125 159 204 254 297 393
#     4  12  23  41  65 100 132 158 196 274 328 360
#     4  11  20  39  68  93 122 169 215 250 309 380
#     4  11  26  45  60  90 136 164 210 262 319 363
#     4  11  19  37  68  96 121 162 213 250 308 378
#     4  11  22  39  67  93 116 168 221 261 304 376
#
# _framework density 22.766158999999998
#
# number of rings (size 3 to 8) (size 9 to 14) (size 15 to 20)
#    0.000    1.077    6.923    0.692    0.000    3.077 
#    8.308    2.308    0.000    0.000    0.000    0.000 
#    0.000    0.000    0.000    0.000    0.000    0.000 
#
# Total GULP energy -145009.138626 kJ/mol
# GULP energy per Si atom -5577.274563 kJ/mol
# Density = 2.271434 g / cm^3
# Si number density = 22.766159 Si / 1000 Ang^3
#
#
#
# Elastic Constant Matrix: (Units=GPa)
#
#
# Indices 1 2 3 4 5 6 
#
# 1 82.2585 28.9693 34.7987 0.0000 22.6213 0.0000
# 2 28.9693 96.0162 21.6741 0.0000 2.9715 0.0000
# 3 34.7987 21.6741 72.7194 0.0000 33.0053 0.0000
# 4 0.0000 0.0000 0.0000 11.6198 0.0000 -11.2511
# 5 22.6213 2.9715 33.0053 0.0000 37.4938 0.0000
# 6 0.0000 0.0000 0.0000 -11.2511 0.0000 -6.3183
#
#
#
# Elastic Compliance Matrix: (Units=1/GPa)
#
#
# Indices 1 2 3 4 5 6 
#
# 1 0.017051 -0.004032 -0.004053 0.000000 -0.006400 0.000000
# 2 -0.004032 0.012387 -0.004032 0.000000 0.005000 0.000000
# 3 -0.004053 -0.004032 0.026043 0.000000 -0.020160 0.000000
# 4 0.000000 0.000000 0.000000 0.031591 0.000000 -0.056254
# 5 -0.006400 0.005000 -0.020160 0.000000 0.047883 0.000000
# 6 0.000000 0.000000 0.000000 -0.056254 0.000000 -0.058097
#
#
# Mechanical properties :
#
#
# Convention : Reuss Voigt Hill
#
# Bulk Modulus (GPa) = 32.00247 46.87538 39.43892
# Shear Modulus (GPa) = 44.84036 19.59586 32.21811
#
# Velocity S-wave (km/s) = 4.44284 2.93703 3.76596
# Velocity P-wave (km/s) = 6.35657 5.66888 6.02255
#
# Compressibility (1/GPa) = 0.03124759
#
# Stress axis : x y z
#
# Youngs Moduli (GPa) = 58.64633 80.73159 38.39801
#
# Poissons Ratio (x) = 0.32548 0.15563
# Poissons Ratio (y) = 0.23644 0.15482
# Poissons Ratio (z) = 0.23770 0.32551
#
# Static dielectric constant tensor:
#      x y z
#    x 1.922490 0.000000 -0.054110 
#    y 0.000000 1.805420 0.000000 
#    z -0.054110 0.000000 1.873970 
# 
# From -- ./inp_files/78098.got.cif
#   From: 2010.05.17/outbox.cif.g08.bks.cpg/sg12_40_cif.got.tgz:78098.got - 2010.06.03 13:09:07.
