data_PCOD9170182
_publ_section_title
;
Structure prediction by ZEFSAII (Michael W. Deem and Ramdas Pophale) SiO2 
 PCOD9170182
Probable space group: C 2/M
;
_chemical_formula_sum "Si O2"
_cell_formula_units_Z 28
_cell_length_a 5.575957
_cell_length_b 26.974658
_cell_length_c 9.003878
_cell_angle_alpha 90.000000
_cell_angle_beta 93.446978
_cell_angle_gamma 90.000000
_cell_volume 1351.819032
_symmetry_space_group_name_H-M "C 2/M"
_symmetry_group_IT_number 12
_symmetry_cell_setting 'monoclinic'
loop_
_space_group_symop_operation_xyz
x,y,z
-x,y,-z
-x,-y,-z
x,-y,z
1/2+x,1/2+y,z
1/2-x,1/2+y,-z
1/2-x,1/2-y,-z
1/2+x,1/2-y,z
loop_
_atom_site_type_symbol
_atom_site_label
_atom_site_fract_x
_atom_site_fract_y
_atom_site_fract_z
Si Si1 0.580355 0.233082 0.287882
Si Si2 0.639227 0.866563 0.153937
Si Si3 0.243611 0.440703 0.414152
Si Si4 0.500000 0.295524 0.000000
O O1 0.351832 0.258926 0.356845
O O2 0.516295 0.175336 0.255526
O O3 0.614548 0.259821 0.127746
O O4 0.719099 0.911282 0.259639
O O5 0.500000 0.882648 0.000000
O O6 0.848261 0.833363 0.092821
O O7 0.500000 0.427100 0.500000
O O8 0.248446 0.500000 0.391547
O O9 0.000000 0.429855 0.500000
#
# Coordination Sequence:
#
# PCOD9170182 Si02
#       4
#     8   8   8   4
#     4  10  17  30  50  87 121 157 182 231 291 359
#     4  11  20  34  65  94 116 154 209 251 288 348
#     4  10  25  47  64  82 120 166 199 243 314 369
#     4  10  18  32  53  96 127 156 182 248 300 356
#
# _framework density 20.712831999999999
#
# number of rings (size 3 to 8) (size 9 to 14) (size 15 to 20)
#    0.000    1.714    4.286    1.714    4.000    0.571 
#    0.000    0.714    0.000   20.571    0.000    0.000 
#    0.000    0.000    0.000    0.000    0.000    0.000 
#
# Total GULP energy -77976.664333 kJ/mol
# GULP energy per Si atom -5569.761738 kJ/mol
# Density = 2.066569 g / cm^3
# Si number density = 20.712832 Si / 1000 Ang^3
#
#
#
# Elastic Constant Matrix: (Units=GPa)
#
#
# Indices 1 2 3 4 5 6 
#
# 1 132.0184 41.7058 63.7466 0.0000 17.0879 0.0000
# 2 41.7058 74.0145 68.3909 0.0000 14.1090 0.0000
# 3 63.7466 68.3909 117.9324 0.0000 22.1467 0.0000
# 4 0.0000 0.0000 0.0000 80.5712 0.0000 8.5619
# 5 17.0879 14.1090 22.1467 0.0000 37.7565 0.0000
# 6 0.0000 0.0000 0.0000 8.5619 0.0000 15.4524
#
#
#
# Elastic Compliance Matrix: (Units=1/GPa)
#
#
# Indices 1 2 3 4 5 6 
#
# 1 0.010397 -0.001378 -0.004534 0.000000 -0.001532 0.000000
# 2 -0.001378 0.029332 -0.016097 0.000000 -0.000895 0.000000
# 3 -0.004534 -0.016097 0.021071 0.000000 -0.004293 0.000000
# 4 0.000000 0.000000 0.000000 0.013188 0.000000 -0.007307
# 5 -0.001532 -0.000895 -0.004293 0.000000 0.030031 0.000000
# 6 0.000000 0.000000 0.000000 -0.007307 0.000000 0.068764
#
#
# Mechanical properties :
#
#
# Convention : Reuss Voigt Hill
#
# Bulk Modulus (GPa) = 59.58252 74.62799 67.10526
# Shear Modulus (GPa) = 22.48255 36.76414 29.62334
#
# Velocity S-wave (km/s) = 3.29818 4.21758 3.78589
# Velocity P-wave (km/s) = 6.58274 7.73469 7.18184
#
# Compressibility (1/GPa) = 0.01678345
#
# Stress axis : x y z
#
# Youngs Moduli (GPa) = 96.17961 34.09242 47.45814
#
# Poissons Ratio (x) = 0.04697 0.21515
# Poissons Ratio (y) = 0.13250 0.76395
# Poissons Ratio (z) = 0.43604 0.54880
#
# Static dielectric constant tensor:
#      x y z
#    x 1.944780 0.000000 0.016130 
#    y 0.000000 1.696130 0.000000 
#    z 0.016130 0.000000 1.767520 
# 
# From -- ./inp_files/33879.got.cif
#   From: 2010.05.17/outbox.cif.g08.bks.cpg/sg12_17_cif.got.tgz:33879.got - 2010.06.03 13:09:07.
