data_PCOD9170881
_publ_section_title
;
Structure prediction by ZEFSAII (Michael W. Deem and Ramdas Pophale) SiO2 
 PCOD9170881
Probable space group: C 2/M
;
_chemical_formula_sum "Si O2"
_cell_formula_units_Z 52
_cell_length_a 8.316140
_cell_length_b 30.445979
_cell_length_c 20.575695
_cell_angle_alpha 90.000000
_cell_angle_beta 145.988476
_cell_angle_gamma 90.000000
_cell_volume 2914.052518
_symmetry_space_group_name_H-M "C 2/M"
_symmetry_group_IT_number 12
_symmetry_cell_setting 'monoclinic'
loop_
_space_group_symop_operation_xyz
x,y,z
-x,y,-z
-x,-y,-z
x,-y,z
1/2+x,1/2+y,z
1/2-x,1/2+y,-z
1/2-x,1/2-y,-z
1/2+x,1/2-y,z
loop_
_atom_site_type_symbol
_atom_site_label
_atom_site_fract_x
_atom_site_fract_y
_atom_site_fract_z
Si Si1 0.500000 0.412494 0.500000
Si Si2 0.691943 0.390403 0.367363
Si Si3 0.805558 0.262785 0.629414
Si Si4 0.814025 0.628625 0.134627
Si Si5 0.682980 0.312552 0.721461
Si Si6 0.264229 0.449056 0.287422
Si Si7 0.444515 0.149319 0.325203
O O1 0.423586 0.440221 0.410030
O O2 0.773478 0.381335 0.579902
O O3 0.542319 0.352267 0.359910
O O4 0.480911 0.431525 0.304275
O O5 0.739286 0.369165 0.312596
O O6 0.000000 0.401390 0.500000
O O7 0.500000 0.246092 0.500000
O O8 0.728784 0.288545 0.668797
O O9 0.034324 0.224045 0.716242
O O10 0.948915 0.300382 0.631648
O O11 0.808201 0.644382 0.207804
O O12 0.015598 0.663512 0.163025
O O13 0.987060 0.582651 0.192234
O O14 0.500000 0.625425 0.000000
O O15 0.196103 0.500000 0.257951
#
# Coordination Sequence:
#
# PCOD9170881 Si02
#       7
#     4   8   8   8   8   8   8
#     4  10  17  36  52  82 114 142 174 214 273 330
#     4  11  19  33  51  80 118 146 168 215 277 336
#     4  11  18  30  50  80 112 142 180 224 265 320
#     4   9  21  41  59  74 104 145 190 231 268 312
#     4  10  21  32  50  78 108 144 186 221 268 313
#     4  10  21  35  57  83 109 138 179 224 273 331
#     4  10  19  33  56  80 111 148 180 215 268 322
#
# _framework density 17.844566
#
# number of rings (size 3 to 8) (size 9 to 14) (size 15 to 20)
#    0.000    1.846    2.308    3.923    0.000    0.615 
#    0.000    6.923    0.000    0.923    0.000    0.000 
#    0.000    0.000    0.000    0.000    0.000    0.000 
#
# Total GULP energy -145027.825702 kJ/mol
# GULP energy per Si atom -5577.993296 kJ/mol
# Density = 1.780395 g / cm^3
# Si number density = 17.844566 Si / 1000 Ang^3
#
#
#
# Elastic Constant Matrix: (Units=GPa)
#
#
# Indices 1 2 3 4 5 6 
#
# 1 82.8008 33.1197 36.6699 0.0001 7.2414 0.0000
# 2 33.1197 110.5209 35.8241 0.0002 13.9540 0.0000
# 3 36.6699 35.8241 114.3235 -0.0007 19.9505 0.0011
# 4 0.0001 0.0002 -0.0007 10.9504 -0.0001 -0.5258
# 5 7.2414 13.9540 19.9505 -0.0001 19.1975 0.0003
# 6 0.0000 0.0000 0.0011 -0.5258 0.0003 20.7458
#
#
#
# Elastic Compliance Matrix: (Units=1/GPa)
#
#
# Indices 1 2 3 4 5 6 
#
# 1 0.015087 -0.003351 -0.003935 0.000000 0.000834 0.000000
# 2 -0.003351 0.011213 -0.001511 0.000000 -0.005316 0.000000
# 3 -0.003935 -0.001511 0.012254 0.000001 -0.010152 0.000000
# 4 0.000000 0.000000 0.000001 0.091432 0.000000 0.002317
# 5 0.000834 -0.005316 -0.010152 0.000000 0.066190 0.000000
# 6 0.000000 0.000000 0.000000 0.002317 0.000000 0.048261
#
#
# Mechanical properties :
#
#
# Convention : Reuss Voigt Hill
#
# Bulk Modulus (GPa) = 47.70772 57.65250 52.68011
# Shear Modulus (GPa) = 18.58601 23.64750 21.11675
#
# Velocity S-wave (km/s) = 3.23081 3.64427 3.44375
# Velocity P-wave (km/s) = 6.38049 7.07714 6.73782
#
# Compressibility (1/GPa) = 0.02096097
#
# Stress axis : x y z
#
# Youngs Moduli (GPa) = 66.28118 89.17984 81.60297
#
# Poissons Ratio (x) = 0.29885 0.32109
# Poissons Ratio (y) = 0.22211 0.12332
# Poissons Ratio (z) = 0.26080 0.13477
#
# Static dielectric constant tensor:
#      x y z
#    x 1.674210 0.000000 -0.005630 
#    y 0.000000 1.627370 0.000000 
#    z -0.005630 0.000000 1.574880 
# 
# From -- ./inp_files/199642.got.cif
#   From: 2010.05.17/outbox.cif.g08.bks.cpg/sg12_100_cif.got.tgz:199642.got - 2010.06.03 13:09:07.
