data_PCOD9170810
_publ_section_title
;
Structure prediction by ZEFSAII (Michael W. Deem and Ramdas Pophale) SiO2 
 PCOD9170810
Probable space group: C 2/M
;
_chemical_formula_sum "Si O2"
_cell_formula_units_Z 52
_cell_length_a 17.540120
_cell_length_b 18.912288
_cell_length_c 8.663155
_cell_angle_alpha 90.000000
_cell_angle_beta 124.147288
_cell_angle_gamma 90.000000
_cell_volume 2378.328301
_symmetry_space_group_name_H-M "C 2/M"
_symmetry_group_IT_number 12
_symmetry_cell_setting 'monoclinic'
loop_
_space_group_symop_operation_xyz
x,y,z
-x,y,-z
-x,-y,-z
x,-y,z
1/2+x,1/2+y,z
1/2-x,1/2+y,-z
1/2-x,1/2-y,-z
1/2+x,1/2-y,z
loop_
_atom_site_type_symbol
_atom_site_label
_atom_site_fract_x
_atom_site_fract_y
_atom_site_fract_z
Si Si1 0.785154 0.266946 0.216295
Si Si2 0.235503 0.500000 0.460381
Si Si3 0.410942 0.724377 0.995023
Si Si4 0.958972 0.114250 0.301205
Si Si5 0.606622 0.131642 0.849859
Si Si6 0.717696 0.393526 0.750488
Si Si7 0.517599 0.000000 0.210791
Si Si8 0.436296 0.500000 0.775119
O O1 0.861800 0.327192 0.272493
O O2 0.805359 0.189456 0.305845
O O3 0.750000 0.250000 0.000000
O O4 0.689906 0.289386 0.191387
O O5 0.251762 0.432540 0.368332
O O6 0.126796 0.500000 0.376307
O O7 0.325632 0.500000 0.675486
O O8 0.417656 0.672930 0.146163
O O9 0.420881 0.804791 0.064957
O O10 0.500000 0.706628 0.000000
O O11 0.871832 0.073661 0.271999
O O12 0.000000 0.148726 0.500000
O O13 0.031046 0.066742 0.290734
O O14 0.531703 0.069642 0.772747
O O15 0.699635 0.101252 0.032590
O O16 0.500000 0.000000 0.000000
O O17 0.500000 0.500000 0.000000
#
# Coordination Sequence:
#
# PCOD9170810 Si02
#       8
#     8   4   8   8   8   8   4   4
#     4   8  16  32  55  84 129 178 214 259 313 403
#     4  12  23  38  60  97 144 163 217 294 325 397
#     4  10  19  33  59  92 138 170 213 276 329 392
#     4  12  21  38  64  94 122 173 222 270 331 403
#     4  10  18  35  57  94 134 178 219 259 321 413
#     4  10  17  34  59  95 127 165 222 265 318 389
#     4  12  22  30  60  99 135 171 219 275 335 389
#     4  12  28  43  61  91 136 175 215 277 358 400
#
# _framework density 21.864096
#
# number of rings (size 3 to 8) (size 9 to 14) (size 15 to 20)
#    0.000    1.846    7.692    1.615    2.154    0.000 
#    0.000    0.000    0.000   15.692    0.000    1.615 
#    0.000    0.000    0.000    0.000    0.000    0.000 
#
# Total GULP energy -144816.937921 kJ/mol
# GULP energy per Si atom -5569.882228 kJ/mol
# Density = 2.181433 g / cm^3
# Si number density = 21.864096 Si / 1000 Ang^3
#
#
#
# Elastic Constant Matrix: (Units=GPa)
#
#
# Indices 1 2 3 4 5 6 
#
# 1 149.7660 46.7977 33.9148 0.0000 39.9923 0.0000
# 2 46.7977 119.5751 26.9575 0.0000 13.8126 0.0000
# 3 33.9148 26.9575 52.3033 0.0000 27.1832 0.0000
# 4 0.0000 0.0000 0.0000 -2.8478 0.0000 6.9399
# 5 39.9923 13.8126 27.1832 0.0000 34.6404 0.0000
# 6 0.0000 0.0000 0.0000 6.9399 0.0000 37.4347
#
#
#
# Elastic Compliance Matrix: (Units=1/GPa)
#
#
# Indices 1 2 3 4 5 6 
#
# 1 0.010511 -0.002938 0.000670 0.000000 -0.011490 0.000000
# 2 -0.002938 0.010284 -0.005112 0.000000 0.003302 0.000000
# 3 0.000670 -0.005112 0.034893 0.000000 -0.026116 0.000000
# 4 0.000000 0.000000 0.000000 -0.241874 0.000000 0.044840
# 5 -0.011490 0.003302 -0.026116 0.000000 0.061310 0.000000
# 6 0.000000 0.000000 0.000000 0.044840 0.000000 0.018400
#
#
# Mechanical properties :
#
#
# Convention : Reuss Voigt Hill
#
# Bulk Modulus (GPa) = 24.43285 59.66492 42.04889
# Shear Modulus (GPa) = -64.04225 28.11041 -17.96592
#
# Velocity S-wave (km/s) = -5.41799 3.58954 -2.86966
# Velocity P-wave (km/s) = 5.28587 6.67293 2.87989
#
# Compressibility (1/GPa) = 0.04092850
#
# Stress axis : x y z
#
# Youngs Moduli (GPa) = 95.13432 97.24259 28.65917
#
# Poissons Ratio (x) = 0.28566 -0.01919
# Poissons Ratio (y) = 0.27946 0.14650
# Poissons Ratio (z) = -0.06370 0.49707
#
# Static dielectric constant tensor:
#      x y z
#    x 1.927870 0.000000 0.028520 
#    y 0.000000 1.834630 0.000000 
#    z 0.028520 0.000000 1.827250 
# 
# From -- ./inp_files/78134.got.cif
#   From: 2010.05.17/outbox.cif.g08.bks.cpg/sg12_40_cif.got.tgz:78134.got - 2010.06.03 13:09:07.
