data_PCOD9170823
_publ_section_title
;
Structure prediction by ZEFSAII (Michael W. Deem and Ramdas Pophale) SiO2 
 PCOD9170823
Probable space group: C 2/M
;
_chemical_formula_sum "Si O2"
_cell_formula_units_Z 44
_cell_length_a 26.524046
_cell_length_b 12.011495
_cell_length_c 7.330851
_cell_angle_alpha 90.000000
_cell_angle_beta 118.739231
_cell_angle_gamma 90.000000
_cell_volume 2047.859998
_symmetry_space_group_name_H-M "C 2/M"
_symmetry_group_IT_number 12
_symmetry_cell_setting 'monoclinic'
loop_
_space_group_symop_operation_xyz
x,y,z
-x,y,-z
-x,-y,-z
x,-y,z
1/2+x,1/2+y,z
1/2-x,1/2+y,-z
1/2-x,1/2-y,-z
1/2+x,1/2-y,z
loop_
_atom_site_type_symbol
_atom_site_label
_atom_site_fract_x
_atom_site_fract_y
_atom_site_fract_z
Si Si1 0.030845 0.000000 0.294972
Si Si2 0.860353 0.750831 0.161862
Si Si3 0.512749 0.737857 0.738043
Si Si4 0.602118 0.132679 0.403245
Si Si5 0.689645 0.741602 0.294371
Si Si6 0.635951 0.500000 0.204677
Si Si7 0.882107 0.000000 0.243998
O O1 0.999169 0.884697 0.208063
O O2 0.087153 0.000000 0.268999
O O3 0.058446 0.000000 0.545151
O O4 0.871065 0.673273 0.355358
O O5 0.919328 0.739937 0.143275
O O6 0.854655 0.877987 0.229741
O O7 0.811681 0.729894 0.924991
O O8 0.500000 0.736764 0.500000
O O9 0.462986 0.818241 0.729099
O O10 0.643455 0.183547 0.321759
O O11 0.600156 0.000000 0.393222
O O12 0.750000 0.750000 0.500000
O O13 0.671489 0.612860 0.280515
O O14 0.610764 0.500000 0.958864
#
# Coordination Sequence:
#
# PCOD9170823 Si02
#       7
#     4   8   8   8   8   4   4
#     4  12  16  36  62  94 136 158 187 251 314 378
#     4  10  22  40  64  97 126 161 203 253 312 369
#     4  10  19  34  63  93 129 160 198 245 313 374
#     4  11  24  42  63  93 125 167 209 251 303 369
#     4  11  25  45  67  88 124 163 213 263 306 358
#     4  10  22  39  63  98 118 161 206 255 312 365
#     4  10  17  34  61  96 128 154 195 244 310 370
#
# _framework density 21.485842000000002
#
# number of rings (size 3 to 8) (size 9 to 14) (size 15 to 20)
#    0.000    1.455    5.455    0.818    1.273    5.455 
#    0.000    2.727    0.000    0.000    0.000    0.000 
#    0.000    0.000    0.000    0.000    0.000    0.000 
#
# Total GULP energy -122893.992869 kJ/mol
# GULP energy per Si atom -5586.090585 kJ/mol
# Density = 2.143694 g / cm^3
# Si number density = 21.485842 Si / 1000 Ang^3
#
#
#
# Elastic Constant Matrix: (Units=GPa)
#
#
# Indices 1 2 3 4 5 6 
#
# 1 24.6068 21.9625 4.8901 0.0000 -14.5542 0.0000
# 2 21.9625 167.4639 30.3101 0.0000 -12.5532 0.0000
# 3 4.8901 30.3101 114.9832 0.0000 -3.4007 0.0000
# 4 0.0000 0.0000 0.0000 26.1017 0.0000 -1.0459
# 5 -14.5542 -12.5532 -3.4007 0.0000 14.4036 0.0000
# 6 0.0000 0.0000 0.0000 -1.0459 0.0000 -7.2180
#
#
#
# Elastic Compliance Matrix: (Units=1/GPa)
#
#
# Indices 1 2 3 4 5 6 
#
# 1 0.106949 -0.006368 0.000163 0.000000 0.102556 0.000000
# 2 -0.006368 0.007047 -0.001607 0.000000 -0.000672 0.000000
# 3 0.000163 -0.001607 0.009141 0.000000 0.000923 0.000000
# 4 0.000000 0.000000 0.000000 0.038090 0.000000 -0.005520
# 5 0.102556 -0.000672 0.000923 0.000000 0.172687 0.000000
# 6 0.000000 0.000000 0.000000 -0.005520 0.000000 -0.137743
#
#
# Mechanical properties :
#
#
# Convention : Reuss Voigt Hill
#
# Bulk Modulus (GPa) = 9.30107 46.81991 28.06049
# Shear Modulus (GPa) = 20.19121 23.31688 21.75404
#
# Velocity S-wave (km/s) = 3.06885 3.29784 3.18541
# Velocity P-wave (km/s) = 4.11041 6.02822 5.15921
#
# Compressibility (1/GPa) = 0.10751446
#
# Stress axis : x y z
#
# Youngs Moduli (GPa) = 9.35022 141.90443 109.39959
#
# Poissons Ratio (x) = 0.90365 -0.01787
# Poissons Ratio (y) = 0.05954 0.17577
# Poissons Ratio (z) = -0.00153 0.22799
#
# Static dielectric constant tensor:
#      x y z
#    x 1.808910 0.000000 0.013710 
#    y 0.000000 1.766540 0.000000 
#    z 0.013710 0.000000 1.831230 
# 
# From -- ./inp_files/110191.got.cif
#   From: 2010.05.17/outbox.cif.g08.bks.cpg/sg12_56_cif.got.tgz:110191.got - 2010.06.03 13:09:07.
