data_PCOD9170805
_publ_section_title
;
Structure prediction by ZEFSAII (Michael W. Deem and Ramdas Pophale) SiO2 
 PCOD9170805
Probable space group: C 2/M
;
_chemical_formula_sum "Si O2"
_cell_formula_units_Z 48
_cell_length_a 17.368276
_cell_length_b 18.582075
_cell_length_c 15.641531
_cell_angle_alpha 90.000000
_cell_angle_beta 24.706832
_cell_angle_gamma 90.000000
_cell_volume 2109.992466
_symmetry_space_group_name_H-M "C 2/M"
_symmetry_group_IT_number 12
_symmetry_cell_setting 'monoclinic'
loop_
_space_group_symop_operation_xyz
x,y,z
-x,y,-z
-x,-y,-z
x,-y,z
1/2+x,1/2+y,z
1/2-x,1/2+y,-z
1/2-x,1/2-y,-z
1/2+x,1/2-y,z
loop_
_atom_site_type_symbol
_atom_site_label
_atom_site_fract_x
_atom_site_fract_y
_atom_site_fract_z
Si Si1 0.204883 0.500000 0.672867
Si Si2 0.378299 0.500000 0.945060
Si Si3 0.924040 0.648649 0.483267
Si Si4 0.586340 0.878694 0.033213
Si Si5 0.109730 0.235643 0.722811
Si Si6 0.701476 0.000000 0.470282
Si Si7 0.628928 0.500000 0.258677
Si Si8 0.246842 0.649018 0.058608
O O1 0.202739 0.500000 0.571469
O O2 0.412377 0.500000 0.497528
O O3 0.084360 0.430552 0.815599
O O4 0.585073 0.500000 0.769339
O O5 0.372050 0.500000 0.846226
O O6 0.285645 0.573611 0.066428
O O7 0.736444 0.692163 0.661265
O O8 0.888975 0.572604 0.472337
O O9 0.000000 0.636974 0.500000
O O10 0.090108 0.690713 0.268058
O O11 0.490279 0.800095 0.123669
O O12 0.653573 0.869903 0.063266
O O13 0.760264 0.927661 0.824305
O O14 0.250000 0.250000 0.500000
O O15 0.940440 0.188690 0.857016
#
# Coordination Sequence:
#
# PCOD9170805 Si02
#       8
#     4   4   8   8   8   4   4   8
#     4  10  17  34  59  85 125 144 189 246 291 350
#     4   9  18  32  57  80 113 160 194 245 284 331
#     4  12  26  40  58  84 120 165 209 248 291 343
#     4  10  20  32  55  89 111 149 192 241 301 347
#     4  12  24  38  59  84 115 156 204 251 296 353
#     4  11  17  39  55  78 116 165 205 242 271 331
#     4   8  19  29  52  82 114 142 178 237 299 342
#     4  11  21  38  58  82 120 155 207 244 294 344
#
# _framework density 22.748895999999998
#
# number of rings (size 3 to 8) (size 9 to 14) (size 15 to 20)
#    0.000    1.333    5.000    1.750    4.667    0.667 
#    0.000    0.833    0.000    0.000    0.000    2.333 
#    0.000    6.667    0.000    0.000    0.000    0.000 
#
# Total GULP energy -133774.041536 kJ/mol
# GULP energy per Si atom -5573.918397 kJ/mol
# Density = 2.269712 g / cm^3
# Si number density = 22.748896 Si / 1000 Ang^3
#
#
#
# Elastic Constant Matrix: (Units=GPa)
#
#
# Indices 1 2 3 4 5 6 
#
# 1 98.2150 22.9053 46.0668 0.0061 -27.9752 -0.0017
# 2 22.9053 114.3181 58.3756 0.0300 -20.3502 0.0154
# 3 46.0668 58.3756 182.2152 -0.0038 -47.4497 0.0231
# 4 0.0061 0.0300 -0.0038 1.0333 -0.0108 -12.9523
# 5 -27.9752 -20.3502 -47.4497 -0.0108 30.4679 0.0056
# 6 -0.0017 0.0154 0.0231 -12.9523 0.0056 -30.4326
#
#
#
# Elastic Compliance Matrix: (Units=1/GPa)
#
#
# Indices 1 2 3 4 5 6 
#
# 1 0.013825 -0.000529 -0.000189 0.000011 0.012047 -0.000004
# 2 -0.000529 0.010641 -0.002609 -0.000038 0.002558 0.000020
# 3 -0.000189 -0.002609 0.009879 0.000057 0.013470 -0.000016
# 4 0.000011 -0.000038 0.000057 0.152770 0.000140 -0.065020
# 5 0.012047 0.002558 0.013470 0.000140 0.066568 -0.000037
# 6 -0.000004 0.000020 -0.000016 -0.065020 -0.000037 -0.005187
#
#
# Mechanical properties :
#
#
# Convention : Reuss Voigt Hill
#
# Bulk Modulus (GPa) = 36.11240 72.16042 54.13641
# Shear Modulus (GPa) = 18.91208 18.04043 18.47626
#
# Velocity S-wave (km/s) = 2.88643 2.81912 2.85297
# Velocity P-wave (km/s) = 5.19783 6.51044 5.89081
#
# Compressibility (1/GPa) = 0.02769132
#
# Stress axis : x y z
#
# Youngs Moduli (GPa) = 72.33296 93.97345 101.22367
#
# Poissons Ratio (x) = 0.04974 0.01909
# Poissons Ratio (y) = 0.03828 0.26411
# Poissons Ratio (z) = 0.01364 0.24519
#
# Static dielectric constant tensor:
#      x y z
#    x 1.843200 0.000000 0.062220 
#    y 0.000000 1.907230 0.000060 
#    z 0.062220 0.000060 1.930860 
# 
# From -- ./inp_files/322557.got.cif
#   From: 2010.05.17/outbox.cif.g08.bks.cpg/sg12_162_cif.got.tgz:322557.got - 2010.06.03 13:09:07.
