data_PCOD9170690
_publ_section_title
;
Structure prediction by ZEFSAII (Michael W. Deem and Ramdas Pophale) SiO2 
 PCOD9170690
Probable space group: C 2/M
;
_chemical_formula_sum "Si O2"
_cell_formula_units_Z 48
_cell_length_a 12.538225
_cell_length_b 21.684785
_cell_length_c 9.648423
_cell_angle_alpha 90.000000
_cell_angle_beta 103.806971
_cell_angle_gamma 90.000000
_cell_volume 2547.497799
_symmetry_space_group_name_H-M "C 2/M"
_symmetry_group_IT_number 12
_symmetry_cell_setting 'monoclinic'
loop_
_space_group_symop_operation_xyz
x,y,z
-x,y,-z
-x,-y,-z
x,-y,z
1/2+x,1/2+y,z
1/2-x,1/2+y,-z
1/2-x,1/2-y,-z
1/2+x,1/2-y,z
loop_
_atom_site_type_symbol
_atom_site_label
_atom_site_fract_x
_atom_site_fract_y
_atom_site_fract_z
Si Si1 0.369455 0.000000 0.139524
Si Si2 0.949311 0.070960 0.332369
Si Si3 0.277118 0.129192 0.785883
Si Si4 0.517456 0.210389 0.173070
Si Si5 0.199731 0.635331 0.872418
Si Si6 0.118451 0.500000 0.193738
Si Si7 0.435311 0.654111 0.836184
O O1 0.313898 0.063223 0.167644
O O2 0.496912 0.000000 0.216865
O O3 0.376785 0.000000 0.973375
O O4 0.849206 0.119862 0.293361
O O5 0.000000 0.070041 0.500000
O O6 0.038847 0.096592 0.253047
O O7 0.915216 0.000000 0.285899
O O8 0.364510 0.179428 0.759391
O O9 0.326323 0.063879 0.752282
O O10 0.281383 0.136592 0.954826
O O11 0.412636 0.172037 0.194657
O O12 0.520867 0.281815 0.213911
O O13 0.500000 0.208916 0.000000
O O14 0.307235 0.661562 0.832478
O O15 0.500000 0.644103 0.000000
#
# Coordination Sequence:
#
# PCOD9170690 Si02
#       7
#     4   8   8   8   8   4   8
#     4   9  16  26  46  82 120 138 177 232 284 327
#     4  11  25  42  58  79 113 155 191 226 277 341
#     4  10  17  33  56  82 113 149 190 226 276 335
#     4   9  20  32  55  88 119 147 180 231 285 335
#     4  10  19  31  53  88 119 142 179 236 284 326
#     4   9  14  26  48  81 110 149 181 222 283 328
#     4  11  23  36  58  86 116 149 184 231 283 331
#
# _framework density 18.842019000000001
#
# number of rings (size 3 to 8) (size 9 to 14) (size 15 to 20)
#    0.000    2.000    4.167    0.000    3.500    2.333 
#    0.000    0.833    0.000    0.000    0.000    3.500 
#    0.000    0.000    0.000    0.000    0.000    0.000 
#
# Total GULP energy -133724.799240 kJ/mol
# GULP energy per Si atom -5571.866635 kJ/mol
# Density = 1.879913 g / cm^3
# Si number density = 18.842019 Si / 1000 Ang^3
#
#
#
# Elastic Constant Matrix: (Units=GPa)
#
#
# Indices 1 2 3 4 5 6 
#
# 1 109.2442 37.7656 17.7463 0.0000 8.2940 0.0000
# 2 37.7656 104.0198 25.7560 0.0000 -1.9187 0.0000
# 3 17.7463 25.7560 17.4332 0.0000 -1.9196 0.0000
# 4 0.0000 0.0000 0.0000 16.6478 0.0000 10.0568
# 5 8.2940 -1.9187 -1.9196 0.0000 8.4996 0.0000
# 6 0.0000 0.0000 0.0000 10.0568 0.0000 31.7314
#
#
#
# Elastic Compliance Matrix: (Units=1/GPa)
#
#
# Indices 1 2 3 4 5 6 
#
# 1 0.013010 -0.002057 -0.011952 0.000000 -0.015859 0.000000
# 2 -0.002057 0.015507 -0.020726 0.000000 0.000827 0.000000
# 3 -0.011952 -0.020726 0.103491 0.000000 0.030357 0.000000
# 4 0.000000 0.000000 0.000000 0.074292 0.000000 -0.023546
# 5 -0.015859 0.000827 0.030357 0.000000 0.140171 0.000000
# 6 0.000000 0.000000 0.000000 -0.023546 0.000000 0.038977
#
#
# Mechanical properties :
#
#
# Convention : Reuss Voigt Hill
#
# Bulk Modulus (GPa) = 15.98967 43.69254 29.84111
# Shear Modulus (GPa) = 10.50940 21.33772 15.92356
#
# Velocity S-wave (km/s) = 2.36426 3.36885 2.91023
# Velocity P-wave (km/s) = 3.99470 6.19446 5.21196
#
# Compressibility (1/GPa) = 0.06254037
#
# Stress axis : x y z
#
# Youngs Moduli (GPa) = 76.86162 64.48500 9.66264
#
# Poissons Ratio (x) = 0.13263 0.11548
# Poissons Ratio (y) = 0.15809 0.20027
# Poissons Ratio (z) = 0.91862 1.33652
#
# Static dielectric constant tensor:
#      x y z
#    x 1.679360 0.000000 0.025510 
#    y 0.000000 1.663790 0.000000 
#    z 0.025510 0.000000 1.631040 
# 
# From -- ./inp_files/132628.got.cif
#   From: 2010.05.17/outbox.cif.g08.bks.cpg/sg12_67_cif.got.tgz:132628.got - 2010.06.03 13:09:07.
