data_PCOD9170422
_publ_section_title
;
Structure prediction by ZEFSAII (Michael W. Deem and Ramdas Pophale) SiO2 
 PCOD9170422
Probable space group: C 2/M
;
_chemical_formula_sum "Si O2"
_cell_formula_units_Z 64
_cell_length_a 29.093563
_cell_length_b 19.068890
_cell_length_c 20.500861
_cell_angle_alpha 90.000000
_cell_angle_beta 161.833233
_cell_angle_gamma 90.000000
_cell_volume 3546.076110
_symmetry_space_group_name_H-M "C 2/M"
_symmetry_group_IT_number 12
_symmetry_cell_setting 'monoclinic'
loop_
_space_group_symop_operation_xyz
x,y,z
-x,y,-z
-x,-y,-z
x,-y,z
1/2+x,1/2+y,z
1/2-x,1/2+y,-z
1/2-x,1/2-y,-z
1/2+x,1/2-y,z
loop_
_atom_site_type_symbol
_atom_site_label
_atom_site_fract_x
_atom_site_fract_y
_atom_site_fract_z
Si Si1 0.694073 0.700569 0.630019
Si Si2 0.250829 0.209069 0.406397
Si Si3 0.074047 0.078482 0.851846
Si Si4 0.300794 0.166824 0.915249
Si Si5 0.230452 0.576719 0.353514
Si Si6 0.021012 0.205966 0.201796
Si Si7 0.090247 0.418629 0.307806
Si Si8 0.345743 0.681563 0.146732
O O1 0.747137 0.772598 0.667145
O O2 0.712918 0.682432 0.730921
O O3 0.790462 0.640538 0.723636
O O4 0.519183 0.698819 0.380380
O O5 0.091722 0.211585 0.225895
O O6 0.345708 0.271765 0.569372
O O7 0.328749 0.136835 0.534810
O O8 0.170973 0.120414 0.929703
O O9 0.907771 0.072557 0.599576
O O10 0.046928 0.130303 0.875786
O O11 0.126395 0.000000 0.936773
O O12 0.202840 0.157575 0.847101
O O13 0.399594 0.236715 0.054417
O O14 0.420277 0.104571 0.072350
O O15 0.178842 0.500000 0.260466
O O16 0.162746 0.588832 0.333770
O O17 0.105925 0.500000 0.348466
O O18 0.250000 0.750000 0.000000
#
# Coordination Sequence:
#
# PCOD9170422 Si02
#       8
#     8   8   8   8   8   8   8   8
#     4  11  21  35  51  81 111 146 179 224 280 337
#     4  10  17  31  55  80 107 139 188 231 266 317
#     4  10  18  32  56  82 105 135 180 232 275 315
#     4  11  23  33  52  78 114 147 178 223 282 341
#     4   9  17  31  52  77 107 142 180 217 267 325
#     4  10  17  32  53  81 105 136 183 231 269 319
#     4  10  20  34  54  80 110 147 188 230 270 320
#     4  11  20  38  57  75 102 140 192 236 266 315
#
# _framework density 18.048117000000001
#
# number of rings (size 3 to 8) (size 9 to 14) (size 15 to 20)
#    0.000    1.750    5.000    2.625    0.000    3.000 
#    0.000    1.250    0.000    4.500    0.000    2.625 
#    0.000    0.000    0.000    0.000    0.000    0.000 
#
# Total GULP energy -178299.947165 kJ/mol
# GULP energy per Si atom -5571.873349 kJ/mol
# Density = 1.800704 g / cm^3
# Si number density = 18.048117 Si / 1000 Ang^3
#
#
#
# Elastic Constant Matrix: (Units=GPa)
#
#
# Indices 1 2 3 4 5 6 
#
# 1 93.4586 45.2847 32.5905 0.0001 26.2865 0.0001
# 2 45.2847 128.6382 22.5429 0.0000 18.4136 0.0000
# 3 32.5905 22.5429 30.4501 -0.0001 17.3186 0.0000
# 4 0.0001 0.0000 -0.0001 9.0137 0.0001 2.9504
# 5 26.2865 18.4136 17.3186 0.0001 21.8786 0.0002
# 6 0.0001 0.0000 0.0000 2.9504 0.0002 8.2358
#
#
#
# Elastic Compliance Matrix: (Units=1/GPa)
#
#
# Indices 1 2 3 4 5 6 
#
# 1 0.019699 -0.003162 -0.012359 0.000000 -0.011223 0.000000
# 2 -0.003162 0.009653 -0.002368 0.000000 -0.002450 0.000000
# 3 -0.012359 -0.002368 0.069559 0.000002 -0.038219 0.000000
# 4 0.000000 0.000000 0.000002 0.125680 -0.000001 -0.045024
# 5 -0.011223 -0.002450 -0.038219 -0.000001 0.091506 -0.000001
# 6 0.000000 0.000000 0.000000 -0.045024 -0.000001 0.137550
#
#
# Mechanical properties :
#
#
# Convention : Reuss Voigt Hill
#
# Bulk Modulus (GPa) = 15.84009 50.37589 33.10799
# Shear Modulus (GPa) = 9.79493 17.96755 13.88124
#
# Velocity S-wave (km/s) = 2.33215 3.15863 2.77632
# Velocity P-wave (km/s) = 4.00593 6.42458 5.35363
#
# Compressibility (1/GPa) = 0.06313093
#
# Stress axis : x y z
#
# Youngs Moduli (GPa) = 50.76520 103.59865 14.37629
#
# Poissons Ratio (x) = 0.32760 0.17768
# Poissons Ratio (y) = 0.16053 0.03404
# Poissons Ratio (z) = 0.62742 0.24533
#
# Static dielectric constant tensor:
#      x y z
#    x 1.657110 0.000000 -0.020680 
#    y 0.000000 1.653490 0.000000 
#    z -0.020680 0.000000 1.636840 
# 
# From -- ./inp_files/317381.got.cif
#   From: 2010.05.17/outbox.cif.g08.bks.cpg/sg12_159_cif.got.tgz:317381.got - 2010.06.03 13:09:07.
