data_PCOD9170956
_publ_section_title
;
Structure prediction by ZEFSAII (Michael W. Deem and Ramdas Pophale) SiO2 
 PCOD9170956
Probable space group: C 2/M
;
_chemical_formula_sum "Si O2"
_cell_formula_units_Z 60
_cell_length_a 14.893997
_cell_length_b 18.669832
_cell_length_c 11.997387
_cell_angle_alpha 90.000000
_cell_angle_beta 62.948722
_cell_angle_gamma 90.000000
_cell_volume 2971.125265
_symmetry_space_group_name_H-M "C 2/M"
_symmetry_group_IT_number 12
_symmetry_cell_setting 'monoclinic'
loop_
_space_group_symop_operation_xyz
x,y,z
-x,y,-z
-x,-y,-z
x,-y,z
1/2+x,1/2+y,z
1/2-x,1/2+y,-z
1/2-x,1/2-y,-z
1/2+x,1/2-y,z
loop_
_atom_site_type_symbol
_atom_site_label
_atom_site_fract_x
_atom_site_fract_y
_atom_site_fract_z
Si Si1 0.597088 0.130980 0.875076
Si Si2 0.335740 0.283384 0.203115
Si Si3 0.386012 0.713895 0.647954
Si Si4 0.500000 0.160906 0.500000
Si Si5 0.639654 0.915362 0.598003
Si Si6 0.619907 0.579142 0.955454
Si Si7 0.178932 0.918708 0.181142
Si Si8 0.323989 0.681075 0.451854
O O1 0.598226 0.217664 0.878040
O O2 0.599955 0.111534 0.741371
O O3 0.702635 0.100674 0.865745
O O4 0.500000 0.104961 0.000000
O O5 0.227385 0.245651 0.277131
O O6 0.329928 0.352453 0.129376
O O7 0.370754 0.312685 0.303851
O O8 0.450162 0.786182 0.619604
O O9 0.385906 0.644086 0.724404
O O10 0.397716 0.687745 0.513596
O O11 0.422180 0.115040 0.472373
O O12 0.752462 0.886077 0.515190
O O13 0.636076 0.000000 0.601142
O O14 0.651246 0.500000 0.894699
O O15 0.500000 0.585234 0.000000
O O16 0.648155 0.581215 0.069338
O O17 0.162455 0.000000 0.233842
O O18 0.250000 0.750000 0.500000
#
# Coordination Sequence:
#
# PCOD9170956 Si02
#       8
#     8   8   8   4   8   8   8   8
#     4  11  23  39  65  95 124 168 216 263 314 380
#     4  10  19  38  64  88 121 162 210 254 312 379
#     4  10  21  37  65  90 119 164 205 260 315 380
#     4  12  23  40  59  98 134 162 208 266 319 388
#     4  12  24  40  63  90 130 170 208 262 324 381
#     4  10  23  41  60  87 124 164 207 263 324 376
#     4  10  22  42  63  89 127 164 210 267 321 376
#     4  10  17  40  62  84 117 161 208 248 306 373
#
# _framework density 20.194368999999998
#
# number of rings (size 3 to 8) (size 9 to 14) (size 15 to 20)
#    0.000    1.467    6.667    1.000    0.000    8.000 
#    0.000    1.667    0.000    0.000    0.000    0.000 
#    0.000    0.000    0.000    0.000    0.000    0.000 
#
# Total GULP energy -167306.442023 kJ/mol
# GULP energy per Si atom -5576.881401 kJ/mol
# Density = 2.014841 g / cm^3
# Si number density = 20.194369 Si / 1000 Ang^3
#
#
#
# Elastic Constant Matrix: (Units=GPa)
#
#
# Indices 1 2 3 4 5 6 
#
# 1 65.1544 19.0531 16.1317 0.0000 15.6247 0.0000
# 2 19.0531 156.5374 39.4102 0.0000 13.5084 0.0000
# 3 16.1317 39.4102 51.3008 0.0000 13.8577 0.0000
# 4 0.0000 0.0000 0.0000 142.3963 0.0000 39.7204
# 5 15.6247 13.5084 13.8577 0.0000 28.8101 0.0000
# 6 0.0000 0.0000 0.0000 39.7204 0.0000 12.4275
#
#
#
# Elastic Compliance Matrix: (Units=1/GPa)
#
#
# Indices 1 2 3 4 5 6 
#
# 1 0.018252 -0.000779 -0.002949 0.000000 -0.008115 0.000000
# 2 -0.000779 0.007974 -0.005729 0.000000 -0.000561 0.000000
# 3 -0.002949 -0.005729 0.027198 0.000000 -0.008796 0.000000
# 4 0.000000 0.000000 0.000000 0.064753 0.000000 -0.206962
# 5 -0.008115 -0.000561 -0.008796 0.000000 0.043605 0.000000
# 6 0.000000 0.000000 0.000000 -0.206962 0.000000 0.741951
#
#
# Mechanical properties :
#
#
# Convention : Reuss Voigt Hill
#
# Bulk Modulus (GPa) = 28.97768 46.90917 37.94342
# Shear Modulus (GPa) = 5.35246 49.95329 27.65287
#
# Velocity S-wave (km/s) = 1.62979 4.97895 3.70447
# Velocity P-wave (km/s) = 4.23346 7.50550 6.09322
#
# Compressibility (1/GPa) = 0.03450932
#
# Stress axis : x y z
#
# Youngs Moduli (GPa) = 54.78810 125.41002 36.76778
#
# Poissons Ratio (x) = 0.09767 0.10843
# Poissons Ratio (y) = 0.04267 0.21065
# Poissons Ratio (z) = 0.16157 0.71851
#
# Static dielectric constant tensor:
#      x y z
#    x 1.782290 0.000000 -0.056090 
#    y 0.000000 1.707270 0.000000 
#    z -0.056090 0.000000 1.769610 
# 
# From -- ./inp_files/146109.got.cif
#   From: 2010.05.17/outbox.cif.g08.bks.cpg/sg12_74_cif.got.tgz:146109.got - 2010.06.03 13:09:07.
