data_PCOD9170592
_publ_section_title
;
Structure prediction by ZEFSAII (Michael W. Deem and Ramdas Pophale) SiO2 
 PCOD9170592
Probable space group: C 2/M
;
_chemical_formula_sum "Si O2"
_cell_formula_units_Z 56
_cell_length_a 20.812616
_cell_length_b 19.060241
_cell_length_c 19.250734
_cell_angle_alpha 90.000000
_cell_angle_beta 21.353796
_cell_angle_gamma 90.000000
_cell_volume 2780.698260
_symmetry_space_group_name_H-M "C 2/M"
_symmetry_group_IT_number 12
_symmetry_cell_setting 'monoclinic'
loop_
_space_group_symop_operation_xyz
x,y,z
-x,y,-z
-x,-y,-z
x,-y,z
1/2+x,1/2+y,z
1/2-x,1/2+y,-z
1/2-x,1/2-y,-z
1/2+x,1/2-y,z
loop_
_atom_site_type_symbol
_atom_site_label
_atom_site_fract_x
_atom_site_fract_y
_atom_site_fract_z
Si Si1 0.821169 0.581999 0.052702
Si Si2 0.508411 0.718940 0.799779
Si Si3 0.561383 0.078708 0.216296
Si Si4 0.850576 0.080613 0.405417
Si Si5 0.100165 0.689201 0.833333
Si Si6 0.538521 0.353907 0.559344
Si Si7 0.591819 0.218533 0.243088
O O1 0.861436 0.500000 0.015637
O O2 0.634373 0.598907 0.275928
O O3 0.821103 0.600552 0.969628
O O4 0.972899 0.627435 0.934770
O O5 0.564518 0.638425 0.731404
O O6 0.614384 0.756806 0.754601
O O7 0.516568 0.758969 0.717552
O O8 0.301781 0.727096 0.024892
O O9 0.359320 0.077989 0.394309
O O10 0.568792 0.135393 0.269717
O O11 0.612218 0.000000 0.185153
O O12 0.885593 0.112120 0.446090
O O13 0.917151 0.000000 0.332521
O O14 0.289815 0.656375 0.660496
O O15 0.000000 0.721846 0.000000
O O16 0.468685 0.274735 0.640277
#
# Coordination Sequence:
#
# PCOD9170592 Si02
#       7
#     8   8   8   8   8   8   8
#     4  11  22  38  56  80 112 147 191 232 272 327
#     4  10  19  35  55  83 114 140 190 233 280 336
#     4  10  18  30  51  85 121 145 175 224 285 345
#     4  10  19  31  57  90 118 146 178 230 296 345
#     4  12  25  41  58  79 112 156 199 233 270 325
#     4  11  21  36  60  82 113 147 186 234 285 332
#     4  10  17  32  58  82 109 144 179 236 294 332
#
# _framework density 20.138826999999999
#
# number of rings (size 3 to 8) (size 9 to 14) (size 15 to 20)
#    0.000    1.429    4.286    3.000    0.000    5.429 
#    0.000    0.714    0.000    0.429    0.000    0.000 
#    0.000    4.571    0.000    0.000    0.000    0.000 
#
# Total GULP energy -156315.002906 kJ/mol
# GULP energy per Si atom -5582.678675 kJ/mol
# Density = 2.009299 g / cm^3
# Si number density = 20.138827 Si / 1000 Ang^3
#
#
#
# Elastic Constant Matrix: (Units=GPa)
#
#
# Indices 1 2 3 4 5 6 
#
# 1 19.0052 15.9312 3.1354 -0.0095 10.0402 0.0086
# 2 15.9312 122.5241 17.9938 0.0309 -0.0463 -0.0015
# 3 3.1354 17.9938 85.4275 0.0203 -3.4646 -0.0274
# 4 -0.0095 0.0309 0.0203 27.6664 -0.0171 -9.0007
# 5 10.0402 -0.0463 -3.4646 -0.0171 10.9888 -0.0014
# 6 0.0086 -0.0015 -0.0274 -9.0007 -0.0014 14.5225
#
#
#
# Elastic Compliance Matrix: (Units=1/GPa)
#
#
# Indices 1 2 3 4 5 6 
#
# 1 0.132317 -0.016310 -0.006409 -0.000052 -0.122985 -0.000136
# 2 -0.016310 0.010436 -0.001006 -0.000005 0.014629 0.000007
# 3 -0.006409 -0.001006 0.012551 0.000006 0.009808 0.000032
# 4 -0.000052 -0.000005 0.000006 0.045273 0.000123 0.028059
# 5 -0.122985 0.014629 0.009808 0.000123 0.206524 0.000189
# 6 -0.000136 0.000007 0.000032 0.028059 0.000189 0.086249
#
#
# Mechanical properties :
#
#
# Convention : Reuss Voigt Hill
#
# Bulk Modulus (GPa) = 9.27179 33.45307 21.36243
# Shear Modulus (GPa) = 8.66925 23.29530 15.98227
#
# Velocity S-wave (km/s) = 2.07704 3.40477 2.82016
# Velocity P-wave (km/s) = 3.21963 5.66603 4.60814
#
# Compressibility (1/GPa) = 0.10785406
#
# Stress axis : x y z
#
# Youngs Moduli (GPa) = 7.55759 95.82547 79.67623
#
# Poissons Ratio (x) = 1.56289 0.51063
# Poissons Ratio (y) = 0.12326 0.08017
# Poissons Ratio (z) = 0.04844 0.09642
#
# Static dielectric constant tensor:
#      x y z
#    x 1.752870 -0.000010 0.006480 
#    y -0.000010 1.729260 0.000020 
#    z 0.006480 0.000020 1.767820 
# 
# From -- ./inp_files/326001.got.cif
#   From: 2010.05.17/outbox.cif.g08.bks.cpg/sg12_164_cif.got.tgz:326001.got - 2010.06.03 13:09:07.
