data_PCOD9170161
_publ_section_title
;
Structure prediction by ZEFSAII (Michael W. Deem and Ramdas Pophale) SiO2 
 PCOD9170161
Probable space group: C 2/M
;
_chemical_formula_sum "Si O2"
_cell_formula_units_Z 48
_cell_length_a 19.957486
_cell_length_b 18.266823
_cell_length_c 21.705409
_cell_angle_alpha 90.000000
_cell_angle_beta 20.832332
_cell_angle_gamma 90.000000
_cell_volume 2814.107118
_symmetry_space_group_name_H-M "C 2/M"
_symmetry_group_IT_number 12
_symmetry_cell_setting 'monoclinic'
loop_
_space_group_symop_operation_xyz
x,y,z
-x,y,-z
-x,-y,-z
x,-y,z
1/2+x,1/2+y,z
1/2-x,1/2+y,-z
1/2-x,1/2-y,-z
1/2+x,1/2-y,z
loop_
_atom_site_type_symbol
_atom_site_label
_atom_site_fract_x
_atom_site_fract_y
_atom_site_fract_z
Si Si1 0.775816 0.205418 0.541894
Si Si2 0.093233 0.768078 0.084933
Si Si3 0.419116 0.579518 0.229987
Si Si4 0.866058 0.699627 0.752381
Si Si5 0.875686 0.415721 0.405629
Si Si6 0.199836 0.581122 0.293309
O O1 0.750000 0.250000 0.500000
O O2 0.600220 0.225038 0.736577
O O3 0.751202 0.122229 0.538791
O O4 0.969207 0.240487 0.401772
O O5 0.045950 0.852693 0.135846
O O6 0.250000 0.750000 0.000000
O O7 0.190348 0.760954 0.935330
O O8 0.508082 0.500000 0.161406
O O9 0.242736 0.583347 0.428526
O O10 0.350276 0.586972 0.218832
O O11 0.802246 0.649086 0.750682
O O12 0.954164 0.639948 0.725145
O O13 0.926548 0.500000 0.348420
O O14 0.221140 0.500000 0.244974
O O15 0.000000 0.580837 0.500000
#
# Coordination Sequence:
#
# PCOD9170161 Si02
#       6
#     8   8   8   8   8   8
#     4  10  18  34  49  69  96 127 169 214 250 289
#     4  12  20  33  50  69  92 133 172 209 251 289
#     4  10  20  32  48  73 106 134 167 207 240 287
#     4  11  20  31  52  69  98 138 172 199 246 294
#     4  10  17  30  50  71  97 131 165 203 247 290
#     4  10  18  31  50  73 104 143 175 199 235 294
#
# _framework density 17.056920000000002
#
# number of rings (size 3 to 8) (size 9 to 14) (size 15 to 20)
#    0.000    1.500    8.333    0.500    0.000    2.000 
#    0.000    1.667    0.000    0.000    0.000    0.000 
#    0.000    7.333    0.000   20.833    0.000    0.000 
#
# Total GULP energy -133752.654819 kJ/mol
# GULP energy per Si atom -5573.027284 kJ/mol
# Density = 1.701810 g / cm^3
# Si number density = 17.056920 Si / 1000 Ang^3
#
#
#
# Elastic Constant Matrix: (Units=GPa)
#
#
# Indices 1 2 3 4 5 6 
#
# 1 53.9319 34.1009 18.3932 0.0121 9.9692 0.0071
# 2 34.1009 73.3159 13.1039 0.0301 -6.6314 -0.0324
# 3 18.3932 13.1039 71.8758 0.0037 18.4133 -0.0015
# 4 0.0121 0.0301 0.0037 21.6592 -0.0041 -0.6465
# 5 9.9692 -6.6314 18.4133 -0.0041 14.4772 -0.0090
# 6 0.0071 -0.0324 -0.0015 -0.6465 -0.0090 27.3031
#
#
#
# Elastic Compliance Matrix: (Units=1/GPa)
#
#
# Indices 1 2 3 4 5 6 
#
# 1 0.040173 -0.023908 0.005890 0.000000 -0.046106 -0.000054
# 2 -0.023908 0.030702 -0.010827 -0.000018 0.044298 0.000056
# 3 0.005890 -0.010827 0.024755 -0.000001 -0.040501 -0.000026
# 4 0.000000 -0.000018 -0.000001 0.046202 0.000007 0.001094
# 5 -0.046106 0.044298 -0.040501 0.000007 0.172628 0.000120
# 6 -0.000054 0.000056 -0.000026 0.001094 0.000120 0.036652
#
#
# Mechanical properties :
#
#
# Convention : Reuss Voigt Hill
#
# Bulk Modulus (GPa) = 26.35844 36.70217 31.53031
# Shear Modulus (GPa) = 11.86380 21.58960 16.72670
#
# Velocity S-wave (km/s) = 2.64017 3.56158 3.13491
# Velocity P-wave (km/s) = 4.97803 6.20301 5.62397
#
# Compressibility (1/GPa) = 0.03793851
#
# Stress axis : x y z
#
# Youngs Moduli (GPa) = 24.89236 32.57124 40.39539
#
# Poissons Ratio (x) = 0.77873 -0.23793
# Poissons Ratio (y) = 0.59514 0.43738
# Poissons Ratio (z) = -0.14662 0.35266
#
# Static dielectric constant tensor:
#      x y z
#    x 1.591550 -0.000010 0.002630 
#    y -0.000010 1.602240 0.000030 
#    z 0.002630 0.000030 1.685740 
# 
# From -- ./inp_files/317875.got.cif
#   From: 2010.05.17/outbox.cif.g08.bks.cpg/sg12_159_cif.got.tgz:317875.got - 2010.06.03 13:09:07.
