data_PCOD9170037
_publ_section_title
;
Structure prediction by ZEFSAII (Michael W. Deem and Ramdas Pophale) SiO2 
 PCOD9170037
Probable space group: C 2/M
;
_chemical_formula_sum "Si O2"
_cell_formula_units_Z 64
_cell_length_a 20.861481
_cell_length_b 28.456978
_cell_length_c 12.891070
_cell_angle_alpha 90.000000
_cell_angle_beta 23.959750
_cell_angle_gamma 90.000000
_cell_volume 3107.780163
_symmetry_space_group_name_H-M "C 2/M"
_symmetry_group_IT_number 12
_symmetry_cell_setting 'monoclinic'
loop_
_space_group_symop_operation_xyz
x,y,z
-x,y,-z
-x,-y,-z
x,-y,z
1/2+x,1/2+y,z
1/2-x,1/2+y,-z
1/2-x,1/2-y,-z
1/2+x,1/2-y,z
loop_
_atom_site_type_symbol
_atom_site_label
_atom_site_fract_x
_atom_site_fract_y
_atom_site_fract_z
Si Si1 0.444266 0.281547 0.469207
Si Si2 0.633101 0.944533 0.575791
Si Si3 0.338276 0.367370 0.871450
Si Si4 0.654582 0.888461 0.339370
Si Si5 0.748019 0.945761 0.843923
Si Si6 0.393190 0.812329 0.075606
Si Si7 0.476805 0.813659 0.730294
Si Si8 0.680110 0.913844 0.727366
O O1 0.500000 0.266260 0.500000
O O2 0.511030 0.333874 0.354108
O O3 0.257217 0.283782 0.738413
O O4 0.510603 0.242184 0.295168
O O5 0.685206 0.922665 0.389843
O O6 0.717961 0.922614 0.551511
O O7 0.658732 0.000000 0.541213
O O8 0.441489 0.937091 0.862223
O O9 0.332120 0.409369 0.797053
O O10 0.295905 0.384723 0.048938
O O11 0.192232 0.333083 0.056432
O O12 0.500000 0.903367 0.500000
O O13 0.603350 0.839158 0.469108
O O14 0.777932 0.936514 0.677162
O O15 0.781841 0.000000 0.819072
O O16 0.334036 0.859216 0.221419
O O17 0.500000 0.785537 0.000000
O O18 0.490355 0.827399 0.830469
O O19 0.500000 0.933930 0.000000
#
# Coordination Sequence:
#
# PCOD9170037 Si02
#       8
#     8   8   8   8   8   8   8   8
#     4  12  24  38  65  90 116 161 210 250 296 365
#     4  10  18  29  52  85 115 157 205 240 293 365
#     4  11  21  37  56  89 122 159 201 249 299 362
#     4  10  19  32  52  82 122 159 189 249 303 351
#     4  10  17  29  51  84 119 154 195 250 304 352
#     4  11  23  40  63  87 122 158 196 256 306 354
#     4  11  21  38  61  87 118 159 203 246 297 355
#     4   9  16  32  53  77 111 152 198 244 289 346
#
# _framework density 20.593477
#
# number of rings (size 3 to 8) (size 9 to 14) (size 15 to 20)
#    0.000    1.500    5.000    3.375    1.750    2.750 
#    0.000    0.000    0.000    4.125    0.000    0.875 
#    0.000    0.000    0.000    0.000    0.000    0.125 
#
# Total GULP energy -178699.582368 kJ/mol
# GULP energy per Si atom -5584.361949 kJ/mol
# Density = 2.054661 g / cm^3
# Si number density = 20.593477 Si / 1000 Ang^3
#
#
#
# Elastic Constant Matrix: (Units=GPa)
#
#
# Indices 1 2 3 4 5 6 
#
# 1 152.6912 54.7134 42.1923 -0.0073 30.7502 0.0090
# 2 54.7134 105.3942 18.2470 0.0028 3.4881 -0.0081
# 3 42.1923 18.2470 39.1852 -0.0138 7.8493 -0.0027
# 4 -0.0073 0.0028 -0.0138 15.0568 0.0113 11.7006
# 5 30.7502 3.4881 7.8493 0.0113 28.7759 -0.0128
# 6 0.0090 -0.0081 -0.0027 11.7006 -0.0128 8.0942
#
#
#
# Elastic Compliance Matrix: (Units=1/GPa)
#
#
# Indices 1 2 3 4 5 6 
#
# 1 0.013124 -0.004768 -0.009751 -0.000301 -0.010787 0.000396
# 2 -0.004768 0.012053 -0.001276 0.000217 0.003982 -0.000291
# 3 -0.009751 -0.001276 0.036488 -0.000089 0.000621 0.000151
# 4 -0.000301 0.000217 -0.000089 -0.538444 0.000877 0.778353
# 5 -0.010787 0.003982 0.000621 0.000877 0.045625 -0.001179
# 6 0.000396 -0.000291 0.000151 0.778353 -0.001179 -1.001610
#
#
# Mechanical properties :
#
#
# Convention : Reuss Voigt Hill
#
# Bulk Modulus (GPa) = 33.24917 58.61956 45.93437
# Shear Modulus (GPa) = -3.59415 22.52658 9.46621
#
# Velocity S-wave (km/s) = -1.32253 3.31096 2.14632
# Velocity P-wave (km/s) = 3.72135 6.56837 5.33816
#
# Compressibility (1/GPa) = 0.03007594
#
# Stress axis : x y z
#
# Youngs Moduli (GPa) = 76.19435 82.96994 27.40605
#
# Poissons Ratio (x) = 0.39561 0.26722
# Poissons Ratio (y) = 0.36330 0.03497
# Poissons Ratio (z) = 0.74294 0.10587
#
# Static dielectric constant tensor:
#      x y z
#    x 1.779620 -0.000010 -0.001620 
#    y -0.000010 1.734310 0.000020 
#    z -0.001620 0.000020 1.774620 
# 
# From -- ./inp_files/161213.got.cif
#   From: 2010.05.17/outbox.cif.g08.bks.cpg/sg12_81_cif.got.tgz:161213.got - 2010.06.03 13:09:07.
