data_PCOD9170935
_publ_section_title
;
Structure prediction by ZEFSAII (Michael W. Deem and Ramdas Pophale) SiO2 
 PCOD9170935
Probable space group: C 2/M
;
_chemical_formula_sum "Si O2"
_cell_formula_units_Z 44
_cell_length_a 31.772572
_cell_length_b 8.205801
_cell_length_c 26.515402
_cell_angle_alpha 90.000000
_cell_angle_beta 16.553178
_cell_angle_gamma 90.000000
_cell_volume 1969.571913
_symmetry_space_group_name_H-M "C 2/M"
_symmetry_group_IT_number 12
_symmetry_cell_setting 'monoclinic'
loop_
_space_group_symop_operation_xyz
x,y,z
-x,y,-z
-x,-y,-z
x,-y,z
1/2+x,1/2+y,z
1/2-x,1/2+y,-z
1/2-x,1/2-y,-z
1/2+x,1/2-y,z
loop_
_atom_site_type_symbol
_atom_site_label
_atom_site_fract_x
_atom_site_fract_y
_atom_site_fract_z
Si Si1 0.046097 0.000000 0.815579
Si Si2 0.936220 0.187125 0.765807
Si Si3 0.712998 0.000000 0.381819
Si Si4 0.581091 0.196638 0.703052
Si Si5 0.838654 0.168948 0.586012
Si Si6 0.256535 0.000000 0.808978
Si Si7 0.500000 0.254815 0.500000
Si Si8 0.355065 0.000000 0.807738
O O1 0.207442 0.000000 0.655890
O O2 0.030423 0.829987 0.802800
O O3 0.914519 0.000000 0.007402
O O4 0.996846 0.258870 0.748284
O O5 0.071417 0.175366 0.569985
O O6 0.832409 0.328236 0.861949
O O7 0.883354 0.000000 0.830532
O O8 0.752802 0.834247 0.307988
O O9 0.532654 0.000000 0.590832
O O10 0.750000 0.250000 0.500000
O O11 0.569872 0.000000 0.726573
O O12 0.954992 0.166729 0.498543
O O13 0.752432 0.000000 0.686811
O O14 0.354473 0.849200 0.678960
O O15 0.265458 0.000000 0.859468
#
# Coordination Sequence:
#
# PCOD9170935 Si02
#       8
#     4   8   4   8   8   4   4   4
#     4  12  27  42  64 104 138 177 222 283 326 388
#     4  10  18  32  58  91 123 161 217 269 313 381
#     4  10  19  38  62  88 128 170 217 266 325 389
#     4  12  22  38  65  94 131 180 226 262 324 403
#     4  10  20  34  66 101 124 165 229 275 323 399
#     4  11  23  42  68  97 138 174 223 282 339 384
#     4  11  19  42  72  97 127 182 225 269 342 413
#     4  10  17  37  63  85 125 172 217 263 323 393
#
# _framework density 22.339879
#
# number of rings (size 3 to 8) (size 9 to 14) (size 15 to 20)
#    0.000    1.273    6.364    3.000    0.000    2.182 
#    0.000    5.455    0.000    1.091    0.000    0.000 
#    0.000    0.000    0.000    0.000    0.000    0.000 
#
# Total GULP energy -122705.799732 kJ/mol
# GULP energy per Si atom -5577.536351 kJ/mol
# Density = 2.228903 g / cm^3
# Si number density = 22.339879 Si / 1000 Ang^3
#
#
#
# Elastic Constant Matrix: (Units=GPa)
#
#
# Indices 1 2 3 4 5 6 
#
# 1 99.2193 31.2618 -11.2778 -0.0057 -1.8734 -0.0052
# 2 31.2618 234.0203 14.9652 -0.0241 9.5342 -0.0056
# 3 -11.2778 14.9652 70.9492 -0.0141 -6.9552 -0.0132
# 4 -0.0057 -0.0241 -0.0141 20.9894 -0.0035 37.9561
# 5 -1.8734 9.5342 -6.9552 -0.0035 12.2027 -0.0082
# 6 -0.0052 -0.0056 -0.0132 37.9561 -0.0082 136.9734
#
#
#
# Elastic Compliance Matrix: (Units=1/GPa)
#
#
# Indices 1 2 3 4 5 6 
#
# 1 0.011036 -0.001827 0.002590 0.000004 0.004598 0.000000
# 2 -0.001827 0.004841 -0.001811 0.000007 -0.005095 -0.000002
# 3 0.002590 -0.001811 0.015958 0.000014 0.010908 -0.000002
# 4 0.000004 0.000007 0.000014 0.095497 0.000012 -0.026463
# 5 0.004598 -0.005095 0.010908 0.000012 0.092853 0.000003
# 6 0.000000 -0.000002 -0.000002 -0.026463 0.000003 0.014634
#
#
# Mechanical properties :
#
#
# Convention : Reuss Voigt Hill
#
# Bulk Modulus (GPa) = 33.62651 52.67634 43.15143
# Shear Modulus (GPa) = 20.25722 58.64908 39.45315
#
# Velocity S-wave (km/s) = 3.01454 5.12934 4.20699
# Velocity P-wave (km/s) = 5.21550 7.66230 6.55409
#
# Compressibility (1/GPa) = 0.02973844
#
# Stress axis : x y z
#
# Youngs Moduli (GPa) = 90.61539 206.58647 62.66590
#
# Poissons Ratio (x) = 0.37747 -0.16233
# Poissons Ratio (y) = 0.16557 0.11348
# Poissons Ratio (z) = -0.23473 0.37411
#
# Static dielectric constant tensor:
#      x y z
#    x 1.847880 0.000000 0.048060 
#    y 0.000000 1.921240 0.000010 
#    z 0.048060 0.000010 1.805870 
# 
# From -- ./inp_files/353252.got.cif
#   From: 2010.05.17/outbox.cif.g08.bks.cpg/sg12_177_cif.got.tgz:353252.got - 2010.06.03 13:09:07.
