data_PCOD9170781
_publ_section_title
;
Structure prediction by ZEFSAII (Michael W. Deem and Ramdas Pophale) SiO2 
 PCOD9170781
Probable space group: C 2/M
;
_chemical_formula_sum "Si O2"
_cell_formula_units_Z 28
_cell_length_a 18.188802
_cell_length_b 9.930192
_cell_length_c 6.901105
_cell_angle_alpha 90.000000
_cell_angle_beta 80.196465
_cell_angle_gamma 90.000000
_cell_volume 1228.264178
_symmetry_space_group_name_H-M "C 2/M"
_symmetry_group_IT_number 12
_symmetry_cell_setting 'monoclinic'
loop_
_space_group_symop_operation_xyz
x,y,z
-x,y,-z
-x,-y,-z
x,-y,z
1/2+x,1/2+y,z
1/2-x,1/2+y,-z
1/2-x,1/2-y,-z
1/2+x,1/2-y,z
loop_
_atom_site_type_symbol
_atom_site_label
_atom_site_fract_x
_atom_site_fract_y
_atom_site_fract_z
Si Si1 0.938173 0.154675 0.815049
Si Si2 0.716186 0.500000 0.788980
Si Si3 0.168303 0.500000 0.555192
Si Si4 0.184159 0.000000 0.257576
Si Si5 0.898461 0.234614 0.242503
O O1 0.870264 0.130646 0.696955
O O2 0.021689 0.183959 0.712675
O O3 0.940192 0.000000 0.895701
O O4 0.915467 0.250164 0.002633
O O5 0.800748 0.500000 0.676507
O O6 0.669244 0.628203 0.732519
O O7 0.713606 0.500000 0.023047
O O8 0.245957 0.500000 0.638130
O O9 0.123977 0.368948 0.639365
#
# Coordination Sequence:
#
# PCOD9170781 Si02
#       5
#     8   4   4   4   8
#     4   8  15  34  61  72 102 159 186 205 273 340
#     4  10  19  38  55  71 123 158 166 212 297 343
#     4  12  24  29  55 100 109 126 192 244 271 313
#     4   8  19  38  57  81 108 146 190 224 267 330
#     4  10  17  34  56  82 108 147 188 223 270 333
#
# _framework density 22.796399999999998
#
# number of rings (size 3 to 8) (size 9 to 14) (size 15 to 20)
#    0.857    1.714    2.857    1.714    0.000    6.857 
#    0.000    2.857    0.000    8.571    0.000   12.000 
#    0.000    0.000    0.000    0.000    0.000    0.000 
#
# Total GULP energy -78084.932526 kJ/mol
# GULP energy per Si atom -5577.495180 kJ/mol
# Density = 2.274451 g / cm^3
# Si number density = 22.796400 Si / 1000 Ang^3
#
#
#
# Elastic Constant Matrix: (Units=GPa)
#
#
# Indices 1 2 3 4 5 6 
#
# 1 61.6444 -12.5215 15.7954 0.0000 -8.5769 0.0000
# 2 -12.5215 81.2255 34.2605 0.0000 -29.9686 0.0000
# 3 15.7954 34.2605 103.5577 0.0000 -30.4684 0.0000
# 4 0.0000 0.0000 0.0000 27.8933 0.0000 7.6919
# 5 -8.5769 -29.9686 -30.4684 0.0000 46.9829 0.0000
# 6 0.0000 0.0000 0.0000 7.6919 0.0000 -15.1627
#
#
#
# Elastic Compliance Matrix: (Units=1/GPa)
#
#
# Indices 1 2 3 4 5 6 
#
# 1 0.019144 0.006373 -0.003465 0.000000 0.005313 0.000000
# 2 0.006373 0.018932 -0.004128 0.000000 0.010563 0.000000
# 3 -0.003465 -0.004128 0.013087 0.000000 0.005221 0.000000
# 4 0.000000 0.000000 0.000000 0.031451 0.000000 0.015955
# 5 0.005313 0.010563 0.005221 0.000000 0.032378 0.000000
# 6 0.000000 0.000000 0.000000 0.015955 0.000000 -0.057858
#
#
# Mechanical properties :
#
#
# Convention : Reuss Voigt Hill
#
# Bulk Modulus (GPa) = 20.52455 35.72182 28.12319
# Shear Modulus (GPa) = 65.95037 25.86891 45.90964
#
# Velocity S-wave (km/s) = 5.38451 3.37230 4.49252
# Velocity P-wave (km/s) = 6.90509 5.55583 6.26688
#
# Compressibility (1/GPa) = 0.04872213
#
# Stress axis : x y z
#
# Youngs Moduli (GPa) = 52.23668 52.82070 76.41308
#
# Poissons Ratio (x) = -0.33662 0.26479
# Poissons Ratio (y) = -0.33290 0.31541
# Poissons Ratio (z) = 0.18101 0.21803
#
# Static dielectric constant tensor:
#      x y z
#    x 1.898390 0.000000 0.030590 
#    y 0.000000 1.810340 0.000000 
#    z 0.030590 0.000000 1.945730 
# 
# From -- ./inp_files/69957.got.cif
#   From: 2010.05.17/outbox.cif.g08.bks.cpg/sg12_35_cif.got.tgz:69957.got - 2010.06.03 13:09:07.
