data_PCOD9170081
_publ_section_title
;
Structure prediction by ZEFSAII (Michael W. Deem and Ramdas Pophale) SiO2 
 PCOD9170081
Probable space group: C 2/M
;
_chemical_formula_sum "Si O2"
_cell_formula_units_Z 64
_cell_length_a 18.482764
_cell_length_b 29.684676
_cell_length_c 9.843299
_cell_angle_alpha 90.000000
_cell_angle_beta 143.368985
_cell_angle_gamma 90.000000
_cell_volume 3222.302954
_symmetry_space_group_name_H-M "C 2/M"
_symmetry_group_IT_number 12
_symmetry_cell_setting 'monoclinic'
loop_
_space_group_symop_operation_xyz
x,y,z
-x,y,-z
-x,-y,-z
x,-y,z
1/2+x,1/2+y,z
1/2-x,1/2+y,-z
1/2-x,1/2-y,-z
1/2+x,1/2-y,z
loop_
_atom_site_type_symbol
_atom_site_label
_atom_site_fract_x
_atom_site_fract_y
_atom_site_fract_z
Si Si1 0.275385 0.141083 0.868042
Si Si2 0.718977 0.369503 0.086132
Si Si3 0.070369 0.136970 0.348800
Si Si4 0.154080 0.550107 0.587534
Si Si5 0.118945 0.951310 0.273405
Si Si6 0.281463 0.311197 0.645088
Si Si7 0.434993 0.946423 0.050017
Si Si8 0.866500 0.714188 0.816694
O O1 0.264398 0.148489 0.011299
O O2 0.144788 0.147986 0.596852
O O3 0.355774 0.180571 0.924861
O O4 0.333094 0.092033 0.919421
O O5 0.572503 0.371439 0.852372
O O6 0.795749 0.414906 0.227701
O O7 0.736113 0.341183 0.249527
O O8 0.125079 0.089837 0.382102
O O9 0.105973 0.171966 0.280989
O O10 0.140206 0.500000 0.625501
O O11 0.263441 0.548843 0.643168
O O12 0.034152 0.560709 0.319787
O O13 0.108953 0.000000 0.326729
O O14 0.000000 0.945511 0.000000
O O15 0.172449 0.314352 0.373768
O O16 0.287268 0.259326 0.700736
O O17 0.397592 0.000000 0.998259
O O18 0.500000 0.940183 0.000000
O O19 0.000000 0.731568 0.000000
#
# Coordination Sequence:
#
# PCOD9170081 Si02
#       8
#     8   8   8   8   8   8   8   8
#     4  11  26  38  59  89 124 160 200 247 310 358
#     4  12  23  38  59  91 125 159 197 248 306 369
#     4  11  20  39  61  86 119 162 201 246 293 364
#     4  10  21  36  59  89 121 159 200 248 300 354
#     4  10  17  29  55  90 114 141 195 251 285 331
#     4  10  22  40  66  92 117 156 204 246 306 355
#     4  10  22  42  64  86 119 163 211 255 300 360
#     4  10  22  42  65  90 118 155 202 257 295 360
#
# _framework density 19.861571999999999
#
# number of rings (size 3 to 8) (size 9 to 14) (size 15 to 20)
#    0.000    1.500    2.500    2.625    3.500    3.000 
#    0.000    1.250    0.000    2.250    0.000    0.000 
#    0.000    0.000    0.000    0.000    0.000    0.000 
#
# Total GULP energy -178493.369748 kJ/mol
# GULP energy per Si atom -5577.917805 kJ/mol
# Density = 1.981637 g / cm^3
# Si number density = 19.861572 Si / 1000 Ang^3
#
#
#
# Elastic Constant Matrix: (Units=GPa)
#
#
# Indices 1 2 3 4 5 6 
#
# 1 72.0698 30.4906 35.5483 0.0000 -22.3491 0.0000
# 2 30.4906 76.5177 29.3029 0.0000 -9.6160 0.0000
# 3 35.5483 29.3029 79.9239 0.0000 -5.1443 0.0000
# 4 0.0000 0.0000 0.0000 28.7519 0.0000 3.1011
# 5 -22.3491 -9.6160 -5.1443 0.0000 23.2589 0.0000
# 6 0.0000 0.0000 0.0000 3.1011 0.0000 2.3327
#
#
#
# Elastic Compliance Matrix: (Units=1/GPa)
#
#
# Indices 1 2 3 4 5 6 
#
# 1 0.027103 -0.004588 -0.008946 0.000000 0.022168 0.000000
# 2 -0.004588 0.016608 -0.003946 0.000000 0.001584 0.000000
# 3 -0.008946 -0.003946 0.017529 0.000000 -0.006350 0.000000
# 4 0.000000 0.000000 0.000000 0.040602 0.000000 -0.053977
# 5 0.022168 0.001584 -0.006350 0.000000 0.063545 0.000000
# 6 0.000000 0.000000 0.000000 -0.053977 0.000000 0.500447
#
#
# Mechanical properties :
#
#
# Convention : Reuss Voigt Hill
#
# Bulk Modulus (GPa) = 38.05312 46.57721 42.31516
# Shear Modulus (GPa) = 7.04667 19.74667 13.39667
#
# Velocity S-wave (km/s) = 1.88563 3.15654 2.59994
# Velocity P-wave (km/s) = 4.89301 6.06521 5.51037
#
# Compressibility (1/GPa) = 0.02627906
#
# Stress axis : x y z
#
# Youngs Moduli (GPa) = 36.89561 60.21360 57.04878
#
# Poissons Ratio (x) = 0.27628 0.51035
# Poissons Ratio (y) = 0.16929 0.22512
# Poissons Ratio (z) = 0.33006 0.23761
#
# Static dielectric constant tensor:
#      x y z
#    x 1.687100 0.000000 0.012830 
#    y 0.000000 1.715900 0.000000 
#    z 0.012830 0.000000 1.736260 
# 
# From -- ./inp_files/80742.got.cif
#   From: 2010.05.17/outbox.cif.g08.bks.cpg/sg12_41_cif.got.tgz:80742.got - 2010.06.03 13:09:07.
