data_PCOD9170010
_publ_section_title
;
Structure prediction by ZEFSAII (Michael W. Deem and Ramdas Pophale) SiO2 
 PCOD9170010
Probable space group: C 2/M
;
_chemical_formula_sum "Si O2"
_cell_formula_units_Z 64
_cell_length_a 12.239296
_cell_length_b 20.380542
_cell_length_c 19.229428
_cell_angle_alpha 90.000000
_cell_angle_beta 49.641236
_cell_angle_gamma 90.000000
_cell_volume 3655.073430
_symmetry_space_group_name_H-M "C 2/M"
_symmetry_group_IT_number 12
_symmetry_cell_setting 'monoclinic'
loop_
_space_group_symop_operation_xyz
x,y,z
-x,y,-z
-x,-y,-z
x,-y,z
1/2+x,1/2+y,z
1/2-x,1/2+y,-z
1/2-x,1/2-y,-z
1/2+x,1/2-y,z
loop_
_atom_site_type_symbol
_atom_site_label
_atom_site_fract_x
_atom_site_fract_y
_atom_site_fract_z
Si Si1 0.661333 0.922071 0.225038
Si Si2 0.144511 0.327176 0.102194
Si Si3 0.410201 0.422238 0.234722
Si Si4 0.304645 0.423991 0.694686
Si Si5 0.664436 0.319755 0.107632
Si Si6 0.341036 0.920188 0.386869
Si Si7 0.097205 0.616258 0.899202
Si Si8 0.123441 0.920424 0.594545
O O1 0.673390 0.878510 0.151279
O O2 0.792025 0.912028 0.223986
O O3 0.508523 0.903865 0.322368
O O4 0.656330 0.000000 0.209434
O O5 0.113177 0.254098 0.142285
O O6 0.013280 0.350698 0.108409
O O7 0.280435 0.323275 0.994505
O O8 0.451068 0.500000 0.217710
O O9 0.546039 0.375412 0.167924
O O10 0.346894 0.406623 0.337026
O O11 0.329185 0.500000 0.667691
O O12 0.222429 0.396560 0.661156
O O13 0.206456 0.421807 0.803896
O O14 0.462794 0.395624 0.643024
O O15 0.800819 0.334196 0.100566
O O16 0.241131 0.896850 0.491062
O O17 0.336032 0.000000 0.389240
O O18 0.000000 0.582748 0.000000
O O19 0.121253 0.000000 0.590127
#
# Coordination Sequence:
#
# PCOD9170010 Si02
#       8
#     8   8   8   8   8   8   8   8
#     4  10  21  36  55  82 113 146 183 226 280 332
#     4  10  22  38  57  80 109 145 185 226 270 329
#     4  10  21  36  55  82 113 146 183 226 280 332
#     4  10  17  29  50  79 111 139 172 220 275 326
#     4  10  22  38  57  80 109 145 185 226 270 329
#     4   9  17  30  50  77 108 141 178 222 271 324
#     4  10  20  34  53  80 105 137 183 222 272 325
#     4   9  17  30  50  77 108 141 178 222 271 324
#
# _framework density 17.509909
#
# number of rings (size 3 to 8) (size 9 to 14) (size 15 to 20)
#    0.000    2.250    2.500    0.375    1.750    3.250 
#    0.000    6.250    0.000    0.750    0.000    0.000 
#    0.000    0.000    0.000    0.000    0.000    0.000 
#
# Total GULP energy -178220.536729 kJ/mol
# GULP energy per Si atom -5569.391773 kJ/mol
# Density = 1.747006 g / cm^3
# Si number density = 17.509909 Si / 1000 Ang^3
#
#
#
# Elastic Constant Matrix: (Units=GPa)
#
#
# Indices 1 2 3 4 5 6 
#
# 1 76.0174 28.0637 24.7693 0.0001 16.4085 0.0000
# 2 28.0637 40.1054 22.3211 0.0000 9.3834 0.0000
# 3 24.7693 22.3211 96.8227 0.0001 11.1909 0.0000
# 4 0.0001 0.0000 0.0001 -10.1733 -0.0001 -2.3293
# 5 16.4085 9.3834 11.1909 -0.0001 17.6648 0.0000
# 6 0.0000 0.0000 0.0000 -2.3293 0.0000 5.5705
#
#
#
# Elastic Compliance Matrix: (Units=1/GPa)
#
#
# Indices 1 2 3 4 5 6 
#
# 1 0.020093 -0.010458 -0.001310 0.000000 -0.012279 0.000000
# 2 -0.010458 0.036565 -0.004998 0.000000 -0.006542 0.000000
# 3 -0.001310 -0.004998 0.012266 0.000000 -0.003899 0.000000
# 4 0.000000 0.000000 0.000000 -0.089708 -0.000001 -0.037512
# 5 -0.012279 -0.006542 -0.003899 -0.000001 0.073961 0.000000
# 6 0.000000 0.000000 0.000000 -0.037512 0.000000 0.163833
#
#
# Mechanical properties :
#
#
# Convention : Reuss Voigt Hill
#
# Bulk Modulus (GPa) = 28.25516 40.36154 34.30835
# Shear Modulus (GPa) = 19.05930 11.79848 15.42889
#
# Velocity S-wave (km/s) = 3.30280 2.59862 2.97164
# Velocity P-wave (km/s) = 5.54223 5.66608 5.60450
#
# Compressibility (1/GPa) = 0.03539177
#
# Stress axis : x y z
#
# Youngs Moduli (GPa) = 49.76852 27.34888 81.52513
#
# Poissons Ratio (x) = 0.28602 0.10680
# Poissons Ratio (y) = 0.52048 0.40745
# Poissons Ratio (z) = 0.06520 0.13669
#
# Static dielectric constant tensor:
#      x y z
#    x 1.597520 0.000000 -0.004230 
#    y 0.000000 1.583210 0.000000 
#    z -0.004230 0.000000 1.613600 
# 
# From -- ./inp_files/265042.got.cif
#   From: 2010.05.17/outbox.cif.g08.bks.cpg/sg12_133_cif.got.tgz:265042.got - 2010.06.03 13:09:07.
