data_PCOD9170937
_publ_section_title
;
Structure prediction by ZEFSAII (Michael W. Deem and Ramdas Pophale) SiO2 
 PCOD9170937
Probable space group: C 2/M
;
_chemical_formula_sum "Si O2"
_cell_formula_units_Z 40
_cell_length_a 10.598876
_cell_length_b 19.663386
_cell_length_c 12.995087
_cell_angle_alpha 90.000000
_cell_angle_beta 35.197129
_cell_angle_gamma 90.000000
_cell_volume 1561.042678
_symmetry_space_group_name_H-M "C 2/M"
_symmetry_group_IT_number 12
_symmetry_cell_setting 'monoclinic'
loop_
_space_group_symop_operation_xyz
x,y,z
-x,y,-z
-x,-y,-z
x,-y,z
1/2+x,1/2+y,z
1/2-x,1/2+y,-z
1/2-x,1/2-y,-z
1/2+x,1/2-y,z
loop_
_atom_site_type_symbol
_atom_site_label
_atom_site_fract_x
_atom_site_fract_y
_atom_site_fract_z
Si Si1 0.894610 0.125797 0.377628
Si Si2 0.500000 0.897880 0.500000
Si Si3 0.751910 0.110007 0.148992
Si Si4 0.300445 0.500000 0.788867
Si Si5 0.667412 0.260741 0.291028
Si Si6 0.405678 0.882196 0.218562
O O1 0.716949 0.134812 0.407372
O O2 0.765384 0.115417 0.571930
O O3 0.037403 0.193153 0.295599
O O4 0.042285 0.059783 0.267111
O O5 0.396795 0.929900 0.670173
O O6 0.723414 0.189131 0.202715
O O7 0.641493 0.104302 0.111200
O O8 0.000000 0.090163 0.000000
O O9 0.166409 0.440522 0.811755
O O10 0.500000 0.254484 0.500000
O O11 0.868738 0.307800 0.194429
#
# Coordination Sequence:
#
# PCOD9170937 Si02
#       6
#     8   4   8   4   8   8
#     4   9  18  32  59  88 118 157 194 241 296 342
#     4  10  22  37  56  90 126 147 188 250 292 350
#     4  11  23  37  58  89 121 158 194 237 299 349
#     4  10  17  37  63  90 114 152 213 238 282 365
#     4   9  18  34  57  85 120 159 195 237 290 350
#     4   9  19  33  58  87 117 158 196 245 289 342
#
# _framework density 25.623899999999999
#
# number of rings (size 3 to 8) (size 9 to 14) (size 15 to 20)
#    0.000    2.400    1.000    3.000    2.800    3.600 
#    0.000    1.500    0.000    1.200    0.000    0.000 
#    0.000    0.000    0.000    0.000    0.000    0.000 
#
# Total GULP energy -111380.794179 kJ/mol
# GULP energy per Si atom -5569.039709 kJ/mol
# Density = 2.556558 g / cm^3
# Si number density = 25.623900 Si / 1000 Ang^3
#
#
#
# Elastic Constant Matrix: (Units=GPa)
#
#
# Indices 1 2 3 4 5 6 
#
# 1 158.2652 39.1199 54.1403 0.0003 -56.2643 -0.0010
# 2 39.1199 158.7142 22.6378 0.0035 -9.7621 -0.0032
# 3 54.1403 22.6378 93.5330 0.0101 -18.1022 -0.0071
# 4 0.0003 0.0035 0.0101 -66.5623 -0.0010 23.1571
# 5 -56.2643 -9.7621 -18.1022 -0.0010 57.3140 0.0007
# 6 -0.0010 -0.0032 -0.0071 23.1571 0.0007 24.9203
#
#
#
# Elastic Compliance Matrix: (Units=1/GPa)
#
#
# Indices 1 2 3 4 5 6 
#
# 1 0.011770 -0.001653 -0.004507 -0.000001 0.009850 0.000000
# 2 -0.001653 0.006781 -0.000826 0.000000 -0.000728 0.000000
# 3 -0.004507 -0.000826 0.013438 0.000002 -0.000321 0.000001
# 4 -0.000001 0.000000 0.000002 -0.011353 0.000000 0.010550
# 5 0.009850 -0.000728 -0.000321 0.000000 0.026892 0.000000
# 6 0.000000 0.000000 0.000001 0.010550 0.000000 0.030324
#
#
# Mechanical properties :
#
#
# Convention : Reuss Voigt Hill
#
# Bulk Modulus (GPa) = 55.49577 71.36763 63.43170
# Shear Modulus (GPa) = 51.10973 22.77537 36.94255
#
# Velocity S-wave (km/s) = 4.47095 2.98456 3.80112
# Velocity P-wave (km/s) = 6.95395 6.30787 6.63877
#
# Compressibility (1/GPa) = 0.01801939
#
# Stress axis : x y z
#
# Youngs Moduli (GPa) = 84.95879 147.47271 74.41645
#
# Poissons Ratio (x) = 0.24370 0.33538
# Poissons Ratio (y) = 0.14039 0.06143
# Poissons Ratio (z) = 0.38290 0.12175
#
# Static dielectric constant tensor:
#      x y z
#    x 1.969770 0.000000 0.044720 
#    y 0.000000 2.049940 0.000000 
#    z 0.044720 0.000000 2.124110 
# 
# From -- ./inp_files/264971.got.cif
#   From: 2010.05.17/outbox.cif.g08.bks.cpg/sg12_133_cif.got.tgz:264971.got - 2010.06.03 13:09:07.
