data_PCOD9170402
_publ_section_title
;
Structure prediction by ZEFSAII (Michael W. Deem and Ramdas Pophale) SiO2 
 PCOD9170402
Probable space group: C 2/M
;
_chemical_formula_sum "Si O2"
_cell_formula_units_Z 64
_cell_length_a 25.773954
_cell_length_b 8.349026
_cell_length_c 28.055556
_cell_angle_alpha 90.000000
_cell_angle_beta 140.295405
_cell_angle_gamma 90.000000
_cell_volume 3856.743167
_symmetry_space_group_name_H-M "C 2/M"
_symmetry_group_IT_number 12
_symmetry_cell_setting 'monoclinic'
loop_
_space_group_symop_operation_xyz
x,y,z
-x,y,-z
-x,-y,-z
x,-y,z
1/2+x,1/2+y,z
1/2-x,1/2+y,-z
1/2-x,1/2-y,-z
1/2+x,1/2-y,z
loop_
_atom_site_type_symbol
_atom_site_label
_atom_site_fract_x
_atom_site_fract_y
_atom_site_fract_z
Si Si1 0.909570 0.691362 0.921618
Si Si2 0.707480 0.308806 0.078346
Si Si3 0.911919 0.193945 0.816921
Si Si4 0.555876 0.692856 0.338605
Si Si5 0.407117 0.695272 0.088087
Si Si6 0.616417 0.306662 0.819672
Si Si7 0.688010 0.191517 0.497155
Si Si8 0.321637 0.695198 0.659700
O O1 0.909372 0.500000 0.924941
O O2 0.844237 0.757993 0.912434
O O3 0.893237 0.741945 0.855938
O O4 0.000000 0.750178 0.000000
O O5 0.709205 0.500000 0.077328
O O6 0.798927 0.246347 0.142623
O O7 0.659450 0.249428 0.997188
O O8 0.850268 0.247949 0.731898
O O9 0.003036 0.243111 0.865676
O O10 0.910938 0.000000 0.817800
O O11 0.556444 0.500000 0.338381
O O12 0.464116 0.748581 0.265217
O O13 0.600917 0.746544 0.418552
O O14 0.611203 0.744816 0.332366
O O15 0.406451 0.500000 0.088047
O O16 0.389737 0.748963 0.129613
O O17 0.614178 0.500000 0.818883
O O18 0.750000 0.250000 0.500000
O O19 0.733089 0.244681 0.577572
O O20 0.685883 0.000000 0.495389
O O21 0.322885 0.500000 0.660883
#
# Coordination Sequence:
#
# PCOD9170402 Si02
#       8
#     8   8   8   8   8   8   8   8
#     4  11  23  37  51  70  96 126 162 207 255 294
#     4  11  22  35  51  72  95 127 171 210 243 286
#     4  10  17  31  54  74  94 127 168 203 239 288
#     4   9  16  28  46  68  97 133 165 191 233 290
#     4   9  17  30  51  73  96 129 166 201 241 288
#     4  10  19  33  51  72 101 135 165 199 244 292
#     4   9  16  26  42  66  97 130 162 195 235 285
#     4   8  14  26  46  70  95 126 162 196 234 286
#
# _framework density 16.594313
#
# number of rings (size 3 to 8) (size 9 to 14) (size 15 to 20)
#    0.000    2.375    2.500    2.250    0.000    1.000 
#    0.000    4.375    0.000    0.000    0.000    0.875 
#    0.000    7.000    0.000    0.000    0.000    0.000 
#
# Total GULP energy -178388.935694 kJ/mol
# GULP energy per Si atom -5574.654240 kJ/mol
# Density = 1.655654 g / cm^3
# Si number density = 16.594313 Si / 1000 Ang^3
#
#
#
# Elastic Constant Matrix: (Units=GPa)
#
#
# Indices 1 2 3 4 5 6 
#
# 1 90.0300 11.4843 70.8131 0.0000 16.0285 0.0001
# 2 11.4843 14.4423 20.6544 -0.0002 4.0951 0.0005
# 3 70.8131 20.6544 185.0058 -0.0001 9.9719 0.0000
# 4 0.0000 -0.0002 -0.0001 21.2549 0.0000 1.3708
# 5 16.0285 4.0951 9.9719 0.0000 14.3335 -0.0001
# 6 0.0001 0.0005 0.0000 1.3708 -0.0001 10.2345
#
#
#
# Elastic Compliance Matrix: (Units=1/GPa)
#
#
# Indices 1 2 3 4 5 6 
#
# 1 0.019216 -0.001570 -0.006281 0.000000 -0.016670 0.000000
# 2 -0.001570 0.087146 -0.008188 0.000001 -0.017445 -0.000004
# 3 -0.006281 -0.008188 0.008539 0.000000 0.003423 0.000000
# 4 0.000000 0.000001 0.000000 0.047458 0.000000 -0.006356
# 5 -0.016670 -0.017445 0.003423 0.000000 0.091011 0.000002
# 6 0.000000 -0.000004 0.000000 -0.006356 0.000002 0.098560
#
#
# Mechanical properties :
#
#
# Convention : Reuss Voigt Hill
#
# Bulk Modulus (GPa) = 12.07410 55.04242 33.55826
# Shear Modulus (GPa) = 12.14725 21.59967 16.87346
#
# Velocity S-wave (km/s) = 2.70851 3.61173 3.19222
# Velocity P-wave (km/s) = 4.13197 7.11577 5.81839
#
# Compressibility (1/GPa) = 0.08282191
#
# Stress axis : x y z
#
# Youngs Moduli (GPa) = 52.03955 11.47503 117.10825
#
# Poissons Ratio (x) = 0.01802 0.73560
# Poissons Ratio (y) = 0.08173 0.95885
# Poissons Ratio (z) = 0.32688 0.09395
#
# Static dielectric constant tensor:
#      x y z
#    x 1.515660 0.000000 0.005110 
#    y 0.000000 1.576980 0.000000 
#    z 0.005110 0.000000 1.598110 
# 
# From -- ./inp_files/346173.got.cif
#   From: 2010.05.17/outbox.cif.g08.bks.cpg/sg12_174_cif.got.tgz:346173.got - 2010.06.03 13:09:07.
