data_PCOD9170282
_publ_section_title
;
Structure prediction by ZEFSAII (Michael W. Deem and Ramdas Pophale) SiO2 
 PCOD9170282
Probable space group: C 2/M
;
_chemical_formula_sum "Si O2"
_cell_formula_units_Z 56
_cell_length_a 27.731077
_cell_length_b 18.349422
_cell_length_c 5.065713
_cell_angle_alpha 90.000000
_cell_angle_beta 87.129013
_cell_angle_gamma 90.000000
_cell_volume 2574.448796
_symmetry_space_group_name_H-M "C 2/M"
_symmetry_group_IT_number 12
_symmetry_cell_setting 'monoclinic'
loop_
_space_group_symop_operation_xyz
x,y,z
-x,y,-z
-x,-y,-z
x,-y,z
1/2+x,1/2+y,z
1/2-x,1/2+y,-z
1/2-x,1/2-y,-z
1/2+x,1/2-y,z
loop_
_atom_site_type_symbol
_atom_site_label
_atom_site_fract_x
_atom_site_fract_y
_atom_site_fract_z
Si Si1 0.735880 0.086587 0.499583
Si Si2 0.046786 0.874304 0.329915
Si Si3 0.544596 0.793068 0.305257
Si Si4 0.081412 0.421693 0.984460
Si Si5 0.630986 0.872548 0.458845
Si Si6 0.396846 0.584266 0.185155
Si Si7 0.298973 0.414224 0.963921
O O1 0.625566 0.086673 0.180441
O O2 0.759876 0.090792 0.206615
O O3 0.725240 0.000000 0.555356
O O4 0.774771 0.113438 0.703340
O O5 0.036971 0.791071 0.246151
O O6 0.086962 0.877731 0.549592
O O7 0.000000 0.903426 0.500000
O O8 0.063413 0.913224 0.058717
O O9 0.500000 0.816564 0.500000
O O10 0.597090 0.801636 0.432370
O O11 0.550415 0.850766 0.067583
O O12 0.057772 0.500000 0.037237
O O13 0.102136 0.416726 0.688242
O O14 0.686303 0.868776 0.521987
O O15 0.387402 0.500000 0.261098
O O16 0.348923 0.617112 0.062265
O O17 0.309487 0.500000 0.909642
#
# Coordination Sequence:
#
# PCOD9170282 Si02
#       7
#     8   8   8   8   8   8   8
#     4  10  17  30  54  84 117 152 194 238 291 345
#     4  11  24  41  65  89 121 163 196 236 291 362
#     4   9  24  42  59  84 119 164 209 237 293 364
#     4  10  20  35  56  84 115 153 200 251 298 330
#     4  10  21  34  57  84 120 151 201 251 292 335
#     4  11  23  41  65  95 123 148 192 246 301 354
#     4   9  19  33  55  85 117 151 185 235 294 354
#
# _framework density 21.752227000000001
#
# number of rings (size 3 to 8) (size 9 to 14) (size 15 to 20)
#    0.857    1.143    0.000    3.857    2.000    6.000 
#    0.000    0.714    0.000    5.143    0.000    0.000 
#    0.000    0.000    0.000    0.000    0.000    0.000 
#
# Total GULP energy -156140.253282 kJ/mol
# GULP energy per Si atom -5576.437617 kJ/mol
# Density = 2.170272 g / cm^3
# Si number density = 21.752227 Si / 1000 Ang^3
#
#
#
# Elastic Constant Matrix: (Units=GPa)
#
#
# Indices 1 2 3 4 5 6 
#
# 1 71.9471 -1.8305 0.2100 0.0000 4.6181 0.0000
# 2 -1.8305 35.0872 8.9911 0.0000 -2.2964 0.0000
# 3 0.2100 8.9911 54.5283 0.0000 16.4752 0.0000
# 4 0.0000 0.0000 0.0000 96.6346 0.0000 25.9944
# 5 4.6181 -2.2964 16.4752 0.0000 36.4320 0.0000
# 6 0.0000 0.0000 0.0000 25.9944 0.0000 16.2123
#
#
#
# Elastic Compliance Matrix: (Units=1/GPa)
#
#
# Indices 1 2 3 4 5 6 
#
# 1 0.014036 0.000487 0.000456 0.000000 -0.001955 0.000000
# 2 0.000487 0.030499 -0.006478 0.000000 0.004790 0.000000
# 3 0.000456 -0.006478 0.022640 0.000000 -0.010704 0.000000
# 4 0.000000 0.000000 0.000000 0.018196 0.000000 -0.029176
# 5 -0.001955 0.004790 -0.010704 0.000000 0.032839 0.000000
# 6 0.000000 0.000000 0.000000 -0.029176 0.000000 0.108461
#
#
# Mechanical properties :
#
#
# Convention : Reuss Voigt Hill
#
# Bulk Modulus (GPa) = 17.82353 19.58929 18.70641
# Shear Modulus (GPa) = 19.49761 40.13525 29.81643
#
# Velocity S-wave (km/s) = 2.99716 4.30013 3.70635
# Velocity P-wave (km/s) = 4.49321 5.80345 5.18985
#
# Compressibility (1/GPa) = 0.05610560
#
# Stress axis : x y z
#
# Youngs Moduli (GPa) = 71.24715 32.78752 44.17012
#
# Poissons Ratio (x) = -0.01598 -0.02015
# Poissons Ratio (y) = -0.03473 0.28614
# Poissons Ratio (z) = -0.03250 0.21240
#
# Static dielectric constant tensor:
#      x y z
#    x 1.858020 0.000000 0.020300 
#    y 0.000000 1.779540 0.000000 
#    z 0.020300 0.000000 1.758740 
# 
# From -- ./inp_files/29129.got.cif
#   From: 2010.05.17/outbox.cif.g08.bks.cpg/sg12_15_cif.got.tgz:29129.got - 2010.06.03 13:09:07.
