data_PCOD9170220
_publ_section_title
;
Structure prediction by ZEFSAII (Michael W. Deem and Ramdas Pophale) SiO2 
 PCOD9170220
Probable space group: C 2/M
;
_chemical_formula_sum "Si O2"
_cell_formula_units_Z 56
_cell_length_a 26.078651
_cell_length_b 7.488216
_cell_length_c 17.584416
_cell_angle_alpha 90.000000
_cell_angle_beta 122.145690
_cell_angle_gamma 90.000000
_cell_volume 2907.501277
_symmetry_space_group_name_H-M "C 2/M"
_symmetry_group_IT_number 12
_symmetry_cell_setting 'monoclinic'
loop_
_space_group_symop_operation_xyz
x,y,z
-x,y,-z
-x,-y,-z
x,-y,z
1/2+x,1/2+y,z
1/2-x,1/2+y,-z
1/2-x,1/2-y,-z
1/2+x,1/2-y,z
loop_
_atom_site_type_symbol
_atom_site_label
_atom_site_fract_x
_atom_site_fract_y
_atom_site_fract_z
Si Si1 0.472724 0.795071 0.263091
Si Si2 0.805566 0.790109 0.699171
Si Si3 0.941781 0.281150 0.404126
Si Si4 0.387965 0.289652 0.627131
Si Si5 0.907118 0.285056 0.892155
Si Si6 0.470018 0.218624 0.093581
Si Si7 0.830538 0.284176 0.418833
O O1 0.448549 0.716833 0.322867
O O2 0.545798 0.795155 0.325157
O O3 0.457060 0.716281 0.168254
O O4 0.451335 0.000000 0.244556
O O5 0.847090 0.715828 0.663666
O O6 0.844073 0.771982 0.806318
O O7 0.737616 0.717549 0.648600
O O8 0.799063 0.000000 0.676873
O O9 0.942861 0.500000 0.403586
O O10 0.880641 0.223135 0.397765
O O11 0.000000 0.226860 0.500000
O O12 0.398376 0.500000 0.648217
O O13 0.353090 0.265195 0.520607
O O14 0.908150 0.500000 0.893083
O O15 0.962951 0.226410 0.882057
O O16 0.923852 0.226790 0.990669
O O17 0.470751 0.000000 0.096012
O O18 0.830331 0.500000 0.414291
#
# Coordination Sequence:
#
# PCOD9170220 Si02
#       7
#     8   8   8   8   8   8   8
#     4  10  17  30  52  72  94 123 154 193 236 273
#     4  10  21  33  46  68  98 128 156 188 233 282
#     4   9  16  28  50  74  88 113 164 203 225 263
#     4  11  21  31  44  70 100 124 154 188 231 286
#     4   9  16  29  49  71  95 121 154 193 231 278
#     4   8  15  27  47  74  95 118 153 192 234 274
#     4  10  20  35  50  65  92 128 163 196 225 269
#
# _framework density 19.260524
#
# number of rings (size 3 to 8) (size 9 to 14) (size 15 to 20)
#    0.000    2.429    2.857    1.714    0.000    1.143 
#    0.000    3.571    0.000    0.857    0.000    0.000 
#    0.000    0.000    0.000    0.000    0.000    0.000 
#
# Total GULP energy -156260.305648 kJ/mol
# GULP energy per Si atom -5580.725202 kJ/mol
# Density = 1.921669 g / cm^3
# Si number density = 19.260524 Si / 1000 Ang^3
#
#
#
# Elastic Constant Matrix: (Units=GPa)
#
#
# Indices 1 2 3 4 5 6 
#
# 1 100.4621 1.7590 71.4627 0.0000 -5.2924 0.0000
# 2 1.7590 54.0207 -11.7204 0.0000 -4.4062 0.0000
# 3 71.4627 -11.7204 141.5145 0.0000 -23.2861 0.0000
# 4 0.0000 0.0000 0.0000 13.6390 0.0000 7.0646
# 5 -5.2924 -4.4062 -23.2861 0.0000 27.6452 0.0000
# 6 0.0000 0.0000 0.0000 7.0646 0.0000 0.9474
#
#
#
# Elastic Compliance Matrix: (Units=1/GPa)
#
#
# Indices 1 2 3 4 5 6 
#
# 1 0.016421 -0.003004 -0.009406 0.000000 -0.005258 0.000000
# 2 -0.003004 0.020018 0.004186 0.000000 0.006141 0.000000
# 3 -0.009406 0.004186 0.013904 0.000000 0.010578 0.000000
# 4 0.000000 0.000000 0.000000 -0.025616 0.000000 0.191007
# 5 -0.005258 0.006141 0.010578 0.000000 0.045055 0.000000
# 6 0.000000 0.000000 0.000000 0.191007 0.000000 -0.368762
#
#
# Mechanical properties :
#
#
# Convention : Reuss Voigt Hill
#
# Bulk Modulus (GPa) = 29.50508 46.55553 38.03030
# Shear Modulus (GPa) = -18.43427 24.07939 2.82256
#
# Velocity S-wave (km/s) = -3.09706 3.53964 1.21188
# Velocity P-wave (km/s) = 1.60098 6.39761 4.66329
#
# Compressibility (1/GPa) = 0.03389247
#
# Stress axis : x y z
#
# Youngs Moduli (GPa) = 60.89901 49.95442 71.92366
#
# Poissons Ratio (x) = 0.15008 0.67653
# Poissons Ratio (y) = 0.18296 -0.30104
# Poissons Ratio (z) = 0.57283 -0.20909
#
# Static dielectric constant tensor:
#      x y z
#    x 1.657290 0.000000 -0.018930 
#    y 0.000000 1.718180 0.000000 
#    z -0.018930 0.000000 1.664400 
# 
# From -- ./inp_files/287360.got.cif
#   From: 2010.05.17/outbox.cif.g08.bks.cpg/sg12_144_cif.got.tgz:287360.got - 2010.06.03 13:09:07.
