data_PCOD9170453
_publ_section_title
;
Structure prediction by ZEFSAII (Michael W. Deem and Ramdas Pophale) SiO2 
 PCOD9170453
Probable space group: C 2/M
;
_chemical_formula_sum "Si O2"
_cell_formula_units_Z 32
_cell_length_a 22.062917
_cell_length_b 7.977280
_cell_length_c 21.348908
_cell_angle_alpha 90.000000
_cell_angle_beta 28.590545
_cell_angle_gamma 90.000000
_cell_volume 1798.117219
_symmetry_space_group_name_H-M "C 2/M"
_symmetry_group_IT_number 12
_symmetry_cell_setting 'monoclinic'
loop_
_space_group_symop_operation_xyz
x,y,z
-x,y,-z
-x,-y,-z
x,-y,z
1/2+x,1/2+y,z
1/2-x,1/2+y,-z
1/2-x,1/2-y,-z
1/2+x,1/2-y,z
loop_
_atom_site_type_symbol
_atom_site_label
_atom_site_fract_x
_atom_site_fract_y
_atom_site_fract_z
Si Si1 0.900567 0.687995 0.146825
Si Si2 0.011093 0.500000 0.385853
Si Si3 0.588296 0.305885 0.077268
Si Si4 0.288160 0.000000 0.683793
Si Si5 0.872472 0.692264 0.824169
O O1 0.846765 0.500000 0.191181
O O2 0.983165 0.706316 0.134957
O O3 0.798120 0.834720 0.237138
O O4 0.000000 0.711074 0.000000
O O5 0.120475 0.500000 0.338820
O O6 0.036860 0.659702 0.317034
O O7 0.878224 0.500000 0.541122
O O8 0.578204 0.500000 0.066638
O O9 0.574878 0.290585 0.164421
O O10 0.732403 0.246233 0.932526
O O11 0.849529 0.500000 0.868665
#
# Coordination Sequence:
#
# PCOD9170453 Si02
#       5
#     8   4   8   4   8
#     4  11  23  36  58  89 116 147 188 240 292 338
#     4   9  20  38  60  80 111 160 191 234 284 339
#     4  10  17  31  57  86 116 147 184 239 287 333
#     4  11  21  40  62  82 115 155 195 231 286 346
#     4   8  17  32  53  81 112 147 186 227 283 330
#
# _framework density 17.796391
#
# number of rings (size 3 to 8) (size 9 to 14) (size 15 to 20)
#    0.750    1.500    1.250    2.625    0.000    1.000 
#    0.000    6.250    0.000    0.000    0.000    0.000 
#    0.000    0.000    0.000    0.000    0.000    0.000 
#
# Total GULP energy -89128.368944 kJ/mol
# GULP energy per Si atom -5570.523059 kJ/mol
# Density = 1.775589 g / cm^3
# Si number density = 17.796391 Si / 1000 Ang^3
#
#
#
# Elastic Constant Matrix: (Units=GPa)
#
#
# Indices 1 2 3 4 5 6 
#
# 1 50.9464 26.6541 35.6716 -0.0015 0.8589 0.0036
# 2 26.6541 94.8367 58.0690 -0.0006 -8.2793 0.0025
# 3 35.6716 58.0690 101.2660 -0.0007 12.6514 0.0014
# 4 -0.0015 -0.0006 -0.0007 58.4772 0.0003 -112.9525
# 5 0.8589 -8.2793 12.6514 0.0003 25.1714 -0.0010
# 6 0.0036 0.0025 0.0014 -112.9525 -0.0010 362.3544
#
#
#
# Elastic Compliance Matrix: (Units=1/GPa)
#
#
# Indices 1 2 3 4 5 6 
#
# 1 0.026634 -0.001988 -0.008586 0.000000 0.002752 0.000000
# 2 -0.001988 0.019638 -0.012138 0.000000 0.012628 0.000000
# 3 -0.008586 -0.012138 0.021684 0.000000 -0.014598 0.000000
# 4 0.000000 0.000000 0.000000 0.042978 0.000000 0.013397
# 5 0.002752 0.012628 -0.014598 0.000000 0.051124 0.000000
# 6 0.000000 0.000000 0.000000 0.013397 0.000000 0.006936
#
#
# Mechanical properties :
#
#
# Convention : Reuss Voigt Hill
#
# Bulk Modulus (GPa) = 44.38332 54.20426 49.29379
# Shear Modulus (GPa) = 22.52985 97.64422 60.08704
#
# Velocity S-wave (km/s) = 3.56192 7.41529 5.81695
# Velocity P-wave (km/s) = 6.47379 10.19017 8.53667
#
# Compressibility (1/GPa) = 0.02253099
#
# Stress axis : x y z
#
# Youngs Moduli (GPa) = 37.54635 50.92171 46.11786
#
# Poissons Ratio (x) = 0.10124 0.39596
# Poissons Ratio (y) = 0.07465 0.55979
# Poissons Ratio (z) = 0.32236 0.61810
#
# Static dielectric constant tensor:
#      x y z
#    x 1.614480 0.000000 0.013560 
#    y 0.000000 1.610110 0.000000 
#    z 0.013560 0.000000 1.593950 
# 
# From -- ./inp_files/318942.got.cif
#   From: 2010.05.17/outbox.cif.g08.bks.cpg/sg12_160_cif.got.tgz:318942.got - 2010.06.03 13:09:07.
