data_PCOD9170836
_publ_section_title
;
Structure prediction by ZEFSAII (Michael W. Deem and Ramdas Pophale) SiO2 
 PCOD9170836
Probable space group: C 2/M
;
_chemical_formula_sum "Si O2"
_cell_formula_units_Z 60
_cell_length_a 12.117470
_cell_length_b 20.374149
_cell_length_c 12.108290
_cell_angle_alpha 90.000000
_cell_angle_beta 81.958409
_cell_angle_gamma 90.000000
_cell_volume 2959.937887
_symmetry_space_group_name_H-M "C 2/M"
_symmetry_group_IT_number 12
_symmetry_cell_setting 'monoclinic'
loop_
_space_group_symop_operation_xyz
x,y,z
-x,y,-z
-x,-y,-z
x,-y,z
1/2+x,1/2+y,z
1/2-x,1/2+y,-z
1/2-x,1/2-y,-z
1/2+x,1/2-y,z
loop_
_atom_site_type_symbol
_atom_site_label
_atom_site_fract_x
_atom_site_fract_y
_atom_site_fract_z
Si Si1 0.042967 0.757093 0.792897
Si Si2 0.941722 0.821533 0.613515
Si Si3 0.404312 0.074171 0.157907
Si Si4 0.380917 0.828924 0.563004
Si Si5 0.627246 0.146284 0.184247
Si Si6 0.000000 0.842593 0.000000
Si Si7 0.783447 0.080046 0.992827
Si Si8 0.204661 0.648161 0.660022
O O1 0.135950 0.705630 0.735492
O O2 0.030205 0.808649 0.696226
O O3 0.921969 0.720375 0.820148
O O4 0.059775 0.794484 0.903824
O O5 0.896895 0.749111 0.581662
O O6 0.832860 0.856401 0.673174
O O7 0.000000 0.852944 0.500000
O O8 0.522775 0.109092 0.142515
O O9 0.358500 0.084247 0.288166
O O10 0.424522 0.000000 0.125968
O O11 0.306183 0.097830 0.090442
O O12 0.500000 0.852528 0.500000
O O13 0.358747 0.860629 0.685228
O O14 0.301189 0.840058 0.470263
O O15 0.732516 0.116547 0.107475
O O16 0.905276 0.888478 0.958535
O O17 0.787983 0.000000 0.002128
#
# Coordination Sequence:
#
# PCOD9170836 Si02
#       8
#     8   8   8   8   8   4   8   8
#     4  10  23  35  55  91 120 150 185 243 311 344
#     4  10  19  33  54  82 115 157 193 221 284 367
#     4  10  21  39  61  84 111 154 204 249 299 349
#     4  10  17  35  53  87 119 149 175 226 297 359
#     4  10  21  37  63  92 121 148 196 247 303 360
#     4  12  27  40  58  90 123 158 200 250 298 356
#     4  11  25  44  63  81 116 167 208 245 291 356
#     4  11  20  35  58  83 122 153 188 239 294 362
#
# _framework density 20.270696999999998
#
# number of rings (size 3 to 8) (size 9 to 14) (size 15 to 20)
#    0.000    1.600    5.333    2.200    7.467    1.600 
#    0.000    2.000    0.000    0.400    0.000    0.000 
#    0.000    0.000    0.000    0.000    0.000    0.000 
#
# Total GULP energy -167155.384023 kJ/mol
# GULP energy per Si atom -5571.846134 kJ/mol
# Density = 2.022456 g / cm^3
# Si number density = 20.270697 Si / 1000 Ang^3
#
#
#
# Elastic Constant Matrix: (Units=GPa)
#
#
# Indices 1 2 3 4 5 6 
#
# 1 68.4119 14.2994 12.7684 0.0000 -2.3185 0.0000
# 2 14.2994 30.7803 23.0545 0.0000 4.0819 0.0000
# 3 12.7684 23.0545 97.0146 0.0000 9.3439 0.0000
# 4 0.0000 0.0000 0.0000 4.9922 0.0000 6.6766
# 5 -2.3185 4.0819 9.3439 0.0000 24.1525 0.0000
# 6 0.0000 0.0000 0.0000 6.6766 0.0000 16.6640
#
#
#
# Elastic Compliance Matrix: (Units=1/GPa)
#
#
# Indices 1 2 3 4 5 6 
#
# 1 0.016424 -0.007541 -0.000669 0.000000 0.003110 0.000000
# 2 -0.007541 0.043220 -0.008834 0.000000 -0.004611 0.000000
# 3 -0.000669 -0.008834 0.012836 0.000000 -0.003537 0.000000
# 4 0.000000 0.000000 0.000000 0.431550 0.000000 -0.172904
# 5 0.003110 -0.004611 -0.003537 0.000000 0.043850 0.000000
# 6 0.000000 0.000000 0.000000 -0.172904 0.000000 0.129285
#
#
# Mechanical properties :
#
#
# Convention : Reuss Voigt Hill
#
# Bulk Modulus (GPa) = 26.04794 32.93903 29.49349
# Shear Modulus (GPa) = 6.90560 18.90071 12.90316
#
# Velocity S-wave (km/s) = 1.84772 3.05686 2.52572
# Velocity P-wave (km/s) = 4.17493 5.36135 4.80490
#
# Compressibility (1/GPa) = 0.03839075
#
# Stress axis : x y z
#
# Youngs Moduli (GPa) = 60.88703 23.13748 77.90724
#
# Poissons Ratio (x) = 0.17448 0.05212
# Poissons Ratio (y) = 0.45916 0.68824
# Poissons Ratio (z) = 0.04074 0.20440
#
# Static dielectric constant tensor:
#      x y z
#    x 1.760650 0.000000 0.011850 
#    y 0.000000 1.721510 0.000000 
#    z 0.011850 0.000000 1.779150 
# 
# From -- ./inp_files/133923.got.cif
#   From: 2010.05.17/outbox.cif.g08.bks.cpg/sg12_67_cif.got.tgz:133923.got - 2010.06.03 13:09:07.
