data_PCOD9170056
_publ_section_title
;
Structure prediction by ZEFSAII (Michael W. Deem and Ramdas Pophale) SiO2 
 PCOD9170056
Probable space group: C 2/M
;
_chemical_formula_sum "Si O2"
_cell_formula_units_Z 40
_cell_length_a 12.325142
_cell_length_b 11.749315
_cell_length_c 13.789670
_cell_angle_alpha 90.000000
_cell_angle_beta 65.512179
_cell_angle_gamma 90.000000
_cell_volume 1817.286161
_symmetry_space_group_name_H-M "C 2/M"
_symmetry_group_IT_number 12
_symmetry_cell_setting 'monoclinic'
loop_
_space_group_symop_operation_xyz
x,y,z
-x,y,-z
-x,-y,-z
x,-y,z
1/2+x,1/2+y,z
1/2-x,1/2+y,-z
1/2-x,1/2-y,-z
1/2+x,1/2-y,z
loop_
_atom_site_type_symbol
_atom_site_label
_atom_site_fract_x
_atom_site_fract_y
_atom_site_fract_z
Si Si1 0.848833 0.125626 0.307524
Si Si2 0.122894 0.131328 0.491367
Si Si3 0.882864 0.874439 0.869185
Si Si4 0.952708 0.373540 0.907607
Si Si5 0.214760 0.338295 0.753718
O O1 0.835056 0.176773 0.420267
O O2 0.786221 0.201961 0.250723
O O3 0.989274 0.123421 0.232372
O O4 0.798273 0.000000 0.323275
O O5 0.212262 0.126643 0.368334
O O6 0.000000 0.186929 0.500000
O O7 0.093050 0.000000 0.529037
O O8 0.884739 0.747473 0.916780
O O9 0.779356 0.876216 0.827162
O O10 0.877980 0.000000 0.923511
O O11 0.895973 0.500000 0.913100
O O12 0.076222 0.371477 0.800725
O O13 0.000000 0.370432 0.000000
#
# Coordination Sequence:
#
# PCOD9170056 Si02
#       5
#     8   8   8   8   8
#     4   9  19  33  50  80 115 145 182 228 271 320
#     4  10  17  29  53  80 108 142 183 226 268 321
#     4  10  20  36  59  85 110 141 187 230 269 327
#     4  10  23  41  58  81 113 145 181 228 281 331
#     4  11  20  34  58  80 108 148 187 223 273 329
#
# _framework density 22.010843000000001
#
# number of rings (size 3 to 8) (size 9 to 14) (size 15 to 20)
#    0.000    2.000    2.000    2.400    0.000    2.000 
#    0.000    0.000    0.000    0.600    0.000    0.000 
#    0.000    0.000    0.000    0.000    0.000    0.000 
#
# Total GULP energy -111368.748224 kJ/mol
# GULP energy per Si atom -5568.437411 kJ/mol
# Density = 2.196075 g / cm^3
# Si number density = 22.010843 Si / 1000 Ang^3
#
#
#
# Elastic Constant Matrix: (Units=GPa)
#
#
# Indices 1 2 3 4 5 6 
#
# 1 39.7699 42.9659 10.0311 0.0000 -5.3444 0.0000
# 2 42.9659 195.0148 15.9280 0.0000 18.9307 0.0000
# 3 10.0311 15.9280 61.6406 0.0000 -20.0654 0.0000
# 4 0.0000 0.0000 0.0000 8.5785 0.0000 10.1310
# 5 -5.3444 18.9307 -20.0654 0.0000 33.0991 0.0000
# 6 0.0000 0.0000 0.0000 10.1310 0.0000 11.5786
#
#
#
# Elastic Compliance Matrix: (Units=1/GPa)
#
#
# Indices 1 2 3 4 5 6 
#
# 1 0.036487 -0.009124 0.000045 0.000000 0.011137 0.000000
# 2 -0.009124 0.008198 -0.003289 0.000000 -0.008156 0.000000
# 3 0.000045 -0.003289 0.022027 0.000000 0.015241 0.000000
# 4 0.000000 0.000000 0.000000 -3.496845 0.000000 3.059677
# 5 0.011137 -0.008156 0.015241 0.000000 0.045915 0.000000
# 6 0.000000 0.000000 0.000000 3.059677 0.000000 -2.590797
#
#
# Mechanical properties :
#
#
# Convention : Reuss Voigt Hill
#
# Bulk Modulus (GPa) = 23.82205 48.25281 36.03743
# Shear Modulus (GPa) = -0.84228 25.81793 12.48783
#
# Velocity S-wave (km/s) = -0.61927 3.42857 2.38449
# Velocity P-wave (km/s) = 3.21482 6.13542 4.89788
#
# Compressibility (1/GPa) = 0.04197791
#
# Stress axis : x y z
#
# Youngs Moduli (GPa) = 27.40725 121.97753 45.39913
#
# Poissons Ratio (x) = 1.11287 -0.00205
# Poissons Ratio (y) = 0.25005 0.14930
# Poissons Ratio (z) = -0.00124 0.40113
#
# Static dielectric constant tensor:
#      x y z
#    x 1.802740 0.000000 0.003200 
#    y 0.000000 1.911520 0.000000 
#    z 0.003200 0.000000 1.828720 
# 
# From -- ./inp_files/203262.got.cif
#   From: 2010.05.17/outbox.cif.g08.bks.cpg/sg12_102_cif.got.tgz:203262.got - 2010.06.03 13:09:07.
