data_PCOD9170746
_publ_section_title
;
Structure prediction by ZEFSAII (Michael W. Deem and Ramdas Pophale) SiO2 
 PCOD9170746
Probable space group: C 2/M
;
_chemical_formula_sum "Si O2"
_cell_formula_units_Z 32
_cell_length_a 13.063551
_cell_length_b 18.318793
_cell_length_c 10.559710
_cell_angle_alpha 90.000000
_cell_angle_beta 141.199620
_cell_angle_gamma 90.000000
_cell_volume 1583.458575
_symmetry_space_group_name_H-M "C 2/M"
_symmetry_group_IT_number 12
_symmetry_cell_setting 'monoclinic'
loop_
_space_group_symop_operation_xyz
x,y,z
-x,y,-z
-x,-y,-z
x,-y,z
1/2+x,1/2+y,z
1/2-x,1/2+y,-z
1/2-x,1/2-y,-z
1/2+x,1/2-y,z
loop_
_atom_site_type_symbol
_atom_site_label
_atom_site_fract_x
_atom_site_fract_y
_atom_site_fract_z
Si Si1 0.666053 0.827452 0.097738
Si Si2 0.500000 0.287343 0.500000
Si Si3 0.500000 0.316461 0.000000
Si Si4 0.432286 0.148761 0.269840
Si Si5 0.246658 0.414970 0.655446
O O1 0.835031 0.834381 0.335437
O O2 0.500000 0.858675 0.000000
O O3 0.629056 0.739962 0.065130
O O4 0.668341 0.851292 0.955474
O O5 0.484388 0.230084 0.367612
O O6 0.591183 0.366256 0.189834
O O7 0.335258 0.107075 0.287794
O O8 0.606658 0.108269 0.422490
O O9 0.281677 0.500000 0.683917
#
# Coordination Sequence:
#
# PCOD9170746 Si02
#       5
#     8   4   4   8   8
#     4  10  20  33  51  84 113 139 173 219 280 323
#     4  10  18  30  51  76 111 144 164 222 272 322
#     4  10  19  32  50  82 113 132 172 228 268 326
#     4  10  17  34  52  74 109 142 178 219 268 324
#     4  10  20  34  54  79 106 144 183 221 264 315
#
# _framework density 20.208926999999999
#
# number of rings (size 3 to 8) (size 9 to 14) (size 15 to 20)
#    0.750    1.500    5.000    2.625    0.000    4.000 
#    0.000    0.000    0.000    3.000    0.000    3.500 
#    0.000    0.000    0.000    0.000    0.000    0.000 
#
# Total GULP energy -89113.814117 kJ/mol
# GULP energy per Si atom -5569.613382 kJ/mol
# Density = 2.016293 g / cm^3
# Si number density = 20.208927 Si / 1000 Ang^3
#
#
#
# Elastic Constant Matrix: (Units=GPa)
#
#
# Indices 1 2 3 4 5 6 
#
# 1 38.7672 -5.6869 34.2205 0.0000 10.2216 0.0000
# 2 -5.6869 32.3028 10.7072 0.0000 5.9693 0.0000
# 3 34.2205 10.7072 110.8969 0.0000 26.4847 0.0000
# 4 0.0000 0.0000 0.0000 8.2462 0.0000 0.1057
# 5 10.2216 5.9693 26.4847 0.0000 34.2329 0.0000
# 6 0.0000 0.0000 0.0000 0.1057 0.0000 2.9096
#
#
#
# Elastic Compliance Matrix: (Units=1/GPa)
#
#
# Indices 1 2 3 4 5 6 
#
# 1 0.039543 0.011845 -0.012307 0.000000 -0.004351 0.000000
# 2 0.011845 0.035961 -0.005869 0.000000 -0.005266 0.000000
# 3 -0.012307 -0.005869 0.015038 0.000000 -0.006936 0.000000
# 4 0.000000 0.000000 0.000000 0.121324 0.000000 -0.004407
# 5 -0.004351 -0.005266 -0.006936 0.000000 0.036796 0.000000
# 6 0.000000 0.000000 0.000000 -0.004407 0.000000 0.343853
#
#
# Mechanical properties :
#
#
# Convention : Reuss Voigt Hill
#
# Bulk Modulus (GPa) = 12.84024 28.93872 20.88948
# Shear Modulus (GPa) = 7.92220 18.59279 13.25749
#
# Velocity S-wave (km/s) = 1.98208 3.03649 2.56407
# Velocity P-wave (km/s) = 3.40672 5.16183 4.37323
#
# Compressibility (1/GPa) = 0.07788018
#
# Stress axis : x y z
#
# Youngs Moduli (GPa) = 25.28877 27.80782 66.49709
#
# Poissons Ratio (x) = -0.32938 0.81836
# Poissons Ratio (y) = -0.29954 0.39030
# Poissons Ratio (z) = 0.31122 0.16322
#
# Static dielectric constant tensor:
#      x y z
#    x 1.785630 0.000000 0.057040 
#    y 0.000000 1.695020 0.000000 
#    z 0.057040 0.000000 1.768330 
# 
# From -- ./inp_files/159057.got.cif
#   From: 2010.05.17/outbox.cif.g08.bks.cpg/sg12_80_cif.got.tgz:159057.got - 2010.06.03 13:09:07.
