data_PCOD9170384
_publ_section_title
;
Structure prediction by ZEFSAII (Michael W. Deem and Ramdas Pophale) SiO2 
 PCOD9170384
Probable space group: C 2/M
;
_chemical_formula_sum "Si O2"
_cell_formula_units_Z 56
_cell_length_a 17.776437
_cell_length_b 15.283178
_cell_length_c 17.358813
_cell_angle_alpha 90.000000
_cell_angle_beta 37.812386
_cell_angle_gamma 90.000000
_cell_volume 2891.305893
_symmetry_space_group_name_H-M "C 2/M"
_symmetry_group_IT_number 12
_symmetry_cell_setting 'monoclinic'
loop_
_space_group_symop_operation_xyz
x,y,z
-x,y,-z
-x,-y,-z
x,-y,z
1/2+x,1/2+y,z
1/2-x,1/2+y,-z
1/2-x,1/2-y,-z
1/2+x,1/2-y,z
loop_
_atom_site_type_symbol
_atom_site_label
_atom_site_fract_x
_atom_site_fract_y
_atom_site_fract_z
Si Si1 0.678403 0.220893 0.828026
Si Si2 0.467488 0.830474 0.902389
Si Si3 0.941711 0.148814 0.833912
Si Si4 0.182316 0.406154 0.102511
Si Si5 0.419047 0.243333 0.708573
Si Si6 0.647526 0.404080 0.780975
Si Si7 0.583951 0.096999 0.507831
O O1 0.608543 0.169503 0.816019
O O2 0.825438 0.223869 0.718039
O O3 0.635592 0.321894 0.848254
O O4 0.619268 0.178951 0.952574
O O5 0.443309 0.741621 0.875808
O O6 0.422220 0.901516 0.878455
O O7 0.956750 0.176150 0.732771
O O8 0.047040 0.098714 0.794574
O O9 0.810775 0.105801 0.954952
O O10 0.180307 0.500000 0.144518
O O11 0.164134 0.325750 0.175328
O O12 0.532905 0.181629 0.593538
O O13 0.643860 0.500000 0.822030
O O14 0.777982 0.392762 0.633323
O O15 0.500000 0.093432 0.500000
O O16 0.573786 0.000000 0.554353
#
# Coordination Sequence:
#
# PCOD9170384 Si02
#       7
#     8   8   8   8   8   8   8
#     4  10  17  31  53  69  99 135 165 198 244 295
#     4   9  18  33  47  71 102 134 163 201 245 292
#     4  10  19  34  49  72 104 132 164 203 246 298
#     4  11  20  32  51  75 102 131 167 204 248 296
#     4  11  19  33  54  73  99 134 169 201 245 300
#     4  10  21  34  50  75 106 132 161 206 252 292
#     4  10  20  33  49  75 106 129 160 207 253 292
#
# _framework density 19.368411999999999
#
# number of rings (size 3 to 8) (size 9 to 14) (size 15 to 20)
#    0.000    1.857    4.286    1.714    0.000    1.143 
#    0.000    3.571    0.000    0.000    0.000    0.000 
#    0.000   10.286    0.000    0.000    0.000    0.000 
#
# Total GULP energy -155980.219470 kJ/mol
# GULP energy per Si atom -5570.722124 kJ/mol
# Density = 1.932433 g / cm^3
# Si number density = 19.368412 Si / 1000 Ang^3
#
#
#
# Elastic Constant Matrix: (Units=GPa)
#
#
# Indices 1 2 3 4 5 6 
#
# 1 88.4122 -0.8277 -6.8890 0.0000 -12.8335 0.0000
# 2 -0.8277 30.0537 0.7556 0.0000 -2.0095 0.0000
# 3 -6.8890 0.7556 34.3949 0.0000 -7.3701 0.0000
# 4 0.0000 0.0000 0.0000 31.1981 0.0000 -6.1431
# 5 -12.8335 -2.0095 -7.3701 0.0000 16.5643 0.0000
# 6 0.0000 0.0000 0.0000 -6.1431 0.0000 -7.3938
#
#
#
# Elastic Compliance Matrix: (Units=1/GPa)
#
#
# Indices 1 2 3 4 5 6 
#
# 1 0.013667 0.001119 0.005539 0.000000 0.013189 0.000000
# 2 0.001119 0.033638 0.000603 0.000000 0.005216 0.000000
# 3 0.005539 0.000603 0.034384 0.000000 0.019663 0.000000
# 4 0.000000 0.000000 0.000000 0.027547 0.000000 -0.022887
# 5 0.013189 0.005216 0.019663 0.000000 0.079971 0.000000
# 6 0.000000 0.000000 0.000000 -0.022887 0.000000 -0.116234
#
#
# Mechanical properties :
#
#
# Convention : Reuss Voigt Hill
#
# Bulk Modulus (GPa) = 10.39384 15.43762 12.91573
# Shear Modulus (GPa) = 55.23549 18.72853 36.98201
#
# Velocity S-wave (km/s) = 5.34605 3.11298 4.37441
# Velocity P-wave (km/s) = 6.59432 4.57260 5.67423
#
# Compressibility (1/GPa) = 0.09621083
#
# Stress axis : x y z
#
# Youngs Moduli (GPa) = 73.16785 29.72809 29.08360
#
# Poissons Ratio (x) = -0.03327 -0.16109
# Poissons Ratio (y) = -0.08188 -0.01753
# Poissons Ratio (z) = -0.40528 -0.01792
#
# Static dielectric constant tensor:
#      x y z
#    x 1.732610 0.000000 -0.006880 
#    y 0.000000 1.694320 0.000000 
#    z -0.006880 0.000000 1.697080 
# 
# From -- ./inp_files/157343.got.cif
#   From: 2010.05.17/outbox.cif.g08.bks.cpg/sg12_79_cif.got.tgz:157343.got - 2010.06.03 13:09:07.
