data_PCOD9170960
_publ_section_title
;
Structure prediction by ZEFSAII (Michael W. Deem and Ramdas Pophale) SiO2 
 PCOD9170960
Probable space group: C 2/M
;
_chemical_formula_sum "Si O2"
_cell_formula_units_Z 56
_cell_length_a 8.740155
_cell_length_b 20.901075
_cell_length_c 18.827056
_cell_angle_alpha 90.000000
_cell_angle_beta 122.105356
_cell_angle_gamma 90.000000
_cell_volume 2913.336322
_symmetry_space_group_name_H-M "C 2/M"
_symmetry_group_IT_number 12
_symmetry_cell_setting 'monoclinic'
loop_
_space_group_symop_operation_xyz
x,y,z
-x,y,-z
-x,-y,-z
x,-y,z
1/2+x,1/2+y,z
1/2-x,1/2+y,-z
1/2-x,1/2-y,-z
1/2+x,1/2-y,z
loop_
_atom_site_type_symbol
_atom_site_label
_atom_site_fract_x
_atom_site_fract_y
_atom_site_fract_z
Si Si1 0.399455 0.325119 0.225718
Si Si2 0.954667 0.400838 0.406527
Si Si3 0.645583 0.572595 0.218961
Si Si4 0.007850 0.278013 0.134727
Si Si5 0.155337 0.158856 0.084959
Si Si6 0.705434 0.346949 0.547832
Si Si7 0.276220 0.710793 0.604334
O O1 0.471171 0.389979 0.207089
O O2 0.456979 0.266022 0.189267
O O3 0.528266 0.312630 0.323733
O O4 0.188394 0.319673 0.188725
O O5 0.795671 0.430124 0.319284
O O6 0.878815 0.327975 0.392705
O O7 0.000000 0.421798 0.500000
O O8 0.141758 0.400428 0.409825
O O9 0.607537 0.500000 0.187765
O O10 0.705856 0.616541 0.166680
O O11 0.831054 0.321825 0.082466
O O12 0.061112 0.224757 0.089548
O O13 0.000000 0.125717 0.000000
O O14 0.500000 0.369162 0.500000
O O15 0.737740 0.315308 0.478634
O O16 0.741914 0.285558 0.605892
#
# Coordination Sequence:
#
# PCOD9170960 Si02
#       7
#     8   8   8   8   8   8   8
#     4   9  19  31  53  79 109 141 173 220 266 326
#     4   9  19  34  48  71 100 138 184 218 264 316
#     4  10  22  39  56  76 104 147 193 228 266 315
#     4   9  19  33  55  88 111 138 170 214 277 334
#     4  10  20  36  59  86 115 143 174 219 272 330
#     4  10  18  24  41  69 103 137 166 213 265 327
#     4   9  17  26  40  68 105 139 165 202 268 325
#
# _framework density 19.221948000000001
#
# number of rings (size 3 to 8) (size 9 to 14) (size 15 to 20)
#    0.000    2.571    0.000    2.571   10.000    0.571 
#    0.000    0.714    0.000    1.286    0.000    0.000 
#    0.000    0.000    0.000    0.000    0.000    0.000 
#
# Total GULP energy -155877.210827 kJ/mol
# GULP energy per Si atom -5567.043244 kJ/mol
# Density = 1.917820 g / cm^3
# Si number density = 19.221948 Si / 1000 Ang^3
#
#
#
# Elastic Constant Matrix: (Units=GPa)
#
#
# Indices 1 2 3 4 5 6 
#
# 1 111.0684 30.1406 24.1405 0.0000 38.5734 0.0000
# 2 30.1406 63.2124 16.0391 0.0000 10.3720 0.0000
# 3 24.1405 16.0391 76.2050 0.0000 17.4765 0.0000
# 4 0.0000 0.0000 0.0000 3.1874 0.0000 2.1955
# 5 38.5734 10.3720 17.4765 0.0000 32.0706 0.0000
# 6 0.0000 0.0000 0.0000 2.1955 0.0000 -2.1718
#
#
#
# Elastic Compliance Matrix: (Units=1/GPa)
#
#
# Indices 1 2 3 4 5 6 
#
# 1 0.016818 -0.004961 -0.000014 0.000000 -0.018616 0.000000
# 2 -0.004961 0.018634 -0.002670 0.000000 0.001396 0.000000
# 3 -0.000014 -0.002670 0.015413 0.000000 -0.007519 0.000000
# 4 0.000000 0.000000 0.000000 0.184951 0.000000 0.186972
# 5 -0.018616 0.001396 -0.007519 0.000000 0.057218 0.000000
# 6 0.000000 0.000000 0.000000 0.186972 0.000000 -0.271441
#
#
# Mechanical properties :
#
#
# Convention : Reuss Voigt Hill
#
# Bulk Modulus (GPa) = 28.11054 43.45846 35.78450
# Shear Modulus (GPa) = 102.58109 18.62828 60.60469
#
# Velocity S-wave (km/s) = 7.31317 3.11644 5.62115
# Velocity P-wave (km/s) = 9.27178 5.96720 7.79658
#
# Compressibility (1/GPa) = 0.03557384
#
# Stress axis : x y z
#
# Youngs Moduli (GPa) = 59.46008 53.66621 64.87890
#
# Poissons Ratio (x) = 0.26623 0.00092
# Poissons Ratio (y) = 0.29498 0.17326
# Poissons Ratio (z) = 0.00085 0.14331
#
# Static dielectric constant tensor:
#      x y z
#    x 1.710280 0.000000 -0.003190 
#    y 0.000000 1.678230 0.000000 
#    z -0.003190 0.000000 1.755070 
# 
# From -- ./inp_files/301787.got.cif
#   From: 2010.05.17/outbox.cif.g08.bks.cpg/sg12_151_cif.got.tgz:301787.got - 2010.06.03 13:09:07.
