data_PCOD9170632
_publ_section_title
;
Structure prediction by ZEFSAII (Michael W. Deem and Ramdas Pophale) SiO2 
 PCOD9170632
Probable space group: C 2/M
;
_chemical_formula_sum "Si O2"
_cell_formula_units_Z 64
_cell_length_a 24.590094
_cell_length_b 21.726628
_cell_length_c 7.993161
_cell_angle_alpha 90.000000
_cell_angle_beta 67.031003
_cell_angle_gamma 90.000000
_cell_volume 3931.849055
_symmetry_space_group_name_H-M "C 2/M"
_symmetry_group_IT_number 12
_symmetry_cell_setting 'monoclinic'
loop_
_space_group_symop_operation_xyz
x,y,z
-x,y,-z
-x,-y,-z
x,-y,z
1/2+x,1/2+y,z
1/2-x,1/2+y,-z
1/2-x,1/2-y,-z
1/2+x,1/2-y,z
loop_
_atom_site_type_symbol
_atom_site_label
_atom_site_fract_x
_atom_site_fract_y
_atom_site_fract_z
Si Si1 0.946274 0.827605 0.469445
Si Si2 0.767477 0.572063 0.092343
Si Si3 0.721139 0.069951 0.306306
Si Si4 0.858665 0.094177 0.157020
Si Si5 0.784711 0.341732 0.381473
Si Si6 0.125505 0.069819 0.240304
Si Si7 0.531125 0.434564 0.784250
Si Si8 0.842347 0.787307 0.365368
O O1 0.908528 0.876049 0.625393
O O2 0.980750 0.874074 0.304564
O O3 0.898015 0.789152 0.424048
O O4 0.000000 0.794104 0.500000
O O5 0.781618 0.500000 0.106364
O O6 0.790518 0.616448 0.209900
O O7 0.696044 0.576968 0.179861
O O8 0.788270 0.587315 0.877631
O O9 0.792293 0.069851 0.242697
O O10 0.700427 0.117904 0.471244
O O11 0.699767 0.000000 0.358527
O O12 0.899168 0.067936 0.255586
O O13 0.857036 0.167316 0.193001
O O14 0.884261 0.076177 0.946917
O O15 0.824196 0.280615 0.332232
O O16 0.716415 0.318235 0.481302
O O17 0.110126 0.000000 0.311709
O O18 0.515782 0.500000 0.722892
O O19 0.500000 0.431460 0.000000
#
# Coordination Sequence:
#
# PCOD9170632 Si02
#       8
#     8   8   8   8   8   8   8   8
#     4  11  21  32  44  61  88 118 156 199 233 265
#     4   9  17  29  47  72  98 120 151 191 234 282
#     4   9  17  28  46  72  94 119 149 184 237 284
#     4   9  17  30  42  59  88 120 152 195 226 266
#     4  10  17  33  49  64  95 123 157 194 227 277
#     4  10  18  29  44  67  91 118 158 195 235 272
#     4  10  19  29  42  59  81 115 157 196 234 264
#     4   9  20  33  44  64  86 121 165 189 225 277
#
# _framework density 16.277329000000002
#
# number of rings (size 3 to 8) (size 9 to 14) (size 15 to 20)
#    0.000    2.375    1.250    3.375    0.000    2.000 
#    2.250    2.500    0.000    0.000    0.000    0.000 
#    0.000    2.000    0.000    2.750    0.000    0.125 
#
# Total GULP energy -178330.620803 kJ/mol
# GULP energy per Si atom -5572.831900 kJ/mol
# Density = 1.624028 g / cm^3
# Si number density = 16.277329 Si / 1000 Ang^3
#
#
#
# Elastic Constant Matrix: (Units=GPa)
#
#
# Indices 1 2 3 4 5 6 
#
# 1 54.6176 35.8125 17.9831 0.0000 16.7158 0.0000
# 2 35.8125 99.0593 45.4135 0.0000 17.3858 0.0000
# 3 17.9831 45.4135 53.9249 0.0000 15.2980 0.0000
# 4 0.0000 0.0000 0.0000 18.0063 0.0000 -35.1025
# 5 16.7158 17.3858 15.2980 0.0000 19.9298 0.0000
# 6 0.0000 0.0000 0.0000 -35.1025 0.0000 1683.4354
#
#
#
# Elastic Compliance Matrix: (Units=1/GPa)
#
#
# Indices 1 2 3 4 5 6 
#
# 1 0.028628 -0.008328 0.002835 0.000000 -0.018922 0.000000
# 2 -0.008328 0.019226 -0.013599 0.000000 0.000652 0.000000
# 3 0.002835 -0.013599 0.033699 0.000000 -0.016382 0.000000
# 4 0.000000 0.000000 0.000000 0.057889 0.000000 0.001207
# 5 -0.018922 0.000652 -0.016382 0.000000 0.078052 0.000000
# 6 0.000000 0.000000 0.000000 0.001207 0.000000 0.000619
#
#
# Mechanical properties :
#
#
# Convention : Reuss Voigt Hill
#
# Bulk Modulus (GPa) = 23.05872 45.11333 34.08602
# Shear Modulus (GPa) = 18.46703 351.50050 184.98376
#
# Velocity S-wave (km/s) = 3.37192 14.71100 10.67201
# Velocity P-wave (km/s) = 5.41819 17.78559 13.14694
#
# Compressibility (1/GPa) = 0.04336755
#
# Stress axis : x y z
#
# Youngs Moduli (GPa) = 34.93130 52.01351 29.67478
#
# Poissons Ratio (x) = 0.43319 -0.08413
# Poissons Ratio (y) = 0.29092 0.40354
# Poissons Ratio (z) = -0.09903 0.70732
#
# Static dielectric constant tensor:
#      x y z
#    x 1.565480 0.000000 0.013090 
#    y 0.000000 1.543530 0.000000 
#    z 0.013090 0.000000 1.579700 
# 
# From -- ./inp_files/97703.got.cif
#   From: 2010.05.17/outbox.cif.g08.bks.cpg/sg12_49_cif.got.tgz:97703.got - 2010.06.03 13:09:07.
