data_PCOD9170365
_publ_section_title
;
Structure prediction by ZEFSAII (Michael W. Deem and Ramdas Pophale) SiO2 
 PCOD9170365
Probable space group: C 2/M
;
_chemical_formula_sum "Si O2"
_cell_formula_units_Z 64
_cell_length_a 19.283452
_cell_length_b 19.880345
_cell_length_c 19.238576
_cell_angle_alpha 90.000000
_cell_angle_beta 30.517038
_cell_angle_gamma 90.000000
_cell_volume 3745.153886
_symmetry_space_group_name_H-M "C 2/M"
_symmetry_group_IT_number 12
_symmetry_cell_setting 'monoclinic'
loop_
_space_group_symop_operation_xyz
x,y,z
-x,y,-z
-x,-y,-z
x,-y,z
1/2+x,1/2+y,z
1/2-x,1/2+y,-z
1/2-x,1/2-y,-z
1/2+x,1/2-y,z
loop_
_atom_site_type_symbol
_atom_site_label
_atom_site_fract_x
_atom_site_fract_y
_atom_site_fract_z
Si Si1 0.685036 0.284028 0.900245
Si Si2 0.849487 0.922522 0.718545
Si Si3 0.656128 0.872781 0.765714
Si Si4 0.858527 0.800100 0.371488
Si Si5 0.377015 0.712548 0.202196
Si Si6 0.361076 0.131792 0.006594
Si Si7 0.640206 0.420323 0.523038
Si Si8 0.371461 0.207428 0.860715
O O1 0.694918 0.299032 0.809851
O O2 0.810874 0.310309 0.837565
O O3 0.535724 0.308463 0.054992
O O4 0.670869 0.203674 0.928020
O O5 0.760830 0.885111 0.737535
O O6 0.006015 0.902142 0.593066
O O7 0.848957 0.000000 0.698225
O O8 0.768912 0.912231 0.860711
O O9 0.632949 0.793050 0.777579
O O10 0.502966 0.898691 0.911816
O O11 0.725976 0.904593 0.637889
O O12 0.750000 0.750000 0.500000
O O13 0.825101 0.815835 0.319842
O O14 0.864665 0.869256 0.408584
O O15 0.999321 0.757022 0.253141
O O16 0.387744 0.147473 0.902227
O O17 0.632126 0.500000 0.546367
O O18 0.250000 0.250000 0.000000
#
# Coordination Sequence:
#
# PCOD9170365 Si02
#       8
#     8   8   8   8   8   8   8   8
#     4   9  17  30  51  76 104 129 168 210 274 315
#     4  11  23  34  49  74 108 151 182 205 248 314
#     4  11  19  34  50  71 108 143 179 215 249 303
#     4  12  21  35  53  78 106 137 176 229 268 311
#     4  10  18  31  51  80 104 134 171 226 265 308
#     4  10  18  31  52  75 103 133 179 219 252 296
#     4  11  24  38  51  72 106 148 181 212 261 320
#     4  10  17  31  51  74 100 137 170 212 268 311
#
# _framework density 17.088750000000001
#
# number of rings (size 3 to 8) (size 9 to 14) (size 15 to 20)
#    0.000    1.500    6.250    2.625    0.000    2.500 
#    0.000    0.625    0.000    0.000    0.000    2.625 
#    0.000    4.000    0.000    0.000    0.000    0.000 
#
# Total GULP energy -178281.745227 kJ/mol
# GULP energy per Si atom -5571.304538 kJ/mol
# Density = 1.704986 g / cm^3
# Si number density = 17.088750 Si / 1000 Ang^3
#
#
#
# Elastic Constant Matrix: (Units=GPa)
#
#
# Indices 1 2 3 4 5 6 
#
# 1 123.7599 23.5351 29.1276 -0.0008 17.3422 0.0000
# 2 23.5351 32.5715 10.2861 -0.0023 2.3188 0.0005
# 3 29.1276 10.2861 81.9462 -0.0041 -1.6598 0.0009
# 4 -0.0008 -0.0023 -0.0041 12.4992 0.0017 -1.2383
# 5 17.3422 2.3188 -1.6598 0.0017 29.3540 -0.0001
# 6 0.0000 0.0005 0.0009 -1.2383 -0.0001 14.7684
#
#
#
# Elastic Compliance Matrix: (Units=1/GPa)
#
#
# Indices 1 2 3 4 5 6 
#
# 1 0.010915 -0.006442 -0.003195 -0.000001 -0.006120 0.000000
# 2 -0.006442 0.035995 -0.002211 0.000005 0.000837 -0.000001
# 3 -0.003195 -0.002211 0.013674 0.000003 0.002835 0.000000
# 4 -0.000001 0.000005 0.000003 0.080675 -0.000005 0.006764
# 5 -0.006120 0.000837 0.002835 -0.000005 0.037777 0.000000
# 6 0.000000 -0.000001 0.000000 0.006764 0.000000 0.068279
#
#
# Mechanical properties :
#
#
# Convention : Reuss Voigt Hill
#
# Bulk Modulus (GPa) = 27.10987 40.46392 33.78689
# Shear Modulus (GPa) = 17.64866 23.01290 20.33078
#
# Velocity S-wave (km/s) = 3.21715 3.67368 3.45297
# Velocity P-wave (km/s) = 5.44965 6.45946 5.97592
#
# Compressibility (1/GPa) = 0.03688694
#
# Stress axis : x y z
#
# Youngs Moduli (GPa) = 91.61881 27.78148 73.13259
#
# Poissons Ratio (x) = 0.17897 0.23366
# Poissons Ratio (y) = 0.59021 0.16173
# Poissons Ratio (z) = 0.29272 0.06144
#
# Static dielectric constant tensor:
#      x y z
#    x 1.638780 0.000080 0.053540 
#    y 0.000080 1.421640 -0.000150 
#    z 0.053540 -0.000150 1.536990 
# 
# From -- ./inp_files/322857.got.cif
#   From: 2010.05.17/outbox.cif.g08.bks.cpg/sg12_162_cif.got.tgz:322857.got - 2010.06.03 13:09:07.
