data_PCOD9170916
_publ_section_title
;
Structure prediction by ZEFSAII (Michael W. Deem and Ramdas Pophale) SiO2 
 PCOD9170916
Probable space group: C 2/M
;
_chemical_formula_sum "Si O2"
_cell_formula_units_Z 36
_cell_length_a 17.788806
_cell_length_b 15.208969
_cell_length_c 14.859964
_cell_angle_alpha 90.000000
_cell_angle_beta 157.017781
_cell_angle_gamma 90.000000
_cell_volume 1569.729027
_symmetry_space_group_name_H-M "C 2/M"
_symmetry_group_IT_number 12
_symmetry_cell_setting 'monoclinic'
loop_
_space_group_symop_operation_xyz
x,y,z
-x,y,-z
-x,-y,-z
x,-y,z
1/2+x,1/2+y,z
1/2-x,1/2+y,-z
1/2-x,1/2-y,-z
1/2+x,1/2-y,z
loop_
_atom_site_type_symbol
_atom_site_label
_atom_site_fract_x
_atom_site_fract_y
_atom_site_fract_z
Si Si1 0.000000 0.336046 0.000000
Si Si2 0.219751 0.101429 0.360398
Si Si3 0.399025 0.595050 0.486974
Si Si4 0.049468 0.725728 0.731996
Si Si5 0.178332 0.832209 0.109575
O O1 0.170240 0.394688 0.225353
O O2 0.102263 0.267436 0.044032
O O3 0.376635 0.165354 0.579296
O O4 0.212531 0.124800 0.245014
O O5 0.265992 0.000000 0.425871
O O6 0.996146 0.121397 0.136185
O O7 0.500000 0.598265 0.500000
O O8 0.448252 0.500000 0.581800
O O9 0.462415 0.681539 0.608095
O O10 0.127834 0.671971 0.732330
O O11 0.250000 0.750000 0.000000
#
# Coordination Sequence:
#
# PCOD9170916 Si02
#       5
#     4   8   8   8   8
#     4  10  17  36  65  84 106 142 197 250 285 322
#     4  10  21  39  65  91 113 147 200 252 291 339
#     4  11  21  38  61  87 113 148 200 245 283 336
#     4  12  24  38  58  84 126 162 187 228 293 359
#     4  10  19  37  64  86 114 145 197 243 295 332
#
# _framework density 22.933893999999999
#
# number of rings (size 3 to 8) (size 9 to 14) (size 15 to 20)
#    0.000    1.556    6.667    2.333    0.000    4.444 
#    0.000    0.000    0.000    0.000    0.000    0.000 
#    0.000    0.000    0.000    0.000    0.000    0.000 
#
# Total GULP energy -100548.717677 kJ/mol
# GULP energy per Si atom -5586.039871 kJ/mol
# Density = 2.288170 g / cm^3
# Si number density = 22.933894 Si / 1000 Ang^3
#
#
#
# Elastic Constant Matrix: (Units=GPa)
#
#
# Indices 1 2 3 4 5 6 
#
# 1 33.1354 -2.0701 3.5986 0.0001 8.5906 0.0000
# 2 -2.0701 184.5851 62.0655 0.0001 1.6636 0.0000
# 3 3.5986 62.0655 168.7376 0.0003 7.9487 0.0000
# 4 0.0001 0.0001 0.0003 22.1962 0.0002 9.5050
# 5 8.5906 1.6636 7.9487 0.0002 27.5868 0.0000
# 6 0.0000 0.0000 0.0000 9.5050 0.0000 2.0506
#
#
#
# Elastic Compliance Matrix: (Units=1/GPa)
#
#
# Indices 1 2 3 4 5 6 
#
# 1 0.032898 0.000611 -0.000448 0.000000 -0.010152 0.000000
# 2 0.000611 0.006196 -0.002297 0.000000 0.000098 0.000000
# 3 -0.000448 -0.002297 0.006861 0.000000 -0.001699 0.000000
# 4 0.000000 0.000000 0.000000 -0.045741 0.000000 0.212022
# 5 -0.010152 0.000098 -0.001699 0.000000 0.039894 -0.000001
# 6 0.000000 0.000000 0.000000 0.212022 -0.000001 -0.495116
#
#
# Mechanical properties :
#
#
# Convention : Reuss Voigt Hill
#
# Bulk Modulus (GPa) = 23.98809 57.07177 40.52993
# Shear Modulus (GPa) = -11.44569 31.89101 10.22266
#
# Velocity S-wave (km/s) = -2.23642 3.73307 2.11356
# Velocity P-wave (km/s) = 1.95285 6.59700 4.86488
#
# Compressibility (1/GPa) = 0.04168735
#
# Stress axis : x y z
#
# Youngs Moduli (GPa) = 30.39689 161.40139 145.75830
#
# Poissons Ratio (x) = -0.09864 0.06532
# Poissons Ratio (y) = -0.01858 0.33474
# Poissons Ratio (z) = 0.01362 0.37067
#
# Static dielectric constant tensor:
#      x y z
#    x 1.965880 0.000000 -0.046250 
#    y 0.000000 1.816790 0.000000 
#    z -0.046250 0.000000 1.868600 
# 
# From -- ./inp_files/284365.got.cif
#   From: 2010.05.17/outbox.cif.g08.bks.cpg/sg12_143_cif.got.tgz:284365.got - 2010.06.03 13:09:07.
