data_PCOD9170989
_publ_section_title
;
Structure prediction by ZEFSAII (Michael W. Deem and Ramdas Pophale) SiO2 
 PCOD9170989
Probable space group: C 2/M
;
_chemical_formula_sum "Si O2"
_cell_formula_units_Z 56
_cell_length_a 28.494616
_cell_length_b 7.435309
_cell_length_c 18.354326
_cell_angle_alpha 90.000000
_cell_angle_beta 53.188993
_cell_angle_gamma 90.000000
_cell_volume 3113.326641
_symmetry_space_group_name_H-M "C 2/M"
_symmetry_group_IT_number 12
_symmetry_cell_setting 'monoclinic'
loop_
_space_group_symop_operation_xyz
x,y,z
-x,y,-z
-x,-y,-z
x,-y,z
1/2+x,1/2+y,z
1/2-x,1/2+y,-z
1/2-x,1/2-y,-z
1/2+x,1/2-y,z
loop_
_atom_site_type_symbol
_atom_site_label
_atom_site_fract_x
_atom_site_fract_y
_atom_site_fract_z
Si Si1 0.983456 0.779607 0.398716
Si Si2 0.536433 0.279113 0.036848
Si Si3 0.591724 0.284617 0.397113
Si Si4 0.489427 0.707066 0.781141
Si Si5 0.331411 0.290345 0.070277
Si Si6 0.793740 0.713651 0.793791
Si Si7 0.853763 0.283060 0.886062
O O1 0.932519 0.723863 0.501979
O O2 0.044702 0.722435 0.379855
O O3 0.979812 0.714560 0.319139
O O4 0.984285 0.000000 0.395668
O O5 0.537461 0.500000 0.038983
O O6 0.508009 0.216401 0.139703
O O7 0.500000 0.226892 0.000000
O O8 0.604131 0.215988 0.971714
O O9 0.587581 0.500000 0.401294
O O10 0.657232 0.238664 0.313182
O O11 0.508707 0.500000 0.768853
O O12 0.420179 0.712234 0.826348
O O13 0.334938 0.500000 0.087408
O O14 0.271519 0.213711 0.159195
O O15 0.324759 0.275597 0.988869
O O16 0.786855 0.500000 0.810428
O O17 0.820721 0.782653 0.844825
O O18 0.856363 0.500000 0.882781
#
# Coordination Sequence:
#
# PCOD9170989 Si02
#       7
#     8   8   8   8   8   8   8
#     4   8  14  25  40  59  78 104 139 167 194 228
#     4   8  14  25  43  65  80  94 126 170 205 234
#     4   9  16  26  41  57  78 107 140 169 191 227
#     4   9  15  26  44  60  80 108 133 160 200 241
#     4   9  18  30  42  55  78 109 135 162 198 240
#     4  10  19  28  37  56  83 110 136 162 196 233
#     4  10  18  26  37  57  83 106 135 167 188 227
#
# _framework density 17.987189000000001
#
# number of rings (size 3 to 8) (size 9 to 14) (size 15 to 20)
#    0.000    3.000    1.429    2.571    0.000    1.143 
#    0.000    2.143    0.000    6.857    0.000    1.000 
#    0.000    0.000    0.000    0.000    0.000    0.000 
#
# Total GULP energy -156015.790308 kJ/mol
# GULP energy per Si atom -5571.992511 kJ/mol
# Density = 1.794625 g / cm^3
# Si number density = 17.987189 Si / 1000 Ang^3
#
#
#
# Elastic Constant Matrix: (Units=GPa)
#
#
# Indices 1 2 3 4 5 6 
#
# 1 82.4725 3.5003 81.7070 -0.0005 12.8583 -0.0005
# 2 3.5003 56.5791 -6.9368 0.0012 2.8705 -0.0018
# 3 81.7070 -6.9368 161.7273 0.0004 0.0744 -0.0005
# 4 -0.0005 0.0012 0.0004 10.4099 0.0000 -5.1955
# 5 12.8583 2.8705 0.0744 0.0000 24.6774 0.0000
# 6 -0.0005 -0.0018 -0.0005 -5.1955 0.0000 5.2797
#
#
#
# Elastic Compliance Matrix: (Units=1/GPa)
#
#
# Indices 1 2 3 4 5 6 
#
# 1 0.029421 -0.002899 -0.014981 0.000005 -0.014948 0.000005
# 2 -0.002899 0.018160 0.002244 0.000002 -0.000609 0.000008
# 3 -0.014981 0.002244 0.013845 -0.000002 0.007503 -0.000001
# 4 0.000005 0.000002 -0.000002 0.188775 -0.000003 0.185763
# 5 -0.014948 -0.000609 0.007503 -0.000003 0.048360 -0.000004
# 6 0.000005 0.000008 -0.000001 0.185763 -0.000004 0.372203
#
#
# Mechanical properties :
#
#
# Convention : Reuss Voigt Hill
#
# Bulk Modulus (GPa) = 33.16444 50.81333 41.98888
# Shear Modulus (GPa) = 7.02161 22.90732 14.96446
#
# Velocity S-wave (km/s) = 1.97791 3.57253 2.88749
# Velocity P-wave (km/s) = 4.86765 6.73264 5.87462
#
# Compressibility (1/GPa) = 0.03015278
#
# Stress axis : x y z
#
# Youngs Moduli (GPa) = 33.98909 55.06715 72.22877
#
# Poissons Ratio (x) = 0.15962 1.08209
# Poissons Ratio (y) = 0.09852 -0.16205
# Poissons Ratio (z) = 0.50921 -0.12355
#
# Static dielectric constant tensor:
#      x y z
#    x 1.593490 0.000000 -0.013270 
#    y 0.000000 1.679110 0.000000 
#    z -0.013270 0.000000 1.658630 
# 
# From -- ./inp_files/291448.got.cif
#   From: 2010.05.17/outbox.cif.g08.bks.cpg/sg12_146_cif.got.tgz:291448.got - 2010.06.03 13:09:07.
