data_PCOD9170070
_publ_section_title
;
Structure prediction by ZEFSAII (Michael W. Deem and Ramdas Pophale) SiO2 
 PCOD9170070
Probable space group: C 2/M
;
_chemical_formula_sum "Si O2"
_cell_formula_units_Z 64
_cell_length_a 34.168123
_cell_length_b 7.744698
_cell_length_c 15.352954
_cell_angle_alpha 90.000000
_cell_angle_beta 135.729915
_cell_angle_gamma 90.000000
_cell_volume 2835.951576
_symmetry_space_group_name_H-M "C 2/M"
_symmetry_group_IT_number 12
_symmetry_cell_setting 'monoclinic'
loop_
_space_group_symop_operation_xyz
x,y,z
-x,y,-z
-x,-y,-z
x,-y,z
1/2+x,1/2+y,z
1/2-x,1/2+y,-z
1/2-x,1/2-y,-z
1/2+x,1/2-y,z
loop_
_atom_site_type_symbol
_atom_site_label
_atom_site_fract_x
_atom_site_fract_y
_atom_site_fract_z
Si Si1 0.867350 0.709884 0.973319
Si Si2 0.612110 0.790327 0.798247
Si Si3 0.486296 0.210379 0.631819
Si Si4 0.009205 0.293245 0.864862
Si Si5 0.796215 0.201109 0.704007
Si Si6 0.325516 0.698860 0.462172
Si Si7 0.872593 0.296036 0.363045
Si Si8 0.607200 0.707792 0.269380
O O1 0.865737 0.500000 0.969132
O O2 0.867596 0.768673 0.074372
O O3 0.926691 0.767824 0.024172
O O4 0.816591 0.777780 0.835425
O O5 0.546073 0.746164 0.684985
O O6 0.640878 0.728541 0.754965
O O7 0.615705 0.000000 0.809242
O O8 0.490117 0.268842 0.738172
O O9 0.431488 0.274596 0.494860
O O10 0.483616 0.000000 0.629281
O O11 0.012621 0.500000 0.867937
O O12 0.957989 0.249995 0.846722
O O13 0.736233 0.287213 0.596148
O O14 0.847695 0.272189 0.728777
O O15 0.788735 0.000000 0.671414
O O16 0.340089 0.500000 0.474392
O O17 0.328733 0.775875 0.371082
O O18 0.369935 0.776420 0.601111
O O19 0.881401 0.500000 0.365303
O O20 0.610998 0.500000 0.275926
#
# Coordination Sequence:
#
# PCOD9170070 Si02
#       8
#     8   8   8   8   8   8   8   8
#     4   9  19  37  57  82 115 147 183 224 265 312
#     4   8  15  28  51  82 113 144 179 218 261 312
#     4   8  13  24  46  80 114 142 174 213 256 309
#     4   9  17  31  55  85 115 146 178 216 264 322
#     4  11  24  41  59  78 101 141 191 232 272 324
#     4  11  23  39  57  80 111 142 175 226 283 328
#     4  10  17  29  54  84 111 142 180 220 263 319
#     4  10  22  38  57  82 111 139 175 225 281 331
#
# _framework density 22.56738
#
# number of rings (size 3 to 8) (size 9 to 14) (size 15 to 20)
#    0.000    2.500    1.250    3.000    0.000    4.000 
#    0.000    3.750    0.000    2.250    0.000    0.000 
#    0.000    0.000    0.000    0.000    0.000    0.000 
#
# Total GULP energy -178591.827788 kJ/mol
# GULP energy per Si atom -5580.994618 kJ/mol
# Density = 2.251602 g / cm^3
# Si number density = 22.567380 Si / 1000 Ang^3
#
#
#
# Elastic Constant Matrix: (Units=GPa)
#
#
# Indices 1 2 3 4 5 6 
#
# 1 68.2666 -5.6640 14.4655 0.0000 -11.6518 0.0000
# 2 -5.6640 30.3907 -2.5061 0.0001 -0.2883 0.0001
# 3 14.4655 -2.5061 57.8079 0.0000 9.2332 0.0000
# 4 0.0000 0.0001 0.0000 6.5957 0.0000 -6.1415
# 5 -11.6518 -0.2883 9.2332 0.0000 16.7815 0.0000
# 6 0.0000 0.0001 0.0000 -6.1415 0.0000 1.1469
#
#
#
# Elastic Compliance Matrix: (Units=1/GPa)
#
#
# Indices 1 2 3 4 5 6 
#
# 1 0.019567 0.003189 -0.007605 0.000000 0.017825 0.000000
# 2 0.003189 0.033543 0.000231 0.000001 0.002663 0.000001
# 3 -0.007605 0.000231 0.021987 0.000000 -0.017373 0.000000
# 4 0.000000 0.000001 0.000000 -0.038034 0.000000 -0.203672
# 5 0.017825 0.002663 -0.017373 0.000000 0.081570 0.000000
# 6 0.000000 0.000001 0.000000 -0.203672 0.000000 -0.218733
#
#
# Mechanical properties :
#
#
# Convention : Reuss Voigt Hill
#
# Bulk Modulus (GPa) = 14.98667 18.78399 16.88533
# Shear Modulus (GPa) = -71.95590 14.91614 -28.51988
#
# Velocity S-wave (km/s) = -5.65280 2.57370 -3.55880
# Velocity P-wave (km/s) = 5.99585 4.14409 3.06404
#
# Compressibility (1/GPa) = 0.06672595
#
# Stress axis : x y z
#
# Youngs Moduli (GPa) = 51.10681 29.81215 45.48220
#
# Poissons Ratio (x) = -0.09506 0.34589
# Poissons Ratio (y) = -0.16296 -0.01050
# Poissons Ratio (z) = 0.38867 -0.00688
#
# Static dielectric constant tensor:
#      x y z
#    x 1.879940 0.000000 -0.045320 
#    y 0.000000 1.838270 0.000000 
#    z -0.045320 0.000000 1.822710 
# 
# From -- ./inp_files/250013.got.cif
#   From: 2010.05.17/outbox.cif.g08.bks.cpg/sg12_126_cif.got.tgz:250013.got - 2010.06.03 13:09:07.
