data_PCOD9170721
_publ_section_title
;
Structure prediction by ZEFSAII (Michael W. Deem and Ramdas Pophale) SiO2 
 PCOD9170721
Probable space group: C 2/M
;
_chemical_formula_sum "Si O2"
_cell_formula_units_Z 64
_cell_length_a 9.854653
_cell_length_b 29.061341
_cell_length_c 18.778193
_cell_angle_alpha 90.000000
_cell_angle_beta 142.705837
_cell_angle_gamma 90.000000
_cell_volume 3258.494649
_symmetry_space_group_name_H-M "C 2/M"
_symmetry_group_IT_number 12
_symmetry_cell_setting 'monoclinic'
loop_
_space_group_symop_operation_xyz
x,y,z
-x,y,-z
-x,-y,-z
x,-y,z
1/2+x,1/2+y,z
1/2-x,1/2+y,-z
1/2-x,1/2-y,-z
1/2+x,1/2-y,z
loop_
_atom_site_type_symbol
_atom_site_label
_atom_site_fract_x
_atom_site_fract_y
_atom_site_fract_z
Si Si1 0.859143 0.315884 0.767054
Si Si2 0.043562 0.550022 0.395316
Si Si3 0.958137 0.345183 0.649634
Si Si4 0.118182 0.791253 0.230331
Si Si5 0.738951 0.549570 0.910919
Si Si6 0.690419 0.852093 0.018095
Si Si7 0.662236 0.567894 0.350732
Si Si8 0.864476 0.170230 0.616431
O O1 0.872388 0.327931 0.689666
O O2 0.879055 0.261601 0.790822
O O3 0.619870 0.331265 0.697638
O O4 0.061797 0.340669 0.892227
O O5 0.044123 0.500000 0.358053
O O6 0.037596 0.598732 0.351728
O O7 0.255495 0.551651 0.537833
O O8 0.831698 0.551074 0.360619
O O9 0.796428 0.328002 0.518378
O O10 0.196041 0.321586 0.732372
O O11 0.166443 0.792010 0.335510
O O12 0.880273 0.815330 0.116758
O O13 0.683604 0.500000 0.921751
O O14 0.584718 0.554330 0.776471
O O15 0.703823 0.596750 0.938865
O O16 0.000000 0.548803 0.000000
O O17 0.500000 0.850978 0.000000
O O18 0.685409 0.622721 0.363667
#
# Coordination Sequence:
#
# PCOD9170721 Si02
#       8
#     8   8   8   8   8   8   8   8
#     4  12  26  41  61  88 126 170 207 258 324 372
#     4  10  19  34  61  92 125 161 200 251 311 370
#     4  11  25  39  62  97 128 161 208 260 318 377
#     4  12  23  42  65  90 119 165 219 261 305 373
#     4  10  18  30  54  86 116 148 195 249 305 357
#     4  11  22  42  63  86 121 163 210 264 310 366
#     4  10  17  33  59  90 119 153 203 252 299 362
#     4  11  21  41  63  88 128 162 202 260 314 369
#
# _framework density 19.640971
#
# number of rings (size 3 to 8) (size 9 to 14) (size 15 to 20)
#    0.000    1.125    3.750    4.125    0.000    3.500 
#    0.000    0.625    0.000    7.500    0.000    3.500 
#    0.000    0.000    0.000    0.000    0.000    0.000 
#
# Total GULP energy -178680.188943 kJ/mol
# GULP energy per Si atom -5583.755904 kJ/mol
# Density = 1.959627 g / cm^3
# Si number density = 19.640971 Si / 1000 Ang^3
#
#
#
# Elastic Constant Matrix: (Units=GPa)
#
#
# Indices 1 2 3 4 5 6 
#
# 1 36.0151 1.7820 7.1404 0.0000 3.2991 0.0000
# 2 1.7820 122.5450 21.0155 0.0000 6.5060 0.0000
# 3 7.1404 21.0155 85.2499 0.0000 15.8812 0.0000
# 4 0.0000 0.0000 0.0000 9.4637 0.0000 0.2228
# 5 3.2991 6.5060 15.8812 0.0000 19.1578 0.0000
# 6 0.0000 0.0000 0.0000 0.2228 0.0000 8.3375
#
#
#
# Elastic Compliance Matrix: (Units=1/GPa)
#
#
# Indices 1 2 3 4 5 6 
#
# 1 0.028428 0.000071 -0.001753 0.000000 -0.003466 0.000000
# 2 0.000071 0.008551 -0.001857 0.000000 -0.001376 0.000000
# 3 -0.001753 -0.001857 0.014382 0.000000 -0.010990 0.000000
# 4 0.000000 0.000000 0.000000 0.105734 0.000000 -0.002826
# 5 -0.003466 -0.001376 -0.010990 0.000000 0.062373 0.000000
# 6 0.000000 0.000000 0.000000 -0.002826 0.000000 0.120015
#
#
# Mechanical properties :
#
#
# Convention : Reuss Voigt Hill
#
# Bulk Modulus (GPa) = 22.58226 33.74288 28.16257
# Shear Modulus (GPa) = 13.83810 21.64993 17.74402
#
# Velocity S-wave (km/s) = 2.65722 3.32367 3.00895
# Velocity P-wave (km/s) = 4.57569 5.65209 5.14213
#
# Compressibility (1/GPa) = 0.04428254
#
# Stress axis : x y z
#
# Youngs Moduli (GPa) = 35.17696 116.94750 69.53030
#
# Poissons Ratio (x) = -0.00833 0.12188
# Poissons Ratio (y) = -0.00251 0.12915
# Poissons Ratio (z) = 0.06166 0.21723
#
# Static dielectric constant tensor:
#      x y z
#    x 1.650370 0.000000 0.008640 
#    y 0.000000 1.737790 0.000000 
#    z 0.008640 0.000000 1.693480 
# 
# From -- ./inp_files/260369.got.cif
#   From: 2010.05.17/outbox.cif.g08.bks.cpg/sg12_131_cif.got.tgz:260369.got - 2010.06.03 13:09:07.
