data_PCOD9170611
_publ_section_title
;
Structure prediction by ZEFSAII (Michael W. Deem and Ramdas Pophale) SiO2 
 PCOD9170611
Probable space group: C 2/M
;
_chemical_formula_sum "Si O2"
_cell_formula_units_Z 52
_cell_length_a 10.811702
_cell_length_b 22.638998
_cell_length_c 11.183522
_cell_angle_alpha 90.000000
_cell_angle_beta 121.805325
_cell_angle_gamma 90.000000
_cell_volume 2326.317197
_symmetry_space_group_name_H-M "C 2/M"
_symmetry_group_IT_number 12
_symmetry_cell_setting 'monoclinic'
loop_
_space_group_symop_operation_xyz
x,y,z
-x,y,-z
-x,-y,-z
x,-y,z
1/2+x,1/2+y,z
1/2-x,1/2+y,-z
1/2-x,1/2-y,-z
1/2+x,1/2-y,z
loop_
_atom_site_type_symbol
_atom_site_label
_atom_site_fract_x
_atom_site_fract_y
_atom_site_fract_z
Si Si1 0.335079 0.627981 0.668731
Si Si2 0.174826 0.126676 0.602666
Si Si3 0.690204 0.131476 0.847232
Si Si4 0.438489 0.822696 0.843309
Si Si5 0.355325 0.000000 0.166245
Si Si6 0.253559 0.500000 0.630337
Si Si7 0.435561 0.309331 0.090102
Si Si8 0.686923 0.000000 0.323752
O O1 0.273579 0.641453 0.507243
O O2 0.236814 0.644316 0.734212
O O3 0.349841 0.557991 0.684768
O O4 0.492577 0.656327 0.765565
O O5 0.266750 0.169922 0.735738
O O6 0.000000 0.129666 0.500000
O O7 0.226156 0.060041 0.662934
O O8 0.519918 0.141616 0.780430
O O9 0.720374 0.063205 0.899035
O O10 0.768365 0.177754 0.977696
O O11 0.495430 0.755467 0.867386
O O12 0.500000 0.847096 0.000000
O O13 0.518792 0.000000 0.197092
O O14 0.353046 0.000000 0.310763
O O15 0.178349 0.500000 0.463927
O O16 0.500000 0.337200 0.000000
#
# Coordination Sequence:
#
# PCOD9170611 Si02
#       8
#     8   8   8   8   4   4   8   4
#     4   9  20  38  63  93 124 158 214 260 317 375
#     4  11  24  41  63  92 129 170 212 263 314 374
#     4  10  20  38  64  96 125 164 208 263 317 375
#     4  11  24  41  64  90 126 174 214 262 313 375
#     4  10  17  32  59  97 128 155 207 261 310 375
#     4   8  17  30  59  89 123 161 189 265 323 374
#     4   9  20  39  63  90 124 166 213 255 319 374
#     4  10  18  38  58  86 128 168 211 246 321 382
#
# _framework density 22.352927999999999
#
# number of rings (size 3 to 8) (size 9 to 14) (size 15 to 20)
#    0.000    2.154    1.538    0.923    2.154    1.846 
#    0.000    4.615    0.000    0.000    0.000    0.000 
#    0.000    0.000    0.000    0.000    0.000    0.000 
#
# Total GULP energy -144853.131733 kJ/mol
# GULP energy per Si atom -5571.274297 kJ/mol
# Density = 2.230205 g / cm^3
# Si number density = 22.352928 Si / 1000 Ang^3
#
#
#
# Elastic Constant Matrix: (Units=GPa)
#
#
# Indices 1 2 3 4 5 6 
#
# 1 85.8223 17.2734 37.5811 0.0000 17.9981 0.0000
# 2 17.2734 87.8951 48.7804 0.0000 15.9619 0.0000
# 3 37.5811 48.7804 108.1573 0.0000 15.4465 0.0000
# 4 0.0000 0.0000 0.0000 28.4010 0.0000 5.5151
# 5 17.9981 15.9619 15.4465 0.0000 31.9444 0.0000
# 6 0.0000 0.0000 0.0000 5.5151 0.0000 16.9309
#
#
#
# Elastic Compliance Matrix: (Units=1/GPa)
#
#
# Indices 1 2 3 4 5 6 
#
# 1 0.014880 0.000824 -0.004604 0.000000 -0.006569 0.000000
# 2 0.000824 0.015875 -0.006710 0.000000 -0.005152 0.000000
# 3 -0.004604 -0.006710 0.013989 0.000000 -0.000817 0.000000
# 4 0.000000 0.000000 0.000000 0.037588 0.000000 -0.012244
# 5 -0.006569 -0.005152 -0.000817 0.000000 0.037975 0.000000
# 6 0.000000 0.000000 0.000000 -0.012244 0.000000 0.063052
#
#
# Mechanical properties :
#
#
# Convention : Reuss Voigt Hill
#
# Bulk Modulus (GPa) = 42.08243 54.34938 48.21591
# Shear Modulus (GPa) = 23.55612 27.33790 25.44701
#
# Velocity S-wave (km/s) = 3.24979 3.50095 3.37771
# Velocity P-wave (km/s) = 5.74010 6.38038 6.06869
#
# Compressibility (1/GPa) = 0.02376288
#
# Stress axis : x y z
#
# Youngs Moduli (GPa) = 67.20570 62.99207 71.48710
#
# Poissons Ratio (x) = -0.05188 0.32909
# Poissons Ratio (y) = -0.05535 0.47970
# Poissons Ratio (z) = 0.30938 0.42270
#
# Static dielectric constant tensor:
#      x y z
#    x 1.915790 0.000000 0.008440 
#    y 0.000000 1.842410 0.000000 
#    z 0.008440 0.000000 1.845830 
# 
# From -- ./inp_files/136041.got.cif
#   From: 2010.05.17/outbox.cif.g08.bks.cpg/sg12_69_cif.got.tgz:136041.got - 2010.06.03 13:09:07.
