data_PCOD9170171
_publ_section_title
;
Structure prediction by ZEFSAII (Michael W. Deem and Ramdas Pophale) SiO2 
 PCOD9170171
Probable space group: C 2/M
;
_chemical_formula_sum "Si O2"
_cell_formula_units_Z 40
_cell_length_a 17.737950
_cell_length_b 14.324496
_cell_length_c 14.902536
_cell_angle_alpha 90.000000
_cell_angle_beta 154.119404
_cell_angle_gamma 90.000000
_cell_volume 1652.815340
_symmetry_space_group_name_H-M "C 2/M"
_symmetry_group_IT_number 12
_symmetry_cell_setting 'monoclinic'
loop_
_space_group_symop_operation_xyz
x,y,z
-x,y,-z
-x,-y,-z
x,-y,z
1/2+x,1/2+y,z
1/2-x,1/2+y,-z
1/2-x,1/2-y,-z
1/2+x,1/2-y,z
loop_
_atom_site_type_symbol
_atom_site_label
_atom_site_fract_x
_atom_site_fract_y
_atom_site_fract_z
Si Si1 0.251379 0.358157 0.532464
Si Si2 0.803345 0.687752 0.326015
Si Si3 0.891583 0.630957 0.086389
Si Si4 0.132357 0.144856 0.961132
Si Si5 0.705329 0.400077 0.701791
O O1 0.250000 0.250000 0.500000
O O2 0.208695 0.362326 0.592277
O O3 0.446284 0.393648 0.732852
O O4 0.088590 0.398976 0.306532
O O5 0.751189 0.796901 0.289176
O O6 0.000000 0.688354 0.500000
O O7 0.685370 0.641516 0.122449
O O8 0.882628 0.743774 0.071686
O O9 0.781101 0.606758 0.056095
O O10 0.800830 0.598299 0.899307
O O11 0.500000 0.398001 0.500000
O O12 0.743512 0.500000 0.696491
#
# Coordination Sequence:
#
# PCOD9170171 Si02
#       5
#     8   8   8   8   8
#     4  10  19  28  48  76 100 134 170 209 266 304
#     4  10  17  30  50  75 113 134 168 213 254 312
#     4   9  17  31  48  73  98 130 171 215 249 301
#     4   9  17  28  48  73 101 130 163 212 268 298
#     4   9  19  32  52  74 103 147 179 201 248 313
#
# _framework density 24.201129999999999
#
# number of rings (size 3 to 8) (size 9 to 14) (size 15 to 20)
#    0.000    2.600    2.000    0.600    8.400    0.000 
#    0.000    0.000    0.000   22.800    0.000    2.800 
#    0.000    3.200    0.000    0.000    0.000    0.000 
#
# Total GULP energy -111736.125466 kJ/mol
# GULP energy per Si atom -5586.806273 kJ/mol
# Density = 2.414605 g / cm^3
# Si number density = 24.201130 Si / 1000 Ang^3
#
#
#
# Elastic Constant Matrix: (Units=GPa)
#
#
# Indices 1 2 3 4 5 6 
#
# 1 76.4214 -12.1839 41.8353 0.0307 -2.3380 -0.0014
# 2 -12.1839 77.9680 14.5646 0.0858 4.5723 -0.0032
# 3 41.8353 14.5646 224.3559 0.0286 -8.3879 -0.0008
# 4 0.0307 0.0858 0.0286-1049.7004 0.0159 81.9367
# 5 -2.3380 4.5723 -8.3879 0.0159 31.6042 -0.0009
# 6 -0.0014 -0.0032 -0.0008 81.9367 -0.0009 -15.2129
#
#
#
# Elastic Compliance Matrix: (Units=1/GPa)
#
#
# Indices 1 2 3 4 5 6 
#
# 1 0.015212 0.002950 -0.003032 0.000001 -0.000106 0.000002
# 2 0.002950 0.013698 -0.001520 0.000002 -0.002167 0.000005
# 3 -0.003032 -0.001520 0.005172 0.000000 0.001368 0.000000
# 4 0.000001 0.000002 0.000000 -0.001644 0.000000 -0.008853
# 5 -0.000106 -0.002167 0.001368 0.000000 0.032310 0.000001
# 6 0.000002 0.000005 0.000000 -0.008853 0.000001 -0.113416
#
#
# Mechanical properties :
#
#
# Convention : Reuss Voigt Hill
#
# Bulk Modulus (GPa) = 32.38616 51.90859 42.14737
# Shear Modulus (GPa) = -142.16960 -184.35985 -163.26473
#
# Velocity S-wave (km/s) = -7.67285 -8.73748 -8.22241
# Velocity P-wave (km/s) = 8.06757 8.96081 8.52589
#
# Compressibility (1/GPa) = 0.03087739
#
# Stress axis : x y z
#
# Youngs Moduli (GPa) = 65.73661 73.00441 193.33226
#
# Poissons Ratio (x) = -0.21535 0.58620
# Poissons Ratio (y) = -0.19391 0.29392
# Poissons Ratio (z) = 0.19932 0.11099
#
# Static dielectric constant tensor:
#      x y z
#    x 1.907740 0.000000 0.031950 
#    y 0.000000 2.018220 0.000000 
#    z 0.031950 0.000000 1.906350 
# 
# From -- ./inp_files/62114.got.cif
#   From: 2010.05.17/outbox.cif.g08.bks.cpg/sg12_32_cif.got.tgz:62114.got - 2010.06.03 13:09:07.
