data_PCOD9170485
_publ_section_title
;
Structure prediction by ZEFSAII (Michael W. Deem and Ramdas Pophale) SiO2 
 PCOD9170485
Probable space group: C 2/M
;
_chemical_formula_sum "Si O2"
_cell_formula_units_Z 40
_cell_length_a 15.410890
_cell_length_b 9.985032
_cell_length_c 18.427875
_cell_angle_alpha 90.000000
_cell_angle_beta 136.136761
_cell_angle_gamma 90.000000
_cell_volume 1964.932709
_symmetry_space_group_name_H-M "C 2/M"
_symmetry_group_IT_number 12
_symmetry_cell_setting 'monoclinic'
loop_
_space_group_symop_operation_xyz
x,y,z
-x,y,-z
-x,-y,-z
x,-y,z
1/2+x,1/2+y,z
1/2-x,1/2+y,-z
1/2-x,1/2-y,-z
1/2+x,1/2-y,z
loop_
_atom_site_type_symbol
_atom_site_label
_atom_site_fract_x
_atom_site_fract_y
_atom_site_fract_z
Si Si1 0.083695 0.000000 0.978829
Si Si2 0.293637 0.716317 0.308845
Si Si3 0.498798 0.500000 0.389480
Si Si4 0.100249 0.000000 0.832130
Si Si5 0.959520 0.500000 0.269715
Si Si6 0.870895 0.500000 0.381297
Si Si7 0.775561 0.500000 0.624401
Si Si8 0.722916 0.771990 0.867979
O O1 0.168625 0.133604 0.036112
O O2 0.025829 0.000000 0.863248
O O3 0.000000 0.000000 0.000000
O O4 0.422951 0.630543 0.373907
O O5 0.215346 0.624603 0.315334
O O6 0.246968 0.740988 0.198785
O O7 0.305941 0.859039 0.354604
O O8 0.480320 0.500000 0.291059
O O9 0.641060 0.500000 0.503013
O O10 0.189210 0.130560 0.882580
O O11 0.107874 0.500000 0.358648
O O12 0.903662 0.500000 0.316184
O O13 0.900692 0.365757 0.200649
O O14 0.000000 0.500000 0.500000
#
# Coordination Sequence:
#
# PCOD9170485 Si02
#       8
#     4   8   4   4   4   4   4   8
#     4  11  23  39  62  88 113 143 184 240 296 337
#     4   9  18  33  56  78 109 150 185 227 278 330
#     4   9  18  34  55  82 115 153 196 229 269 331
#     4  10  20  39  63  82 110 155 193 228 280 339
#     4   9  21  36  54  79 116 152 185 230 283 329
#     4  10  17  32  49  69 102 146 184 220 274 327
#     4  11  19  34  57  86 115 151 193 235 270 323
#     4   9  20  41  59  81 115 151 186 226 285 351
#
# _framework density 20.356932
#
# number of rings (size 3 to 8) (size 9 to 14) (size 15 to 20)
#    0.000    2.400    0.000    4.200    0.000    1.600 
#    0.000   21.500    0.000    0.000    0.000    0.000 
#    0.000    0.000    0.000    0.000    0.000    0.000 
#
# Total GULP energy -111522.560415 kJ/mol
# GULP energy per Si atom -5576.128021 kJ/mol
# Density = 2.031060 g / cm^3
# Si number density = 20.356932 Si / 1000 Ang^3
#
#
#
# Elastic Constant Matrix: (Units=GPa)
#
#
# Indices 1 2 3 4 5 6 
#
# 1 30.6407 14.0078 9.8353 0.0000 -1.7004 0.0000
# 2 14.0078 171.4639 17.5172 0.0000 -7.0536 0.0000
# 3 9.8353 17.5172 58.0344 0.0000 -14.2162 0.0000
# 4 0.0000 0.0000 0.0000 -60.4199 0.0000 12.7478
# 5 -1.7004 -7.0536 -14.2162 0.0000 21.8300 0.0000
# 6 0.0000 0.0000 0.0000 12.7478 0.0000 1.0209
#
#
#
# Elastic Compliance Matrix: (Units=1/GPa)
#
#
# Indices 1 2 3 4 5 6 
#
# 1 0.035465 -0.002385 -0.005714 0.000000 -0.001729 0.000000
# 2 -0.002385 0.006193 -0.001214 0.000000 0.001025 0.000000
# 3 -0.005714 -0.001214 0.021846 0.000000 0.013389 0.000000
# 4 0.000000 0.000000 0.000000 -0.004554 0.000000 0.056861
# 5 -0.001729 0.001025 0.013389 0.000000 0.054724 0.000000
# 6 0.000000 0.000000 0.000000 0.056861 0.000000 0.269501
#
#
# Mechanical properties :
#
#
# Convention : Reuss Voigt Hill
#
# Bulk Modulus (GPa) = 22.28282 38.09555 30.18918
# Shear Modulus (GPa) = 11.99732 7.07146 9.53439
#
# Velocity S-wave (km/s) = 2.43028 1.86582 2.16651
# Velocity P-wave (km/s) = 4.34107 4.83695 4.59570
#
# Compressibility (1/GPa) = 0.04487762
#
# Stress axis : x y z
#
# Youngs Moduli (GPa) = 28.19707 161.46882 45.77526
#
# Poissons Ratio (x) = 0.38505 0.26157
# Poissons Ratio (y) = 0.06724 0.05558
# Poissons Ratio (z) = 0.16112 0.19606
#
# Static dielectric constant tensor:
#      x y z
#    x 1.681980 0.000000 -0.004240 
#    y 0.000000 1.718990 0.000000 
#    z -0.004240 0.000000 1.720290 
# 
# From -- ./inp_files/268270.got.cif
#   From: 2010.05.17/outbox.cif.g08.bks.cpg/sg12_135_cif.got.tgz:268270.got - 2010.06.03 13:09:07.
