data_PCOD9170565
_publ_section_title
;
Structure prediction by ZEFSAII (Michael W. Deem and Ramdas Pophale) SiO2 
 PCOD9170565
Probable space group: C 2/M
;
_chemical_formula_sum "Si O2"
_cell_formula_units_Z 56
_cell_length_a 21.596885
_cell_length_b 17.228479
_cell_length_c 11.185834
_cell_angle_alpha 90.000000
_cell_angle_beta 50.483394
_cell_angle_gamma 90.000000
_cell_volume 3210.766242
_symmetry_space_group_name_H-M "C 2/M"
_symmetry_group_IT_number 12
_symmetry_cell_setting 'monoclinic'
loop_
_space_group_symop_operation_xyz
x,y,z
-x,y,-z
-x,-y,-z
x,-y,z
1/2+x,1/2+y,z
1/2-x,1/2+y,-z
1/2-x,1/2-y,-z
1/2+x,1/2-y,z
loop_
_atom_site_type_symbol
_atom_site_label
_atom_site_fract_x
_atom_site_fract_y
_atom_site_fract_z
Si Si1 0.265087 0.308194 0.225619
Si Si2 0.607243 0.760487 0.105400
Si Si3 0.420868 0.910366 0.015180
Si Si4 0.411773 0.794093 0.598827
Si Si5 0.433411 0.715302 0.321182
Si Si6 0.313856 0.830892 0.332544
Si Si7 0.323455 0.591219 0.347793
O O1 0.173318 0.335550 0.322634
O O2 0.266120 0.235744 0.318141
O O3 0.317927 0.375165 0.220941
O O4 0.313479 0.275191 0.052146
O O5 0.607112 0.758115 0.248516
O O6 0.525684 0.716982 0.168175
O O7 0.591059 0.848125 0.076216
O O8 0.349398 0.890834 0.194111
O O9 0.421567 0.000000 0.975087
O O10 0.500000 0.896913 0.000000
O O11 0.500000 0.834930 0.500000
O O12 0.425392 0.734890 0.471823
O O13 0.384508 0.783765 0.312754
O O14 0.393086 0.635355 0.333266
O O15 0.257786 0.876738 0.491365
O O16 0.329481 0.500000 0.345368
#
# Coordination Sequence:
#
# PCOD9170565 Si02
#       7
#     8   8   8   8   8   8   8
#     4  10  19  35  55  82 104 140 180 226 262 318
#     4  10  21  33  58  78 109 143 187 214 267 317
#     4  10  19  31  50  79 112 138 170 220 273 319
#     4  10  19  34  58  79 104 143 189 221 253 312
#     4  10  18  36  55  82 105 140 184 223 255 326
#     4  10  17  32  56  76 106 136 179 223 267 314
#     4  11  21  33  56  82 110 139 175 230 279 315
#
# _framework density 17.441319
#
# number of rings (size 3 to 8) (size 9 to 14) (size 15 to 20)
#    0.000    1.857    4.286    1.714    0.000    0.000 
#    0.000    2.143    0.000    6.429    0.000    0.000 
#    0.000    0.000    0.000    0.000    0.000    0.000 
#
# Total GULP energy -155910.447637 kJ/mol
# GULP energy per Si atom -5568.230273 kJ/mol
# Density = 1.740162 g / cm^3
# Si number density = 17.441319 Si / 1000 Ang^3
#
#
#
# Elastic Constant Matrix: (Units=GPa)
#
#
# Indices 1 2 3 4 5 6 
#
# 1 68.4858 13.6165 26.3739 0.0000 -4.9675 0.0000
# 2 13.6165 82.8132 22.5041 0.0000 -1.4358 0.0000
# 3 26.3739 22.5041 76.9658 0.0000 -1.4114 0.0000
# 4 0.0000 0.0000 0.0000 6.7752 0.0000 -6.4794
# 5 -4.9675 -1.4358 -1.4114 0.0000 26.2003 0.0000
# 6 0.0000 0.0000 0.0000 -6.4794 0.0000 4.8908
#
#
#
# Elastic Compliance Matrix: (Units=1/GPa)
#
#
# Indices 1 2 3 4 5 6 
#
# 1 0.017168 -0.001291 -0.005452 0.000000 0.002890 0.000000
# 2 -0.001291 0.013222 -0.003418 0.000000 0.000296 0.000000
# 3 -0.005452 -0.003418 0.015854 0.000000 -0.000367 0.000000
# 4 0.000000 0.000000 0.000000 -0.552869 0.000000 -0.732446
# 5 0.002890 0.000296 -0.000367 0.000000 0.038712 0.000000
# 6 0.000000 0.000000 0.000000 -0.732446 0.000000 -0.765886
#
#
# Mechanical properties :
#
#
# Convention : Reuss Voigt Hill
#
# Bulk Modulus (GPa) = 38.57996 39.25044 38.91520
# Shear Modulus (GPa) = -4.14994 18.62462 7.23734
#
# Velocity S-wave (km/s) = -1.54419 3.27133 2.03925
# Velocity P-wave (km/s) = 4.35758 6.06811 5.28254
#
# Compressibility (1/GPa) = 0.02592019
#
# Stress axis : x y z
#
# Youngs Moduli (GPa) = 58.24923 75.63370 63.07625
#
# Poissons Ratio (x) = 0.09764 0.34391
# Poissons Ratio (y) = 0.07520 0.21560
# Poissons Ratio (z) = 0.31760 0.25852
#
# Static dielectric constant tensor:
#      x y z
#    x 1.650190 0.000000 -0.011290 
#    y 0.000000 1.550890 0.000000 
#    z -0.011290 0.000000 1.621250 
# 
# From -- ./inp_files/157981.got.cif
#   From: 2010.05.17/outbox.cif.g08.bks.cpg/sg12_79_cif.got.tgz:157981.got - 2010.06.03 13:09:07.
