data_PCOD9170966
_publ_section_title
;
Structure prediction by ZEFSAII (Michael W. Deem and Ramdas Pophale) SiO2 
 PCOD9170966
Probable space group: C 2/M
;
_chemical_formula_sum "Si O2"
_cell_formula_units_Z 64
_cell_length_a 27.672790
_cell_length_b 9.073655
_cell_length_c 20.134578
_cell_angle_alpha 90.000000
_cell_angle_beta 59.491460
_cell_angle_gamma 90.000000
_cell_volume 4355.720394
_symmetry_space_group_name_H-M "C 2/M"
_symmetry_group_IT_number 12
_symmetry_cell_setting 'monoclinic'
loop_
_space_group_symop_operation_xyz
x,y,z
-x,y,-z
-x,-y,-z
x,-y,z
1/2+x,1/2+y,z
1/2-x,1/2+y,-z
1/2-x,1/2-y,-z
1/2+x,1/2-y,z
loop_
_atom_site_type_symbol
_atom_site_label
_atom_site_fract_x
_atom_site_fract_y
_atom_site_fract_z
Si Si1 0.667503 0.670492 0.090734
Si Si2 0.489767 0.321290 0.666526
Si Si3 0.664513 0.322048 0.941417
Si Si4 0.386553 0.176692 0.659510
Si Si5 0.966738 0.171406 0.828290
Si Si6 0.559976 0.330594 0.496581
Si Si7 0.455680 0.824071 0.973780
Si Si8 0.281875 0.823004 0.817097
O O1 0.684251 0.500000 0.088397
O O2 0.599891 0.677866 0.140722
O O3 0.693427 0.766629 0.130520
O O4 0.681651 0.715710 0.005586
O O5 0.482659 0.500000 0.667671
O O6 0.434473 0.247203 0.673419
O O7 0.495903 0.281204 0.739384
O O8 0.542460 0.282620 0.582763
O O9 0.657226 0.500000 0.944795
O O10 0.716773 0.277102 0.858981
O O11 0.605021 0.247487 0.969590
O O12 0.399390 0.232758 0.576372
O O13 0.325770 0.223216 0.729788
O O14 0.391129 0.000000 0.659285
O O15 0.975884 0.264673 0.888047
O O16 0.980349 0.000000 0.832183
O O17 0.500000 0.329181 0.500000
O O18 0.579514 0.500000 0.483898
O O19 0.449889 0.000000 0.975139
O O20 0.500000 0.785175 0.000000
O O21 0.281668 0.000000 0.818396
#
# Coordination Sequence:
#
# PCOD9170966 Si02
#       8
#     8   8   8   8   8   8   8   8
#     4   9  16  26  41  59  81 110 143 177 208 241
#     4   9  16  28  42  57  81 111 146 182 209 240
#     4   9  19  33  45  60  81 109 145 177 206 248
#     4  10  18  25  36  57  85 116 146 177 211 244
#     4   9  17  29  46  66  85 110 145 178 209 251
#     4   8  15  26  39  53  75 112 149 179 209 240
#     4  10  21  35  49  66  87 107 132 172 219 262
#     4  10  19  28  39  58  86 115 144 177 209 242
#
# _framework density 14.693320999999999
#
# number of rings (size 3 to 8) (size 9 to 14) (size 15 to 20)
#    0.000    2.750    1.250    2.625    0.000    6.750 
#    0.000    0.000    0.000    0.000    0.000    0.000 
#    0.000    1.000    0.000    2.250    0.000    4.000 
#
# Total GULP energy -178191.419745 kJ/mol
# GULP energy per Si atom -5568.481867 kJ/mol
# Density = 1.465988 g / cm^3
# Si number density = 14.693321 Si / 1000 Ang^3
#
#
#
# Elastic Constant Matrix: (Units=GPa)
#
#
# Indices 1 2 3 4 5 6 
#
# 1 50.4191 23.4206 54.6695 0.0001 2.4112 0.0001
# 2 23.4206 22.9843 42.6871 0.0001 -1.1416 0.0002
# 3 54.6695 42.6871 143.2959 0.0000 -6.4128 0.0000
# 4 0.0001 0.0001 0.0000 16.7675 0.0000 4.2667
# 5 2.4112 -1.1416 -6.4128 0.0000 12.9312 0.0000
# 6 0.0001 0.0002 0.0000 4.2667 0.0000 15.5697
#
#
#
# Elastic Compliance Matrix: (Units=1/GPa)
#
#
# Indices 1 2 3 4 5 6 
#
# 1 0.043254 -0.028943 -0.008545 0.000000 -0.014858 0.000000
# 2 -0.028943 0.117202 -0.023693 0.000000 0.003994 -0.000001
# 3 -0.008545 -0.023693 0.017666 0.000000 0.008263 0.000000
# 4 0.000000 0.000000 0.000000 0.064110 0.000000 -0.017568
# 5 -0.014858 0.003994 0.008263 0.000000 0.084553 0.000000
# 6 0.000000 -0.000001 0.000000 -0.017568 0.000000 0.069042
#
#
# Mechanical properties :
#
#
# Convention : Reuss Voigt Hill
#
# Bulk Modulus (GPa) = 17.93387 50.91708 34.42548
# Shear Modulus (GPa) = 9.31487 15.44848 12.38167
#
# Velocity S-wave (km/s) = 2.52057 3.24604 2.90603
# Velocity P-wave (km/s) = 4.55006 6.98409 5.89409
#
# Compressibility (1/GPa) = 0.05576041
#
# Stress axis : x y z
#
# Youngs Moduli (GPa) = 23.11903 8.53230 56.60455
#
# Poissons Ratio (x) = 0.24695 0.48369
# Poissons Ratio (y) = 0.66914 1.34112
# Poissons Ratio (z) = 0.19756 0.20215
#
# Static dielectric constant tensor:
#      x y z
#    x 1.449150 0.000000 -0.011290 
#    y 0.000000 1.492040 0.000000 
#    z -0.011290 0.000000 1.537740 
# 
# From -- ./inp_files/323659.got.cif
#   From: 2010.05.17/outbox.cif.g08.bks.cpg/sg12_162_cif.got.tgz:323659.got - 2010.06.03 13:09:07.
