data_PCOD9170170
_publ_section_title
;
Structure prediction by ZEFSAII (Michael W. Deem and Ramdas Pophale) SiO2 
 PCOD9170170
Probable space group: C 2/M
;
_chemical_formula_sum "Si O2"
_cell_formula_units_Z 64
_cell_length_a 29.781711
_cell_length_b 8.131960
_cell_length_c 24.100123
_cell_angle_alpha 90.000000
_cell_angle_beta 150.710244
_cell_angle_gamma 90.000000
_cell_volume 2855.447198
_symmetry_space_group_name_H-M "C 2/M"
_symmetry_group_IT_number 12
_symmetry_cell_setting 'monoclinic'
loop_
_space_group_symop_operation_xyz
x,y,z
-x,y,-z
-x,-y,-z
x,-y,z
1/2+x,1/2+y,z
1/2-x,1/2+y,-z
1/2-x,1/2-y,-z
1/2+x,1/2-y,z
loop_
_atom_site_type_symbol
_atom_site_label
_atom_site_fract_x
_atom_site_fract_y
_atom_site_fract_z
Si Si1 0.862309 0.304454 0.704150
Si Si2 0.516421 0.803584 0.790709
Si Si3 0.015496 0.201560 0.452991
Si Si4 0.610010 0.305246 0.781405
Si Si5 0.295266 0.304732 0.949677
Si Si6 0.285271 0.303939 0.371061
Si Si7 0.714337 0.316044 0.178720
Si Si8 0.528045 0.819148 0.966996
O O1 0.846865 0.500000 0.677640
O O2 0.770696 0.236768 0.635695
O O3 0.920142 0.239926 0.713504
O O4 0.939549 0.288599 0.834996
O O5 0.541957 0.731142 0.758834
O O6 0.509009 0.000000 0.779015
O O7 0.606703 0.765925 0.925826
O O8 0.112627 0.257423 0.531983
O O9 0.000000 0.254082 0.500000
O O10 0.937707 0.256008 0.326409
O O11 0.016513 0.000000 0.454697
O O12 0.623026 0.500000 0.792003
O O13 0.709761 0.227163 0.897782
O O14 0.307213 0.500000 0.957232
O O15 0.256941 0.237799 0.848965
O O16 0.290424 0.500000 0.384764
O O17 0.232743 0.275017 0.256001
O O18 0.751458 0.500000 0.224553
O O19 0.605757 0.316114 0.049947
O O20 0.565500 0.000000 0.990730
O O21 0.500000 0.830428 0.000000
#
# Coordination Sequence:
#
# PCOD9170170 Si02
#       8
#     8   8   8   8   8   8   8   8
#     4   9  18  32  54  82 110 149 196 234 270 324
#     4  11  22  38  59  83 114 152 192 232 279 337
#     4   9  19  37  63  91 112 139 185 237 285 329
#     4  11  23  40  61  86 113 143 186 239 290 336
#     4  11  23  38  56  83 117 154 192 230 281 342
#     4  10  19  36  60  83 112 151 198 241 274 329
#     4  11  22  32  48  82 121 151 182 227 288 339
#     4  10  17  30  50  74 107 150 196 229 268 329
#
# _framework density 22.413302999999999
#
# number of rings (size 3 to 8) (size 9 to 14) (size 15 to 20)
#    0.000    1.750    2.500    2.625    0.000    2.750 
#    0.000    3.125    0.000    3.375    0.000    0.000 
#    0.000    0.000    0.000    0.000    0.000    0.000 
#
# Total GULP energy -178453.323601 kJ/mol
# GULP energy per Si atom -5576.666363 kJ/mol
# Density = 2.236229 g / cm^3
# Si number density = 22.413303 Si / 1000 Ang^3
#
#
#
# Elastic Constant Matrix: (Units=GPa)
#
#
# Indices 1 2 3 4 5 6 
#
# 1 143.1315 -6.3381 44.2188 0.0000 24.9257 0.0000
# 2 -6.3381 17.7700 9.1060 0.0000 11.2386 0.0000
# 3 44.2188 9.1060 53.2527 0.0000 16.3930 0.0000
# 4 0.0000 0.0000 0.0000 4.9429 0.0000 -1.1003
# 5 24.9257 11.2386 16.3930 0.0000 34.5021 0.0000
# 6 0.0000 0.0000 0.0000 -1.1003 0.0000 23.1467
#
#
#
# Elastic Compliance Matrix: (Units=1/GPa)
#
#
# Indices 1 2 3 4 5 6 
#
# 1 0.012380 0.015378 -0.010090 0.000000 -0.009159 0.000000
# 2 0.015378 0.091582 -0.018538 0.000000 -0.032134 0.000000
# 3 -0.010090 -0.018538 0.030716 0.000000 -0.001267 0.000000
# 4 0.000000 0.000000 0.000000 0.204474 0.000000 0.009720
# 5 -0.009159 -0.032134 -0.001267 0.000000 0.046670 0.000000
# 6 0.000000 0.000000 0.000000 0.009720 0.000000 0.043665
#
#
# Mechanical properties :
#
#
# Convention : Reuss Voigt Hill
#
# Bulk Modulus (GPa) = 9.24387 34.23641 21.74014
# Shear Modulus (GPa) = 10.16167 23.66283 16.91225
#
# Velocity S-wave (km/s) = 2.13157 3.25275 2.74991
# Velocity P-wave (km/s) = 3.19239 5.42360 4.45010
#
# Compressibility (1/GPa) = 0.10817975
#
# Stress axis : x y z
#
# Youngs Moduli (GPa) = 80.77755 10.91914 32.55601
#
# Poissons Ratio (x) = -0.16792 0.32848
# Poissons Ratio (y) = -1.24223 0.60352
# Poissons Ratio (z) = 0.81503 0.20242
#
# Static dielectric constant tensor:
#      x y z
#    x 1.951110 0.000000 0.011890 
#    y 0.000000 1.806900 0.000000 
#    z 0.011890 0.000000 1.821990 
# 
# From -- ./inp_files/353551.got.cif
#   From: 2010.05.17/outbox.cif.g08.bks.cpg/sg12_177_cif.got.tgz:353551.got - 2010.06.03 13:09:07.
