data_PCOD9170078
_publ_section_title
;
Structure prediction by ZEFSAII (Michael W. Deem and Ramdas Pophale) SiO2 
 PCOD9170078
Probable space group: C 2/M
;
_chemical_formula_sum "Si O2"
_cell_formula_units_Z 52
_cell_length_a 19.743143
_cell_length_b 22.113657
_cell_length_c 16.942664
_cell_angle_alpha 90.000000
_cell_angle_beta 158.551196
_cell_angle_gamma 90.000000
_cell_volume 2704.877201
_symmetry_space_group_name_H-M "C 2/M"
_symmetry_group_IT_number 12
_symmetry_cell_setting 'monoclinic'
loop_
_space_group_symop_operation_xyz
x,y,z
-x,y,-z
-x,-y,-z
x,-y,z
1/2+x,1/2+y,z
1/2-x,1/2+y,-z
1/2-x,1/2-y,-z
1/2+x,1/2-y,z
loop_
_atom_site_type_symbol
_atom_site_label
_atom_site_fract_x
_atom_site_fract_y
_atom_site_fract_z
Si Si1 0.588041 0.741938 0.429998
Si Si2 0.168951 0.069620 0.318753
Si Si3 0.500000 0.653331 0.000000
Si Si4 0.964445 0.693733 0.795853
Si Si5 0.527322 0.069562 0.805432
Si Si6 0.764079 0.717106 0.168070
Si Si7 0.106723 0.129399 0.861254
O O1 0.803790 0.726876 0.670558
O O2 0.565514 0.784918 0.328041
O O3 0.479797 0.770334 0.386122
O O4 0.492286 0.678371 0.302073
O O5 0.101816 0.112398 0.175911
O O6 0.384063 0.074730 0.576480
O O7 0.048814 0.089550 0.264416
O O8 0.130453 0.000000 0.257286
O O9 0.663050 0.690824 0.134749
O O10 0.961265 0.621631 0.793950
O O11 0.157991 0.720687 0.033190
O O12 0.519543 0.000000 0.823762
O O13 0.734013 0.089087 0.005035
O O14 0.704926 0.670185 0.034888
#
# Coordination Sequence:
#
# PCOD9170078 Si02
#       7
#     8   8   4   8   8   8   8
#     4  10  17  29  55  74 102 128 166 223 281 310
#     4  10  21  36  50  70 109 150 181 212 242 299
#     4  10  23  36  52  72 101 152 194 208 244 298
#     4  10  18  31  53  80  98 129 168 216 284 320
#     4  11  20  31  51  79 108 134 166 212 265 321
#     4  10  19  33  51  73 103 133 174 225 256 303
#     4  10  17  31  51  78 100 132 170 217 269 318
#
# _framework density 19.224532
#
# number of rings (size 3 to 8) (size 9 to 14) (size 15 to 20)
#    0.000    1.846    4.615    1.615    2.154    0.000 
#    0.000    6.923    0.000    8.308    0.000    0.538 
#    0.000    1.231    0.000    0.000    0.000    0.000 
#
# Total GULP energy -145096.488407 kJ/mol
# GULP energy per Si atom -5580.634170 kJ/mol
# Density = 1.918078 g / cm^3
# Si number density = 19.224532 Si / 1000 Ang^3
#
#
#
# Elastic Constant Matrix: (Units=GPa)
#
#
# Indices 1 2 3 4 5 6 
#
# 1 49.2516 19.5321 10.1086 0.0000 24.5387 0.0000
# 2 19.5321 117.7403 14.3759 0.0000 4.3939 0.0000
# 3 10.1086 14.3759 72.6476 0.0000 25.8603 0.0000
# 4 0.0000 0.0000 0.0000 25.2801 0.0000 6.1125
# 5 24.5387 4.3939 25.8603 0.0000 27.2728 0.0000
# 6 0.0000 0.0000 0.0000 6.1125 0.0000 21.6363
#
#
#
# Elastic Compliance Matrix: (Units=1/GPa)
#
#
# Indices 1 2 3 4 5 6 
#
# 1 0.048457 -0.007750 0.014894 0.000000 -0.056473 0.000000
# 2 -0.007750 0.009945 -0.004229 0.000000 0.009380 0.000000
# 3 0.014894 -0.004229 0.025748 0.000000 -0.037134 0.000000
# 4 0.000000 0.000000 0.000000 0.042457 0.000000 -0.011995
# 5 -0.056473 0.009380 -0.037134 0.000000 0.121177 0.000000
# 6 0.000000 0.000000 0.000000 -0.011995 0.000000 0.049607
#
#
# Mechanical properties :
#
#
# Convention : Reuss Voigt Hill
#
# Bulk Modulus (GPa) = 11.11352 36.40808 23.76080
# Shear Modulus (GPa) = 15.54946 27.87937 21.71442
#
# Velocity S-wave (km/s) = 2.84709 3.81228 3.36447
# Velocity P-wave (km/s) = 4.07447 6.19334 5.24208
#
# Compressibility (1/GPa) = 0.08998053
#
# Stress axis : x y z
#
# Youngs Moduli (GPa) = 20.63688 100.55178 38.83808
#
# Poissons Ratio (x) = 0.77923 -0.57844
# Poissons Ratio (y) = 0.15993 0.16423
# Poissons Ratio (z) = -0.30736 0.42520
#
# Static dielectric constant tensor:
#      x y z
#    x 1.680960 0.000000 0.013160 
#    y 0.000000 1.665520 0.000000 
#    z 0.013160 0.000000 1.691710 
# 
# From -- ./inp_files/322923.got.cif
#   From: 2010.05.17/outbox.cif.g08.bks.cpg/sg12_162_cif.got.tgz:322923.got - 2010.06.03 13:09:07.
