data_PCOD9170346
_publ_section_title
;
Structure prediction by ZEFSAII (Michael W. Deem and Ramdas Pophale) SiO2 
 PCOD9170346
Probable space group: C 2/M
;
_chemical_formula_sum "Si O2"
_cell_formula_units_Z 56
_cell_length_a 10.440905
_cell_length_b 14.706691
_cell_length_c 23.763504
_cell_angle_alpha 90.000000
_cell_angle_beta 45.850688
_cell_angle_gamma 90.000000
_cell_volume 2618.194421
_symmetry_space_group_name_H-M "C 2/M"
_symmetry_group_IT_number 12
_symmetry_cell_setting 'monoclinic'
loop_
_space_group_symop_operation_xyz
x,y,z
-x,y,-z
-x,-y,-z
x,-y,z
1/2+x,1/2+y,z
1/2-x,1/2+y,-z
1/2-x,1/2-y,-z
1/2+x,1/2-y,z
loop_
_atom_site_type_symbol
_atom_site_label
_atom_site_fract_x
_atom_site_fract_y
_atom_site_fract_z
Si Si1 0.654827 0.164581 0.998025
Si Si2 0.991018 0.141129 0.169499
Si Si3 0.548569 0.389586 0.578185
Si Si4 0.120526 0.365328 0.235646
Si Si5 0.964120 0.637364 0.166197
Si Si6 0.931945 0.152575 0.731560
Si Si7 0.264428 0.893915 0.407345
O O1 0.560184 0.113186 0.078460
O O2 0.500000 0.190064 0.000000
O O3 0.750000 0.250000 0.000000
O O4 0.817503 0.116985 0.915632
O O5 0.818196 0.104641 0.190644
O O6 0.974198 0.251810 0.169094
O O7 0.986820 0.114136 0.236139
O O8 0.548622 0.500000 0.584594
O O9 0.554136 0.350407 0.639107
O O10 0.703377 0.360251 0.487286
O O11 0.365087 0.358125 0.602834
O O12 0.058508 0.397219 0.193422
O O13 0.116025 0.255821 0.237692
O O14 0.968864 0.388132 0.327517
O O15 0.757882 0.609324 0.226701
O O16 0.217083 0.000000 0.423817
#
# Coordination Sequence:
#
# PCOD9170346 Si02
#       7
#     8   8   8   8   8   8   8
#     4  10  18  27  42  68 103 139 169 205 251 297
#     4   9  19  28  43  70 104 133 163 203 254 296
#     4   9  18  33  55  77  97 128 172 213 248 296
#     4  10  19  31  49  75 103 135 165 206 255 298
#     4   9  17  28  46  68 101 135 169 206 241 294
#     4  10  17  31  49  74 103 132 165 206 249 300
#     4   9  18  34  54  76  99 128 171 214 247 296
#
# _framework density 21.388786
#
# number of rings (size 3 to 8) (size 9 to 14) (size 15 to 20)
#    0.000    2.571    2.857    0.857    6.000    0.571 
#    0.000    1.429    0.000    1.714    0.000    6.000 
#    0.000    0.000    0.000    0.000    0.000    0.000 
#
# Total GULP energy -156126.458723 kJ/mol
# GULP energy per Si atom -5575.944954 kJ/mol
# Density = 2.134010 g / cm^3
# Si number density = 21.388786 Si / 1000 Ang^3
#
#
#
# Elastic Constant Matrix: (Units=GPa)
#
#
# Indices 1 2 3 4 5 6 
#
# 1 144.9874 12.9224 63.2049 -0.0001 9.5325 0.0001
# 2 12.9224 51.9271 -10.0680 -0.0001 3.8764 0.0000
# 3 63.2049 -10.0680 127.9963 -0.0003 13.0184 0.0002
# 4 -0.0001 -0.0001 -0.0003 63.8882 0.0001 2.3312
# 5 9.5325 3.8764 13.0184 0.0001 41.1694 -0.0001
# 6 0.0001 0.0000 0.0002 2.3312 -0.0001 -12.7537
#
#
#
# Elastic Compliance Matrix: (Units=1/GPa)
#
#
# Indices 1 2 3 4 5 6 
#
# 1 0.009305 -0.003225 -0.004815 0.000000 -0.000328 0.000000
# 2 -0.003225 0.020907 0.003473 0.000000 -0.002320 0.000000
# 3 -0.004815 0.003473 0.010729 0.000000 -0.002605 0.000000
# 4 0.000000 0.000000 0.000000 0.015549 0.000000 0.002842
# 5 -0.000328 -0.002320 -0.002605 0.000000 0.025408 0.000000
# 6 0.000000 0.000000 0.000000 0.002842 0.000000 -0.077889
#
#
# Mechanical properties :
#
#
# Convention : Reuss Voigt Hill
#
# Bulk Modulus (GPa) = 31.44024 50.78105 41.11064
# Shear Modulus (GPa) = 210.57336 35.71755 123.14545
#
# Velocity S-wave (km/s) = 9.93298 4.09090 7.59604
# Velocity P-wave (km/s) = 12.09477 6.79024 9.80793
#
# Compressibility (1/GPa) = 0.03180637
#
# Stress axis : x y z
#
# Youngs Moduli (GPa) = 107.46587 47.83128 93.20897
#
# Poissons Ratio (x) = 0.15425 0.44882
# Poissons Ratio (y) = 0.34655 -0.32370
# Poissons Ratio (z) = 0.51747 -0.16611
#
# Static dielectric constant tensor:
#      x y z
#    x 1.773740 0.000000 0.000530 
#    y 0.000000 1.844920 0.000000 
#    z 0.000530 0.000000 1.785190 
# 
# From -- ./inp_files/208245.got.cif
#   From: 2010.05.17/outbox.cif.g08.bks.cpg/sg12_105_cif.got.tgz:208245.got - 2010.06.03 13:09:07.
