data_PCOD9170083
_publ_section_title
;
Structure prediction by ZEFSAII (Michael W. Deem and Ramdas Pophale) SiO2 
 PCOD9170083
Probable space group: C 2/M
;
_chemical_formula_sum "Si O2"
_cell_formula_units_Z 64
_cell_length_a 16.627953
_cell_length_b 20.009128
_cell_length_c 11.657570
_cell_angle_alpha 90.000000
_cell_angle_beta 57.357861
_cell_angle_gamma 90.000000
_cell_volume 3265.998022
_symmetry_space_group_name_H-M "C 2/M"
_symmetry_group_IT_number 12
_symmetry_cell_setting 'monoclinic'
loop_
_space_group_symop_operation_xyz
x,y,z
-x,y,-z
-x,-y,-z
x,-y,z
1/2+x,1/2+y,z
1/2-x,1/2+y,-z
1/2-x,1/2-y,-z
1/2+x,1/2-y,z
loop_
_atom_site_type_symbol
_atom_site_label
_atom_site_fract_x
_atom_site_fract_y
_atom_site_fract_z
Si Si1 0.583637 0.779891 0.139100
Si Si2 0.242364 0.800631 0.401927
Si Si3 0.286708 0.426122 0.059974
Si Si4 0.025667 0.803024 0.598596
Si Si5 0.387817 0.424693 0.743896
Si Si6 0.086945 0.425683 0.070624
Si Si7 0.776289 0.215799 0.147264
Si Si8 0.689947 0.074863 0.753873
O O1 0.501949 0.739171 0.267930
O O2 0.546350 0.854483 0.140958
O O3 0.677595 0.778308 0.150117
O O4 0.632198 0.747211 0.989087
O O5 0.250000 0.750000 0.500000
O O6 0.133994 0.824497 0.501419
O O7 0.259037 0.757238 0.274806
O O8 0.309150 0.865468 0.337406
O O9 0.300483 0.500000 0.099753
O O10 0.185775 0.426794 0.068877
O O11 0.291681 0.363964 0.141743
O O12 0.360905 0.415719 0.898564
O O13 0.000000 0.764383 0.500000
O O14 0.960053 0.868055 0.653672
O O15 0.423796 0.500000 0.699619
O O16 0.289942 0.418273 0.747199
O O17 0.043141 0.500000 0.122913
O O18 0.113089 0.420143 0.915701
O O19 0.686286 0.000000 0.708306
#
# Coordination Sequence:
#
# PCOD9170083 Si02
#       8
#     8   8   8   8   8   8   8   8
#     4  10  17  29  56  81 102 131 182 227 272 317
#     4  12  25  38  50  77 117 152 182 220 268 331
#     4   8  14  25  47  79 109 134 172 218 263 320
#     4  12  21  33  52  83 114 144 179 222 277 318
#     4   9  16  28  52  88 117 133 164 223 282 329
#     4   8  14  25  49  81 105 126 170 232 280 310
#     4  10  17  31  54  77 103 144 178 221 265 316
#     4   9  16  31  55  82 109 140 176 219 272 332
#
# _framework density 19.595848
#
# number of rings (size 3 to 8) (size 9 to 14) (size 15 to 20)
#    0.000    2.250    5.000    1.500    0.000    0.750 
#    0.000    1.250    0.000    1.875    0.000    3.500 
#    0.000    0.000    0.000    0.000    0.000    0.000 
#
# Total GULP energy -178404.373924 kJ/mol
# GULP energy per Si atom -5575.136685 kJ/mol
# Density = 1.955125 g / cm^3
# Si number density = 19.595848 Si / 1000 Ang^3
#
#
#
# Elastic Constant Matrix: (Units=GPa)
#
#
# Indices 1 2 3 4 5 6 
#
# 1 23.9008 20.2671 16.2205 0.0000 -10.5260 0.0000
# 2 20.2671 154.5136 64.5619 0.0000 -4.4092 0.0000
# 3 16.2205 64.5619 95.8006 0.0000 -13.8260 0.0000
# 4 0.0000 0.0000 0.0000 26.1134 0.0000 3.3461
# 5 -10.5260 -4.4092 -13.8260 0.0000 18.6619 0.0000
# 6 0.0000 0.0000 0.0000 3.3461 0.0000 13.4982
#
#
#
# Elastic Compliance Matrix: (Units=1/GPa)
#
#
# Indices 1 2 3 4 5 6 
#
# 1 0.062991 -0.006754 -0.001362 0.000000 0.032924 0.000000
# 2 -0.006754 0.009852 -0.006393 0.000000 -0.006218 0.000000
# 3 -0.001362 -0.006393 0.016402 0.000000 0.009873 0.000000
# 4 0.000000 0.000000 0.000000 0.039551 0.000000 -0.009805
# 5 0.032924 -0.006218 0.009873 0.000000 0.078001 0.000000
# 6 0.000000 0.000000 0.000000 -0.009805 0.000000 0.076515
#
#
# Mechanical properties :
#
#
# Convention : Reuss Voigt Hill
#
# Bulk Modulus (GPa) = 16.60383 52.92378 34.76380
# Shear Modulus (GPa) = 15.04185 23.19904 19.12044
#
# Velocity S-wave (km/s) = 2.77357 3.44448 3.12707
# Velocity P-wave (km/s) = 4.32995 6.54871 5.55131
#
# Compressibility (1/GPa) = 0.06022708
#
# Stress axis : x y z
#
# Youngs Moduli (GPa) = 15.87525 101.50584 60.96682
#
# Poissons Ratio (x) = 0.68554 0.08305
# Poissons Ratio (y) = 0.10722 0.38977
# Poissons Ratio (z) = 0.02163 0.64894
#
# Static dielectric constant tensor:
#      x y z
#    x 1.750640 0.000000 0.006570 
#    y 0.000000 1.721090 0.000000 
#    z 0.006570 0.000000 1.669090 
# 
# From -- ./inp_files/159240.got.cif
#   From: 2010.05.17/outbox.cif.g08.bks.cpg/sg12_80_cif.got.tgz:159240.got - 2010.06.03 13:09:07.
