data_PCOD9170344
_publ_section_title
;
Structure prediction by ZEFSAII (Michael W. Deem and Ramdas Pophale) SiO2 
 PCOD9170344
Probable space group: C 2/M
;
_chemical_formula_sum "Si O2"
_cell_formula_units_Z 56
_cell_length_a 19.295969
_cell_length_b 25.008510
_cell_length_c 11.532285
_cell_angle_alpha 90.000000
_cell_angle_beta 38.011168
_cell_angle_gamma 90.000000
_cell_volume 3427.047179
_symmetry_space_group_name_H-M "C 2/M"
_symmetry_group_IT_number 12
_symmetry_cell_setting 'monoclinic'
loop_
_space_group_symop_operation_xyz
x,y,z
-x,y,-z
-x,-y,-z
x,-y,z
1/2+x,1/2+y,z
1/2-x,1/2+y,-z
1/2-x,1/2-y,-z
1/2+x,1/2-y,z
loop_
_atom_site_type_symbol
_atom_site_label
_atom_site_fract_x
_atom_site_fract_y
_atom_site_fract_z
Si Si1 0.187021 0.646042 0.978077
Si Si2 0.516366 0.062705 0.117365
Si Si3 0.159770 0.202786 0.080119
Si Si4 0.134789 0.294834 0.815808
Si Si5 0.869932 0.172697 0.148284
Si Si6 0.671624 0.858062 0.544354
Si Si7 0.994666 0.709493 0.644206
O O1 0.099431 0.666915 0.190808
O O2 0.132573 0.591685 0.002158
O O3 0.307410 0.653639 0.879288
O O4 0.180822 0.687498 0.879367
O O5 0.413757 0.093209 0.317381
O O6 0.517413 0.000000 0.142288
O O7 0.500000 0.069181 0.000000
O O8 0.042593 0.233111 0.257038
O O9 0.250000 0.250000 0.000000
O O10 0.159792 0.182311 0.948160
O O11 0.147245 0.232263 0.776163
O O12 0.189726 0.330611 0.644772
O O13 0.000000 0.305472 0.000000
O O14 0.785714 0.132506 0.324017
O O15 0.000000 0.158759 0.000000
O O16 0.606187 0.813597 0.554358
O O17 0.000000 0.712372 0.500000
#
# Coordination Sequence:
#
# PCOD9170344 Si02
#       7
#     8   8   8   8   8   8   8
#     4  10  17  31  49  70 111 136 164 216 256 315
#     4  10  19  34  57  82 106 134 173 223 273 312
#     4  10  18  32  45  66 105 144 175 207 248 310
#     4  11  16  30  45  74 108 139 171 205 258 317
#     4  11  22  33  48  71 107 148 181 213 256 318
#     4  11  19  32  51  74 106 142 177 222 263 311
#     4  10  18  28  47  70 100 143 181 206 249 310
#
# _framework density 16.340598
#
# number of rings (size 3 to 8) (size 9 to 14) (size 15 to 20)
#    0.000    1.571    7.143    3.000    0.000    0.000 
#    0.000    0.000    0.000   15.857    0.000    0.000 
#    0.000    2.857    0.000    0.000    0.000    0.000 
#
# Total GULP energy -155932.710437 kJ/mol
# GULP energy per Si atom -5569.025373 kJ/mol
# Density = 1.630341 g / cm^3
# Si number density = 16.340598 Si / 1000 Ang^3
#
#
#
# Elastic Constant Matrix: (Units=GPa)
#
#
# Indices 1 2 3 4 5 6 
#
# 1 83.7552 26.4032 30.8411 0.0001 6.7145 -0.0001
# 2 26.4032 72.7975 25.2177 0.0000 -5.0260 0.0000
# 3 30.8411 25.2177 73.1787 0.0001 8.5683 -0.0001
# 4 0.0001 0.0000 0.0001 13.3836 0.0000 1.0501
# 5 6.7145 -5.0260 8.5683 0.0000 30.4907 0.0000
# 6 -0.0001 0.0000 -0.0001 1.0501 0.0000 15.5593
#
#
#
# Elastic Compliance Matrix: (Units=1/GPa)
#
#
# Indices 1 2 3 4 5 6 
#
# 1 0.015157 -0.004065 -0.004672 0.000000 -0.002695 0.000000
# 2 -0.004065 0.017233 -0.004821 0.000000 0.005091 0.000000
# 3 -0.004672 -0.004821 0.017855 0.000000 -0.004784 0.000000
# 4 0.000000 0.000000 0.000000 0.075116 0.000000 -0.005070
# 5 -0.002695 0.005091 -0.004784 0.000000 0.035574 0.000000
# 6 0.000000 0.000000 0.000000 -0.005070 0.000000 0.064612
#
#
# Mechanical properties :
#
#
# Convention : Reuss Voigt Hill
#
# Bulk Modulus (GPa) = 43.23483 43.85059 43.54271
# Shear Modulus (GPa) = 19.20317 21.70471 20.45394
#
# Velocity S-wave (km/s) = 3.43181 3.64850 3.54181
# Velocity P-wave (km/s) = 6.49762 6.68149 6.59020
#
# Compressibility (1/GPa) = 0.02312950
#
# Stress axis : x y z
#
# Youngs Moduli (GPa) = 65.97446 58.02896 56.00516
#
# Poissons Ratio (x) = 0.23591 0.26163
# Poissons Ratio (y) = 0.26821 0.27001
# Poissons Ratio (z) = 0.30820 0.27977
#
# Static dielectric constant tensor:
#      x y z
#    x 1.630180 0.000000 -0.032570 
#    y 0.000000 1.546560 0.000000 
#    z -0.032570 0.000000 1.604470 
# 
# From -- ./inp_files/170003.got.cif
#   From: 2010.05.17/outbox.cif.g08.bks.cpg/sg12_86_cif.got.tgz:170003.got - 2010.06.03 13:09:07.
