data_PCOD9170552
_publ_section_title
;
Structure prediction by ZEFSAII (Michael W. Deem and Ramdas Pophale) SiO2 
 PCOD9170552
Probable space group: C 2/M
;
_chemical_formula_sum "Si O2"
_cell_formula_units_Z 56
_cell_length_a 14.925014
_cell_length_b 17.524889
_cell_length_c 14.285902
_cell_angle_alpha 90.000000
_cell_angle_beta 124.710068
_cell_angle_gamma 90.000000
_cell_volume 3071.657230
_symmetry_space_group_name_H-M "C 2/M"
_symmetry_group_IT_number 12
_symmetry_cell_setting 'monoclinic'
loop_
_space_group_symop_operation_xyz
x,y,z
-x,y,-z
-x,-y,-z
x,-y,z
1/2+x,1/2+y,z
1/2-x,1/2+y,-z
1/2-x,1/2-y,-z
1/2+x,1/2-y,z
loop_
_atom_site_type_symbol
_atom_site_label
_atom_site_fract_x
_atom_site_fract_y
_atom_site_fract_z
Si Si1 0.871144 0.590735 0.506979
Si Si2 0.907800 0.627916 0.134209
Si Si3 0.160764 0.412540 0.302059
Si Si4 0.604485 0.275112 0.995867
Si Si5 0.888038 0.657918 0.330375
Si Si6 0.286069 0.689252 0.228826
Si Si7 0.313754 0.586573 0.077187
O O1 0.890141 0.500000 0.509432
O O2 0.814233 0.602560 0.573177
O O3 0.824806 0.621769 0.381229
O O4 0.986179 0.633889 0.585511
O O5 0.860773 0.625788 0.211443
O O6 0.029779 0.594943 0.208596
O O7 0.915585 0.714445 0.099975
O O8 0.817950 0.588129 0.015755
O O9 0.191147 0.500000 0.298659
O O10 0.221152 0.353414 0.271670
O O11 0.701299 0.238033 0.114807
O O12 0.500000 0.280674 0.000000
O O13 0.637704 0.355302 0.970428
O O14 0.869562 0.748200 0.317125
O O15 0.336302 0.625735 0.190424
O O16 0.352276 0.500000 0.092828
#
# Coordination Sequence:
#
# PCOD9170552 Si02
#       7
#     8   8   8   8   8   8   8
#     4   9  20  35  55  84 108 126 173 232 269 307
#     4  10  18  34  54  77 105 137 176 218 266 309
#     4  10  20  33  52  80 110 139 168 217 275 307
#     4  11  20  36  53  74 108 141 176 219 252 307
#     4  10  17  32  55  76 105 138 169 215 269 312
#     4  11  20  34  52  78 107 141 178 212 257 319
#     4  11  22  34  51  77 105 140 182 217 255 311
#
# _framework density 18.231200999999999
#
# number of rings (size 3 to 8) (size 9 to 14) (size 15 to 20)
#    0.000    1.714    4.286    2.571    0.000    2.571 
#    0.000    2.143    0.000    0.000    0.000   12.000 
#    0.000    0.000    0.000    0.000    0.000    0.000 
#
# Total GULP energy -156064.518842 kJ/mol
# GULP energy per Si atom -5573.732816 kJ/mol
# Density = 1.818971 g / cm^3
# Si number density = 18.231201 Si / 1000 Ang^3
#
#
#
# Elastic Constant Matrix: (Units=GPa)
#
#
# Indices 1 2 3 4 5 6 
#
# 1 45.4470 38.7935 23.3713 0.0000 -20.7684 0.0000
# 2 38.7935 146.7561 44.8145 0.0000 -25.0580 0.0000
# 3 23.3713 44.8145 67.3583 0.0000 -29.6819 0.0000
# 4 0.0000 0.0000 0.0000 33.0552 0.0000 -7.5468
# 5 -20.7684 -25.0580 -29.6819 0.0000 22.0868 0.0000
# 6 0.0000 0.0000 0.0000 -7.5468 0.0000 29.3517
#
#
#
# Elastic Compliance Matrix: (Units=1/GPa)
#
#
# Indices 1 2 3 4 5 6 
#
# 1 0.044233 -0.006635 0.009999 0.000000 0.047503 0.000000
# 2 -0.006635 0.009782 -0.005063 0.000000 -0.001946 0.000000
# 3 0.009999 -0.005063 0.040109 0.000000 0.057560 0.000000
# 4 0.000000 0.000000 0.000000 0.032139 0.000000 0.008263
# 5 0.047503 -0.001946 0.057560 0.000000 0.165089 0.000000
# 6 0.000000 0.000000 0.000000 0.008263 0.000000 0.036194
#
#
# Mechanical properties :
#
#
# Convention : Reuss Voigt Hill
#
# Bulk Modulus (GPa) = 11.02217 52.61334 31.81775
# Shear Modulus (GPa) = 13.84325 27.07087 20.45706
#
# Velocity S-wave (km/s) = 2.75856 3.85757 3.35340
# Velocity P-wave (km/s) = 4.02556 6.98304 5.69947
#
# Compressibility (1/GPa) = 0.09072627
#
# Stress axis : x y z
#
# Youngs Moduli (GPa) = 22.60754 102.22965 24.93185
#
# Poissons Ratio (x) = 0.67831 -0.24930
# Poissons Ratio (y) = 0.15000 0.12623
# Poissons Ratio (z) = -0.22606 0.51761
#
# Static dielectric constant tensor:
#      x y z
#    x 1.631140 0.000000 -0.019410 
#    y 0.000000 1.624160 0.000000 
#    z -0.019410 0.000000 1.701470 
# 
# From -- ./inp_files/224875.got.cif
#   From: 2010.05.17/outbox.cif.g08.bks.cpg/sg12_113_cif.got.tgz:224875.got - 2010.06.03 13:09:07.
