data_PCOD9170458
_publ_section_title
;
Structure prediction by ZEFSAII (Michael W. Deem and Ramdas Pophale) SiO2 
 PCOD9170458
Probable space group: C 2/M
;
_chemical_formula_sum "Si O2"
_cell_formula_units_Z 48
_cell_length_a 16.431169
_cell_length_b 24.304297
_cell_length_c 9.409662
_cell_angle_alpha 90.000000
_cell_angle_beta 151.538619
_cell_angle_gamma 90.000000
_cell_volume 1790.807406
_symmetry_space_group_name_H-M "C 2/M"
_symmetry_group_IT_number 12
_symmetry_cell_setting 'monoclinic'
loop_
_space_group_symop_operation_xyz
x,y,z
-x,y,-z
-x,-y,-z
x,-y,z
1/2+x,1/2+y,z
1/2-x,1/2+y,-z
1/2-x,1/2-y,-z
1/2+x,1/2-y,z
loop_
_atom_site_type_symbol
_atom_site_label
_atom_site_fract_x
_atom_site_fract_y
_atom_site_fract_z
Si Si1 0.303648 0.104616 0.713644
Si Si2 0.763409 0.561008 0.354753
Si Si3 0.977986 0.272722 0.293270
Si Si4 0.159042 0.838662 0.846665
Si Si5 0.165106 0.437767 0.925567
Si Si6 0.177922 0.820519 0.302101
O O1 0.277027 0.060052 0.548521
O O2 0.278620 0.078301 0.828078
O O3 0.198521 0.156986 0.495082
O O4 0.500000 0.121958 0.000000
O O5 0.698266 0.500000 0.210848
O O6 0.675302 0.621180 0.210383
O O7 0.959914 0.567211 0.603303
O O8 0.896984 0.212776 0.144390
O O9 0.000000 0.277287 0.500000
O O10 0.153978 0.287813 0.487911
O O11 0.828424 0.315544 0.025779
O O12 0.228964 0.896398 0.009701
O O13 0.000000 0.848120 0.500000
O O14 0.208808 0.500000 0.962760
O O15 0.000000 0.791010 0.000000
#
# Coordination Sequence:
#
# PCOD9170458 Si02
#       6
#     8   8   8   8   8   8
#     4   8  15  29  52  84 124 158 198 241 314 367
#     4   8  15  28  50  82 122 161 190 233 303 369
#     4  10  21  41  64  85 121 171 217 256 309 367
#     4  10  21  38  64  87 114 165 221 255 309 372
#     4  10  17  31  59  94 127 157 201 260 317 371
#     4  10  20  34  58  92 126 164 207 258 311 373
#
# _framework density 26.803553999999998
#
# number of rings (size 3 to 8) (size 9 to 14) (size 15 to 20)
#    1.000    1.667    1.667    0.500    0.000    4.000 
#    0.000    0.000    0.000   39.000    0.000    0.000 
#    0.000    0.667    0.000    0.000    0.000    2.000 
#
# Total GULP energy -134169.556797 kJ/mol
# GULP energy per Si atom -5590.398200 kJ/mol
# Density = 2.674255 g / cm^3
# Si number density = 26.803554 Si / 1000 Ang^3
#
#
#
# Elastic Constant Matrix: (Units=GPa)
#
#
# Indices 1 2 3 4 5 6 
#
# 1 116.0169 11.4828 30.3806 0.0000 -11.7959 0.0000
# 2 11.4828 183.0190 60.9438 0.0000 31.4100 0.0000
# 3 30.3806 60.9438 140.7004 0.0000 29.5975 0.0000
# 4 0.0000 0.0000 0.0000 18.7393 0.0000 10.1119
# 5 -11.7959 31.4100 29.5975 0.0000 32.1436 0.0000
# 6 0.0000 0.0000 0.0000 10.1119 0.0000 12.6656
#
#
#
# Elastic Compliance Matrix: (Units=1/GPa)
#
#
# Indices 1 2 3 4 5 6 
#
# 1 0.010439 -0.000828 -0.003561 0.000000 0.007919 0.000000
# 2 -0.000828 0.007045 -0.001687 0.000000 -0.005634 0.000000
# 3 -0.003561 -0.001687 0.010586 0.000000 -0.009405 0.000000
# 4 0.000000 0.000000 0.000000 0.093754 0.000000 -0.074851
# 5 0.007919 -0.005634 -0.009405 0.000000 0.048182 0.000000
# 6 0.000000 0.000000 0.000000 -0.074851 0.000000 0.138713
#
#
# Mechanical properties :
#
#
# Convention : Reuss Voigt Hill
#
# Bulk Modulus (GPa) = 62.83072 71.70564 67.26818
# Shear Modulus (GPa) = 15.32908 35.17164 25.25036
#
# Velocity S-wave (km/s) = 2.39405 3.62636 3.07262
# Velocity P-wave (km/s) = 5.57979 6.65916 6.14322
#
# Compressibility (1/GPa) = 0.01591578
#
# Stress axis : x y z
#
# Youngs Moduli (GPa) = 95.79312 141.95080 94.46829
#
# Poissons Ratio (x) = 0.11757 0.33642
# Poissons Ratio (y) = 0.07934 0.15940
# Poissons Ratio (z) = 0.34114 0.23952
#
# Static dielectric constant tensor:
#      x y z
#    x 2.178640 0.000000 -0.050130 
#    y 0.000000 2.082670 0.000000 
#    z -0.050130 0.000000 2.054500 
# 
# From -- ./inp_files/131138.got.cif
#   From: 2010.05.17/outbox.cif.g08.bks.cpg/sg12_66_cif.got.tgz:131138.got - 2010.06.03 13:09:07.
