data_PCOD9170545
_publ_section_title
;
Structure prediction by ZEFSAII (Michael W. Deem and Ramdas Pophale) SiO2 
 PCOD9170545
Probable space group: C 2/M
;
_chemical_formula_sum "Si O2"
_cell_formula_units_Z 52
_cell_length_a 20.061607
_cell_length_b 25.387471
_cell_length_c 8.828338
_cell_angle_alpha 90.000000
_cell_angle_beta 40.657148
_cell_angle_gamma 90.000000
_cell_volume 2929.539330
_symmetry_space_group_name_H-M "C 2/M"
_symmetry_group_IT_number 12
_symmetry_cell_setting 'monoclinic'
loop_
_space_group_symop_operation_xyz
x,y,z
-x,y,-z
-x,-y,-z
x,-y,z
1/2+x,1/2+y,z
1/2-x,1/2+y,-z
1/2-x,1/2-y,-z
1/2+x,1/2-y,z
loop_
_atom_site_type_symbol
_atom_site_label
_atom_site_fract_x
_atom_site_fract_y
_atom_site_fract_z
Si Si1 0.646956 0.335469 0.534892
Si Si2 0.116141 0.118783 0.272148
Si Si3 0.792986 0.661930 0.552550
Si Si4 0.500000 0.404891 0.000000
Si Si5 0.977335 0.730602 0.216904
Si Si6 0.807797 0.059738 0.142177
Si Si7 0.828851 0.774812 0.982547
O O1 0.665176 0.366876 0.348818
O O2 0.747699 0.329825 0.462924
O O3 0.593845 0.278987 0.603459
O O4 0.565855 0.368439 0.774464
O O5 0.115192 0.174524 0.185936
O O6 0.000000 0.101129 0.500000
O O7 0.172634 0.078449 0.063975
O O8 0.910537 0.678549 0.355547
O O9 0.765689 0.603248 0.654848
O O10 0.729436 0.701112 0.772112
O O11 0.416585 0.435666 0.043810
O O12 0.084511 0.733877 0.118099
O O13 0.000000 0.738861 0.000000
O O14 0.771247 0.000000 0.213846
O O15 0.750000 0.750000 0.000000
#
# Coordination Sequence:
#
# PCOD9170545 Si02
#       7
#     8   8   8   4   8   8   8
#     4  11  18  34  52  80 120 150 179 225 281 352
#     4  11  20  33  52  79 114 147 184 240 289 337
#     4  10  23  37  55  82 114 156 194 231 279 345
#     4  10  17  32  54  80 114 150 189 228 294 364
#     4  12  21  34  57  84 119 160 185 221 276 342
#     4  10  21  38  54  78 110 151 197 248 300 339
#     4  11  23  35  54  85 119 156 188 228 280 340
#
# _framework density 17.750230999999999
#
# number of rings (size 3 to 8) (size 9 to 14) (size 15 to 20)
#    0.000    1.231    5.385    2.538    2.154    0.308 
#    0.000    0.769    0.000    0.462    0.000    8.615 
#    0.000    0.000    0.000    0.000    0.000    0.000 
#
# Total GULP energy -145223.879106 kJ/mol
# GULP energy per Si atom -5585.533812 kJ/mol
# Density = 1.770983 g / cm^3
# Si number density = 17.750231 Si / 1000 Ang^3
#
#
#
# Elastic Constant Matrix: (Units=GPa)
#
#
# Indices 1 2 3 4 5 6 
#
# 1 124.8167 43.5350 37.8414 0.0000 2.7932 0.0000
# 2 43.5350 96.8104 28.6361 0.0000 -11.7593 0.0000
# 3 37.8414 28.6361 47.0355 0.0000 2.0149 0.0000
# 4 0.0000 0.0000 0.0000 10.0481 0.0000 -1.4020
# 5 2.7932 -11.7593 2.0149 0.0000 29.7817 0.0000
# 6 0.0000 0.0000 0.0000 -1.4020 0.0000 12.7343
#
#
#
# Elastic Compliance Matrix: (Units=1/GPa)
#
#
# Indices 1 2 3 4 5 6 
#
# 1 0.011320 -0.003227 -0.007063 0.000000 -0.001858 0.000000
# 2 -0.003227 0.014489 -0.006502 0.000000 0.006463 0.000000
# 3 -0.007063 -0.006502 0.031073 0.000000 -0.004007 0.000000
# 4 0.000000 0.000000 0.000000 0.101074 0.000000 0.011128
# 5 -0.001858 0.006463 -0.004007 0.000000 0.036575 0.000000
# 6 0.000000 0.000000 0.000000 0.011128 0.000000 0.079753
#
#
# Mechanical properties :
#
#
# Convention : Reuss Voigt Hill
#
# Bulk Modulus (GPa) = 42.92157 54.29863 48.61010
# Shear Modulus (GPa) = 15.84107 21.08949 18.46528
#
# Velocity S-wave (km/s) = 2.99062 3.45066 3.22884
# Velocity P-wave (km/s) = 6.01319 6.82150 6.43006
#
# Compressibility (1/GPa) = 0.02329831
#
# Stress axis : x y z
#
# Youngs Moduli (GPa) = 88.33692 69.01802 32.18214
#
# Poissons Ratio (x) = 0.22273 0.22731
# Poissons Ratio (y) = 0.28507 0.20924
# Poissons Ratio (z) = 0.62394 0.44874
#
# Static dielectric constant tensor:
#      x y z
#    x 1.633190 0.000000 0.017300 
#    y 0.000000 1.589970 0.000000 
#    z 0.017300 0.000000 1.618980 
# 
# From -- ./inp_files/52550.got.cif
#   From: 2010.05.17/outbox.cif.g08.bks.cpg/sg12_27_cif.got.tgz:52550.got - 2010.06.03 13:09:07.
