data_PCOD9170828
_publ_section_title
;
Structure prediction by ZEFSAII (Michael W. Deem and Ramdas Pophale) SiO2 
 PCOD9170828
Probable space group: C 2/M
;
_chemical_formula_sum "Si O2"
_cell_formula_units_Z 52
_cell_length_a 24.214265
_cell_length_b 11.866816
_cell_length_c 12.337902
_cell_angle_alpha 90.000000
_cell_angle_beta 48.499495
_cell_angle_gamma 90.000000
_cell_volume 2655.214259
_symmetry_space_group_name_H-M "C 2/M"
_symmetry_group_IT_number 12
_symmetry_cell_setting 'monoclinic'
loop_
_space_group_symop_operation_xyz
x,y,z
-x,y,-z
-x,-y,-z
x,-y,z
1/2+x,1/2+y,z
1/2-x,1/2+y,-z
1/2-x,1/2-y,-z
1/2+x,1/2-y,z
loop_
_atom_site_type_symbol
_atom_site_label
_atom_site_fract_x
_atom_site_fract_y
_atom_site_fract_z
Si Si1 0.139534 0.130683 0.849717
Si Si2 0.954594 0.246797 0.851675
Si Si3 0.794624 0.738821 0.646105
Si Si4 0.172174 0.738060 0.159698
Si Si5 0.393738 0.630039 0.361816
Si Si6 0.388907 0.000000 0.718382
Si Si7 0.486294 0.000000 0.801419
Si Si8 0.370768 0.000000 0.503800
O O1 0.208418 0.214759 0.776565
O O2 0.118996 0.135530 0.750343
O O3 0.158375 0.000000 0.851697
O O4 0.073443 0.171949 0.012017
O O5 0.894662 0.230058 0.833422
O O6 0.960346 0.378718 0.879894
O O7 0.034580 0.206257 0.707142
O O8 0.826788 0.784577 0.718938
O O9 0.822557 0.822758 0.517184
O O10 0.824902 0.615424 0.570041
O O11 0.161024 0.607031 0.197115
O O12 0.250000 0.750000 0.000000
O O13 0.407573 0.500000 0.373095
O O14 0.450934 0.000000 0.727677
O O15 0.414131 0.000000 0.562119
O O16 0.573935 0.000000 0.668931
#
# Coordination Sequence:
#
# PCOD9170828 Si02
#       8
#     8   8   8   8   8   4   4   4
#     4  11  23  42  67  88 121 168 214 252 296 366
#     4  11  22  40  64  91 125 161 205 252 311 367
#     4  11  21  40  66  92 121 159 207 252 308 365
#     4  10  20  37  59  91 124 156 194 252 312 368
#     4  11  25  44  61  89 125 167 211 256 303 360
#     4   8  19  30  56  85 117 157 195 237 300 363
#     4  10  19  36  58  90 125 149 194 258 307 361
#     4  10  17  34  63  88 116 153 203 249 294 366
#
# _framework density 19.584106999999999
#
# number of rings (size 3 to 8) (size 9 to 14) (size 15 to 20)
#    0.000    1.538    3.846    1.615    0.000    1.846 
#    4.154    3.077    0.000    0.000    0.000    0.000 
#    0.000    0.000    0.000    0.000    0.000    0.000 
#
# Total GULP energy -144988.571607 kJ/mol
# GULP energy per Si atom -5576.483523 kJ/mol
# Density = 1.953953 g / cm^3
# Si number density = 19.584107 Si / 1000 Ang^3
#
#
#
# Elastic Constant Matrix: (Units=GPa)
#
#
# Indices 1 2 3 4 5 6 
#
# 1 27.3954 8.6546 -0.7417 0.0000 -0.6693 0.0000
# 2 8.6546 74.1943 20.7623 0.0000 3.6833 0.0000
# 3 -0.7417 20.7623 78.6452 0.0000 -2.6209 0.0000
# 4 0.0000 0.0000 0.0000-1247.3834 0.0000 1017.9711
# 5 -0.6693 3.6833 -2.6209 0.0000 29.9407 0.0000
# 6 0.0000 0.0000 0.0000 1017.9711 0.0000 -798.1006
#
#
#
# Elastic Compliance Matrix: (Units=1/GPa)
#
#
# Indices 1 2 3 4 5 6 
#
# 1 0.038175 -0.005020 0.001740 0.000000 0.001623 0.000000
# 2 -0.005020 0.015351 -0.004179 0.000000 -0.002366 0.000000
# 3 0.001740 -0.004179 0.013894 0.000000 0.001769 0.000000
# 4 0.000000 0.000000 0.000000 0.019596 0.000000 0.024995
# 5 0.001623 -0.002366 0.001769 0.000000 0.033882 0.000000
# 6 0.000000 0.000000 0.000000 0.024995 0.000000 0.030627
#
#
# Mechanical properties :
#
#
# Convention : Reuss Voigt Hill
#
# Bulk Modulus (GPa) = 19.04748 26.39836 22.72292
# Shear Modulus (GPa) = 27.18216 -393.00467 -182.91126
#
# Velocity S-wave (km/s) = 3.72959 -14.18136 -9.67474
# Velocity P-wave (km/s) = 5.31917 15.95742 10.63827
#
# Compressibility (1/GPa) = 0.05250039
#
# Stress axis : x y z
#
# Youngs Moduli (GPa) = 26.19498 65.14401 71.97412
#
# Poissons Ratio (x) = 0.32705 -0.12520
# Poissons Ratio (y) = 0.13151 0.30076
# Poissons Ratio (z) = -0.04557 0.27222
#
# Static dielectric constant tensor:
#      x y z
#    x 1.781540 0.000000 -0.094050 
#    y 0.000000 1.688910 0.000000 
#    z -0.094050 0.000000 1.859840 
# 
# From -- ./inp_files/175212.got.cif
#   From: 2010.05.17/outbox.cif.g08.bks.cpg/sg12_88_cif.got.tgz:175212.got - 2010.06.03 13:09:07.
