data_PCOD9170860
_publ_section_title
;
Structure prediction by ZEFSAII (Michael W. Deem and Ramdas Pophale) SiO2 
 PCOD9170860
Probable space group: C 2/M
;
_chemical_formula_sum "Si O2"
_cell_formula_units_Z 58
_cell_length_a 25.141442
_cell_length_b 24.320904
_cell_length_c 8.691222
_cell_angle_alpha 90.000000
_cell_angle_beta 30.275986
_cell_angle_gamma 90.000000
_cell_volume 2679.316661
_symmetry_space_group_name_H-M "C 2/M"
_symmetry_group_IT_number 12
_symmetry_cell_setting 'monoclinic'
loop_
_space_group_symop_operation_xyz
x,y,z
-x,y,-z
-x,-y,-z
x,-y,z
1/2+x,1/2+y,z
1/2-x,1/2+y,-z
1/2-x,1/2-y,-z
1/2+x,1/2-y,z
loop_
_atom_site_type_symbol
_atom_site_label
_atom_site_fract_x
_atom_site_fract_y
_atom_site_fract_z
Si Si1 0.182633 0.941148 0.890381
Si Si2 0.521305 0.740318 0.281308
Si Si3 0.329439 0.939561 0.823301
Si Si4 0.396891 0.205202 0.358917
Si Si5 0.194706 0.172043 0.683994
Si Si6 0.668322 0.848610 0.922603
Si Si7 0.500000 0.500000 0.500000
Si Si8 0.494973 0.910837 0.180984
O O1 0.246618 0.934477 0.890091
O O2 0.193116 0.889322 0.756184
O O3 0.221701 0.000000 0.723952
O O4 0.063691 0.953170 0.240276
O O5 0.500000 0.714428 0.500000
O O6 0.412627 0.758754 0.471315
O O7 0.588573 0.701535 0.002171
O O8 0.592227 0.795670 0.133931
O O9 0.442839 0.940536 0.455202
O O10 0.311233 0.000000 0.942486
O O11 0.320910 0.887572 0.956914
O O12 0.290458 0.204997 0.528612
O O13 0.419136 0.142091 0.348377
O O14 0.500000 0.219175 0.000000
O O15 0.224153 0.169028 0.430600
O O16 0.606582 0.886288 0.951957
O O17 0.500000 0.937564 0.000000
#
# Coordination Sequence:
#
# PCOD9170860 Si02
#       8
#     8   8   8   8   8   8   2   8
#     4   9  21  40  68  90 122 164 219 266 315 371
#     4  11  25  39  61  96 128 171 214 271 331 385
#     4  11  22  37  60  95 126 167 214 267 324 383
#     4  10  19  39  62  87 132 169 205 265 325 389
#     4  12  22  41  69  92 124 180 223 258 325 404
#     4  11  22  38  59  88 138 168 206 266 325 381
#     4   8  20  44  68  86 124 164 204 290 308 356
#     4  10  17  35  59  85 126 174 204 250 322 379
#
# _framework density 21.647309
#
# number of rings (size 3 to 8) (size 9 to 14) (size 15 to 20)
#    0.414    1.103    5.517    2.483    0.966    2.483 
#    0.000    0.000    0.000    1.241    0.000    0.000 
#    0.000    0.000    0.000    0.000    0.000    0.000 
#
# Total GULP energy -161563.795022 kJ/mol
# GULP energy per Si atom -5571.165346 kJ/mol
# Density = 2.159804 g / cm^3
# Si number density = 21.647309 Si / 1000 Ang^3
#
#
#
# Elastic Constant Matrix: (Units=GPa)
#
#
# Indices 1 2 3 4 5 6 
#
# 1 32.4063 29.6934 6.4420 0.0000 13.6404 -0.0002
# 2 29.6934 117.3310 29.2676 0.0000 14.6499 -0.0002
# 3 6.4420 29.2676 97.7209 0.0000 18.9905 -0.0004
# 4 0.0000 0.0000 0.0000 18.2296 0.0000 13.1788
# 5 13.6404 14.6499 18.9905 0.0000 22.7599 0.0003
# 6 -0.0002 -0.0002 -0.0004 13.1788 0.0003 -108.8706
#
#
#
# Elastic Compliance Matrix: (Units=1/GPa)
#
#
# Indices 1 2 3 4 5 6 
#
# 1 0.051760 -0.010883 0.005388 0.000000 -0.028511 0.000000
# 2 -0.010883 0.011871 -0.003128 0.000000 0.001491 0.000000
# 3 0.005388 -0.003128 0.013190 0.000000 -0.012221 0.000000
# 4 0.000000 0.000000 0.000000 0.050442 0.000000 0.006106
# 5 -0.028511 0.001491 -0.012221 0.000000 0.070262 0.000000
# 6 0.000000 0.000000 0.000000 0.006106 0.000000 -0.008446
#
#
# Mechanical properties :
#
#
# Convention : Reuss Voigt Hill
#
# Bulk Modulus (GPa) = 16.78545 42.02936 29.40740
# Shear Modulus (GPa) = 22.10601 -1.43919 10.33341
#
# Velocity S-wave (km/s) = 3.19907 -0.81626 2.18721
# Velocity P-wave (km/s) = 4.62778 4.30921 4.47133
#
# Compressibility (1/GPa) = 0.05957542
#
# Stress axis : x y z
#
# Youngs Moduli (GPa) = 19.31983 84.23743 75.81604
#
# Poissons Ratio (x) = 0.91678 -0.40851
# Poissons Ratio (y) = 0.21026 0.23714
# Poissons Ratio (z) = -0.10410 0.26348
#
# Static dielectric constant tensor:
#      x y z
#    x 1.819380 0.000000 0.001100 
#    y 0.000000 1.852350 0.000000 
#    z 0.001100 0.000000 1.824360 
# 
# From -- ./inp_files/113579.got.cif
#   From: 2010.05.17/outbox.cif.g08.bks.cpg/sg12_57_cif.got.tgz:113579.got - 2010.06.03 13:09:07.
