data_PCOD9170319
_publ_section_title
;
Structure prediction by ZEFSAII (Michael W. Deem and Ramdas Pophale) SiO2 
 PCOD9170319
Probable space group: C 2/M
;
_chemical_formula_sum "Si O2"
_cell_formula_units_Z 52
_cell_length_a 9.476862
_cell_length_b 11.459964
_cell_length_c 19.185569
_cell_angle_alpha 90.000000
_cell_angle_beta 80.911180
_cell_angle_gamma 90.000000
_cell_volume 2057.478258
_symmetry_space_group_name_H-M "C 2/M"
_symmetry_group_IT_number 12
_symmetry_cell_setting 'monoclinic'
loop_
_space_group_symop_operation_xyz
x,y,z
-x,y,-z
-x,-y,-z
x,-y,z
1/2+x,1/2+y,z
1/2-x,1/2+y,-z
1/2-x,1/2-y,-z
1/2+x,1/2-y,z
loop_
_atom_site_type_symbol
_atom_site_label
_atom_site_fract_x
_atom_site_fract_y
_atom_site_fract_z
Si Si1 0.784090 0.742699 0.781399
Si Si2 0.938634 0.629360 0.288024
Si Si3 0.149870 0.000000 0.817420
Si Si4 0.854751 0.624795 0.554971
Si Si5 0.338864 0.000000 0.946808
Si Si6 0.371351 0.250849 0.932468
Si Si7 0.909499 0.000000 0.920870
Si Si8 0.217298 0.873130 0.420533
O O1 0.693943 0.841568 0.751438
O O2 0.701249 0.619587 0.779282
O O3 0.802074 0.765155 0.861936
O O4 0.939322 0.721173 0.737500
O O5 0.993650 0.500000 0.267500
O O6 0.871098 0.629508 0.370181
O O7 0.227448 0.000000 0.889405
O O8 0.977397 0.000000 0.838025
O O9 0.839594 0.500000 0.594510
O O10 0.848522 0.748388 0.593741
O O11 0.734624 0.626837 0.502980
O O12 0.000000 0.621754 0.500000
O O13 0.430181 0.881192 0.931677
O O14 0.243237 0.000000 0.025894
O O15 0.462599 0.367981 0.935046
O O16 0.250000 0.250000 0.000000
O O17 0.152552 0.000000 0.406165
#
# Coordination Sequence:
#
# PCOD9170319 Si02
#       8
#     8   8   4   8   4   8   4   8
#     4  11  23  43  66  90 130 174 218 272 335 400
#     4  11  25  45  66  95 136 179 220 272 328 399
#     4  10  19  36  57  85 114 162 211 257 323 384
#     4   9  18  35  63  94 124 162 212 263 315 380
#     4   8  17  32  52  80 119 156 192 255 334 392
#     4   9  19  35  60  90 121 157 212 272 332 387
#     4  10  17  30  57  89 114 149 206 265 316 395
#     4   9  20  38  59  89 129 168 209 264 325 376
#
# _framework density 25.273655999999999
#
# number of rings (size 3 to 8) (size 9 to 14) (size 15 to 20)
#    0.000    2.308    0.769    1.154    3.231    0.308 
#    2.769    2.308    0.000    0.923    0.000    0.000 
#    0.000    0.000    0.000    0.000    0.000    0.000 
#
# Total GULP energy -145023.958367 kJ/mol
# GULP energy per Si atom -5577.844553 kJ/mol
# Density = 2.521613 g / cm^3
# Si number density = 25.273656 Si / 1000 Ang^3
#
#
#
# Elastic Constant Matrix: (Units=GPa)
#
#
# Indices 1 2 3 4 5 6 
#
# 1 49.7235 30.5285 21.1023 0.0000 7.4905 0.0000
# 2 30.5285 235.7769 17.8578 0.0000 -6.3264 0.0000
# 3 21.1023 17.8578 87.7888 0.0000 14.8958 0.0000
# 4 0.0000 0.0000 0.0000 18.1853 0.0000 -23.0282
# 5 7.4905 -6.3264 14.8958 0.0000 37.5488 0.0000
# 6 0.0000 0.0000 0.0000 -23.0282 0.0000 11.3394
#
#
#
# Elastic Compliance Matrix: (Units=1/GPa)
#
#
# Indices 1 2 3 4 5 6 
#
# 1 0.024406 -0.002899 -0.004683 0.000000 -0.003499 0.000000
# 2 -0.002899 0.004699 -0.000527 0.000000 0.001579 0.000000
# 3 -0.004683 -0.000527 0.013381 0.000000 -0.004463 0.000000
# 4 0.000000 0.000000 0.000000 -0.034989 0.000000 -0.071056
# 5 -0.003499 0.001579 -0.004463 0.000000 0.029367 0.000000
# 6 0.000000 0.000000 0.000000 -0.071056 0.000000 -0.056113
#
#
# Mechanical properties :
#
#
# Convention : Reuss Voigt Hill
#
# Bulk Modulus (GPa) = 38.06986 56.91850 47.49418
# Shear Modulus (GPa) = 873.28601 33.66808 453.47705
#
# Velocity S-wave (km/s) = 18.60866 3.65381 13.40956
# Velocity P-wave (km/s) = 21.83587 6.35376 16.08067
#
# Compressibility (1/GPa) = 0.02626750
#
# Stress axis : x y z
#
# Youngs Moduli (GPa) = 40.97374 212.81238 74.73231
#
# Poissons Ratio (x) = 0.61700 0.34998
# Poissons Ratio (y) = 0.11879 0.03937
# Poissons Ratio (z) = 0.19188 0.11212
#
# Static dielectric constant tensor:
#      x y z
#    x 1.977580 0.000000 0.040140 
#    y 0.000000 2.039090 0.000000 
#    z 0.040140 0.000000 1.996700 
# 
# From -- ./inp_files/304142.got.cif
#   From: 2010.05.17/outbox.cif.g08.bks.cpg/sg12_153_cif.got.tgz:304142.got - 2010.06.03 13:09:07.
