data_PCOD9170772
_publ_section_title
;
Structure prediction by ZEFSAII (Michael W. Deem and Ramdas Pophale) SiO2 
 PCOD9170772
Probable space group: C 2/M
;
_chemical_formula_sum "Si O2"
_cell_formula_units_Z 48
_cell_length_a 10.160994
_cell_length_b 23.613632
_cell_length_c 13.759818
_cell_angle_alpha 90.000000
_cell_angle_beta 51.885775
_cell_angle_gamma 90.000000
_cell_volume 2597.562362
_symmetry_space_group_name_H-M "C 2/M"
_symmetry_group_IT_number 12
_symmetry_cell_setting 'monoclinic'
loop_
_space_group_symop_operation_xyz
x,y,z
-x,y,-z
-x,-y,-z
x,-y,z
1/2+x,1/2+y,z
1/2-x,1/2+y,-z
1/2-x,1/2-y,-z
1/2+x,1/2-y,z
loop_
_atom_site_type_symbol
_atom_site_label
_atom_site_fract_x
_atom_site_fract_y
_atom_site_fract_z
Si Si1 0.508364 0.434588 0.111745
Si Si2 0.184966 0.432127 0.897584
Si Si3 0.120874 0.374545 0.598025
Si Si4 0.837664 0.065319 0.628688
Si Si5 0.798652 0.768603 0.586334
Si Si6 0.736968 0.147813 0.324962
O O1 0.462755 0.500000 0.159468
O O2 0.695190 0.424632 0.065349
O O3 0.388736 0.388848 0.216048
O O4 0.500000 0.429945 0.000000
O O5 0.165651 0.500000 0.890684
O O6 0.281490 0.410131 0.758015
O O7 0.000000 0.408605 0.000000
O O8 0.183507 0.430342 0.623886
O O9 0.196901 0.326892 0.636295
O O10 0.201808 0.369265 0.453610
O O11 0.926163 0.366778 0.665218
O O12 0.000000 0.090692 0.500000
O O13 0.881451 0.000000 0.628450
O O14 0.750000 0.750000 0.500000
O O15 0.746457 0.716222 0.678933
O O16 0.000000 0.774417 0.500000
#
# Coordination Sequence:
#
# PCOD9170772 Si02
#       6
#     8   8   8   8   8   8
#     4  10  22  38  59  81 112 158 195 230 287 344
#     4   9  19  36  55  78 109 147 194 232 265 339
#     4  10  20  33  56  86 114 150 182 228 296 348
#     4  10  20  33  52  82 117 146 181 233 291 341
#     4  10  17  34  55  80 111 146 186 226 279 340
#     4  10  20  35  54  84 117 141 190 243 275 338
#
# _framework density 18.478861999999999
#
# number of rings (size 3 to 8) (size 9 to 14) (size 15 to 20)
#    0.000    2.167    3.333    1.500    2.333    4.000 
#    0.000    1.667    0.000    2.000    0.000    0.000 
#    0.000    0.000    0.000    0.000    0.000    0.000 
#
# Total GULP energy -133632.835223 kJ/mol
# GULP energy per Si atom -5568.034801 kJ/mol
# Density = 1.843680 g / cm^3
# Si number density = 18.478862 Si / 1000 Ang^3
#
#
#
# Elastic Constant Matrix: (Units=GPa)
#
#
# Indices 1 2 3 4 5 6 
#
# 1 123.4557 18.2362 52.2919 0.0000 -0.1986 0.0000
# 2 18.2362 52.9837 23.1095 0.0000 -11.6571 0.0000
# 3 52.2919 23.1095 79.9594 0.0000 -10.1452 0.0000
# 4 0.0000 0.0000 0.0000 11.8724 0.0000 -1.3168
# 5 -0.1986 -11.6571 -10.1452 0.0000 28.0721 0.0000
# 6 0.0000 0.0000 0.0000 -1.3168 0.0000 28.9015
#
#
#
# Elastic Compliance Matrix: (Units=1/GPa)
#
#
# Indices 1 2 3 4 5 6 
#
# 1 0.011483 -0.001379 -0.007518 0.000000 -0.003208 0.000000
# 2 -0.001379 0.023174 -0.004796 0.000000 0.007880 0.000000
# 3 -0.007518 -0.004796 0.019441 0.000000 0.004981 0.000000
# 4 0.000000 0.000000 0.000000 0.084657 0.000000 0.003857
# 5 -0.003208 0.007880 0.004981 0.000000 0.040672 0.000000
# 6 0.000000 0.000000 0.000000 0.003857 0.000000 0.034776
#
#
# Mechanical properties :
#
#
# Convention : Reuss Voigt Hill
#
# Bulk Modulus (GPa) = 37.43660 49.29712 43.36686
# Shear Modulus (GPa) = 19.96058 24.61996 22.29027
#
# Velocity S-wave (km/s) = 3.29018 3.65407 3.47689
# Velocity P-wave (km/s) = 5.89380 6.67371 6.29584
#
# Compressibility (1/GPa) = 0.02671183
#
# Stress axis : x y z
#
# Youngs Moduli (GPa) = 87.08448 43.15194 51.43700
#
# Poissons Ratio (x) = 0.05951 0.38672
# Poissons Ratio (y) = 0.12009 0.24669
# Poissons Ratio (z) = 0.65472 0.20695
#
# Static dielectric constant tensor:
#      x y z
#    x 1.630840 0.000000 -0.016000 
#    y 0.000000 1.736780 0.000000 
#    z -0.016000 0.000000 1.638500 
# 
# From -- ./inp_files/123479.got.cif
#   From: 2010.05.17/outbox.cif.g08.bks.cpg/sg12_62_cif.got.tgz:123479.got - 2010.06.03 13:09:07.
