data_PCOD9170339
_publ_section_title
;
Structure prediction by ZEFSAII (Michael W. Deem and Ramdas Pophale) SiO2 
 PCOD9170339
Probable space group: C 2/M
;
_chemical_formula_sum "Si O2"
_cell_formula_units_Z 56
_cell_length_a 23.608501
_cell_length_b 24.294727
_cell_length_c 6.409953
_cell_angle_alpha 90.000000
_cell_angle_beta 102.285300
_cell_angle_gamma 90.000000
_cell_volume 3592.314759
_symmetry_space_group_name_H-M "C 2/M"
_symmetry_group_IT_number 12
_symmetry_cell_setting 'monoclinic'
loop_
_space_group_symop_operation_xyz
x,y,z
-x,y,-z
-x,-y,-z
x,-y,z
1/2+x,1/2+y,z
1/2-x,1/2+y,-z
1/2-x,1/2-y,-z
1/2+x,1/2-y,z
loop_
_atom_site_type_symbol
_atom_site_label
_atom_site_fract_x
_atom_site_fract_y
_atom_site_fract_z
Si Si1 0.437200 0.282593 0.047456
Si Si2 0.660540 0.231934 0.795169
Si Si3 0.729257 0.328052 0.096229
Si Si4 0.656321 0.561906 0.005232
Si Si5 0.346645 0.702876 0.602459
Si Si6 0.452933 0.563638 0.788831
Si Si7 0.585916 0.623788 0.629084
O O1 0.401799 0.234679 0.141244
O O2 0.437432 0.332154 0.218728
O O3 0.500000 0.271224 0.000000
O O4 0.396327 0.296846 0.818537
O O5 0.702337 0.180852 0.876040
O O6 0.654038 0.243411 0.543909
O O7 0.696098 0.284605 0.919137
O O8 0.702662 0.388730 0.047649
O O9 0.711446 0.308106 0.314759
O O10 0.679929 0.500000 0.018009
O O11 0.611277 0.566437 0.162306
O O12 0.614289 0.573548 0.776078
O O13 0.363250 0.655203 0.455170
O O14 0.465318 0.500000 0.745854
O O15 0.453473 0.601379 0.587843
O O16 0.500000 0.580072 0.000000
#
# Coordination Sequence:
#
# PCOD9170339 Si02
#       7
#     8   8   8   8   8   8   8
#     4  10  21  33  47  74  97 122 162 200 242 295
#     4   9  19  31  53  68  94 125 155 202 242 288
#     4  10  17  34  48  73  93 119 166 196 242 291
#     4  11  21  33  48  70  97 125 163 205 242 287
#     4  10  17  31  48  72  90 123 156 197 237 288
#     4  10  22  36  47  62  87 126 175 216 246 280
#     4  11  19  34  47  66  89 129 161 204 250 281
#
# _framework density 15.588834
#
# number of rings (size 3 to 8) (size 9 to 14) (size 15 to 20)
#    0.000    1.857    5.714    0.857    0.000    6.286 
#    0.000    2.143    0.000    1.286    0.000    0.000 
#    0.000    0.571    0.000    1.571    0.000    0.143 
#
# Total GULP energy -156060.395676 kJ/mol
# GULP energy per Si atom -5573.585560 kJ/mol
# Density = 1.555335 g / cm^3
# Si number density = 15.588834 Si / 1000 Ang^3
#
#
#
# Elastic Constant Matrix: (Units=GPa)
#
#
# Indices 1 2 3 4 5 6 
#
# 1 90.6348 42.4747 32.4949 0.0000 -6.7200 0.0000
# 2 42.4747 60.8902 23.0718 0.0000 3.6250 0.0000
# 3 32.4949 23.0718 89.7690 0.0000 -2.3906 0.0000
# 4 0.0000 0.0000 0.0000 12.7155 0.0000 5.9844
# 5 -6.7200 3.6250 -2.3906 0.0000 14.6955 0.0000
# 6 0.0000 0.0000 0.0000 5.9844 0.0000 21.6202
#
#
#
# Elastic Compliance Matrix: (Units=1/GPa)
#
#
# Indices 1 2 3 4 5 6 
#
# 1 0.018993 -0.012661 -0.003321 0.000000 0.011268 0.000000
# 2 -0.012661 0.027051 -0.002713 0.000000 -0.012904 0.000000
# 3 -0.003321 -0.002713 0.013073 0.000000 0.001277 0.000000
# 4 0.000000 0.000000 0.000000 0.090423 0.000000 -0.025029
# 5 0.011268 -0.012904 0.001277 0.000000 0.076592 0.000000
# 6 0.000000 0.000000 0.000000 -0.025029 0.000000 0.053181
#
#
# Mechanical properties :
#
#
# Convention : Reuss Voigt Hill
#
# Bulk Modulus (GPa) = 46.02590 48.59741 47.31165
# Shear Modulus (GPa) = 15.43467 19.35640 17.39554
#
# Velocity S-wave (km/s) = 3.15002 3.52758 3.34413
# Velocity P-wave (km/s) = 6.54363 6.91621 6.73250
#
# Compressibility (1/GPa) = 0.02172690
#
# Stress axis : x y z
#
# Youngs Moduli (GPa) = 52.65128 36.96693 76.49286
#
# Poissons Ratio (x) = 0.46805 0.25403
# Poissons Ratio (y) = 0.66663 0.20752
# Poissons Ratio (z) = 0.17485 0.10029
#
# Static dielectric constant tensor:
#      x y z
#    x 1.566940 0.000000 -0.004320 
#    y 0.000000 1.529060 0.000000 
#    z -0.004320 0.000000 1.567820 
# 
# From -- ./inp_files/29453.got.cif
#   From: 2010.05.17/outbox.cif.g08.bks.cpg/sg12_15_cif.got.tgz:29453.got - 2010.06.03 13:09:07.
