data_PCOD9170224
_publ_section_title
;
Structure prediction by ZEFSAII (Michael W. Deem and Ramdas Pophale) SiO2 
 PCOD9170224
Probable space group: C 2/M
;
_chemical_formula_sum "Si O2"
_cell_formula_units_Z 52
_cell_length_a 7.302942
_cell_length_b 18.263678
_cell_length_c 16.692013
_cell_angle_alpha 90.000000
_cell_angle_beta 87.192563
_cell_angle_gamma 90.000000
_cell_volume 2223.684910
_symmetry_space_group_name_H-M "C 2/M"
_symmetry_group_IT_number 12
_symmetry_cell_setting 'monoclinic'
loop_
_space_group_symop_operation_xyz
x,y,z
-x,y,-z
-x,-y,-z
x,-y,z
1/2+x,1/2+y,z
1/2-x,1/2+y,-z
1/2-x,1/2-y,-z
1/2+x,1/2-y,z
loop_
_atom_site_type_symbol
_atom_site_label
_atom_site_fract_x
_atom_site_fract_y
_atom_site_fract_z
Si Si1 0.826892 0.655630 0.169432
Si Si2 0.778213 0.580944 0.015479
Si Si3 0.851705 0.914196 0.435145
Si Si4 0.745823 0.320599 0.872389
Si Si5 0.342759 0.581863 0.262364
Si Si6 0.500000 0.121889 0.500000
Si Si7 0.590061 0.918808 0.677775
O O1 0.745282 0.596727 0.109512
O O2 0.763477 0.734458 0.139693
O O3 0.045375 0.656170 0.148884
O O4 0.810908 0.637329 0.263845
O O5 0.715778 0.500000 0.992275
O O6 0.701725 0.644474 0.959370
O O7 0.000000 0.581685 0.000000
O O8 0.935976 0.904319 0.345806
O O9 0.691809 0.855056 0.455460
O O10 0.000000 0.909023 0.500000
O O11 0.778370 0.000000 0.438152
O O12 0.626295 0.358518 0.805642
O O13 0.382069 0.500000 0.232589
O O14 0.126294 0.583050 0.292823
O O15 0.410081 0.089874 0.418604
O O16 0.659754 0.000000 0.695376
#
# Coordination Sequence:
#
# PCOD9170224 Si02
#       7
#     8   8   8   8   8   4   8
#     4  10  20  33  51  75 106 135 169 209 257 313
#     4   9  17  31  55  82 100 126 174 220 253 298
#     4   9  16  27  46  74 103 131 171 223 272 316
#     4  10  19  33  52  73 104 137 168 204 258 315
#     4   8  15  29  50  72  96 129 173 218 255 299
#     4  10  17  30  52  76 102 136 179 226 275 316
#     4   9  16  29  52  75  97 131 174 220 260 300
#
# _framework density 23.384608
#
# number of rings (size 3 to 8) (size 9 to 14) (size 15 to 20)
#    0.000    2.769    0.000    3.692    0.000    3.692 
#    2.769    0.000    1.692    6.462    0.000    0.000 
#    0.000    0.000    0.000    0.000    0.000    0.000 
#
# Total GULP energy -144852.767198 kJ/mol
# GULP energy per Si atom -5571.260277 kJ/mol
# Density = 2.333138 g / cm^3
# Si number density = 23.384608 Si / 1000 Ang^3
#
#
#
# Elastic Constant Matrix: (Units=GPa)
#
#
# Indices 1 2 3 4 5 6 
#
# 1 55.0297 -3.0564 20.8989 0.0000 -8.5096 0.0000
# 2 -3.0564 82.7695 59.2040 0.0000 15.5861 0.0000
# 3 20.8989 59.2040 143.6784 0.0000 27.7469 0.0000
# 4 0.0000 0.0000 0.0000 -8.6939 0.0000 4.5204
# 5 -8.5096 15.5861 27.7469 0.0000 34.0717 0.0000
# 6 0.0000 0.0000 0.0000 4.5204 0.0000 6.1356
#
#
#
# Elastic Compliance Matrix: (Units=1/GPa)
#
#
# Indices 1 2 3 4 5 6 
#
# 1 0.022308 0.003805 -0.006589 0.000000 0.009197 0.000000
# 2 0.003805 0.017958 -0.007773 0.000000 -0.000935 0.000000
# 3 -0.006589 -0.007773 0.012759 0.000000 -0.008480 0.000000
# 4 0.000000 0.000000 0.000000 -0.083165 0.000000 0.061272
# 5 0.009197 -0.000935 -0.008480 0.000000 0.038981 0.000000
# 6 0.000000 0.000000 0.000000 0.061272 0.000000 0.117841
#
#
# Mechanical properties :
#
#
# Convention : Reuss Voigt Hill
#
# Bulk Modulus (GPa) = 31.33675 48.39672 39.86673
# Shear Modulus (GPa) = 31.55942 19.93143 25.74542
#
# Velocity S-wave (km/s) = 3.67765 2.92264 3.32167
# Velocity P-wave (km/s) = 5.60920 5.66833 5.63884
#
# Compressibility (1/GPa) = 0.03191141
#
# Stress axis : x y z
#
# Youngs Moduli (GPa) = 44.82776 55.68568 78.37714
#
# Poissons Ratio (x) = -0.21187 0.51639
# Poissons Ratio (y) = -0.17056 0.60920
# Poissons Ratio (z) = 0.29535 0.43282
#
# Static dielectric constant tensor:
#      x y z
#    x 1.970550 0.000000 0.020200 
#    y 0.000000 1.901590 0.000000 
#    z 0.020200 0.000000 1.881760 
# 
# From -- ./inp_files/256604.got.cif
#   From: 2010.05.17/outbox.cif.g08.bks.cpg/sg12_129_cif.got.tgz:256604.got - 2010.06.03 13:09:07.
