data_PCOD9170180
_publ_section_title
;
Structure prediction by ZEFSAII (Michael W. Deem and Ramdas Pophale) SiO2 
 PCOD9170180
Probable space group: C 2/M
;
_chemical_formula_sum "Si O2"
_cell_formula_units_Z 60
_cell_length_a 13.077437
_cell_length_b 27.068452
_cell_length_c 9.482430
_cell_angle_alpha 90.000000
_cell_angle_beta 69.519790
_cell_angle_gamma 90.000000
_cell_volume 3144.483954
_symmetry_space_group_name_H-M "C 2/M"
_symmetry_group_IT_number 12
_symmetry_cell_setting 'monoclinic'
loop_
_space_group_symop_operation_xyz
x,y,z
-x,y,-z
-x,-y,-z
x,-y,z
1/2+x,1/2+y,z
1/2-x,1/2+y,-z
1/2-x,1/2-y,-z
1/2+x,1/2-y,z
loop_
_atom_site_type_symbol
_atom_site_label
_atom_site_fract_x
_atom_site_fract_y
_atom_site_fract_z
Si Si1 0.479499 0.718343 0.854528
Si Si2 0.685937 0.218338 0.645371
Si Si3 0.870716 0.345034 0.579760
Si Si4 0.683962 0.654304 0.196082
Si Si5 0.799479 0.557897 0.242177
Si Si6 0.500000 0.887085 0.000000
Si Si7 0.868750 0.447771 0.537648
Si Si8 0.647843 0.184654 0.107378
O O1 0.582715 0.749475 0.746108
O O2 0.437101 0.675435 0.771308
O O3 0.386131 0.760314 0.920113
O O4 0.500000 0.697719 0.000000
O O5 0.750000 0.250000 0.500000
O O6 0.660614 0.171438 0.559982
O O7 0.754642 0.195036 0.737644
O O8 0.826827 0.399340 0.634148
O O9 0.841739 0.313040 0.729094
O O10 0.000000 0.345589 0.500000
O O11 0.707477 0.599691 0.248625
O O12 0.746761 0.661219 0.016918
O O13 0.774391 0.500000 0.218912
O O14 0.836314 0.557260 0.388941
O O15 0.904125 0.578921 0.106993
O O16 0.549966 0.851176 0.097304
O O17 0.825677 0.500000 0.611338
O O18 0.000000 0.448448 0.500000
#
# Coordination Sequence:
#
# PCOD9170180 Si02
#       8
#     8   8   8   8   8   4   8   8
#     4  12  23  40  61  84 119 159 197 240 293 357
#     4  12  25  38  59  88 117 149 195 244 298 348
#     4  11  20  32  52  79 116 151 186 233 283 341
#     4  11  24  40  58  87 118 157 202 239 293 362
#     4  10  19  34  54  82 116 156 201 247 295 350
#     4  10  17  30  50  84 120 154 193 236 296 364
#     4   9  17  29  49  76 110 152 191 232 288 352
#     4  11  20  34  56  83 120 158 190 228 290 358
#
# _framework density 19.081032
#
# number of rings (size 3 to 8) (size 9 to 14) (size 15 to 20)
#    0.000    1.200    4.667    3.800    1.867    0.000 
#    0.000    2.667    0.000    0.400    0.000    2.800 
#    0.000    0.000    0.000    0.000    0.000    0.000 
#
# Total GULP energy -167147.430257 kJ/mol
# GULP energy per Si atom -5571.581009 kJ/mol
# Density = 1.903760 g / cm^3
# Si number density = 19.081032 Si / 1000 Ang^3
#
#
#
# Elastic Constant Matrix: (Units=GPa)
#
#
# Indices 1 2 3 4 5 6 
#
# 1 48.5367 34.5078 17.7815 0.0000 19.6190 0.0000
# 2 34.5078 114.6115 3.0133 0.0000 10.8240 0.0000
# 3 17.7815 3.0133 59.5846 0.0000 14.5343 0.0000
# 4 0.0000 0.0000 0.0000 30.1658 0.0000 -12.5243
# 5 19.6190 10.8240 14.5343 0.0000 24.1420 0.0000
# 6 0.0000 0.0000 0.0000 -12.5243 0.0000 49.5936
#
#
#
# Elastic Compliance Matrix: (Units=1/GPa)
#
#
# Indices 1 2 3 4 5 6 
#
# 1 0.038970 -0.009295 -0.005217 0.000000 -0.024360 0.000000
# 2 -0.009295 0.011348 0.001874 0.000000 0.001338 0.000000
# 3 -0.005217 0.001874 0.020414 0.000000 -0.008890 0.000000
# 4 0.000000 0.000000 0.000000 0.037033 0.000000 0.009352
# 5 -0.024360 0.001338 -0.008890 0.000000 0.065970 0.000000
# 6 0.000000 0.000000 0.000000 0.009352 0.000000 0.022526
#
#
# Mechanical properties :
#
#
# Convention : Reuss Voigt Hill
#
# Bulk Modulus (GPa) = 22.00058 37.03758 29.51908
# Shear Modulus (GPa) = 21.12474 31.94228 26.53351
#
# Velocity S-wave (km/s) = 3.33093 4.09593 3.73308
# Velocity P-wave (km/s) = 5.13309 6.46697 5.83825
#
# Compressibility (1/GPa) = 0.04545334
#
# Stress axis : x y z
#
# Youngs Moduli (GPa) = 25.66098 88.11951 48.98701
#
# Poissons Ratio (x) = 0.81911 0.25558
# Poissons Ratio (y) = 0.23853 -0.09179
# Poissons Ratio (z) = 0.13388 -0.16511
#
# Static dielectric constant tensor:
#      x y z
#    x 1.715260 0.000000 0.008130 
#    y 0.000000 1.789390 0.000000 
#    z 0.008130 0.000000 1.639140 
# 
# From -- ./inp_files/54242.got.cif
#   From: 2010.05.17/outbox.cif.g08.bks.cpg/sg12_28_cif.got.tgz:54242.got - 2010.06.03 13:09:07.
