data_PCOD9170230
_publ_section_title
;
Structure prediction by ZEFSAII (Michael W. Deem and Ramdas Pophale) SiO2 
 PCOD9170230
Probable space group: C 2/M
;
_chemical_formula_sum "Si O2"
_cell_formula_units_Z 40
_cell_length_a 14.891442
_cell_length_b 11.195247
_cell_length_c 22.926583
_cell_angle_alpha 90.000000
_cell_angle_beta 149.128986
_cell_angle_gamma 90.000000
_cell_volume 1961.181474
_symmetry_space_group_name_H-M "C 2/M"
_symmetry_group_IT_number 12
_symmetry_cell_setting 'monoclinic'
loop_
_space_group_symop_operation_xyz
x,y,z
-x,y,-z
-x,-y,-z
x,-y,z
1/2+x,1/2+y,z
1/2-x,1/2+y,-z
1/2-x,1/2-y,-z
1/2+x,1/2-y,z
loop_
_atom_site_type_symbol
_atom_site_label
_atom_site_fract_x
_atom_site_fract_y
_atom_site_fract_z
Si Si1 0.981977 0.628346 0.059692
Si Si2 0.519743 0.368789 0.896228
Si Si3 0.486122 0.638921 0.738155
Si Si4 0.413233 0.137700 0.515338
Si Si5 0.687610 0.751965 0.751043
O O1 0.906037 0.500000 0.033761
O O2 0.888986 0.748374 0.029571
O O3 0.181412 0.643869 0.193960
O O4 0.000000 0.632434 0.000000
O O5 0.593622 0.500000 0.949767
O O6 0.491233 0.354722 0.810986
O O7 0.328480 0.358216 0.821039
O O8 0.526008 0.500000 0.745459
O O9 0.290411 0.665846 0.606766
O O10 0.617256 0.722899 0.775879
O O11 0.500000 0.141995 0.500000
O O12 0.523086 0.222851 0.618561
O O13 0.427135 0.000000 0.544102
#
# Coordination Sequence:
#
# PCOD9170230 Si02
#       5
#     8   8   8   8   8
#     4   9  19  36  57  78 107 144 176 217 278 327
#     4   9  19  35  57  81 108 139 181 224 265 314
#     4  10  19  33  54  80 108 147 182 213 264 326
#     4  10  17  30  52  77 109 145 180 218 264 315
#     4  10  19  31  55  77 109 137 184 221 259 317
#
# _framework density 20.395869000000001
#
# number of rings (size 3 to 8) (size 9 to 14) (size 15 to 20)
#    1.200    1.200    2.000    1.800    0.000    0.400 
#    0.000    3.000    0.000   10.800    0.000    0.000 
#    0.000    0.000    0.000    0.000    0.000    0.000 
#
# Total GULP energy -111361.675705 kJ/mol
# GULP energy per Si atom -5568.083785 kJ/mol
# Density = 2.034945 g / cm^3
# Si number density = 20.395869 Si / 1000 Ang^3
#
#
#
# Elastic Constant Matrix: (Units=GPa)
#
#
# Indices 1 2 3 4 5 6 
#
# 1 104.7569 44.1299 18.6675 0.0000 11.6209 0.0000
# 2 44.1299 133.1108 37.8913 0.0001 -14.1153 0.0000
# 3 18.6675 37.8913 90.0681 0.0004 4.5873 0.0000
# 4 0.0000 0.0001 0.0004 1.6459 0.0001 -28.1557
# 5 11.6209 -14.1153 4.5873 0.0001 28.1185 0.0000
# 6 0.0000 0.0000 0.0000 -28.1557 0.0000 -19.1149
#
#
#
# Elastic Compliance Matrix: (Units=1/GPa)
#
#
# Indices 1 2 3 4 5 6 
#
# 1 0.012479 -0.004904 -0.000136 0.000000 -0.007597 0.000000
# 2 -0.004904 0.011192 -0.004115 0.000000 0.008316 0.000000
# 3 -0.000136 -0.004115 0.013073 0.000000 -0.004142 0.000000
# 4 0.000000 0.000000 0.000000 0.023192 0.000000 -0.034161
# 5 -0.007597 0.008316 -0.004142 0.000000 0.043554 0.000000
# 6 0.000000 0.000000 0.000000 -0.034161 0.000000 -0.001997
#
#
# Mechanical properties :
#
#
# Convention : Reuss Voigt Hill
#
# Bulk Modulus (GPa) = 54.25254 58.81258 56.53256
# Shear Modulus (GPa) = 39.69895 17.27971 28.48933
#
# Velocity S-wave (km/s) = 4.41661 2.91386 3.74146
# Velocity P-wave (km/s) = 7.25714 6.34183 6.81487
#
# Compressibility (1/GPa) = 0.01843232
#
# Stress axis : x y z
#
# Youngs Moduli (GPa) = 80.13664 89.35240 76.49160
#
# Poissons Ratio (x) = 0.43816 0.01044
# Poissons Ratio (y) = 0.39297 0.31480
# Poissons Ratio (z) = 0.01093 0.36773
#
# Static dielectric constant tensor:
#      x y z
#    x 1.721870 0.000000 0.036850 
#    y 0.000000 1.756740 0.000000 
#    z 0.036850 0.000000 1.735920 
# 
# From -- ./inp_files/211611.got.cif
#   From: 2010.05.17/outbox.cif.g08.bks.cpg/sg12_106_cif.got.tgz:211611.got - 2010.06.03 13:09:07.
