data_PCOD9170471
_publ_section_title
;
Structure prediction by ZEFSAII (Michael W. Deem and Ramdas Pophale) SiO2 
 PCOD9170471
Probable space group: C 2/M
;
_chemical_formula_sum "Si O2"
_cell_formula_units_Z 56
_cell_length_a 18.784102
_cell_length_b 20.468760
_cell_length_c 12.820845
_cell_angle_alpha 90.000000
_cell_angle_beta 45.442686
_cell_angle_gamma 90.000000
_cell_volume 3512.475730
_symmetry_space_group_name_H-M "C 2/M"
_symmetry_group_IT_number 12
_symmetry_cell_setting 'monoclinic'
loop_
_space_group_symop_operation_xyz
x,y,z
-x,y,-z
-x,-y,-z
x,-y,z
1/2+x,1/2+y,z
1/2-x,1/2+y,-z
1/2-x,1/2-y,-z
1/2+x,1/2-y,z
loop_
_atom_site_type_symbol
_atom_site_label
_atom_site_fract_x
_atom_site_fract_y
_atom_site_fract_z
Si Si1 0.458947 0.422700 0.846751
Si Si2 0.761429 0.822138 0.536829
Si Si3 0.097648 0.720528 0.174581
Si Si4 0.472756 0.665228 0.410888
Si Si5 0.208347 0.828702 0.921424
Si Si6 0.125766 0.841590 0.775672
Si Si7 0.948000 0.308148 0.163910
O O1 0.459092 0.500000 0.849728
O O2 0.498109 0.392648 0.697841
O O3 0.534699 0.392075 0.854898
O O4 0.349406 0.391657 0.974800
O O5 0.750000 0.750000 0.500000
O O6 0.855198 0.821985 0.517810
O O7 0.797684 0.860074 0.396152
O O8 0.659494 0.839651 0.700202
O O9 0.177514 0.680700 0.160738
O O10 0.034122 0.770856 0.310233
O O11 0.022206 0.677939 0.183239
O O12 0.154799 0.765787 0.029951
O O13 0.500000 0.649452 0.500000
O O14 0.184436 0.833028 0.823297
O O15 0.074019 0.770467 0.810765
O O16 0.000000 0.323300 0.000000
#
# Coordination Sequence:
#
# PCOD9170471 Si02
#       7
#     8   8   8   8   8   8   8
#     4  10  20  35  51  71 101 136 178 215 247 298
#     4   9  18  29  44  68 100 133 165 201 235 305
#     4  10  19  28  43  70 104 132 161 202 253 309
#     4  10  20  32  47  73 104 137 170 206 260 304
#     4  10  19  29  45  71 101 132 161 204 256 303
#     4  10  17  32  46  69  98 130 164 207 249 294
#     4  11  17  29  47  68 101 139 159 196 253 302
#
# _framework density 15.94317
#
# number of rings (size 3 to 8) (size 9 to 14) (size 15 to 20)
#    0.000    2.000    7.143    0.429    4.000    2.571 
#    0.000    0.000    0.000    0.000    0.000    4.000 
#    0.000   17.143    0.000    0.000    0.000    0.000 
#
# Total GULP energy -155880.945309 kJ/mol
# GULP energy per Si atom -5567.176618 kJ/mol
# Density = 1.590688 g / cm^3
# Si number density = 15.943170 Si / 1000 Ang^3
#
#
#
# Elastic Constant Matrix: (Units=GPa)
#
#
# Indices 1 2 3 4 5 6 
#
# 1 172.8956 42.3668 65.6064 0.0000 -0.2731 0.0000
# 2 42.3668 49.6935 13.7518 0.0000 -3.6850 0.0000
# 3 65.6064 13.7518 104.5749 0.0000 -3.5793 0.0000
# 4 0.0000 0.0000 0.0000 2.6411 0.0000 -1.1267
# 5 -0.2731 -3.6850 -3.5793 0.0000 33.9671 0.0000
# 6 0.0000 0.0000 0.0000 -1.1267 0.0000 10.4848
#
#
#
# Elastic Compliance Matrix: (Units=1/GPa)
#
#
# Indices 1 2 3 4 5 6 
#
# 1 0.009308 -0.006637 -0.005007 0.000000 -0.001173 0.000000
# 2 -0.006637 0.025750 0.000875 0.000000 0.002832 0.000000
# 3 -0.005007 0.000875 0.012636 0.000000 0.001386 0.000000
# 4 0.000000 0.000000 0.000000 0.396819 0.000000 0.042643
# 5 -0.001173 0.002832 0.001386 0.000000 0.029884 0.000000
# 6 0.000000 0.000000 0.000000 0.042643 0.000000 0.099959
#
#
# Mechanical properties :
#
#
# Convention : Reuss Voigt Hill
#
# Bulk Modulus (GPa) = 38.23304 63.40158 50.81731
# Shear Modulus (GPa) = 8.26974 23.11453 15.69213
#
# Velocity S-wave (km/s) = 2.27997 3.81176 3.14069
# Velocity P-wave (km/s) = 5.56452 7.69586 6.71529
#
# Compressibility (1/GPa) = 0.02615539
#
# Stress axis : x y z
#
# Youngs Moduli (GPa) = 107.43009 38.83482 79.13791
#
# Poissons Ratio (x) = 0.25776 0.39625
# Poissons Ratio (y) = 0.71305 -0.06923
# Poissons Ratio (z) = 0.53791 -0.03397
#
# Static dielectric constant tensor:
#      x y z
#    x 1.557330 0.000000 -0.013280 
#    y 0.000000 1.502330 0.000000 
#    z -0.013280 0.000000 1.678370 
# 
# From -- ./inp_files/159193.got.cif
#   From: 2010.05.17/outbox.cif.g08.bks.cpg/sg12_80_cif.got.tgz:159193.got - 2010.06.03 13:09:07.
