data_PCOD9170896
_publ_section_title
;
Structure prediction by ZEFSAII (Michael W. Deem and Ramdas Pophale) SiO2 
 PCOD9170896
Probable space group: C 2/M
;
_chemical_formula_sum "Si O2"
_cell_formula_units_Z 48
_cell_length_a 18.827210
_cell_length_b 18.298980
_cell_length_c 23.975626
_cell_angle_alpha 90.000000
_cell_angle_beta 19.691432
_cell_angle_gamma 90.000000
_cell_volume 2783.261571
_symmetry_space_group_name_H-M "C 2/M"
_symmetry_group_IT_number 12
_symmetry_cell_setting 'monoclinic'
loop_
_space_group_symop_operation_xyz
x,y,z
-x,y,-z
-x,-y,-z
x,-y,z
1/2+x,1/2+y,z
1/2-x,1/2+y,-z
1/2-x,1/2-y,-z
1/2+x,1/2-y,z
loop_
_atom_site_type_symbol
_atom_site_label
_atom_site_fract_x
_atom_site_fract_y
_atom_site_fract_z
Si Si1 0.358677 0.817721 0.159705
Si Si2 0.433551 0.314016 0.320527
Si Si3 0.844275 0.417721 0.268602
Si Si4 0.618105 0.303291 0.516885
Si Si5 0.184235 0.222975 0.986347
Si Si6 0.661912 0.583617 0.064111
O O1 0.333176 0.892742 0.212717
O O2 0.124954 0.791166 0.318456
O O3 0.500000 0.825805 0.000000
O O4 0.484279 0.763790 0.108577
O O5 0.367074 0.336821 0.431557
O O6 0.249234 0.271923 0.424059
O O7 0.613502 0.251500 0.196902
O O8 0.532970 0.378219 0.209901
O O9 0.765677 0.500000 0.335083
O O10 0.721076 0.358701 0.396763
O O11 0.090996 0.415488 0.102543
O O12 0.250000 0.250000 0.000000
O O13 0.143962 0.137478 0.024305
O O14 0.597770 0.500000 0.102477
#
# Coordination Sequence:
#
# PCOD9170896 Si02
#       6
#     8   8   8   8   8   8
#     4  12  22  37  58  84 109 149 191 230 279 328
#     4  10  19  37  58  82 111 144 193 236 268 327
#     4  11  22  35  52  80 119 153 182 222 275 336
#     4  11  22  34  57  85 113 146 187 236 277 317
#     4  10  17  36  59  80 104 141 188 233 258 326
#     4  10  19  35  59  81 110 151 185 221 281 336
#
# _framework density 17.245953
#
# number of rings (size 3 to 8) (size 9 to 14) (size 15 to 20)
#    0.000    1.333    6.667    1.500    0.000    2.333 
#    0.000    0.000    0.000    2.500    0.000    0.000 
#    0.000    0.000    0.000    0.000    0.000    0.000 
#
# Total GULP energy -133823.191638 kJ/mol
# GULP energy per Si atom -5575.966318 kJ/mol
# Density = 1.720670 g / cm^3
# Si number density = 17.245953 Si / 1000 Ang^3
#
#
#
# Elastic Constant Matrix: (Units=GPa)
#
#
# Indices 1 2 3 4 5 6 
#
# 1 82.9360 41.7656 41.5032 0.0057 2.2464 0.0005
# 2 41.7656 103.5911 39.4994 0.0057 8.5290 -0.0031
# 3 41.5032 39.4994 107.4753 0.0503 -3.9681 -0.0281
# 4 0.0057 0.0057 0.0503 20.3559 -0.0076 -2.3810
# 5 2.2464 8.5290 -3.9681 -0.0076 35.3100 0.0036
# 6 0.0005 -0.0031 -0.0281 -2.3810 0.0036 16.1120
#
#
#
# Elastic Compliance Matrix: (Units=1/GPa)
#
#
# Indices 1 2 3 4 5 6 
#
# 1 0.016950 -0.005000 -0.004723 0.000007 -0.000401 -0.000009
# 2 -0.005000 0.013071 -0.002990 0.000004 -0.003175 -0.000001
# 3 -0.004723 -0.002990 0.012316 -0.000025 0.002407 0.000017
# 4 0.000007 0.000004 -0.000025 0.049990 0.000006 0.007388
# 5 -0.000401 -0.003175 0.002407 0.000006 0.029384 -0.000002
# 6 -0.000009 -0.000001 0.000017 0.007388 -0.000002 0.063157
#
#
# Mechanical properties :
#
#
# Convention : Reuss Voigt Hill
#
# Bulk Modulus (GPa) = 59.13339 59.94874 59.54106
# Shear Modulus (GPa) = 23.15568 25.77118 24.46343
#
# Velocity S-wave (km/s) = 3.66823 3.86985 3.77039
# Velocity P-wave (km/s) = 7.23214 7.40299 7.31806
#
# Compressibility (1/GPa) = 0.01691092
#
# Stress axis : x y z
#
# Youngs Moduli (GPa) = 58.99861 76.50657 81.19514
#
# Poissons Ratio (x) = 0.38253 0.38345
# Poissons Ratio (y) = 0.29499 0.24279
# Poissons Ratio (z) = 0.27863 0.22877
#
# Static dielectric constant tensor:
#      x y z
#    x 1.605990 0.000000 0.021720 
#    y 0.000000 1.600860 0.000030 
#    z 0.021720 0.000030 1.628750 
# 
# From -- ./inp_files/75110.got.cif
#   From: 2010.05.17/outbox.cif.g08.bks.cpg/sg12_38_cif.got.tgz:75110.got - 2010.06.03 13:09:07.
