data_PCOD9170639
_publ_section_title
;
Structure prediction by ZEFSAII (Michael W. Deem and Ramdas Pophale) SiO2 
 PCOD9170639
Probable space group: C 2/M
;
_chemical_formula_sum "Si O2"
_cell_formula_units_Z 48
_cell_length_a 25.150088
_cell_length_b 13.887235
_cell_length_c 14.205258
_cell_angle_alpha 90.000000
_cell_angle_beta 151.618388
_cell_angle_gamma 90.000000
_cell_volume 2358.362156
_symmetry_space_group_name_H-M "C 2/M"
_symmetry_group_IT_number 12
_symmetry_cell_setting 'monoclinic'
loop_
_space_group_symop_operation_xyz
x,y,z
-x,y,-z
-x,-y,-z
x,-y,z
1/2+x,1/2+y,z
1/2-x,1/2+y,-z
1/2-x,1/2-y,-z
1/2+x,1/2-y,z
loop_
_atom_site_type_symbol
_atom_site_label
_atom_site_fract_x
_atom_site_fract_y
_atom_site_fract_z
Si Si1 0.618452 0.388331 0.632908
Si Si2 0.461202 0.702849 0.683731
Si Si3 0.178821 0.608366 0.569752
Si Si4 0.700529 0.744567 0.101728
Si Si5 0.294791 0.357703 0.563572
Si Si6 0.384627 0.106990 0.872773
O O1 0.500000 0.379037 0.500000
O O2 0.653776 0.500000 0.691318
O O3 0.595408 0.354462 0.490053
O O4 0.712533 0.314435 0.815683
O O5 0.413439 0.812554 0.606232
O O6 0.418083 0.650789 0.711800
O O7 0.593564 0.706437 0.880042
O O8 0.136150 0.500000 0.518217
O O9 0.234531 0.656724 0.747829
O O10 0.271117 0.603323 0.630031
O O11 0.649703 0.812699 0.105771
O O12 0.250000 0.250000 0.500000
O O13 0.211851 0.400315 0.356085
O O14 0.399640 0.000000 0.938915
O O15 0.500000 0.132553 0.000000
#
# Coordination Sequence:
#
# PCOD9170639 Si02
#       6
#     8   8   8   8   8   8
#     4  10  22  42  65  87 112 144 189 243 296 346
#     4  10  22  37  59  83 115 150 189 240 289 338
#     4  10  21  36  53  80 118 160 194 228 273 335
#     4  11  22  36  59  84 116 152 188 238 280 347
#     4  10  17  33  50  75 115 156 188 228 275 327
#     4  11  20  30  53  83 112 151 198 238 274 328
#
# _framework density 20.353109
#
# number of rings (size 3 to 8) (size 9 to 14) (size 15 to 20)
#    0.000    1.667    5.000    3.000    0.000    4.667 
#    0.000    0.833    0.000    8.000    0.000    0.000 
#    0.000    0.000    0.000    0.000    0.000    0.000 
#
# Total GULP energy -133891.577389 kJ/mol
# GULP energy per Si atom -5578.815725 kJ/mol
# Density = 2.030678 g / cm^3
# Si number density = 20.353109 Si / 1000 Ang^3
#
#
#
# Elastic Constant Matrix: (Units=GPa)
#
#
# Indices 1 2 3 4 5 6 
#
# 1 41.3254 10.1130 -2.1089 0.0000 20.1900 0.0000
# 2 10.1130 73.8925 -0.0104 0.0000 4.6350 0.0000
# 3 -2.1089 -0.0104 86.7187 0.0000 19.3134 0.0000
# 4 0.0000 0.0000 0.0000 9.9102 0.0000 -0.9601
# 5 20.1900 4.6350 19.3134 0.0000 23.5781 0.0000
# 6 0.0000 0.0000 0.0000 -0.9601 0.0000 -7.0182
#
#
#
# Elastic Compliance Matrix: (Units=1/GPa)
#
#
# Indices 1 2 3 4 5 6 
#
# 1 0.053279 -0.003765 0.013811 0.000000 -0.056196 0.000000
# 2 -0.003765 0.014007 -0.000238 0.000000 0.000665 0.000000
# 3 0.013811 -0.000238 0.017724 0.000000 -0.026298 0.000000
# 4 0.000000 0.000000 0.000000 0.099587 0.000000 -0.013624
# 5 -0.056196 0.000665 -0.026298 0.000000 0.111943 0.000000
# 6 0.000000 0.000000 0.000000 -0.013624 0.000000 -0.140622
#
#
# Mechanical properties :
#
#
# Convention : Reuss Voigt Hill
#
# Bulk Modulus (GPa) = 9.55785 24.21375 16.88580
# Shear Modulus (GPa) = 29.20948 18.22354 23.71651
#
# Velocity S-wave (km/s) = 3.79243 2.99552 3.41728
# Velocity P-wave (km/s) = 4.88701 4.88742 4.88721
#
# Compressibility (1/GPa) = 0.10462603
#
# Stress axis : x y z
#
# Youngs Moduli (GPa) = 18.76895 71.39456 56.41993
#
# Poissons Ratio (x) = 0.26879 -0.77921
# Poissons Ratio (y) = 0.07066 0.01343
# Poissons Ratio (z) = -0.25921 0.01700
#
# Static dielectric constant tensor:
#      x y z
#    x 1.745760 0.000000 0.011180 
#    y 0.000000 1.733620 0.000000 
#    z 0.011180 0.000000 1.738900 
# 
# From -- ./inp_files/240761.got.cif
#   From: 2010.05.17/outbox.cif.g08.bks.cpg/sg12_121_cif.got.tgz:240761.got - 2010.06.03 13:09:07.
