data_PCOD9170285
_publ_section_title
;
Structure prediction by ZEFSAII (Michael W. Deem and Ramdas Pophale) SiO2 
 PCOD9170285
Probable space group: C 2/M
;
_chemical_formula_sum "Si O2"
_cell_formula_units_Z 52
_cell_length_a 7.401468
_cell_length_b 20.675349
_cell_length_c 24.123093
_cell_angle_alpha 90.000000
_cell_angle_beta 141.904394
_cell_angle_gamma 90.000000
_cell_volume 2277.569515
_symmetry_space_group_name_H-M "C 2/M"
_symmetry_group_IT_number 12
_symmetry_cell_setting 'monoclinic'
loop_
_space_group_symop_operation_xyz
x,y,z
-x,y,-z
-x,-y,-z
x,-y,z
1/2+x,1/2+y,z
1/2-x,1/2+y,-z
1/2-x,1/2-y,-z
1/2+x,1/2-y,z
loop_
_atom_site_type_symbol
_atom_site_label
_atom_site_fract_x
_atom_site_fract_y
_atom_site_fract_z
Si Si1 0.728618 0.075990 0.173595
Si Si2 0.294600 0.850358 0.346919
Si Si3 0.293458 0.790432 0.647390
Si Si4 0.854042 0.896418 0.523867
Si Si5 0.239670 0.500000 0.334250
Si Si6 0.659303 0.575589 0.978048
Si Si7 0.096713 0.387473 0.790946
O O1 0.558650 0.084166 0.191334
O O2 0.023136 0.115510 0.252517
O O3 0.786322 0.000000 0.180192
O O4 0.492780 0.096569 0.069936
O O5 0.512627 0.821073 0.354067
O O6 0.198269 0.785964 0.355468
O O7 0.506786 0.895937 0.433959
O O8 0.451702 0.819431 0.740121
O O9 0.977531 0.824319 0.564825
O O10 0.000000 0.918736 0.500000
O O11 0.004554 0.943521 0.603583
O O12 0.989957 0.442254 0.274305
O O13 0.661142 0.500000 0.961578
O O14 0.442812 0.614069 0.885542
O O15 0.500000 0.577810 0.000000
#
# Coordination Sequence:
#
# PCOD9170285 Si02
#       7
#     8   8   8   8   4   8   8
#     4  10  20  35  57  87 119 149 183 230 286 329
#     4  11  22  40  57  80 116 148 195 235 280 332
#     4  10  22  38  60  82 106 156 191 234 279 334
#     4   9  20  35  55  81 112 149 188 229 281 337
#     4  10  17  30  54  86 113 144 183 220 278 332
#     4   8  14  29  55  83 112 149 183 223 275 336
#     4  10  17  35  59  86 115 143 191 227 277 338
#
# _framework density 22.831356
#
# number of rings (size 3 to 8) (size 9 to 14) (size 15 to 20)
#    0.000    2.308    1.538    2.538    1.077    0.000 
#    5.538    8.462    0.000    1.846    0.000    0.000 
#    0.000    0.000    0.000    0.000    0.000    0.000 
#
# Total GULP energy -144769.795166 kJ/mol
# GULP energy per Si atom -5568.069045 kJ/mol
# Density = 2.277939 g / cm^3
# Si number density = 22.831356 Si / 1000 Ang^3
#
#
#
# Elastic Constant Matrix: (Units=GPa)
#
#
# Indices 1 2 3 4 5 6 
#
# 1 36.6930 20.0576 19.8397 -0.0016 10.5373 -0.0020
# 2 20.0576 45.1088 40.4187 -0.0006 12.6384 0.0004
# 3 19.8397 40.4187 199.6974 -0.0004 33.1786 -0.0041
# 4 -0.0016 -0.0006 -0.0004 27.3085 -0.0012 -6.3030
# 5 10.5373 12.6384 33.1786 -0.0012 23.8888 -0.0022
# 6 -0.0020 0.0004 -0.0041 -6.3030 -0.0022 29.3449
#
#
#
# Elastic Compliance Matrix: (Units=1/GPa)
#
#
# Indices 1 2 3 4 5 6 
#
# 1 0.037732 -0.014770 0.000920 0.000002 -0.010107 0.000003
# 2 -0.014770 0.034338 -0.004611 -0.000001 -0.005248 -0.000003
# 3 0.000920 -0.004611 0.007165 0.000000 -0.007918 0.000000
# 4 0.000002 -0.000001 0.000000 0.038529 0.000003 0.008276
# 5 -0.010107 -0.005248 -0.007918 0.000003 0.060092 0.000003
# 6 0.000003 -0.000003 0.000000 0.008276 0.000003 0.035855
#
#
# Mechanical properties :
#
#
# Convention : Reuss Voigt Hill
#
# Bulk Modulus (GPa) = 23.63329 49.12570 36.37949
# Shear Modulus (GPa) = 18.88673 29.52066 24.20369
#
# Velocity S-wave (km/s) = 2.87928 3.59971 3.25946
# Velocity P-wave (km/s) = 4.62897 6.23223 5.48945
#
# Compressibility (1/GPa) = 0.04231319
#
# Stress axis : x y z
#
# Youngs Moduli (GPa) = 26.50264 29.12250 139.57053
#
# Poissons Ratio (x) = 0.43014 -0.12842
# Poissons Ratio (y) = 0.39145 0.64351
# Poissons Ratio (z) = -0.02439 0.13427
#
# Static dielectric constant tensor:
#      x y z
#    x 2.004600 0.000000 -0.074930 
#    y 0.000000 1.720800 0.000000 
#    z -0.074930 0.000000 1.917100 
# 
# From -- ./inp_files/258425.got.cif
#   From: 2010.05.17/outbox.cif.g08.bks.cpg/sg12_130_cif.got.tgz:258425.got - 2010.06.03 13:09:07.
