data_PCOD9170290
_publ_section_title
;
Structure prediction by ZEFSAII (Michael W. Deem and Ramdas Pophale) SiO2 
 PCOD9170290
Probable space group: C 2/M
;
_chemical_formula_sum "Si O2"
_cell_formula_units_Z 64
_cell_length_a 29.582115
_cell_length_b 7.550383
_cell_length_c 14.916123
_cell_angle_alpha 90.000000
_cell_angle_beta 58.849585
_cell_angle_gamma 90.000000
_cell_volume 2851.232670
_symmetry_space_group_name_H-M "C 2/M"
_symmetry_group_IT_number 12
_symmetry_cell_setting 'monoclinic'
loop_
_space_group_symop_operation_xyz
x,y,z
-x,y,-z
-x,-y,-z
x,-y,z
1/2+x,1/2+y,z
1/2-x,1/2+y,-z
1/2-x,1/2-y,-z
1/2+x,1/2-y,z
loop_
_atom_site_type_symbol
_atom_site_label
_atom_site_fract_x
_atom_site_fract_y
_atom_site_fract_z
Si Si1 0.602467 0.794110 0.544230
Si Si2 0.805507 0.287916 0.896932
Si Si3 0.984507 0.707380 0.610397
Si Si4 0.268742 0.713166 0.378952
Si Si5 0.183378 0.284277 0.318600
Si Si6 0.116630 0.199060 0.724056
Si Si7 0.499429 0.793428 0.099920
Si Si8 0.583301 0.782363 0.159394
O O1 0.539500 0.787177 0.607249
O O2 0.628286 0.736605 0.424057
O O3 0.622584 0.694587 0.610341
O O4 0.617804 0.000000 0.541197
O O5 0.810489 0.500000 0.886088
O O6 0.809237 0.220325 0.790427
O O7 0.855759 0.227476 0.904377
O O8 0.750000 0.250000 0.000000
O O9 0.970150 0.500000 0.607166
O O10 0.000000 0.789811 0.500000
O O11 0.939782 0.777825 0.720928
O O12 0.271401 0.500000 0.369795
O O13 0.250000 0.750000 0.500000
O O14 0.227935 0.773426 0.344431
O O15 0.328223 0.781659 0.300553
O O16 0.184943 0.500000 0.312719
O O17 0.060469 0.285821 0.802521
O O18 0.112578 0.000000 0.763924
O O19 0.543185 0.719426 0.123547
O O20 0.513854 0.000000 0.075983
O O21 0.500000 0.713701 0.000000
O O22 0.580639 0.000000 0.162111
#
# Coordination Sequence:
#
# PCOD9170290 Si02
#       8
#     8   8   8   8   8   8   8   8
#     4  10  17  30  55  80 105 139 179 220 266 322
#     4  10  21  38  58  80 108 142 183 229 273 318
#     4   9  15  24  47  82 107 127 167 220 268 310
#     4  10  20  34  53  79 111 147 184 223 271 328
#     4   9  18  33  55  81 107 140 183 228 269 317
#     4  11  22  34  51  79 114 146 176 218 275 328
#     4  10  21  38  59  81 106 142 188 230 266 315
#     4   9  17  32  54  80 106 133 174 226 265 307
#
# _framework density 22.446431
#
# number of rings (size 3 to 8) (size 9 to 14) (size 15 to 20)
#    0.000    2.250    2.500    1.125    0.000    4.750 
#    0.000    1.875    0.000    0.375    0.000    0.000 
#    0.000    0.000    0.000    0.000    0.000    0.000 
#
# Total GULP energy -178581.203717 kJ/mol
# GULP energy per Si atom -5580.662616 kJ/mol
# Density = 2.239534 g / cm^3
# Si number density = 22.446431 Si / 1000 Ang^3
#
#
#
# Elastic Constant Matrix: (Units=GPa)
#
#
# Indices 1 2 3 4 5 6 
#
# 1 124.3727 8.5012 70.8898 0.0000 -14.5967 0.0000
# 2 8.5012 48.1371 -5.1676 -0.0001 0.5905 -0.0001
# 3 70.8898 -5.1676 131.2352 0.0000 -12.1317 0.0000
# 4 0.0000 -0.0001 0.0000 5.7372 0.0000 -5.0934
# 5 -14.5967 0.5905 -12.1317 0.0000 31.9576 0.0000
# 6 0.0000 -0.0001 0.0000 -5.0934 0.0000 8.3129
#
#
#
# Elastic Compliance Matrix: (Units=1/GPa)
#
#
# Indices 1 2 3 4 5 6 
#
# 1 0.012299 -0.002905 -0.006460 0.000000 0.003219 0.000000
# 2 -0.002905 0.021549 0.002340 0.000001 -0.000837 0.000001
# 3 -0.006460 0.002340 0.011322 0.000000 0.001304 0.000000
# 4 0.000000 0.000001 0.000000 0.382197 0.000000 0.234176
# 5 0.003219 -0.000837 0.001304 0.000000 0.033272 0.000000
# 6 0.000000 0.000001 0.000000 0.234176 0.000000 0.263776
#
#
# Mechanical properties :
#
#
# Convention : Reuss Voigt Hill
#
# Bulk Modulus (GPa) = 32.13394 50.24354 41.18874
# Shear Modulus (GPa) = 6.67701 24.50299 15.59000
#
# Velocity S-wave (km/s) = 1.72659 3.30755 2.63828
# Velocity P-wave (km/s) = 4.28039 6.08432 5.26026
#
# Compressibility (1/GPa) = 0.03111974
#
# Stress axis : x y z
#
# Youngs Moduli (GPa) = 81.30747 46.40682 88.32061
#
# Poissons Ratio (x) = 0.13482 0.57059
# Poissons Ratio (y) = 0.23620 -0.20671
# Poissons Ratio (z) = 0.52528 -0.10861
#
# Static dielectric constant tensor:
#      x y z
#    x 1.851130 0.000000 0.007450 
#    y 0.000000 1.877310 0.000000 
#    z 0.007450 0.000000 1.809520 
# 
# From -- ./inp_files/248953.got.cif
#   From: 2010.05.17/outbox.cif.g08.bks.cpg/sg12_125_cif.got.tgz:248953.got - 2010.06.03 13:09:07.
