data_PCOD9170211
_publ_section_title
;
Structure prediction by ZEFSAII (Michael W. Deem and Ramdas Pophale) SiO2 
 PCOD9170211
Probable space group: C 2/M
;
_chemical_formula_sum "Si O2"
_cell_formula_units_Z 42
_cell_length_a 19.264906
_cell_length_b 11.891743
_cell_length_c 10.688809
_cell_angle_alpha 90.000000
_cell_angle_beta 39.179080
_cell_angle_gamma 90.000000
_cell_volume 1546.979078
_symmetry_space_group_name_H-M "C 2/M"
_symmetry_group_IT_number 12
_symmetry_cell_setting 'monoclinic'
loop_
_space_group_symop_operation_xyz
x,y,z
-x,y,-z
-x,-y,-z
x,-y,z
1/2+x,1/2+y,z
1/2-x,1/2+y,-z
1/2-x,1/2-y,-z
1/2+x,1/2-y,z
loop_
_atom_site_type_symbol
_atom_site_label
_atom_site_fract_x
_atom_site_fract_y
_atom_site_fract_z
Si Si1 0.580493 0.129472 0.024608
Si Si2 0.195574 0.374645 0.594280
Si Si3 0.500000 0.000000 0.500000
Si Si4 0.824777 0.878505 0.766369
Si Si5 0.166261 0.658829 0.366847
Si Si6 0.909832 0.873159 0.929538
O O1 0.623327 0.131028 0.820439
O O2 0.692365 0.131145 0.952671
O O3 0.531536 0.255580 0.116638
O O4 0.539441 0.000000 0.099651
O O5 0.253117 0.500000 0.522903
O O6 0.250000 0.250000 0.500000
O O7 0.133061 0.381788 0.549182
O O8 0.595380 0.095510 0.364610
O O9 0.858983 0.788031 0.617844
O O10 0.855512 0.000000 0.675593
O O11 0.874832 0.864854 0.833032
O O12 0.294443 0.632922 0.167416
O O13 0.956606 0.000000 0.885734
#
# Coordination Sequence:
#
# PCOD9170211 Si02
#       6
#     8   8   2   8   8   8
#     4   9  17  26  41  72 106 132 156 213 290 319
#     4  11  19  29  49  74 107 139 171 228 275 325
#     4  12  24  36  50  72 118 164 184 204 236 342
#     4   9  18  31  51  79 104 130 177 236 283 304
#     4  11  20  34  49  76 109 148 182 206 264 331
#     4  10  17  30  51  78 106 134 175 226 278 319
#
# _framework density 27.149688000000001
#
# number of rings (size 3 to 8) (size 9 to 14) (size 15 to 20)
#    0.000    1.905    5.714    2.286    0.000    0.000 
#    1.714    0.476    0.000    0.000    0.000   10.667 
#    0.000    3.048    0.000    0.000    0.000    0.000 
#
# Total GULP energy -117054.291166 kJ/mol
# GULP energy per Si atom -5574.013865 kJ/mol
# Density = 2.708789 g / cm^3
# Si number density = 27.149688 Si / 1000 Ang^3
#
#
#
# Elastic Constant Matrix: (Units=GPa)
#
#
# Indices 1 2 3 4 5 6 
#
# 1 42.1062 46.7580 31.3878 0.0000 9.8553 0.0000
# 2 46.7580 372.2709 63.7666 0.0000 15.6436 0.0000
# 3 31.3878 63.7666 94.4040 0.0000 13.4500 0.0000
# 4 0.0000 0.0000 0.0000 49.5681 0.0000 0.5367
# 5 9.8553 15.6436 13.4500 0.0000 40.6505 0.0000
# 6 0.0000 0.0000 0.0000 0.5367 0.0000 36.8680
#
#
#
# Elastic Compliance Matrix: (Units=1/GPa)
#
#
# Indices 1 2 3 4 5 6 
#
# 1 0.034399 -0.002584 -0.009073 0.000000 -0.004343 0.000000
# 2 -0.002584 0.003242 -0.001304 0.000000 -0.000190 0.000000
# 3 -0.009073 -0.001304 0.014803 0.000000 -0.002196 0.000000
# 4 0.000000 0.000000 0.000000 0.020177 0.000000 -0.000294
# 5 -0.004343 -0.000190 -0.002196 0.000000 0.026453 0.000000
# 6 0.000000 0.000000 0.000000 -0.000294 0.000000 0.027128
#
#
# Mechanical properties :
#
#
# Convention : Reuss Voigt Hill
#
# Bulk Modulus (GPa) = 37.70357 88.06731 62.88544
# Shear Modulus (GPa) = 31.06283 49.87522 40.46902
#
# Velocity S-wave (km/s) = 3.38617 4.29073 3.86500
# Velocity P-wave (km/s) = 5.40423 7.55349 6.56738
#
# Compressibility (1/GPa) = 0.02652269
#
# Stress axis : x y z
#
# Youngs Moduli (GPa) = 29.07078 308.44597 67.55424
#
# Poissons Ratio (x) = 0.79701 0.61291
# Poissons Ratio (y) = 0.07512 0.08807
# Poissons Ratio (z) = 0.26376 0.40213
#
# Static dielectric constant tensor:
#      x y z
#    x 2.229810 0.000000 -0.017800 
#    y 0.000000 2.139100 0.000000 
#    z -0.017800 0.000000 2.104410 
# 
# From -- ./inp_files/163940.got.cif
#   From: 2010.05.17/outbox.cif.g08.bks.cpg/sg12_82_cif.got.tgz:163940.got - 2010.06.03 13:09:07.
