data_PCOD9170880
_publ_section_title
;
Structure prediction by ZEFSAII (Michael W. Deem and Ramdas Pophale) SiO2 
 PCOD9170880
Probable space group: C 2/M
;
_chemical_formula_sum "Si O2"
_cell_formula_units_Z 58
_cell_length_a 9.146214
_cell_length_b 30.659101
_cell_length_c 11.655304
_cell_angle_alpha 90.000000
_cell_angle_beta 102.227528
_cell_angle_gamma 90.000000
_cell_volume 3194.174301
_symmetry_space_group_name_H-M "C 2/M"
_symmetry_group_IT_number 12
_symmetry_cell_setting 'monoclinic'
loop_
_space_group_symop_operation_xyz
x,y,z
-x,y,-z
-x,-y,-z
x,-y,z
1/2+x,1/2+y,z
1/2-x,1/2+y,-z
1/2-x,1/2-y,-z
1/2+x,1/2-y,z
loop_
_atom_site_type_symbol
_atom_site_label
_atom_site_fract_x
_atom_site_fract_y
_atom_site_fract_z
Si Si1 0.228369 0.433781 0.955418
Si Si2 0.894428 0.549810 0.809919
Si Si3 0.613852 0.141558 0.274148
Si Si4 0.792300 0.699781 0.916359
Si Si5 0.120782 0.720813 0.423698
Si Si6 0.786072 0.340870 0.154123
Si Si7 0.952962 0.223899 0.808736
Si Si8 0.500000 0.500000 0.000000
O O1 0.261530 0.385102 0.917539
O O2 0.371264 0.462743 0.954178
O O3 0.072178 0.447202 0.867441
O O4 0.189603 0.440052 0.083808
O O5 0.859139 0.500000 0.769089
O O6 0.856375 0.589901 0.718484
O O7 0.662552 0.159210 0.156926
O O8 0.680078 0.176072 0.375429
O O9 0.435122 0.149276 0.250030
O O10 0.879573 0.741286 0.882671
O O11 0.616361 0.708382 0.871578
O O12 0.827865 0.690063 0.053745
O O13 0.250000 0.750000 0.500000
O O14 0.045967 0.750424 0.311473
O O15 0.000000 0.710235 0.500000
O O16 0.659183 0.317247 0.206444
#
# Coordination Sequence:
#
# PCOD9170880 Si02
#       8
#     8   8   8   8   8   8   8   2
#     4  10  20  30  51  73 116 154 189 211 258 312
#     4  10  17  36  52  77 106 153 186 223 259 325
#     4  10  21  35  58  80 104 142 194 220 276 332
#     4  11  21  35  49  75 112 147 176 217 260 331
#     4  11  22  40  58  75 102 138 181 244 290 329
#     4  11  21  34  50  79 115 151 174 222 256 324
#     4  11  23  35  52  76 104 141 189 217 278 334
#     4  12  20  30  44  76 108 150 202 208 246 298
#
# _framework density 18.158056999999999
#
# number of rings (size 3 to 8) (size 9 to 14) (size 15 to 20)
#    0.000    1.379    2.759    5.793    1.931    2.207 
#    0.000    0.000    0.000    0.414    0.000    0.000 
#    0.000    1.931    0.000    0.000    0.000    0.000 
#
# Total GULP energy -161676.880356 kJ/mol
# GULP energy per Si atom -5575.064840 kJ/mol
# Density = 1.811673 g / cm^3
# Si number density = 18.158057 Si / 1000 Ang^3
#
#
#
# Elastic Constant Matrix: (Units=GPa)
#
#
# Indices 1 2 3 4 5 6 
#
# 1 47.4900 29.4776 -8.6262 0.0000 -1.4493 0.0000
# 2 29.4776 150.4931 21.5342 0.0000 0.9077 0.0000
# 3 -8.6262 21.5342 45.7224 0.0000 -6.6791 0.0000
# 4 0.0000 0.0000 0.0000 -1.9384 0.0000 15.7826
# 5 -1.4493 0.9077 -6.6791 0.0000 20.7129 0.0000
# 6 0.0000 0.0000 0.0000 15.7826 0.0000 24.2754
#
#
#
# Elastic Compliance Matrix: (Units=1/GPa)
#
#
# Indices 1 2 3 4 5 6 
#
# 1 0.026912 -0.006577 0.008912 0.000000 0.005045 0.000000
# 2 -0.006577 0.008775 -0.005769 0.000000 -0.002705 0.000000
# 3 0.008912 -0.005769 0.027702 0.000000 0.009809 0.000000
# 4 0.000000 0.000000 0.000000 -0.081972 0.000000 0.053293
# 5 0.005045 -0.002705 0.009809 0.000000 0.051914 0.000000
# 6 0.000000 0.000000 0.000000 0.053293 0.000000 0.006545
#
#
# Mechanical properties :
#
#
# Convention : Reuss Voigt Hill
#
# Bulk Modulus (GPa) = 17.69224 36.49743 27.09483
# Shear Modulus (GPa) = 76.23654 22.03132 49.13393
#
# Velocity S-wave (km/s) = 6.48661 3.48704 5.20747
# Velocity P-wave (km/s) = 8.11579 6.02960 7.14920
#
# Compressibility (1/GPa) = 0.05652197
#
# Stress axis : x y z
#
# Youngs Moduli (GPa) = 37.15769 113.96177 36.09798
#
# Poissons Ratio (x) = 0.74954 -0.32171
# Poissons Ratio (y) = 0.24439 0.20824
# Poissons Ratio (z) = -0.33115 0.65742
#
# Static dielectric constant tensor:
#      x y z
#    x 1.636790 0.000000 -0.001970 
#    y 0.000000 1.671280 0.000000 
#    z -0.001970 0.000000 1.633190 
# 
# From -- ./inp_files/125300.got.cif
#   From: 2010.05.17/outbox.cif.g08.bks.cpg/sg12_63_cif.got.tgz:125300.got - 2010.06.03 13:09:07.
