data_PCOD9170809
_publ_section_title
;
Structure prediction by ZEFSAII (Michael W. Deem and Ramdas Pophale) SiO2 
 PCOD9170809
Probable space group: C 2/M
;
_chemical_formula_sum "Si O2"
_cell_formula_units_Z 56
_cell_length_a 24.778743
_cell_length_b 15.525876
_cell_length_c 9.896788
_cell_angle_alpha 90.000000
_cell_angle_beta 132.295128
_cell_angle_gamma 90.000000
_cell_volume 2816.296744
_symmetry_space_group_name_H-M "C 2/M"
_symmetry_group_IT_number 12
_symmetry_cell_setting 'monoclinic'
loop_
_space_group_symop_operation_xyz
x,y,z
-x,y,-z
-x,-y,-z
x,-y,z
1/2+x,1/2+y,z
1/2-x,1/2+y,-z
1/2-x,1/2-y,-z
1/2+x,1/2-y,z
loop_
_atom_site_type_symbol
_atom_site_label
_atom_site_fract_x
_atom_site_fract_y
_atom_site_fract_z
Si Si1 0.841602 0.404656 0.016706
Si Si2 0.954576 0.737368 0.720533
Si Si3 0.538457 0.594905 0.427211
Si Si4 0.802952 0.099985 0.856407
Si Si5 0.853401 0.672946 0.315372
Si Si6 0.114714 0.265706 0.111864
Si Si7 0.821593 0.130533 0.189457
O O1 0.867609 0.500000 0.023907
O O2 0.878976 0.372076 0.219163
O O3 0.840810 0.339378 0.890085
O O4 0.757864 0.405507 0.921008
O O5 0.963682 0.837087 0.694440
O O6 0.918347 0.688750 0.531952
O O7 0.900748 0.724457 0.756006
O O8 0.036204 0.718242 0.907080
O O9 0.500000 0.628313 0.500000
O O10 0.509480 0.500000 0.347542
O O11 0.622022 0.590772 0.612447
O O12 0.717316 0.126051 0.736437
O O13 0.845413 0.173716 0.843942
O O14 0.807828 0.000000 0.819602
O O15 0.840394 0.108763 0.067138
O O16 0.824979 0.766985 0.219584
#
# Coordination Sequence:
#
# PCOD9170809 Si02
#       7
#     8   8   8   8   8   8   8
#     4  11  21  38  65  90 116 153 201 257 303 349
#     4  10  25  39  62  81 127 165 196 254 302 358
#     4  10  20  34  57  92 124 157 201 243 297 364
#     4  11  20  35  63  92 125 161 195 246 305 362
#     4  10  19  38  61  92 117 153 202 254 293 353
#     4  11  23  44  57  89 121 165 206 239 308 373
#     4  10  17  34  59  90 122 150 197 254 291 352
#
# _framework density 19.884267999999999
#
# number of rings (size 3 to 8) (size 9 to 14) (size 15 to 20)
#    0.000    1.571    2.857    4.286    2.000    2.857 
#    0.000    6.429    0.000    0.000    0.000    0.000 
#    0.000    0.000    0.000    0.000    0.000    0.000 
#
# Total GULP energy -156102.419497 kJ/mol
# GULP energy per Si atom -5575.086411 kJ/mol
# Density = 1.983901 g / cm^3
# Si number density = 19.884268 Si / 1000 Ang^3
#
#
#
# Elastic Constant Matrix: (Units=GPa)
#
#
# Indices 1 2 3 4 5 6 
#
# 1 52.1987 21.4800 0.0875 0.0000 -16.5226 0.0000
# 2 21.4800 121.8654 11.3598 0.0000 -13.6338 0.0000
# 3 0.0875 11.3598 47.1883 0.0000 -5.5918 0.0000
# 4 0.0000 0.0000 0.0000 -3.0953 0.0000 9.3933
# 5 -16.5226 -13.6338 -5.5918 0.0000 22.8821 0.0000
# 6 0.0000 0.0000 0.0000 9.3933 0.0000 -19.5307
#
#
#
# Elastic Compliance Matrix: (Units=1/GPa)
#
#
# Indices 1 2 3 4 5 6 
#
# 1 0.025924 -0.002845 0.002733 0.000000 0.017692 0.000000
# 2 -0.002845 0.009214 -0.001860 0.000000 0.002981 0.000000
# 3 0.002733 -0.001860 0.022385 0.000000 0.006336 0.000000
# 4 0.000000 0.000000 0.000000 0.703005 0.000000 0.338111
# 5 0.017692 0.002981 0.006336 0.000000 0.059802 0.000000
# 6 0.000000 0.000000 0.000000 0.338111 0.000000 0.111414
#
#
# Mechanical properties :
#
#
# Convention : Reuss Voigt Hill
#
# Bulk Modulus (GPa) = 18.66346 31.90076 25.28211
# Shear Modulus (GPa) = 5.24359 12.60623 8.92491
#
# Velocity S-wave (km/s) = 1.62566 2.52063 2.12089
# Velocity P-wave (km/s) = 3.59585 4.95474 4.32895
#
# Compressibility (1/GPa) = 0.05358064
#
# Stress axis : x y z
#
# Youngs Moduli (GPa) = 38.57475 108.52945 44.67258
#
# Poissons Ratio (x) = 0.30875 -0.12210
# Poissons Ratio (y) = 0.10974 0.08307
# Poissons Ratio (z) = -0.10543 0.20182
#
# Static dielectric constant tensor:
#      x y z
#    x 1.714470 0.000000 0.025930 
#    y 0.000000 1.929400 0.000000 
#    z 0.025930 0.000000 1.702310 
# 
# From -- ./inp_files/96786.got.cif
#   From: 2010.05.17/outbox.cif.g08.bks.cpg/sg12_49_cif.got.tgz:96786.got - 2010.06.03 13:09:07.
