data_PCOD9170288
_publ_section_title
;
Structure prediction by ZEFSAII (Michael W. Deem and Ramdas Pophale) SiO2 
 PCOD9170288
Probable space group: C 2/M
;
_chemical_formula_sum "Si O2"
_cell_formula_units_Z 64
_cell_length_a 11.828089
_cell_length_b 26.097665
_cell_length_c 22.403186
_cell_angle_alpha 90.000000
_cell_angle_beta 29.873009
_cell_angle_gamma 90.000000
_cell_volume 3444.486745
_symmetry_space_group_name_H-M "C 2/M"
_symmetry_group_IT_number 12
_symmetry_cell_setting 'monoclinic'
loop_
_space_group_symop_operation_xyz
x,y,z
-x,y,-z
-x,-y,-z
x,-y,z
1/2+x,1/2+y,z
1/2-x,1/2+y,-z
1/2-x,1/2-y,-z
1/2+x,1/2-y,z
loop_
_atom_site_type_symbol
_atom_site_label
_atom_site_fract_x
_atom_site_fract_y
_atom_site_fract_z
Si Si1 0.864680 0.558907 0.775094
Si Si2 0.262757 0.314657 0.368166
Si Si3 0.964058 0.847031 0.646492
Si Si4 0.141677 0.223175 0.990422
Si Si5 0.628238 0.445392 0.504071
Si Si6 0.729263 0.658845 0.770972
Si Si7 0.710167 0.200963 0.592656
Si Si8 0.030335 0.355602 0.780503
O O1 0.779144 0.500000 0.821945
O O2 0.738023 0.600134 0.790475
O O3 0.107845 0.554411 0.631888
O O4 0.913808 0.590890 0.814207
O O5 0.441166 0.339443 0.331491
O O6 0.323685 0.330756 0.273569
O O7 0.279328 0.254534 0.377741
O O8 0.000000 0.330005 0.500000
O O9 0.062854 0.899376 0.575621
O O10 0.088289 0.804238 0.547599
O O11 0.693915 0.850771 0.762451
O O12 0.954967 0.186088 0.104112
O O13 0.250000 0.250000 0.000000
O O14 0.342649 0.188687 0.870264
O O15 0.000000 0.250044 0.000000
O O16 0.500000 0.441799 0.500000
O O17 0.563161 0.500000 0.561396
O O18 0.972647 0.687245 0.669336
O O19 0.705419 0.157982 0.646511
#
# Coordination Sequence:
#
# PCOD9170288 Si02
#       8
#     8   8   8   8   8   8   8   8
#     4  10  19  36  64  88 118 155 196 253 314 354
#     4  12  24  35  56  84 122 164 199 245 313 380
#     4  12  21  35  56  90 123 157 202 253 307 371
#     4  12  26  43  64  86 124 170 209 252 306 367
#     4  10  17  30  54  87 121 153 187 246 311 361
#     4  11  24  42  56  86 123 154 210 251 296 371
#     4  11  21  35  57  82 119 154 195 250 306 361
#     4  11  22  37  59  88 120 152 206 253 303 365
#
# _framework density 18.580418000000002
#
# number of rings (size 3 to 8) (size 9 to 14) (size 15 to 20)
#    0.000    0.875    7.500    2.250    3.500    0.000 
#    0.000    1.875    0.000    2.250    0.000    0.000 
#    0.000    4.000    0.000    0.000    0.000    0.000 
#
# Total GULP energy -178383.713671 kJ/mol
# GULP energy per Si atom -5574.491052 kJ/mol
# Density = 1.853813 g / cm^3
# Si number density = 18.580418 Si / 1000 Ang^3
#
#
#
# Elastic Constant Matrix: (Units=GPa)
#
#
# Indices 1 2 3 4 5 6 
#
# 1 154.7388 55.9220 21.4254 -0.0047 -4.9239 -0.0002
# 2 55.9220 104.5824 5.2156 0.0027 -10.7133 -0.0082
# 3 21.4254 5.2156 37.2518 0.0315 1.1113 -0.0012
# 4 -0.0047 0.0027 0.0315 24.1043 0.0174 -15.6004
# 5 -4.9239 -10.7133 1.1113 0.0174 16.6380 -0.0049
# 6 -0.0002 -0.0082 -0.0012 -15.6004 -0.0049 34.6908
#
#
#
# Elastic Compliance Matrix: (Units=1/GPa)
#
#
# Indices 1 2 3 4 5 6 
#
# 1 0.008662 -0.004413 -0.004365 0.000010 0.000014 0.000003
# 2 -0.004413 0.012585 0.000574 -0.000008 0.006759 0.000001
# 3 -0.004365 0.000574 0.029360 -0.000052 -0.002883 -0.000023
# 4 0.000010 -0.000008 -0.000052 0.058518 -0.000052 0.026315
# 5 0.000014 0.006759 -0.002883 -0.000052 0.064652 -0.000013
# 6 0.000003 0.000001 -0.000023 0.026315 -0.000013 0.040660
#
#
# Mechanical properties :
#
#
# Convention : Reuss Voigt Hill
#
# Bulk Modulus (GPa) = 29.23845 51.29990 40.26917
# Shear Modulus (GPa) = 20.64033 29.35395 24.99714
#
# Velocity S-wave (km/s) = 3.33658 3.97902 3.67188
# Velocity P-wave (km/s) = 5.53299 6.98425 6.30055
#
# Compressibility (1/GPa) = 0.03420154
#
# Stress axis : x y z
#
# Youngs Moduli (GPa) = 115.44711 79.45880 34.05961
#
# Poissons Ratio (x) = 0.35062 0.14866
# Poissons Ratio (y) = 0.50943 -0.01956
# Poissons Ratio (z) = 0.50388 -0.04563
#
# Static dielectric constant tensor:
#      x y z
#    x 1.718720 -0.000010 -0.029720 
#    y -0.000010 1.697410 0.000000 
#    z -0.029720 0.000000 1.640100 
# 
# From -- ./inp_files/307494.got.cif
#   From: 2010.05.17/outbox.cif.g08.bks.cpg/sg12_154_cif.got.tgz:307494.got - 2010.06.03 13:09:07.
