data_PCOD9170691
_publ_section_title
;
Structure prediction by ZEFSAII (Michael W. Deem and Ramdas Pophale) SiO2 
 PCOD9170691
Probable space group: C 2/M
;
_chemical_formula_sum "Si O2"
_cell_formula_units_Z 44
_cell_length_a 24.828436
_cell_length_b 13.601202
_cell_length_c 9.083288
_cell_angle_alpha 90.000000
_cell_angle_beta 130.495687
_cell_angle_gamma 90.000000
_cell_volume 2332.615586
_symmetry_space_group_name_H-M "C 2/M"
_symmetry_group_IT_number 12
_symmetry_cell_setting 'monoclinic'
loop_
_space_group_symop_operation_xyz
x,y,z
-x,y,-z
-x,-y,-z
x,-y,z
1/2+x,1/2+y,z
1/2-x,1/2+y,-z
1/2-x,1/2-y,-z
1/2+x,1/2-y,z
loop_
_atom_site_type_symbol
_atom_site_label
_atom_site_fract_x
_atom_site_fract_y
_atom_site_fract_z
Si Si1 0.682148 0.308762 0.691472
Si Si2 0.588022 0.887502 0.820604
Si Si3 0.168240 0.500000 0.461293
Si Si4 0.719313 0.500000 0.575738
Si Si5 0.324736 0.500000 0.820695
Si Si6 0.321019 0.697867 0.966018
Si Si7 0.423338 0.155046 0.544594
O O1 0.705199 0.404340 0.645848
O O2 0.741903 0.225148 0.773101
O O3 0.606733 0.265379 0.507928
O O4 0.681489 0.327258 0.865066
O O5 0.594297 0.881881 0.653138
O O6 0.506465 0.861883 0.711470
O O7 0.604334 0.000000 0.892942
O O8 0.635754 0.799963 0.969524
O O9 0.203262 0.500000 0.362711
O O10 0.238652 0.500000 0.689038
O O11 0.119972 0.592617 0.414090
O O12 0.668008 0.500000 0.342078
O O13 0.350293 0.602444 0.934726
#
# Coordination Sequence:
#
# PCOD9170691 Si02
#       7
#     8   8   4   4   4   8   8
#     4  10  20  35  55  86 111 151 189 240 280 333
#     4  10  19  31  57  89 117 146 180 242 294 342
#     4  10  18  31  57  80 105 150 185 233 265 333
#     4  10  23  35  57  83 114 156 195 231 270 342
#     4  10  21  37  54  83 115 153 190 233 275 334
#     4  10  21  33  58  88 117 143 185 243 296 320
#     4  10  17  33  56  84 116 143 190 232 290 340
#
# _framework density 18.862946000000001
#
# number of rings (size 3 to 8) (size 9 to 14) (size 15 to 20)
#    0.545    1.455    3.636    1.091    1.273    2.909 
#    0.000    0.909    0.000   10.909    0.000    0.000 
#    0.000    0.000    0.000    0.000    0.000    0.000 
#
# Total GULP energy -122652.095499 kJ/mol
# GULP energy per Si atom -5575.095250 kJ/mol
# Density = 1.882001 g / cm^3
# Si number density = 18.862946 Si / 1000 Ang^3
#
#
#
# Elastic Constant Matrix: (Units=GPa)
#
#
# Indices 1 2 3 4 5 6 
#
# 1 89.3523 65.2767 22.8824 0.0000 -3.9734 0.0000
# 2 65.2767 150.6870 52.8694 0.0000 -17.9240 0.0000
# 3 22.8824 52.8694 41.4911 0.0000 -1.5431 0.0000
# 4 0.0000 0.0000 0.0000 -34.8059 0.0000 16.8737
# 5 -3.9734 -17.9240 -1.5431 0.0000 15.6110 0.0000
# 6 0.0000 0.0000 0.0000 16.8737 0.0000 24.5640
#
#
#
# Elastic Compliance Matrix: (Units=1/GPa)
#
#
# Indices 1 2 3 4 5 6 
#
# 1 0.016688 -0.008205 0.001063 0.000000 -0.005068 0.000000
# 2 -0.008205 0.018971 -0.018986 0.000000 0.017817 0.000000
# 3 0.001063 -0.018986 0.047081 0.000000 -0.016875 0.000000
# 4 0.000000 0.000000 0.000000 -0.021553 0.000000 0.014805
# 5 -0.005068 0.017817 -0.016875 0.000000 0.081556 0.000000
# 6 0.000000 0.000000 0.000000 0.014805 0.000000 0.030540
#
#
# Mechanical properties :
#
#
# Convention : Reuss Voigt Hill
#
# Bulk Modulus (GPa) = 32.80427 62.62081 47.71254
# Shear Modulus (GPa) = 21.21329 10.44061 15.82695
#
# Velocity S-wave (km/s) = 3.35715 2.35521 2.89978
# Velocity P-wave (km/s) = 5.69700 6.37698 6.04656
#
# Compressibility (1/GPa) = 0.03048384
#
# Stress axis : x y z
#
# Youngs Moduli (GPa) = 59.92220 52.71075 21.24013
#
# Poissons Ratio (x) = 0.43250 -0.02258
# Poissons Ratio (y) = 0.49167 0.40327
# Poissons Ratio (z) = -0.06370 1.00078
#
# Static dielectric constant tensor:
#      x y z
#    x 1.649260 0.000000 0.012310 
#    y 0.000000 1.653700 0.000000 
#    z 0.012310 0.000000 1.662560 
# 
# From -- ./inp_files/95087.got.cif
#   From: 2010.05.17/outbox.cif.g08.bks.cpg/sg12_48_cif.got.tgz:95087.got - 2010.06.03 13:09:07.
