data_PCOD9170925
_publ_section_title
;
Structure prediction by ZEFSAII (Michael W. Deem and Ramdas Pophale) SiO2 
 PCOD9170925
Probable space group: C 2/M
;
_chemical_formula_sum "Si O2"
_cell_formula_units_Z 56
_cell_length_a 23.013367
_cell_length_b 18.985458
_cell_length_c 9.926506
_cell_angle_alpha 90.000000
_cell_angle_beta 40.356372
_cell_angle_gamma 90.000000
_cell_volume 2808.433492
_symmetry_space_group_name_H-M "C 2/M"
_symmetry_group_IT_number 12
_symmetry_cell_setting 'monoclinic'
loop_
_space_group_symop_operation_xyz
x,y,z
-x,y,-z
-x,-y,-z
x,-y,z
1/2+x,1/2+y,z
1/2-x,1/2+y,-z
1/2-x,1/2-y,-z
1/2+x,1/2-y,z
loop_
_atom_site_type_symbol
_atom_site_label
_atom_site_fract_x
_atom_site_fract_y
_atom_site_fract_z
Si Si1 0.756738 0.425458 0.759935
Si Si2 0.526762 0.923536 0.610568
Si Si3 0.328155 0.785760 0.270849
Si Si4 0.769046 0.919053 0.511048
Si Si5 0.754537 0.275365 0.841079
Si Si6 0.033662 0.267562 0.593592
Si Si7 0.941427 0.826836 0.217011
O O1 0.726425 0.500000 0.871243
O O2 0.865318 0.425242 0.568425
O O3 0.726068 0.419994 0.659868
O O4 0.726279 0.356600 0.889158
O O5 0.500000 0.923273 0.500000
O O6 0.500534 0.844762 0.704894
O O7 0.494061 0.000000 0.724140
O O8 0.250000 0.750000 0.500000
O O9 0.316510 0.869360 0.306115
O O10 0.307524 0.765631 0.154135
O O11 0.409222 0.743533 0.193179
O O12 0.856944 0.876292 0.404399
O O13 0.763367 0.000000 0.567539
O O14 0.857290 0.270139 0.606619
O O15 0.750000 0.250000 0.000000
O O16 0.011560 0.203803 0.733034
O O17 0.000000 0.258253 0.500000
O O18 0.000000 0.865771 0.000000
#
# Coordination Sequence:
#
# PCOD9170925 Si02
#       7
#     8   8   8   8   8   8   8
#     4   9  16  29  50  78 103 135 185 231 274 332
#     4   8  14  26  46  72 103 136 172 218 271 326
#     4  10  17  37  57  80 109 142 189 235 285 331
#     4  10  19  35  62  84 107 148 197 243 286 335
#     4  11  20  32  55  80 108 145 184 237 280 337
#     4  10  20  33  51  81 109 142 186 229 284 344
#     4  11  22  36  58  83 116 147 187 241 286 338
#
# _framework density 19.939941000000001
#
# number of rings (size 3 to 8) (size 9 to 14) (size 15 to 20)
#    0.000    2.143    5.714    0.857    2.000    0.286 
#    0.000    0.714    0.000    2.143    0.000    0.000 
#    0.000    0.000    0.000    0.000    0.000    0.000 
#
# Total GULP energy -155944.027279 kJ/mol
# GULP energy per Si atom -5569.429546 kJ/mol
# Density = 1.989456 g / cm^3
# Si number density = 19.939941 Si / 1000 Ang^3
#
#
#
# Elastic Constant Matrix: (Units=GPa)
#
#
# Indices 1 2 3 4 5 6 
#
# 1 75.8548 28.5556 6.2395 0.0000 14.9893 0.0000
# 2 28.5556 150.0629 13.0305 0.0000 20.7189 0.0000
# 3 6.2395 13.0305 31.7076 0.0000 8.4951 0.0000
# 4 0.0000 0.0000 0.0000 14.3415 0.0000 6.4399
# 5 14.9893 20.7189 8.4951 0.0000 33.8360 0.0000
# 6 0.0000 0.0000 0.0000 6.4399 0.0000 29.3484
#
#
#
# Elastic Compliance Matrix: (Units=1/GPa)
#
#
# Indices 1 2 3 4 5 6 
#
# 1 0.015056 -0.002083 -0.000709 0.000000 -0.005216 0.000000
# 2 -0.002083 0.007679 -0.001858 0.000000 -0.003313 0.000000
# 3 -0.000709 -0.001858 0.034364 0.000000 -0.007176 0.000000
# 4 0.000000 0.000000 0.000000 0.077349 0.000000 -0.016972
# 5 -0.005216 -0.003313 -0.007176 0.000000 0.035695 0.000000
# 6 0.000000 0.000000 0.000000 -0.016972 0.000000 0.037798
#
#
# Mechanical properties :
#
#
# Convention : Reuss Voigt Hill
#
# Bulk Modulus (GPa) = 20.92145 39.25297 30.08721
# Shear Modulus (GPa) = 21.44310 29.49183 25.46746
#
# Velocity S-wave (km/s) = 3.28286 3.84999 3.57768
# Velocity P-wave (km/s) = 4.98845 6.28423 5.67345
#
# Compressibility (1/GPa) = 0.04779784
#
# Stress axis : x y z
#
# Youngs Moduli (GPa) = 66.41678 130.22460 29.10032
#
# Poissons Ratio (x) = 0.27130 0.02064
# Poissons Ratio (y) = 0.13837 0.05408
# Poissons Ratio (z) = 0.04710 0.24199
#
# Static dielectric constant tensor:
#      x y z
#    x 1.721980 0.000000 -0.053680 
#    y 0.000000 1.768360 0.000000 
#    z -0.053680 0.000000 1.754020 
# 
# From -- ./inp_files/76824.got.cif
#   From: 2010.05.17/outbox.cif.g08.bks.cpg/sg12_39_cif.got.tgz:76824.got - 2010.06.03 13:09:07.
