data_PCOD9170278
_publ_section_title
;
Structure prediction by ZEFSAII (Michael W. Deem and Ramdas Pophale) SiO2 
 PCOD9170278
Probable space group: C 2/M
;
_chemical_formula_sum "Si O2"
_cell_formula_units_Z 40
_cell_length_a 9.415321
_cell_length_b 19.456741
_cell_length_c 14.095969
_cell_angle_alpha 90.000000
_cell_angle_beta 133.924289
_cell_angle_gamma 90.000000
_cell_volume 1859.891937
_symmetry_space_group_name_H-M "C 2/M"
_symmetry_group_IT_number 12
_symmetry_cell_setting 'monoclinic'
loop_
_space_group_symop_operation_xyz
x,y,z
-x,y,-z
-x,-y,-z
x,-y,z
1/2+x,1/2+y,z
1/2-x,1/2+y,-z
1/2-x,1/2-y,-z
1/2+x,1/2-y,z
loop_
_atom_site_type_symbol
_atom_site_label
_atom_site_fract_x
_atom_site_fract_y
_atom_site_fract_z
Si Si1 0.696657 0.577291 0.025328
Si Si2 0.771686 0.920076 0.358979
Si Si3 0.763636 0.218420 0.903248
Si Si4 0.890613 0.857679 0.223596
Si Si5 0.308371 0.917095 0.473706
O O1 0.779592 0.500000 0.060203
O O2 0.810358 0.640232 0.127970
O O3 0.500000 0.571968 0.000000
O O4 0.660258 0.605560 0.901009
O O5 0.761839 0.885809 0.251795
O O6 0.660022 0.897298 0.402151
O O7 0.000000 0.914077 0.500000
O O8 0.729884 0.000000 0.325190
O O9 0.649036 0.275879 0.791400
O O10 0.750000 0.250000 0.000000
O O11 0.000000 0.216679 0.000000
O O12 0.117305 0.877809 0.346479
O O13 0.500000 0.904025 0.500000
O O14 0.267058 0.000000 0.451635
#
# Coordination Sequence:
#
# PCOD9170278 Si02
#       5
#     8   8   8   8   8
#     4   9  17  31  54  84 112 144 193 243 286 335
#     4   8  14  26  47  77 113 153 192 231 283 348
#     4   9  19  35  55  82 112 152 195 236 286 342
#     4  10  17  30  54  82 120 160 186 230 298 351
#     4   9  17  30  51  84 123 158 197 242 288 348
#
# _framework density 21.506626000000001
#
# number of rings (size 3 to 8) (size 9 to 14) (size 15 to 20)
#    0.000    3.000    0.000    3.000    0.000    0.000 
#    0.000    8.000    0.000   26.400    0.000  163.800 
#    0.000   12.800    0.000    0.000    0.000    0.000 
#
# Total GULP energy -111391.114221 kJ/mol
# GULP energy per Si atom -5569.555711 kJ/mol
# Density = 2.145768 g / cm^3
# Si number density = 21.506626 Si / 1000 Ang^3
#
#
#
# Elastic Constant Matrix: (Units=GPa)
#
#
# Indices 1 2 3 4 5 6 
#
# 1 149.1673 58.1493 59.1355 0.0000 -24.1360 0.0000
# 2 58.1493 181.2579 64.0005 0.0000 -3.3625 0.0000
# 3 59.1355 64.0005 91.0943 0.0000 -3.6965 0.0000
# 4 0.0000 0.0000 0.0000 33.1918 0.0000 -7.1015
# 5 -24.1360 -3.3625 -3.6965 0.0000 33.8653 0.0000
# 6 0.0000 0.0000 0.0000 -7.1015 0.0000 -1.8248
#
#
#
# Elastic Compliance Matrix: (Units=1/GPa)
#
#
# Indices 1 2 3 4 5 6 
#
# 1 0.010542 -0.001246 -0.005693 0.000000 0.006768 0.000000
# 2 -0.001246 0.007485 -0.004476 0.000000 -0.000633 0.000000
# 3 -0.005693 -0.004476 0.017714 0.000000 -0.002569 0.000000
# 4 0.000000 0.000000 0.000000 0.016440 0.000000 -0.063978
# 5 0.006768 -0.000633 -0.002569 0.000000 0.034009 0.000000
# 6 0.000000 0.000000 0.000000 -0.063978 0.000000 -0.299032
#
#
# Mechanical properties :
#
#
# Convention : Reuss Voigt Hill
#
# Bulk Modulus (GPa) = 77.45525 87.12111 82.28818
# Shear Modulus (GPa) = -26.92397 29.06209 1.06906
#
# Velocity S-wave (km/s) = -3.54205 3.68000 0.70581
# Velocity P-wave (km/s) = 4.40053 7.65856 6.24572
#
# Compressibility (1/GPa) = 0.01291068
#
# Stress axis : x y z
#
# Youngs Moduli (GPa) = 94.86077 133.59372 56.45293
#
# Poissons Ratio (x) = 0.16647 0.32140
# Poissons Ratio (y) = 0.11821 0.25267
# Poissons Ratio (z) = 0.54007 0.59794
#
# Static dielectric constant tensor:
#      x y z
#    x 1.809090 0.000000 0.000750 
#    y 0.000000 1.833720 0.000000 
#    z 0.000750 0.000000 1.780870 
# 
# From -- ./inp_files/197323.got.cif
#   From: 2010.05.17/outbox.cif.g08.bks.cpg/sg12_99_cif.got.tgz:197323.got - 2010.06.03 13:09:07.
