data_PCOD9170305
_publ_section_title
;
Structure prediction by ZEFSAII (Michael W. Deem and Ramdas Pophale) SiO2 
 PCOD9170305
Probable space group: C 2/M
;
_chemical_formula_sum "Si O2"
_cell_formula_units_Z 56
_cell_length_a 28.625396
_cell_length_b 11.610372
_cell_length_c 23.305004
_cell_angle_alpha 90.000000
_cell_angle_beta 160.011701
_cell_angle_gamma 90.000000
_cell_volume 2647.614482
_symmetry_space_group_name_H-M "C 2/M"
_symmetry_group_IT_number 12
_symmetry_cell_setting 'monoclinic'
loop_
_space_group_symop_operation_xyz
x,y,z
-x,y,-z
-x,-y,-z
x,-y,z
1/2+x,1/2+y,z
1/2-x,1/2+y,-z
1/2-x,1/2-y,-z
1/2+x,1/2-y,z
loop_
_atom_site_type_symbol
_atom_site_label
_atom_site_fract_x
_atom_site_fract_y
_atom_site_fract_z
Si Si1 0.349016 0.874804 0.034729
Si Si2 0.618806 0.369181 0.393616
Si Si3 0.973925 0.333775 0.650366
Si Si4 0.192129 0.130367 0.272998
Si Si5 0.723246 0.129609 0.867725
Si Si6 0.080908 0.281947 0.236266
Si Si7 0.349949 0.135722 0.343225
O O1 0.447007 0.880342 0.203307
O O2 0.448738 0.858568 0.095362
O O3 0.276318 0.000000 0.947692
O O4 0.274674 0.750231 0.953991
O O5 0.581584 0.500000 0.348590
O O6 0.539650 0.301315 0.352131
O O7 0.779370 0.352452 0.592350
O O8 0.584194 0.310229 0.292715
O O9 0.819788 0.375405 0.465006
O O10 0.062950 0.368457 0.698930
O O11 0.087478 0.214621 0.183848
O O12 0.263087 0.178969 0.297205
O O13 0.140553 0.000000 0.204435
O O14 0.737144 0.140755 0.815665
O O15 0.773227 0.000000 0.942665
O O16 0.500000 0.185441 0.500000
O O17 0.371685 0.000000 0.381515
#
# Coordination Sequence:
#
# PCOD9170305 Si02
#       7
#     8   8   8   8   8   8   8
#     4  11  23  37  53  76 114 156 185 212 260 328
#     4   9  17  30  49  76 109 142 180 226 271 320
#     4  10  20  32  53  83 111 142 177 219 276 330
#     4  10  17  30  56  85 109 133 174 232 283 321
#     4  11  22  37  57  82 111 143 183 226 269 321
#     4   9  19  31  49  75 104 144 184 221 267 318
#     4   9  17  32  57  84 107 134 173 228 283 322
#
# _framework density 21.151115000000001
#
# number of rings (size 3 to 8) (size 9 to 14) (size 15 to 20)
#    0.000    2.143    1.429    3.429    0.000    3.429 
#    0.000    0.714    0.000    8.143    0.000    0.000 
#    0.000    0.000    0.000    0.000    0.000    0.000 
#
# Total GULP energy -156060.127979 kJ/mol
# GULP energy per Si atom -5573.575999 kJ/mol
# Density = 2.110297 g / cm^3
# Si number density = 21.151115 Si / 1000 Ang^3
#
#
#
# Elastic Constant Matrix: (Units=GPa)
#
#
# Indices 1 2 3 4 5 6 
#
# 1 100.5560 11.5057 -6.6582 0.0000 -5.3588 0.0000
# 2 11.5057 142.8288 20.1085 0.0000 -3.0922 0.0000
# 3 -6.6582 20.1085 23.0135 0.0001 2.8842 0.0000
# 4 0.0000 0.0000 0.0001 10.7074 0.0001 0.7018
# 5 -5.3588 -3.0922 2.8842 0.0001 16.5128 0.0000
# 6 0.0000 0.0000 0.0000 0.7018 0.0000 12.7216
#
#
#
# Elastic Compliance Matrix: (Units=1/GPa)
#
#
# Indices 1 2 3 4 5 6 
#
# 1 0.010488 -0.001340 0.003895 0.000000 0.002472 0.000000
# 2 -0.001340 0.008281 -0.007937 0.000000 0.002502 0.000000
# 3 0.003895 -0.007937 0.052696 0.000000 -0.009426 0.000000
# 4 0.000000 0.000000 0.000000 0.093733 0.000000 -0.005171
# 5 0.002472 0.002502 -0.009426 0.000000 0.063476 0.000000
# 6 0.000000 0.000000 0.000000 -0.005171 0.000000 0.078892
#
#
# Mechanical properties :
#
#
# Convention : Reuss Voigt Hill
#
# Bulk Modulus (GPa) = 16.47409 35.14560 25.80985
# Shear Modulus (GPa) = 14.76837 24.08452 19.42644
#
# Velocity S-wave (km/s) = 2.64527 3.37811 3.03390
# Velocity P-wave (km/s) = 4.13952 5.64517 4.94993
#
# Compressibility (1/GPa) = 0.06070139
#
# Stress axis : x y z
#
# Youngs Moduli (GPa) = 95.35023 120.76020 18.97684
#
# Poissons Ratio (x) = 0.16178 -0.07391
# Poissons Ratio (y) = 0.12774 0.15061
# Poissons Ratio (z) = -0.37138 0.95844
#
# Static dielectric constant tensor:
#      x y z
#    x 1.802500 0.000000 0.006600 
#    y 0.000000 1.810610 0.000000 
#    z 0.006600 0.000000 1.835310 
# 
# From -- ./inp_files/173985.got.cif
#   From: 2010.05.17/outbox.cif.g08.bks.cpg/sg12_87_cif.got.tgz:173985.got - 2010.06.03 13:09:07.
