data_PCOD9170306
_publ_section_title
;
Structure prediction by ZEFSAII (Michael W. Deem and Ramdas Pophale) SiO2 
 PCOD9170306
Probable space group: C 2/M
;
_chemical_formula_sum "Si O2"
_cell_formula_units_Z 40
_cell_length_a 21.850608
_cell_length_b 14.426707
_cell_length_c 6.960924
_cell_angle_alpha 90.000000
_cell_angle_beta 137.807427
_cell_angle_gamma 90.000000
_cell_volume 1473.751283
_symmetry_space_group_name_H-M "C 2/M"
_symmetry_group_IT_number 12
_symmetry_cell_setting 'monoclinic'
loop_
_space_group_symop_operation_xyz
x,y,z
-x,y,-z
-x,-y,-z
x,-y,z
1/2+x,1/2+y,z
1/2-x,1/2+y,-z
1/2-x,1/2-y,-z
1/2+x,1/2-y,z
loop_
_atom_site_type_symbol
_atom_site_label
_atom_site_fract_x
_atom_site_fract_y
_atom_site_fract_z
Si Si1 0.542515 0.500000 0.888775
Si Si2 0.470431 0.000000 0.211061
Si Si3 0.656241 0.500000 0.659559
Si Si4 0.275417 0.000000 0.560119
Si Si5 0.985835 0.712819 0.183708
Si Si6 0.172847 0.201568 0.699639
Si Si7 0.675355 0.670346 0.243788
O O1 0.450884 0.500000 0.556752
O O2 0.500000 0.500000 0.000000
O O3 0.599263 0.593303 0.010152
O O4 0.500000 0.000000 0.500000
O O5 0.502809 0.897742 0.222231
O O6 0.366010 0.000000 0.897208
O O7 0.692833 0.500000 0.524546
O O8 0.686224 0.597338 0.804243
O O9 0.262344 0.901501 0.418634
O O10 0.070482 0.760055 0.491138
O O11 0.000000 0.747963 0.000000
O O12 0.880478 0.741703 0.978366
O O13 0.187493 0.200534 0.499318
O O14 0.250000 0.250000 0.000000
#
# Coordination Sequence:
#
# PCOD9170306 Si02
#       7
#     4   4   4   4   8   8   8
#     4  11  10  26  56  90 100 131 175 264 284 313
#     4  12  28  40  53  81 128 166 188 222 300 373
#     4  10  17  30  56  85 118 129 199 244 291 320
#     4   9  20  33  56  85 115 148 188 236 289 350
#     4  10  21  40  62  85 111 152 202 243 287 337
#     4  10  19  28  54  90 117 148 180 244 297 335
#     4   9  17  32  60  85 110 139 199 246 285 324
#
# _framework density 27.141624
#
# number of rings (size 3 to 8) (size 9 to 14) (size 15 to 20)
#    0.000    2.000    6.000    0.900    5.600    0.800 
#    0.000    1.000    0.000    0.000    0.000    3.500 
#    0.000    0.000    0.000    0.000    0.000    0.000 
#
# Total GULP energy -111503.594766 kJ/mol
# GULP energy per Si atom -5575.179738 kJ/mol
# Density = 2.707985 g / cm^3
# Si number density = 27.141624 Si / 1000 Ang^3
#
#
#
# Elastic Constant Matrix: (Units=GPa)
#
#
# Indices 1 2 3 4 5 6 
#
# 1 74.3006 -14.8177 27.5226 0.0000 -15.2228 0.0000
# 2 -14.8177 215.9607 75.3330 0.0000 3.3294 0.0000
# 3 27.5226 75.3330 212.5152 0.0000 -1.5858 0.0000
# 4 0.0000 0.0000 0.0000 9.6247 0.0000 9.0972
# 5 -15.2228 3.3294 -1.5858 0.0000 39.3829 0.0000
# 6 0.0000 0.0000 0.0000 9.0972 0.0000 3.0608
#
#
#
# Elastic Compliance Matrix: (Units=1/GPa)
#
#
# Indices 1 2 3 4 5 6 
#
# 1 0.016081 0.001966 -0.002735 0.000000 0.005939 0.000000
# 2 0.001966 0.005535 -0.002215 0.000000 0.000203 0.000000
# 3 -0.002735 -0.002215 0.005840 0.000000 -0.000635 0.000000
# 4 0.000000 0.000000 0.000000 -0.057427 0.000000 0.170681
# 5 0.005939 0.000203 -0.000635 0.000000 0.027645 0.000000
# 6 0.000000 0.000000 0.000000 0.170681 0.000000 -0.180578
#
#
# Mechanical properties :
#
#
# Convention : Reuss Voigt Hill
#
# Bulk Modulus (GPa) = 46.53907 75.42803 60.98355
# Shear Modulus (GPa) = -29.45115 38.06293 4.30589
#
# Velocity S-wave (km/s) = -3.29765 3.74890 1.26091
# Velocity P-wave (km/s) = 1.63850 6.82568 4.96360
#
# Compressibility (1/GPa) = 0.02148732
#
# Stress axis : x y z
#
# Youngs Moduli (GPa) = 62.18542 180.67084 171.22524
#
# Poissons Ratio (x) = -0.35518 0.46833
# Poissons Ratio (y) = -0.12225 0.37929
# Poissons Ratio (z) = 0.17009 0.40021
#
# Static dielectric constant tensor:
#      x y z
#    x 2.435690 0.000000 0.012470 
#    y 0.000000 2.011880 0.000000 
#    z 0.012470 0.000000 2.178730 
# 
# From -- ./inp_files/112148.got.cif
#   From: 2010.05.17/outbox.cif.g08.bks.cpg/sg12_57_cif.got.tgz:112148.got - 2010.06.03 13:09:07.
