data_PCOD9170894
_publ_section_title
;
Structure prediction by ZEFSAII (Michael W. Deem and Ramdas Pophale) SiO2 
 PCOD9170894
Probable space group: C 2/M
;
_chemical_formula_sum "Si O2"
_cell_formula_units_Z 40
_cell_length_a 8.728682
_cell_length_b 17.377762
_cell_length_c 18.577181
_cell_angle_alpha 90.000000
_cell_angle_beta 128.793582
_cell_angle_gamma 90.000000
_cell_volume 2196.277799
_symmetry_space_group_name_H-M "C 2/M"
_symmetry_group_IT_number 12
_symmetry_cell_setting 'monoclinic'
loop_
_space_group_symop_operation_xyz
x,y,z
-x,y,-z
-x,-y,-z
x,-y,z
1/2+x,1/2+y,z
1/2-x,1/2+y,-z
1/2-x,1/2-y,-z
1/2+x,1/2-y,z
loop_
_atom_site_type_symbol
_atom_site_label
_atom_site_fract_x
_atom_site_fract_y
_atom_site_fract_z
Si Si1 0.153466 0.212402 0.347147
Si Si2 0.430697 0.644458 0.406229
Si Si3 0.465264 0.785141 0.068464
Si Si4 0.776152 0.675757 0.228202
Si Si5 0.955093 0.586510 0.787312
O O1 0.325873 0.275677 0.401364
O O2 0.194799 0.167356 0.285168
O O3 0.111475 0.162513 0.405667
O O4 0.952202 0.261210 0.280450
O O5 0.500000 0.604737 0.500000
O O6 0.257869 0.602379 0.311210
O O7 0.609804 0.714360 0.130079
O O8 0.503320 0.848992 0.140292
O O9 0.500000 0.819208 0.000000
O O10 0.250000 0.750000 0.000000
O O11 0.877710 0.601734 0.223654
O O12 0.963952 0.500000 0.817626
#
# Coordination Sequence:
#
# PCOD9170894 Si02
#       5
#     8   8   8   8   8
#     4   9  16  31  58  84 114 147 195 244 275 330
#     4  10  19  33  58  88 120 154 195 239 289 343
#     4  12  21  36  65  86 108 153 197 238 286 354
#     4  10  17  36  58  83 113 151 194 232 288 342
#     4  11  24  40  57  85 125 154 188 247 299 341
#
# _framework density 18.212631999999999
#
# number of rings (size 3 to 8) (size 9 to 14) (size 15 to 20)
#    0.000    1.600    8.000    0.600    0.000    0.800 
#    0.000    3.000    0.000    1.200    0.000    0.000 
#    0.000    0.000    0.000    0.000    0.000    0.000 
#
# Total GULP energy -111480.756375 kJ/mol
# GULP energy per Si atom -5574.037819 kJ/mol
# Density = 1.817118 g / cm^3
# Si number density = 18.212632 Si / 1000 Ang^3
#
#
#
# Elastic Constant Matrix: (Units=GPa)
#
#
# Indices 1 2 3 4 5 6 
#
# 1 112.1715 12.9612 33.1333 0.0000 -22.1047 0.0000
# 2 12.9612 55.2484 17.0648 0.0000 -1.5771 0.0000
# 3 33.1333 17.0648 101.7929 0.0000 -9.4809 0.0000
# 4 0.0000 0.0000 0.0000 4.3767 0.0000 -1.5323
# 5 -22.1047 -1.5771 -9.4809 0.0000 33.3875 0.0000
# 6 0.0000 0.0000 0.0000 -1.5323 0.0000 5.9860
#
#
#
# Elastic Compliance Matrix: (Units=1/GPa)
#
#
# Indices 1 2 3 4 5 6 
#
# 1 0.011210 -0.001586 -0.002772 0.000000 0.006559 0.000000
# 2 -0.001586 0.019313 -0.002808 0.000000 -0.000935 0.000000
# 3 -0.002772 -0.002808 0.011313 0.000000 0.001245 0.000000
# 4 0.000000 0.000000 0.000000 0.250977 0.000000 0.064246
# 5 0.006559 -0.000935 0.001245 0.000000 0.034603 0.000000
# 6 0.000000 0.000000 0.000000 0.064246 0.000000 0.183503
#
#
# Mechanical properties :
#
#
# Convention : Reuss Voigt Hill
#
# Bulk Modulus (GPa) = 36.36078 43.94793 40.15435
# Shear Modulus (GPa) = 9.35594 22.48693 15.92144
#
# Velocity S-wave (km/s) = 2.26897 3.51763 2.95989
# Velocity P-wave (km/s) = 5.18384 6.37817 5.81177
#
# Compressibility (1/GPa) = 0.02750216
#
# Stress axis : x y z
#
# Youngs Moduli (GPa) = 89.20955 51.77861 88.39522
#
# Poissons Ratio (x) = 0.08214 0.24501
# Poissons Ratio (y) = 0.14152 0.24825
# Poissons Ratio (z) = 0.24727 0.14542
#
# Static dielectric constant tensor:
#      x y z
#    x 0.301860 0.000000 0.824740 
#    y 0.000000 1.603830 0.000000 
#    z 0.824740 0.000000 1.128210 
# 
# From -- ./inp_files/195007.got.cif
#   From: 2010.05.17/outbox.cif.g08.bks.cpg/sg12_98_cif.got.tgz:195007.got - 2010.06.03 13:09:07.
