data_PCOD9170322
_publ_section_title
;
Structure prediction by ZEFSAII (Michael W. Deem and Ramdas Pophale) SiO2 
 PCOD9170322
Probable space group: C 2/M
;
_chemical_formula_sum "Si O2"
_cell_formula_units_Z 48
_cell_length_a 14.972394
_cell_length_b 22.700237
_cell_length_c 13.133752
_cell_angle_alpha 90.000000
_cell_angle_beta 35.341418
_cell_angle_gamma 90.000000
_cell_volume 2582.107718
_symmetry_space_group_name_H-M "C 2/M"
_symmetry_group_IT_number 12
_symmetry_cell_setting 'monoclinic'
loop_
_space_group_symop_operation_xyz
x,y,z
-x,y,-z
-x,-y,-z
x,-y,z
1/2+x,1/2+y,z
1/2-x,1/2+y,-z
1/2-x,1/2-y,-z
1/2+x,1/2-y,z
loop_
_atom_site_type_symbol
_atom_site_label
_atom_site_fract_x
_atom_site_fract_y
_atom_site_fract_z
Si Si1 0.057110 0.376811 0.329227
Si Si2 0.608092 0.599007 0.487230
Si Si3 0.733493 0.818355 0.492100
Si Si4 0.673688 0.371470 0.803595
Si Si5 0.640656 0.000000 0.787775
Si Si6 0.936508 0.000000 0.771765
Si Si7 0.410047 0.000000 0.815252
Si Si8 0.365206 0.500000 0.208305
O O1 0.227362 0.351658 0.191068
O O2 0.074413 0.441633 0.266843
O O3 0.000000 0.375705 0.500000
O O4 0.942156 0.340142 0.364976
O O5 0.500000 0.626568 0.500000
O O6 0.686887 0.643733 0.492694
O O7 0.744379 0.556471 0.316075
O O8 0.489760 0.556418 0.657904
O O9 0.750000 0.750000 0.500000
O O10 0.810318 0.832941 0.311744
O O11 0.722200 0.438587 0.725766
O O12 0.500000 0.374426 0.000000
O O13 0.550976 0.000000 0.763747
O O14 0.500000 0.000000 0.000000
O O15 0.048352 0.000000 0.765242
O O16 0.757988 0.000000 0.972589
O O17 0.500000 0.500000 0.000000
#
# Coordination Sequence:
#
# PCOD9170322 Si02
#       8
#     8   8   8   8   4   4   4   4
#     4  10  22  36  60  94 129 153 192 246 316 367
#     4  11  23  41  60  85 122 160 208 249 308 364
#     4  11  24  43  62  84 120 170 213 250 292 346
#     4  10  20  38  64  94 128 152 193 249 313 374
#     4  11  22  39  59  91 124 157 196 256 310 368
#     4  11  21  35  61  94 122 161 188 251 313 384
#     4  12  19  34  63  94 128 149 191 247 325 370
#     4  10  17  30  57  98 127 148 177 237 315 380
#
# _framework density 18.589465000000001
#
# number of rings (size 3 to 8) (size 9 to 14) (size 15 to 20)
#    0.000    1.333    3.333    4.750    0.000    4.000 
#    0.000    1.667    0.000    0.000    0.000    0.000 
#    0.000    0.000    0.000    0.000    0.000    0.000 
#
# Total GULP energy -133872.306183 kJ/mol
# GULP energy per Si atom -5578.012758 kJ/mol
# Density = 1.854715 g / cm^3
# Si number density = 18.589465 Si / 1000 Ang^3
#
#
#
# Elastic Constant Matrix: (Units=GPa)
#
#
# Indices 1 2 3 4 5 6 
#
# 1 200.0304 61.3315 35.8208 0.0795 -10.8226 -0.0443
# 2 61.3315 134.1808 41.4284 0.1838 -1.4436 -0.1626
# 3 35.8208 41.4284 55.3825 0.0409 -13.7936 -0.0735
# 4 0.0795 0.1838 0.0409 10.4564 -0.0747 6.5500
# 5 -10.8226 -1.4436 -13.7936 -0.0747 34.7795 0.0658
# 6 -0.0443 -0.1626 -0.0735 6.5500 0.0658 6.5463
#
#
#
# Elastic Compliance Matrix: (Units=1/GPa)
#
#
# Indices 1 2 3 4 5 6 
#
# 1 0.006078 -0.002118 -0.002106 0.000092 0.000969 -0.000137
# 2 -0.002118 0.010673 -0.007398 -0.000777 -0.003153 0.000977
# 3 -0.002106 -0.007398 0.027421 0.000277 0.009914 -0.000267
# 4 0.000092 -0.000777 0.000277 0.256328 0.001142 -0.256499
# 5 0.000969 -0.003153 0.009914 0.001142 0.032860 -0.001433
# 6 -0.000137 0.000977 -0.000267 -0.256499 -0.001433 0.409435
#
#
# Mechanical properties :
#
#
# Convention : Reuss Voigt Hill
#
# Bulk Modulus (GPa) = 47.78083 74.08391 60.93237
# Shear Modulus (GPa) = 6.46818 27.09066 16.77942
#
# Velocity S-wave (km/s) = 1.86736 3.82162 3.00764
# Velocity P-wave (km/s) = 5.51438 7.70793 6.70151
#
# Compressibility (1/GPa) = 0.02092890
#
# Stress axis : x y z
#
# Youngs Moduli (GPa) = 164.52610 93.69460 36.46885
#
# Poissons Ratio (x) = 0.19843 0.07680
# Poissons Ratio (y) = 0.34843 0.26978
# Poissons Ratio (z) = 0.34649 0.69311
#
# Static dielectric constant tensor:
#      x y z
#    x 1.703810 0.000090 -0.043100 
#    y 0.000090 1.541900 -0.000060 
#    z -0.043100 -0.000060 1.674790 
# 
# From -- ./inp_files/147986.got.cif
#   From: 2010.05.17/outbox.cif.g08.bks.cpg/sg12_74_cif.got.tgz:147986.got - 2010.06.03 13:09:07.
