data_PCOD9170688
_publ_section_title
;
Structure prediction by ZEFSAII (Michael W. Deem and Ramdas Pophale) SiO2 
 PCOD9170688
Probable space group: C 2/M
;
_chemical_formula_sum "Si O2"
_cell_formula_units_Z 56
_cell_length_a 24.245851
_cell_length_b 17.028880
_cell_length_c 12.844662
_cell_angle_alpha 90.000000
_cell_angle_beta 38.406961
_cell_angle_gamma 90.000000
_cell_volume 3294.637958
_symmetry_space_group_name_H-M "C 2/M"
_symmetry_group_IT_number 12
_symmetry_cell_setting 'monoclinic'
loop_
_space_group_symop_operation_xyz
x,y,z
-x,y,-z
-x,-y,-z
x,-y,z
1/2+x,1/2+y,z
1/2-x,1/2+y,-z
1/2-x,1/2-y,-z
1/2+x,1/2-y,z
loop_
_atom_site_type_symbol
_atom_site_label
_atom_site_fract_x
_atom_site_fract_y
_atom_site_fract_z
Si Si1 0.121385 0.303657 0.461624
Si Si2 0.009402 0.188884 0.243705
Si Si3 0.707610 0.282169 0.667764
Si Si4 0.068393 0.086024 0.803597
Si Si5 0.430093 0.818137 0.012152
Si Si6 0.454175 0.091849 0.774206
Si Si7 0.148881 0.269612 0.177998
O O1 0.216218 0.319673 0.372873
O O2 0.132161 0.282272 0.324879
O O3 0.079365 0.227130 0.578559
O O4 0.048616 0.371272 0.595571
O O5 0.084689 0.203435 0.220167
O O6 0.984076 0.108588 0.224708
O O7 0.040088 0.244775 0.103409
O O8 0.750000 0.250000 0.500000
O O9 0.636455 0.346270 0.735845
O O10 0.660810 0.211255 0.800791
O O11 0.110424 0.000000 0.730532
O O12 0.000000 0.083325 0.000000
O O13 0.500000 0.829929 0.000000
O O14 0.436716 0.890302 0.922234
O O15 0.381681 0.147534 0.826491
O O16 0.448811 0.000000 0.758947
O O17 0.250000 0.250000 0.000000
#
# Coordination Sequence:
#
# PCOD9170688 Si02
#       7
#     8   8   8   8   8   8   8
#     4  10  20  33  60  86 107 147 190 232 277 341
#     4  10  17  36  56  79 112 142 191 232 277 332
#     4  12  19  34  59  85 115 149 189 236 275 342
#     4  11  22  36  56  84 117 151 188 236 289 331
#     4  10  17  33  56  80 106 151 192 221 273 335
#     4  10  22  38  55  82 119 148 181 237 291 332
#     4  10  21  36  60  85 105 148 199 232 274 346
#
# _framework density 16.997315
#
# number of rings (size 3 to 8) (size 9 to 14) (size 15 to 20)
#    0.000    1.857    4.286    4.286    0.000    2.000 
#    0.000    1.429    0.000    1.714    0.000    0.000 
#    0.000    0.000    0.000    0.000    0.000    0.000 
#
# Total GULP energy -155951.189880 kJ/mol
# GULP energy per Si atom -5569.685353 kJ/mol
# Density = 1.695863 g / cm^3
# Si number density = 16.997315 Si / 1000 Ang^3
#
#
#
# Elastic Constant Matrix: (Units=GPa)
#
#
# Indices 1 2 3 4 5 6 
#
# 1 116.0129 32.9729 45.9499 0.0000 2.0187 0.0000
# 2 32.9729 76.5834 36.6824 0.0000 -4.9671 0.0000
# 3 45.9499 36.6824 114.0257 0.0000 9.9849 0.0000
# 4 0.0000 0.0000 0.0000 15.8856 0.0000 3.9220
# 5 2.0187 -4.9671 9.9849 0.0000 37.8751 0.0000
# 6 0.0000 0.0000 0.0000 3.9220 0.0000 7.0867
#
#
#
# Elastic Compliance Matrix: (Units=1/GPa)
#
#
# Indices 1 2 3 4 5 6 
#
# 1 0.010824 -0.003050 -0.003373 0.000000 -0.000088 0.000000
# 2 -0.003050 0.016739 -0.004465 0.000000 0.003535 0.000000
# 3 -0.003373 -0.004465 0.011875 0.000000 -0.003536 0.000000
# 4 0.000000 0.000000 0.000000 0.072913 0.000000 -0.040353
# 5 -0.000088 0.003535 -0.003536 0.000000 0.027803 0.000000
# 6 0.000000 0.000000 0.000000 -0.040353 0.000000 0.163443
#
#
# Mechanical properties :
#
#
# Convention : Reuss Voigt Hill
#
# Bulk Modulus (GPa) = 56.62084 59.75914 58.18999
# Shear Modulus (GPa) = 15.09380 24.90393 19.99887
#
# Velocity S-wave (km/s) = 2.98318 3.83190 3.43387
# Velocity P-wave (km/s) = 6.72680 7.40353 7.07326
#
# Compressibility (1/GPa) = 0.01766134
#
# Stress axis : x y z
#
# Youngs Moduli (GPa) = 92.38578 59.74024 84.20822
#
# Poissons Ratio (x) = 0.18224 0.28402
# Poissons Ratio (y) = 0.28182 0.37601
# Poissons Ratio (z) = 0.31161 0.26676
#
# Static dielectric constant tensor:
#      x y z
#    x 1.614400 0.000000 0.006110 
#    y 0.000000 1.566790 0.000000 
#    z 0.006110 0.000000 1.582780 
# 
# From -- ./inp_files/177063.got.cif
#   From: 2010.05.17/outbox.cif.g08.bks.cpg/sg12_89_cif.got.tgz:177063.got - 2010.06.03 13:09:07.
