data_PCOD9170470
_publ_section_title
;
Structure prediction by ZEFSAII (Michael W. Deem and Ramdas Pophale) SiO2 
 PCOD9170470
Probable space group: C 2/M
;
_chemical_formula_sum "Si O2"
_cell_formula_units_Z 56
_cell_length_a 21.965984
_cell_length_b 21.390967
_cell_length_c 9.267569
_cell_angle_alpha 90.000000
_cell_angle_beta 127.711504
_cell_angle_gamma 90.000000
_cell_volume 3444.916469
_symmetry_space_group_name_H-M "C 2/M"
_symmetry_group_IT_number 12
_symmetry_cell_setting 'monoclinic'
loop_
_space_group_symop_operation_xyz
x,y,z
-x,y,-z
-x,-y,-z
x,-y,z
1/2+x,1/2+y,z
1/2-x,1/2+y,-z
1/2-x,1/2-y,-z
1/2+x,1/2-y,z
loop_
_atom_site_type_symbol
_atom_site_label
_atom_site_fract_x
_atom_site_fract_y
_atom_site_fract_z
Si Si1 0.445631 0.239209 0.295394
Si Si2 0.470612 0.632631 0.673947
Si Si3 0.132569 0.928435 0.914025
Si Si4 0.733017 0.183713 0.399276
Si Si5 0.914721 0.277923 0.939820
Si Si6 0.139585 0.138613 0.219216
Si Si7 0.835432 0.835427 0.272338
O O1 0.500000 0.210996 0.500000
O O2 0.494635 0.297834 0.300637
O O3 0.372474 0.271728 0.264775
O O4 0.419910 0.202780 0.115465
O O5 0.541845 0.586634 0.757652
O O6 0.429974 0.626849 0.769551
O O7 0.403404 0.629175 0.459065
O O8 0.181150 0.880938 0.884809
O O9 0.149796 0.000000 0.908792
O O10 0.144201 0.909854 0.096958
O O11 0.750000 0.250000 0.500000
O O12 0.642290 0.180081 0.239763
O O13 0.781897 0.138635 0.573839
O O14 0.770972 0.179698 0.295738
O O15 0.878953 0.207450 0.875247
O O16 0.000000 0.277098 0.000000
#
# Coordination Sequence:
#
# PCOD9170470 Si02
#       7
#     8   8   8   8   8   8   8
#     4   9  16  25  42  65  90 124 155 190 227 271
#     4   9  16  28  44  60  93 137 163 192 223 258
#     4  11  20  29  46  71  94 128 168 198 233 269
#     4   9  21  32  47  67  88 129 167 190 233 290
#     4  11  17  30  49  67  93 126 161 192 235 282
#     4  10  17  32  44  65 101 130 160 201 227 270
#     4   9  18  32  43  61  99 126 160 203 230 266
#
# _framework density 16.255837
#
# number of rings (size 3 to 8) (size 9 to 14) (size 15 to 20)
#    0.000    2.286    4.286    1.714    2.000    2.857 
#    0.000    2.143    0.000    0.000    0.000    0.000 
#    0.000    3.429    0.000    0.000    0.000    0.000 
#
# Total GULP energy -155893.481989 kJ/mol
# GULP energy per Si atom -5567.624357 kJ/mol
# Density = 1.621884 g / cm^3
# Si number density = 16.255837 Si / 1000 Ang^3
#
#
#
# Elastic Constant Matrix: (Units=GPa)
#
#
# Indices 1 2 3 4 5 6 
#
# 1 44.7936 11.4603 32.5274 0.0000 -0.9330 0.0000
# 2 11.4603 12.8403 -3.8627 0.0000 0.7320 0.0000
# 3 32.5274 -3.8627 84.6833 0.0000 1.1999 0.0000
# 4 0.0000 0.0000 0.0000 11.1148 0.0000 -0.2154
# 5 -0.9330 0.7320 1.1999 0.0000 31.3467 0.0000
# 6 0.0000 0.0000 0.0000 -0.2154 0.0000 6.2222
#
#
#
# Elastic Compliance Matrix: (Units=1/GPa)
#
#
# Indices 1 2 3 4 5 6 
#
# 1 0.052868 -0.054267 -0.022835 0.000000 0.003715 0.000000
# 2 -0.054267 0.134790 0.027075 0.000000 -0.005799 0.000000
# 3 -0.022835 0.027075 0.021845 0.000000 -0.002148 0.000000
# 4 0.000000 0.000000 0.000000 0.090031 0.000000 0.003117
# 5 0.003715 -0.005799 -0.002148 0.000000 0.032229 0.000000
# 6 0.000000 0.000000 0.000000 0.003117 0.000000 0.160822
#
#
# Mechanical properties :
#
#
# Convention : Reuss Voigt Hill
#
# Bulk Modulus (GPa) = 9.13671 24.72970 16.93321
# Shear Modulus (GPa) = 7.94757 16.54956 12.24857
#
# Velocity S-wave (km/s) = 2.21352 3.19418 2.74795
# Velocity P-wave (km/s) = 3.48793 5.37118 4.52853
#
# Compressibility (1/GPa) = 0.10944853
#
# Stress axis : x y z
#
# Youngs Moduli (GPa) = 18.91501 7.41895 45.77663
#
# Poissons Ratio (x) = 0.40261 1.04531
# Poissons Ratio (y) = 1.02647 -1.23940
# Poissons Ratio (z) = 0.43192 -0.20087
#
# Static dielectric constant tensor:
#      x y z
#    x 1.561810 0.000000 -0.001940 
#    y 0.000000 1.524720 0.000000 
#    z -0.001940 0.000000 1.619620 
# 
# From -- ./inp_files/90093.got.cif
#   From: 2010.05.17/outbox.cif.g08.bks.cpg/sg12_46_cif.got.tgz:90093.got - 2010.06.03 13:09:07.
