data_PCOD9170883
_publ_section_title
;
Structure prediction by ZEFSAII (Michael W. Deem and Ramdas Pophale) SiO2 
 PCOD9170883
Probable space group: C 2/M
;
_chemical_formula_sum "Si O2"
_cell_formula_units_Z 64
_cell_length_a 29.515139
_cell_length_b 20.609138
_cell_length_c 16.891771
_cell_angle_alpha 90.000000
_cell_angle_beta 20.324848
_cell_angle_gamma 90.000000
_cell_volume 3568.926456
_symmetry_space_group_name_H-M "C 2/M"
_symmetry_group_IT_number 12
_symmetry_cell_setting 'monoclinic'
loop_
_space_group_symop_operation_xyz
x,y,z
-x,y,-z
-x,-y,-z
x,-y,z
1/2+x,1/2+y,z
1/2-x,1/2+y,-z
1/2-x,1/2-y,-z
1/2+x,1/2-y,z
loop_
_atom_site_type_symbol
_atom_site_label
_atom_site_fract_x
_atom_site_fract_y
_atom_site_fract_z
Si Si1 0.477404 0.681791 0.279410
Si Si2 0.654033 0.695733 0.254038
Si Si3 0.639510 0.183139 0.482071
Si Si4 0.078976 0.767069 0.951176
Si Si5 0.286304 0.074451 0.954674
Si Si6 0.229168 0.661520 0.157362
Si Si7 0.463181 0.929403 0.818676
Si Si8 0.731082 0.853990 0.767583
O O1 0.447011 0.751902 0.368703
O O2 0.496902 0.697961 0.154977
O O3 0.352306 0.639025 0.509025
O O4 0.615204 0.654581 0.083896
O O5 0.500000 0.701406 0.500000
O O6 0.708117 0.768251 0.150697
O O7 0.693409 0.633087 0.137407
O O8 0.707558 0.678390 0.253836
O O9 0.661371 0.165974 0.354226
O O10 0.567832 0.127060 0.646737
O O11 0.782145 0.196794 0.283808
O O12 0.126695 0.696452 0.902883
O O13 0.000000 0.764003 0.000000
O O14 0.325141 0.102584 0.805736
O O15 0.398063 0.073217 0.838093
O O16 0.235192 0.000000 0.033928
O O17 0.348402 0.915023 0.069575
O O18 0.520245 0.000000 0.738276
#
# Coordination Sequence:
#
# PCOD9170883 Si02
#       8
#     8   8   8   8   8   8   8   8
#     4  10  17  36  55  81 115 139 180 230 279 336
#     4  11  20  32  55  81 107 156 194 236 277 326
#     4  10  20  34  57  83 112 145 184 228 286 337
#     4  10  20  34  59  91 116 135 170 232 298 338
#     4  10  23  35  48  75 115 153 195 239 278 327
#     4  11  21  33  54  80 112 148 197 238 275 331
#     4  10  21  39  56  76 112 155 193 227 273 332
#     4  10  19  35  54  82 113 144 188 227 279 333
#
# _framework density 17.932562999999998
#
# number of rings (size 3 to 8) (size 9 to 14) (size 15 to 20)
#    0.000    1.750    5.000    1.875    1.750    2.750 
#    0.000    4.375    0.000    1.500    0.000    0.000 
#    0.000    0.000    0.000    0.000    0.000    0.000 
#
# Total GULP energy -178386.304414 kJ/mol
# GULP energy per Si atom -5574.572013 kJ/mol
# Density = 1.789175 g / cm^3
# Si number density = 17.932563 Si / 1000 Ang^3
#
#
#
# Elastic Constant Matrix: (Units=GPa)
#
#
# Indices 1 2 3 4 5 6 
#
# 1 75.1331 17.9123 13.3520 0.0007 -2.1637 -0.0002
# 2 17.9123 73.5657 23.0531 -0.0014 -1.7602 0.0006
# 3 13.3520 23.0531 63.6036 -0.0004 12.7419 0.0002
# 4 0.0007 -0.0014 -0.0004 2.8634 0.0007 1.7295
# 5 -2.1637 -1.7602 12.7419 0.0007 12.4426 -0.0004
# 6 -0.0002 0.0006 0.0002 1.7295 -0.0004 1.3409
#
#
#
# Elastic Compliance Matrix: (Units=1/GPa)
#
#
# Indices 1 2 3 4 5 6 
#
# 1 0.014632 -0.002384 -0.003334 -0.000045 0.005621 0.000063
# 2 -0.002384 0.016756 -0.007504 0.000033 0.009641 -0.000047
# 3 -0.003334 -0.007504 0.024496 0.000060 -0.026727 -0.000087
# 4 -0.000045 0.000033 0.000060 1.580667 -0.000220 -2.038747
# 5 0.005621 0.009641 -0.026727 -0.000220 0.110080 0.000317
# 6 0.000063 -0.000047 -0.000087 -2.038747 0.000317 3.375347
#
#
# Mechanical properties :
#
#
# Convention : Reuss Voigt Hill
#
# Bulk Modulus (GPa) = 33.96574 35.65971 34.81272
# Shear Modulus (GPa) = 0.96932 13.86171 7.41552
#
# Velocity S-wave (km/s) = 0.73601 2.78329 2.03573
# Velocity P-wave (km/s) = 4.43894 5.50069 4.99809
#
# Compressibility (1/GPa) = 0.02944143
#
# Stress axis : x y z
#
# Youngs Moduli (GPa) = 68.34181 59.68060 40.82224
#
# Poissons Ratio (x) = 0.14225 0.13610
# Poissons Ratio (y) = 0.16289 0.30634
# Poissons Ratio (z) = 0.22785 0.44785
#
# Static dielectric constant tensor:
#      x y z
#    x 1.625370 0.000000 0.039110 
#    y 0.000000 1.604080 0.000000 
#    z 0.039110 0.000000 1.638560 
# 
# From -- ./inp_files/265098.got.cif
#   From: 2010.05.17/outbox.cif.g08.bks.cpg/sg12_133_cif.got.tgz:265098.got - 2010.06.03 13:09:07.
