data_PCOD9170703
_publ_section_title
;
Structure prediction by ZEFSAII (Michael W. Deem and Ramdas Pophale) SiO2 
 PCOD9170703
Probable space group: C 2/M
;
_chemical_formula_sum "Si O2"
_cell_formula_units_Z 48
_cell_length_a 20.997800
_cell_length_b 7.808686
_cell_length_c 19.549254
_cell_angle_alpha 90.000000
_cell_angle_beta 54.653568
_cell_angle_gamma 90.000000
_cell_volume 2614.543774
_symmetry_space_group_name_H-M "C 2/M"
_symmetry_group_IT_number 12
_symmetry_cell_setting 'monoclinic'
loop_
_space_group_symop_operation_xyz
x,y,z
-x,y,-z
-x,-y,-z
x,-y,z
1/2+x,1/2+y,z
1/2-x,1/2+y,-z
1/2-x,1/2-y,-z
1/2+x,1/2-y,z
loop_
_atom_site_type_symbol
_atom_site_label
_atom_site_fract_x
_atom_site_fract_y
_atom_site_fract_z
Si Si1 0.802883 0.706371 0.758129
Si Si2 0.388386 0.500000 0.022149
Si Si3 0.911805 0.291389 0.567559
Si Si4 0.764685 0.294884 0.569236
Si Si5 0.228842 0.697163 0.936303
Si Si6 0.155199 0.692690 0.756683
Si Si7 0.050100 0.000000 0.861137
O O1 0.802907 0.500000 0.761486
O O2 0.873434 0.760438 0.664142
O O3 0.798131 0.778466 0.837603
O O4 0.723512 0.763103 0.768806
O O5 0.336708 0.331214 0.045693
O O6 0.421500 0.500000 0.077895
O O7 0.457298 0.500000 0.923864
O O8 0.914000 0.500000 0.566516
O O9 0.849076 0.241978 0.547909
O O10 0.000000 0.230698 0.500000
O O11 0.759077 0.500000 0.582293
O O12 0.750000 0.250000 0.500000
O O13 0.698827 0.210059 0.657230
O O14 0.203767 0.500000 0.950041
O O15 0.250000 0.750000 0.000000
O O16 0.127548 0.500000 0.785427
O O17 0.087576 0.832157 0.804409
#
# Coordination Sequence:
#
# PCOD9170703 Si02
#       7
#     8   4   8   8   8   8   4
#     4  10  17  33  57  84 116 151 196 240 286 342
#     4  11  24  40  60  90 118 148 189 247 301 343
#     4   8  16  31  55  84 113 147 189 238 288 337
#     4  10  19  33  55  83 115 151 197 240 284 344
#     4  12  22  38  62  86 116 154 201 239 287 349
#     4  11  19  34  59  84 114 156 195 234 284 350
#     4  11  22  40  60  86 124 145 187 249 297 347
#
# _framework density 18.358844000000001
#
# number of rings (size 3 to 8) (size 9 to 14) (size 15 to 20)
#    0.000    1.667    5.000    2.000    0.000    0.667 
#    0.000    3.333    0.000   21.000    0.000    0.000 
#    0.000    0.000    0.000    0.000    0.000    0.000 
#
# Total GULP energy -133929.821715 kJ/mol
# GULP energy per Si atom -5580.409238 kJ/mol
# Density = 1.831706 g / cm^3
# Si number density = 18.358844 Si / 1000 Ang^3
#
#
#
# Elastic Constant Matrix: (Units=GPa)
#
#
# Indices 1 2 3 4 5 6 
#
# 1 54.1788 21.4316 61.5782 0.0001 -7.0509 0.0001
# 2 21.4316 122.2996 31.4375 0.0001 -14.0611 0.0000
# 3 61.5782 31.4375 151.7841 0.0000 -2.2874 0.0000
# 4 0.0001 0.0001 0.0000 23.9742 0.0000 10.8390
# 5 -7.0509 -14.0611 -2.2874 0.0000 40.6970 -0.0001
# 6 0.0001 0.0000 0.0000 10.8390 -0.0001 3.3508
#
#
#
# Elastic Compliance Matrix: (Units=1/GPa)
#
#
# Indices 1 2 3 4 5 6 
#
# 1 0.035869 -0.002138 -0.014038 0.000000 0.004687 0.000001
# 2 -0.002138 0.009116 -0.000980 0.000000 0.002724 0.000000
# 3 -0.014038 -0.000980 0.012455 0.000000 -0.002071 0.000000
# 4 0.000000 0.000000 0.000000 -0.090193 0.000001 0.291752
# 5 0.004687 0.002724 -0.002071 0.000001 0.026209 -0.000002
# 6 0.000001 0.000000 0.000000 0.291752 -0.000002 -0.645311
#
#
# Mechanical properties :
#
#
# Convention : Reuss Voigt Hill
#
# Bulk Modulus (GPa) = 43.23749 61.90636 52.57193
# Shear Modulus (GPa) = -8.19897 27.85874 9.82989
#
# Velocity S-wave (km/s) = -2.11557 3.89968 2.31645
# Velocity P-wave (km/s) = 4.19939 7.35323 5.98769
#
# Compressibility (1/GPa) = 0.02312808
#
# Stress axis : x y z
#
# Youngs Moduli (GPa) = 27.87942 109.69271 80.28699
#
# Poissons Ratio (x) = 0.23454 1.12710
# Poissons Ratio (y) = 0.05961 0.07866
# Poissons Ratio (z) = 0.39138 0.10746
#
# Static dielectric constant tensor:
#      x y z
#    x 1.610410 0.000000 -0.002530 
#    y 0.000000 1.609870 0.000000 
#    z -0.002530 0.000000 1.661790 
# 
# From -- ./inp_files/280095.got.cif
#   From: 2010.05.17/outbox.cif.g08.bks.cpg/sg12_141_cif.got.tgz:280095.got - 2010.06.03 13:09:07.
