data_PCOD9170949
_publ_section_title
;
Structure prediction by ZEFSAII (Michael W. Deem and Ramdas Pophale) SiO2 
 PCOD9170949
Probable space group: C 2/M
;
_chemical_formula_sum "Si O2"
_cell_formula_units_Z 44
_cell_length_a 12.206540
_cell_length_b 13.339241
_cell_length_c 10.722415
_cell_angle_alpha 90.000000
_cell_angle_beta 80.141551
_cell_angle_gamma 90.000000
_cell_volume 1720.107504
_symmetry_space_group_name_H-M "C 2/M"
_symmetry_group_IT_number 12
_symmetry_cell_setting 'monoclinic'
loop_
_space_group_symop_operation_xyz
x,y,z
-x,y,-z
-x,-y,-z
x,-y,z
1/2+x,1/2+y,z
1/2-x,1/2+y,-z
1/2-x,1/2-y,-z
1/2+x,1/2-y,z
loop_
_atom_site_type_symbol
_atom_site_label
_atom_site_fract_x
_atom_site_fract_y
_atom_site_fract_z
Si Si1 0.160207 0.390414 0.742932
Si Si2 0.500000 0.659500 0.500000
Si Si3 0.268449 0.666758 0.208011
Si Si4 0.627160 0.853214 0.481260
Si Si5 0.437284 0.174871 0.883323
Si Si6 0.984750 0.893795 0.788129
O O1 0.186850 0.500000 0.791994
O O2 0.208166 0.287444 0.790670
O O3 0.188250 0.391571 0.591408
O O4 0.026205 0.374199 0.772410
O O5 0.603215 0.734589 0.504179
O O6 0.519561 0.609031 0.362605
O O7 0.196529 0.635607 0.342771
O O8 0.387334 0.615895 0.193655
O O9 0.188077 0.639044 0.109127
O O10 0.500000 0.892626 0.500000
O O11 0.432398 0.292811 0.852133
O O12 0.500000 0.158394 0.000000
O O13 0.938676 0.000000 0.840433
#
# Coordination Sequence:
#
# PCOD9170949 Si02
#       6
#     8   4   8   8   8   8
#     4  11  24  39  63  98 126 159 209 257 311 376
#     4  10  17  40  61  88 128 164 191 242 307 370
#     4  11  21  43  62  91 128 165 206 254 316 372
#     4  10  17  38  62  87 125 164 195 239 305 376
#     4  11  24  46  68  83 122 172 212 263 314 361
#     4  11  24  39  64  99 128 161 208 255 309 377
#
# _framework density 25.579796999999999
#
# number of rings (size 3 to 8) (size 9 to 14) (size 15 to 20)
#    0.545    0.727    7.273    0.818    0.000    6.182 
#    0.000    1.818    0.000    0.000    0.000    0.000 
#    0.000    0.000    0.000    0.000    0.000    0.000 
#
# Total GULP energy -123001.973158 kJ/mol
# GULP energy per Si atom -5590.998780 kJ/mol
# Density = 2.552158 g / cm^3
# Si number density = 25.579797 Si / 1000 Ang^3
#
#
#
# Elastic Constant Matrix: (Units=GPa)
#
#
# Indices 1 2 3 4 5 6 
#
# 1 114.1070 11.5663 2.7631 0.0000 29.2931 0.0000
# 2 11.5663 122.3902 0.9834 0.0000 10.7903 0.0000
# 3 2.7631 0.9834 75.2132 0.0000 30.3887 0.0000
# 4 0.0000 0.0000 0.0000 -12.8038 0.0000 2.2276
# 5 29.2931 10.7903 30.3887 0.0000 40.1900 0.0000
# 6 0.0000 0.0000 0.0000 2.2276 0.0000 -25.0467
#
#
#
# Elastic Compliance Matrix: (Units=1/GPa)
#
#
# Indices 1 2 3 4 5 6 
#
# 1 0.011689 -0.000102 0.004324 0.000000 -0.011761 0.000000
# 2 -0.000102 0.008439 0.001121 0.000000 -0.003039 0.000000
# 3 0.004324 0.001121 0.020903 0.000000 -0.019258 0.000000
# 4 0.000000 0.000000 0.000000 -0.079330 0.000000 -0.007056
# 5 -0.011761 -0.003039 -0.019258 0.000000 0.048831 0.000000
# 6 0.000000 0.000000 0.000000 -0.007056 0.000000 -0.040553
#
#
# Mechanical properties :
#
#
# Convention : Reuss Voigt Hill
#
# Bulk Modulus (GPa) = 19.33628 38.03734 28.68681
# Shear Modulus (GPa) = -213.06366 20.22776 -96.41795
#
# Velocity S-wave (km/s) = -9.13644 2.81512 -6.14612
# Velocity P-wave (km/s) = 10.18449 5.04667 6.25520
#
# Compressibility (1/GPa) = 0.05171625
#
# Stress axis : x y z
#
# Youngs Moduli (GPa) = 85.55244 118.49497 47.84045
#
# Poissons Ratio (x) = 0.01214 -0.20686
# Poissons Ratio (y) = 0.00876 -0.05364
# Poissons Ratio (z) = -0.36992 -0.13286
#
# Static dielectric constant tensor:
#      x y z
#    x 1.992380 0.000000 -0.001680 
#    y 0.000000 2.033900 0.000000 
#    z -0.001680 0.000000 2.061600 
# 
# From -- ./inp_files/129767.got.cif
#   From: 2010.05.17/outbox.cif.g08.bks.cpg/sg12_65_cif.got.tgz:129767.got - 2010.06.03 13:09:07.
