data_PCOD9170176
_publ_section_title
;
Structure prediction by ZEFSAII (Michael W. Deem and Ramdas Pophale) SiO2 
 PCOD9170176
Probable space group: C 2/M
;
_chemical_formula_sum "Si O2"
_cell_formula_units_Z 44
_cell_length_a 9.157696
_cell_length_b 22.952410
_cell_length_c 10.292391
_cell_angle_alpha 90.000000
_cell_angle_beta 65.442974
_cell_angle_gamma 90.000000
_cell_volume 1967.688980
_symmetry_space_group_name_H-M "C 2/M"
_symmetry_group_IT_number 12
_symmetry_cell_setting 'monoclinic'
loop_
_space_group_symop_operation_xyz
x,y,z
-x,y,-z
-x,-y,-z
x,-y,z
1/2+x,1/2+y,z
1/2-x,1/2+y,-z
1/2-x,1/2-y,-z
1/2+x,1/2-y,z
loop_
_atom_site_type_symbol
_atom_site_label
_atom_site_fract_x
_atom_site_fract_y
_atom_site_fract_z
Si Si1 0.129848 0.330249 0.169623
Si Si2 0.000000 0.367975 0.500000
Si Si3 0.819197 0.065737 0.395651
Si Si4 0.495773 0.316564 0.648768
Si Si5 0.679848 0.435387 0.914870
Si Si6 0.840230 0.258749 0.195919
O O1 0.181731 0.392017 0.094478
O O2 0.291358 0.291601 0.114012
O O3 0.065389 0.335496 0.344765
O O4 0.996198 0.298171 0.137521
O O5 0.852162 0.406910 0.500629
O O6 0.802729 0.060707 0.246492
O O7 0.953048 0.115542 0.368258
O O8 0.847960 0.000000 0.435751
O O9 0.500000 0.295857 0.500000
O O10 0.314140 0.301079 0.754486
O O11 0.621569 0.279770 0.688012
O O12 0.687657 0.500000 0.970265
O O13 0.500000 0.412351 0.000000
#
# Coordination Sequence:
#
# PCOD9170176 Si02
#       6
#     8   4   8   8   8   8
#     4  10  20  33  52  80 106 138 173 214 260 309
#     4  10  17  30  50  78 102 140 169 212 256 304
#     4  10  20  34  51  78 108 136 174 218 267 310
#     4  11  20  32  50  75 106 148 174 208 253 311
#     4   9  18  36  60  78  98 135 183 223 256 306
#     4  10  21  31  51  74 112 138 176 209 252 314
#
# _framework density 22.361256999999998
#
# number of rings (size 3 to 8) (size 9 to 14) (size 15 to 20)
#    0.000    2.000    3.636    1.909    5.091    1.091 
#    0.000    1.818    0.000    0.000    0.000    3.818 
#    0.000    0.000    0.000    0.000    0.000    0.000 
#
# Total GULP energy -122693.899218 kJ/mol
# GULP energy per Si atom -5576.995419 kJ/mol
# Density = 2.231036 g / cm^3
# Si number density = 22.361257 Si / 1000 Ang^3
#
#
#
# Elastic Constant Matrix: (Units=GPa)
#
#
# Indices 1 2 3 4 5 6 
#
# 1 129.6885 78.4939 16.4189 0.0000 -16.6372 0.0000
# 2 78.4939 156.4002 28.7675 0.0000 -23.2015 0.0000
# 3 16.4189 28.7675 39.9173 0.0000 -0.8637 0.0000
# 4 0.0000 0.0000 0.0000 -30.9351 0.0000 233.7607
# 5 -16.6372 -23.2015 -0.8637 0.0000 25.8318 0.0000
# 6 0.0000 0.0000 0.0000 233.7607 0.0000-1185.3291
#
#
#
# Elastic Compliance Matrix: (Units=1/GPa)
#
#
# Indices 1 2 3 4 5 6 
#
# 1 0.011241 -0.005083 -0.000903 0.000000 0.002644 0.000000
# 2 -0.005083 0.010925 -0.005645 0.000000 0.006350 0.000000
# 3 -0.000903 -0.005645 0.029391 0.000000 -0.004670 0.000000
# 4 0.000000 0.000000 0.000000 0.065940 0.000000 0.013004
# 5 0.002644 0.006350 -0.004670 0.000000 0.045962 0.000000
# 6 0.000000 0.000000 0.000000 0.013004 0.000000 0.001721
#
#
# Mechanical properties :
#
#
# Convention : Reuss Voigt Hill
#
# Bulk Modulus (GPa) = 35.34371 63.70740 49.52555
# Shear Modulus (GPa) = 25.26839 -224.59809 -99.66485
#
# Velocity S-wave (km/s) = 3.36521 -10.03288 -6.68334
# Velocity P-wave (km/s) = 5.56234 10.27909 6.11229
#
# Compressibility (1/GPa) = 0.02829358
#
# Stress axis : x y z
#
# Youngs Moduli (GPa) = 88.96060 91.52912 34.02431
#
# Poissons Ratio (x) = 0.46527 0.03073
# Poissons Ratio (y) = 0.45221 0.19208
# Poissons Ratio (z) = 0.08034 0.51673
#
# Static dielectric constant tensor:
#      x y z
#    x 1.793310 0.000000 -0.032450 
#    y 0.000000 1.898840 0.000000 
#    z -0.032450 0.000000 1.934890 
# 
# From -- ./inp_files/122327.got.cif
#   From: 2010.05.17/outbox.cif.g08.bks.cpg/sg12_62_cif.got.tgz:122327.got - 2010.06.03 13:09:07.
