data_PCOD9170587
_publ_section_title
;
Structure prediction by ZEFSAII (Michael W. Deem and Ramdas Pophale) SiO2 
 PCOD9170587
Probable space group: C 2/M
;
_chemical_formula_sum "Si O2"
_cell_formula_units_Z 44
_cell_length_a 12.704544
_cell_length_b 14.399480
_cell_length_c 11.308313
_cell_angle_alpha 90.000000
_cell_angle_beta 88.521793
_cell_angle_gamma 90.000000
_cell_volume 2068.041064
_symmetry_space_group_name_H-M "C 2/M"
_symmetry_group_IT_number 12
_symmetry_cell_setting 'monoclinic'
loop_
_space_group_symop_operation_xyz
x,y,z
-x,y,-z
-x,-y,-z
x,-y,z
1/2+x,1/2+y,z
1/2-x,1/2+y,-z
1/2-x,1/2-y,-z
1/2+x,1/2-y,z
loop_
_atom_site_type_symbol
_atom_site_label
_atom_site_fract_x
_atom_site_fract_y
_atom_site_fract_z
Si Si1 0.548855 0.870303 0.757018
Si Si2 0.089034 0.500000 0.099370
Si Si3 0.527206 0.500000 0.135624
Si Si4 0.641112 0.895131 0.511656
Si Si5 0.452911 0.340055 0.299242
Si Si6 0.218380 0.500000 0.876426
Si Si7 0.148021 0.818879 0.456741
O O1 0.552952 0.896175 0.617275
O O2 0.551526 0.760493 0.759144
O O3 0.443541 0.912382 0.818981
O O4 0.649649 0.914995 0.821614
O O5 0.194837 0.500000 0.019535
O O6 0.000000 0.500000 0.000000
O O7 0.468520 0.414097 0.198524
O O8 0.655774 0.500000 0.149125
O O9 0.500000 0.500000 0.000000
O O10 0.747850 0.872655 0.582840
O O11 0.639282 0.794082 0.446526
O O12 0.649229 0.000000 0.460688
O O13 0.554270 0.353031 0.379675
O O14 0.363530 0.343052 0.403128
#
# Coordination Sequence:
#
# PCOD9170587 Si02
#       7
#     8   4   4   8   8   4   8
#     4   9  17  35  62  92 121 163 200 259 308 369
#     4   8  16  32  57  87 113 149 210 252 302 360
#     4  12  28  45  64  90 121 165 218 264 309 377
#     4  10  17  32  57  92 133 161 208 247 304 378
#     4  10  22  40  59  88 128 158 209 253 310 376
#     4  10  20  40  65  87 116 164 217 254 323 374
#     4   9  21  35  57  95 126 170 201 247 316 378
#
# _framework density 21.276174000000001
#
# number of rings (size 3 to 8) (size 9 to 14) (size 15 to 20)
#    0.000    2.545    1.818    1.091    2.545    2.909 
#    3.273   10.909    0.000    0.000    0.000    0.000 
#    0.000    0.000    0.000    0.000    0.000    0.000 
#
# Total GULP energy -122470.630369 kJ/mol
# GULP energy per Si atom -5566.846835 kJ/mol
# Density = 2.122775 g / cm^3
# Si number density = 21.276174 Si / 1000 Ang^3
#
#
#
# Elastic Constant Matrix: (Units=GPa)
#
#
# Indices 1 2 3 4 5 6 
#
# 1 41.7456 6.7958 6.5028 0.0000 -11.0642 0.0000
# 2 6.7958 150.3104 61.5058 0.0000 -18.4095 0.0000
# 3 6.5028 61.5058 109.9760 0.0000 -17.8466 0.0000
# 4 0.0000 0.0000 0.0000 -190.6143 0.0000 28.8218
# 5 -11.0642 -18.4095 -17.8466 0.0000 29.8076 0.0000
# 6 0.0000 0.0000 0.0000 28.8218 0.0000 23.6112
#
#
#
# Elastic Compliance Matrix: (Units=1/GPa)
#
#
# Indices 1 2 3 4 5 6 
#
# 1 0.026568 -0.000006 0.000035 0.000000 0.009880 0.000000
# 2 -0.000006 0.008828 -0.004489 0.000000 0.002763 0.000000
# 3 0.000035 -0.004489 0.012354 0.000000 0.004637 0.000000
# 4 0.000000 0.000000 0.000000 -0.004429 0.000000 0.005406
# 5 0.009880 0.002763 0.004637 0.000000 0.041698 0.000000
# 6 0.000000 0.000000 0.000000 0.005406 0.000000 0.035754
#
#
# Mechanical properties :
#
#
# Convention : Reuss Voigt Hill
#
# Bulk Modulus (GPa) = 25.75159 50.18231 37.96695
# Shear Modulus (GPa) = 35.05430 -12.29058 11.38186
#
# Velocity S-wave (km/s) = 4.06345 -2.40608 2.31543
# Velocity P-wave (km/s) = 5.84339 3.98979 5.00318
#
# Compressibility (1/GPa) = 0.03883256
#
# Stress axis : x y z
#
# Youngs Moduli (GPa) = 37.63861 113.27258 80.94751
#
# Poissons Ratio (x) = 0.00064 -0.00287
# Poissons Ratio (y) = 0.00021 0.36335
# Poissons Ratio (z) = -0.00133 0.50844
#
# Static dielectric constant tensor:
#      x y z
#    x 1.893490 0.000000 -0.032420 
#    y 0.000000 1.811160 0.000000 
#    z -0.032420 0.000000 1.810680 
# 
# From -- ./inp_files/142048.got.cif
#   From: 2010.05.17/outbox.cif.g08.bks.cpg/sg12_72_cif.got.tgz:142048.got - 2010.06.03 13:09:07.
