data_PCOD9170535
_publ_section_title
;
Structure prediction by ZEFSAII (Michael W. Deem and Ramdas Pophale) SiO2 
 PCOD9170535
Probable space group: C 2/M
;
_chemical_formula_sum "Si O2"
_cell_formula_units_Z 60
_cell_length_a 7.091959
_cell_length_b 14.218213
_cell_length_c 21.761579
_cell_angle_alpha 90.000000
_cell_angle_beta 76.342073
_cell_angle_gamma 90.000000
_cell_volume 2132.278935
_symmetry_space_group_name_H-M "C 2/M"
_symmetry_group_IT_number 12
_symmetry_cell_setting 'monoclinic'
loop_
_space_group_symop_operation_xyz
x,y,z
-x,y,-z
-x,-y,-z
x,-y,z
1/2+x,1/2+y,z
1/2-x,1/2+y,-z
1/2-x,1/2-y,-z
1/2+x,1/2-y,z
loop_
_atom_site_type_symbol
_atom_site_label
_atom_site_fract_x
_atom_site_fract_y
_atom_site_fract_z
Si Si1 0.374156 0.862470 0.424380
Si Si2 0.990160 0.134519 0.307853
Si Si3 0.761381 0.500000 0.208148
Si Si4 0.940838 0.358388 0.710874
Si Si5 0.211724 0.362376 0.009581
Si Si6 0.872203 0.139965 0.872867
Si Si7 0.806967 0.137292 0.442556
Si Si8 0.307600 0.861281 0.849096
O O1 0.400681 0.890758 0.351410
O O2 0.213451 0.895586 0.485555
O O3 0.590081 0.881993 0.433795
O O4 0.340416 0.749989 0.433297
O O5 0.153176 0.079796 0.259782
O O6 0.773053 0.118476 0.298010
O O7 0.964833 0.105403 0.381122
O O8 0.036793 0.245274 0.293875
O O9 0.784075 0.581304 0.151843
O O10 0.944093 0.394699 0.781416
O O11 0.358727 0.391694 0.945058
O O12 0.250000 0.250000 0.000000
O O13 0.206883 0.395815 0.079772
O O14 0.000000 0.380859 0.000000
O O15 0.093521 0.120761 0.838238
O O16 0.838607 0.249729 0.859331
#
# Coordination Sequence:
#
# PCOD9170535 Si02
#       8
#     8   8   4   8   8   8   8   8
#     4   8  14  23  44  70 108 128 180 220 273 299
#     4  10  20  33  56  78 115 143 190 225 280 321
#     4  12  22  36  52  85 117 149 175 231 281 336
#     4  10  17  32  53  84 104 147 183 237 264 328
#     4  10  20  35  58  84 107 140 181 227 270 325
#     4  11  22  36  60  83 112 144 184 228 277 328
#     4   8  14  26  42  72 101 143 166 226 266 318
#     4  11  18  35  57  84 107 145 188 228 269 329
#
# _framework density 28.138908000000001
#
# number of rings (size 3 to 8) (size 9 to 14) (size 15 to 20)
#    0.000    2.133    2.667    3.600    0.000    0.000 
#    0.000    1.667    0.000   12.800    0.000    0.000 
#    0.000  174.933    0.000    0.000    0.000    0.000 
#
# Total GULP energy -167204.258640 kJ/mol
# GULP energy per Si atom -5573.475288 kJ/mol
# Density = 2.807486 g / cm^3
# Si number density = 28.138908 Si / 1000 Ang^3
#
#
#
# Elastic Constant Matrix: (Units=GPa)
#
#
# Indices 1 2 3 4 5 6 
#
# 1 127.3513 -36.1301 40.0663 0.0000 -17.0318 0.0000
# 2 -36.1301 118.1858 -7.8992 0.0000 5.2023 0.0000
# 3 40.0663 -7.8992 320.4604 0.0000 -20.1315 0.0000
# 4 0.0000 0.0000 0.0000 -28.1330 0.0000 1.3745
# 5 -17.0318 5.2023 -20.1315 0.0000 60.9119 0.0000
# 6 0.0000 0.0000 0.0000 1.3745 0.0000 -111.2495
#
#
#
# Elastic Compliance Matrix: (Units=1/GPa)
#
#
# Indices 1 2 3 4 5 6 
#
# 1 0.009176 0.002652 -0.000955 0.000000 0.002024 0.000000
# 2 0.002652 0.009269 -0.000109 0.000000 -0.000086 0.000000
# 3 -0.000955 -0.000109 0.003289 0.000000 0.000829 0.000000
# 4 0.000000 0.000000 0.000000 -0.035567 0.000000 -0.000439
# 5 0.002024 -0.000086 0.000829 0.000000 0.017264 0.000000
# 6 0.000000 0.000000 0.000000 -0.000439 0.000000 -0.008994
#
#
# Mechanical properties :
#
#
# Convention : Reuss Voigt Hill
#
# Bulk Modulus (GPa) = 40.14207 62.00793 51.07500
# Shear Modulus (GPa) = -11436.84783 22.30325 -5707.27229
#
# Velocity S-wave (km/s) = -63.82201 2.81839 -45.08495
# Velocity P-wave (km/s) = 73.59824 5.71623 51.88461
#
# Compressibility (1/GPa) = 0.02491152
#
# Stress axis : x y z
#
# Youngs Moduli (GPa) = 108.98308 107.89146 304.01544
#
# Poissons Ratio (x) = -0.28615 0.29025
# Poissons Ratio (y) = -0.28904 0.03299
# Poissons Ratio (z) = 0.10405 0.01171
#
# Static dielectric constant tensor:
#      x y z
#    x 2.241860 0.000000 0.090050 
#    y 0.000000 2.185960 0.000000 
#    z 0.090050 0.000000 2.241890 
# 
# From -- ./inp_files/332899.got.cif
#   From: 2010.05.17/outbox.cif.g08.bks.cpg/sg12_167_cif.got.tgz:332899.got - 2010.06.03 13:09:07.
