data_PCOD9170532
_publ_section_title
;
Structure prediction by ZEFSAII (Michael W. Deem and Ramdas Pophale) SiO2 
 PCOD9170532
Probable space group: C 2/M
;
_chemical_formula_sum "Si O2"
_cell_formula_units_Z 56
_cell_length_a 23.673381
_cell_length_b 21.015639
_cell_length_c 16.804843
_cell_angle_alpha 90.000000
_cell_angle_beta 159.697603
_cell_angle_gamma 90.000000
_cell_volume 2900.917590
_symmetry_space_group_name_H-M "C 2/M"
_symmetry_group_IT_number 12
_symmetry_cell_setting 'monoclinic'
loop_
_space_group_symop_operation_xyz
x,y,z
-x,y,-z
-x,-y,-z
x,-y,z
1/2+x,1/2+y,z
1/2-x,1/2+y,-z
1/2-x,1/2-y,-z
1/2+x,1/2-y,z
loop_
_atom_site_type_symbol
_atom_site_label
_atom_site_fract_x
_atom_site_fract_y
_atom_site_fract_z
Si Si1 0.118086 0.611693 0.222779
Si Si2 0.823285 0.071357 0.634909
Si Si3 0.303705 0.324834 0.744222
Si Si4 0.895143 0.702297 0.030073
Si Si5 0.142137 0.804653 0.560321
Si Si6 0.633340 0.349718 0.998236
Si Si7 0.228244 0.824852 0.957269
O O1 0.189595 0.571152 0.388807
O O2 0.263510 0.642838 0.365576
O O3 0.000000 0.582098 0.000000
O O4 0.022460 0.669187 0.140243
O O5 0.779038 0.121180 0.645948
O O6 0.987552 0.100499 0.813572
O O7 0.849520 0.000000 0.699981
O O8 0.188428 0.263555 0.581390
O O9 0.500000 0.307558 0.000000
O O10 0.276040 0.350227 0.797320
O O11 0.725913 0.702136 0.757070
O O12 0.859443 0.661804 0.062243
O O13 0.935375 0.776573 0.098825
O O14 0.957010 0.826694 0.318111
O O15 0.735547 0.358560 0.052540
O O16 0.250000 0.750000 0.000000
#
# Coordination Sequence:
#
# PCOD9170532 Si02
#       7
#     8   8   8   8   8   8   8
#     4  10  20  34  55  81 106 136 171 226 276 319
#     4  11  22  34  54  77 102 145 190 225 263 303
#     4   9  19  32  51  80 108 136 173 222 265 317
#     4   9  19  32  52  85 113 137 171 210 274 334
#     4  10  17  32  53  80 113 142 166 212 274 330
#     4   9  18  34  49  78 111 135 174 215 262 317
#     4  10  19  29  49  82 114 144 167 202 262 337
#
# _framework density 19.304236
#
# number of rings (size 3 to 8) (size 9 to 14) (size 15 to 20)
#    0.000    2.286    1.429    3.429    4.000    4.000 
#    0.000    0.000    0.000    0.857    0.000    3.000 
#    0.000    0.000    0.000    0.000    0.000    0.000 
#
# Total GULP energy -156043.882118 kJ/mol
# GULP energy per Si atom -5572.995790 kJ/mol
# Density = 1.926030 g / cm^3
# Si number density = 19.304236 Si / 1000 Ang^3
#
#
#
# Elastic Constant Matrix: (Units=GPa)
#
#
# Indices 1 2 3 4 5 6 
#
# 1 102.8182 19.8449 3.1943 0.0000 -5.2263 0.0000
# 2 19.8449 53.4210 3.8587 0.0000 -9.8736 0.0000
# 3 3.1943 3.8587 43.8960 0.0000 -4.5438 0.0000
# 4 0.0000 0.0000 0.0000 10.1730 0.0000 -1.1554
# 5 -5.2263 -9.8736 -4.5438 0.0000 26.2967 0.0000
# 6 0.0000 0.0000 0.0000 -1.1554 0.0000 7.7150
#
#
#
# Elastic Compliance Matrix: (Units=1/GPa)
#
#
# Indices 1 2 3 4 5 6 
#
# 1 0.010494 -0.003759 -0.000370 0.000000 0.000610 0.000000
# 2 -0.003759 0.021505 -0.000874 0.000000 0.007176 0.000000
# 3 -0.000370 -0.000874 0.023259 0.000000 0.003617 0.000000
# 4 0.000000 0.000000 0.000000 0.100000 0.000000 0.014976
# 5 0.000610 0.007176 0.003617 0.000000 0.041468 0.000000
# 6 0.000000 0.000000 0.000000 0.014976 0.000000 0.131861
#
#
# Mechanical properties :
#
#
# Convention : Reuss Voigt Hill
#
# Bulk Modulus (GPa) = 22.09814 28.21453 25.15634
# Shear Modulus (GPa) = 14.13718 20.38610 17.26164
#
# Velocity S-wave (km/s) = 2.70911 3.25321 2.99354
# Velocity P-wave (km/s) = 4.61062 5.36270 5.00082
#
# Compressibility (1/GPa) = 0.04525267
#
# Stress axis : x y z
#
# Youngs Moduli (GPa) = 95.29347 46.50067 42.99355
#
# Poissons Ratio (x) = 0.17478 0.01591
# Poissons Ratio (y) = 0.35818 0.03758
# Poissons Ratio (z) = 0.03526 0.04064
#
# Static dielectric constant tensor:
#      x y z
#    x 2.106340 0.000000 -0.397390 
#    y 0.000000 1.646280 0.000000 
#    z -0.397390 0.000000 2.080980 
# 
# From -- ./inp_files/272428.got.cif
#   From: 2010.05.17/outbox.cif.g08.bks.cpg/sg12_137_cif.got.tgz:272428.got - 2010.06.03 13:09:07.
