data_PCOD9170015
_publ_section_title
;
Structure prediction by ZEFSAII (Michael W. Deem and Ramdas Pophale) SiO2 
 PCOD9170015
Probable space group: C 2/M
;
_chemical_formula_sum "Si O2"
_cell_formula_units_Z 56
_cell_length_a 9.724281
_cell_length_b 14.064297
_cell_length_c 17.487182
_cell_angle_alpha 90.000000
_cell_angle_beta 95.046462
_cell_angle_gamma 90.000000
_cell_volume 2382.366808
_symmetry_space_group_name_H-M "C 2/M"
_symmetry_group_IT_number 12
_symmetry_cell_setting 'monoclinic'
loop_
_space_group_symop_operation_xyz
x,y,z
-x,y,-z
-x,-y,-z
x,-y,z
1/2+x,1/2+y,z
1/2-x,1/2+y,-z
1/2-x,1/2-y,-z
1/2+x,1/2-y,z
loop_
_atom_site_type_symbol
_atom_site_label
_atom_site_fract_x
_atom_site_fract_y
_atom_site_fract_z
Si Si1 0.986634 0.889664 0.202452
Si Si2 0.243082 0.390487 0.078817
Si Si3 0.074523 0.610887 0.578560
Si Si4 0.286507 0.691377 0.693518
Si Si5 0.884153 0.608730 0.174037
Si Si6 0.138397 0.606054 0.288877
Si Si7 0.161941 0.188145 0.069681
O O1 0.054077 0.830594 0.275813
O O2 0.074227 0.858449 0.132275
O O3 0.831905 0.882171 0.161356
O O4 0.011471 0.000000 0.220881
O O5 0.193362 0.500000 0.070195
O O6 0.139534 0.301294 0.066497
O O7 0.341880 0.366974 0.010404
O O8 0.105364 0.500000 0.565633
O O9 0.964718 0.613773 0.643015
O O10 0.000000 0.651410 0.500000
O O11 0.217178 0.658784 0.611708
O O12 0.201946 0.634165 0.753945
O O13 0.265303 0.803447 0.700700
O O14 0.178855 0.675302 0.893432
O O15 0.858014 0.500000 0.150105
O O16 0.041086 0.615571 0.209311
O O17 0.199369 0.500000 0.293214
#
# Coordination Sequence:
#
# PCOD9170015 Si02
#       7
#     8   8   8   8   8   8   8
#     4  10  19  32  50  71  93 119 156 196 233 276
#     4  10  20  31  46  69  94 121 157 198 238 280
#     4   9  18  33  52  74  97 121 153 190 226 270
#     4  10  17  29  51  72  93 120 155 191 229 270
#     4   9  17  31  49  69  92 121 160 197 229 272
#     4   9  18  31  48  70  96 125 155 188 226 271
#     4  10  18  30  49  67  91 125 159 194 237 279
#
# _framework density 23.506035000000001
#
# number of rings (size 3 to 8) (size 9 to 14) (size 15 to 20)
#    0.000    2.429    0.000    5.571    0.000    1.714 
#    0.000    2.857    0.000   19.286    0.000    0.000 
#    0.000    0.000    0.000    0.000    0.000    0.000 
#
# Total GULP energy -156433.766779 kJ/mol
# GULP energy per Si atom -5586.920242 kJ/mol
# Density = 2.345253 g / cm^3
# Si number density = 23.506035 Si / 1000 Ang^3
#
#
#
# Elastic Constant Matrix: (Units=GPa)
#
#
# Indices 1 2 3 4 5 6 
#
# 1 66.3661 12.6045 15.1889 0.0000 12.4199 0.0000
# 2 12.6045 155.0926 33.1683 0.0000 15.0142 0.0000
# 3 15.1889 33.1683 130.2118 0.0000 36.5636 0.0000
# 4 0.0000 0.0000 0.0000 26.6469 0.0000 6.4757
# 5 12.4199 15.0142 36.5636 0.0000 32.5870 0.0000
# 6 0.0000 0.0000 0.0000 6.4757 0.0000 11.7761
#
#
#
# Elastic Compliance Matrix: (Units=1/GPa)
#
#
# Indices 1 2 3 4 5 6 
#
# 1 0.016311 -0.000747 -0.000092 0.000000 -0.005768 0.000000
# 2 -0.000747 0.006922 -0.001256 0.000000 -0.001495 0.000000
# 3 -0.000092 -0.001256 0.011444 0.000000 -0.012226 0.000000
# 4 0.000000 0.000000 0.000000 0.043316 0.000000 -0.023820
# 5 -0.005768 -0.001495 -0.012226 0.000000 0.047292 0.000000
# 6 0.000000 0.000000 0.000000 -0.023820 0.000000 0.098016
#
#
# Mechanical properties :
#
#
# Convention : Reuss Voigt Hill
#
# Bulk Modulus (GPa) = 32.80418 52.62156 42.71287
# Shear Modulus (GPa) = 21.03893 33.58260 27.31077
#
# Velocity S-wave (km/s) = 2.99497 3.78389 3.41231
# Velocity P-wave (km/s) = 5.09370 6.44402 5.80824
#
# Compressibility (1/GPa) = 0.03048392
#
# Stress axis : x y z
#
# Youngs Moduli (GPa) = 61.31008 144.46954 87.38445
#
# Poissons Ratio (x) = 0.10797 0.00808
# Poissons Ratio (y) = 0.04582 0.10978
# Poissons Ratio (z) = 0.00567 0.18149
#
# Static dielectric constant tensor:
#      x y z
#    x 2.045720 0.000000 0.004410 
#    y 0.000000 1.847430 0.000000 
#    z 0.004410 0.000000 1.886840 
# 
# From -- ./inp_files/338150.got.cif
#   From: 2010.05.17/outbox.cif.g08.bks.cpg/sg12_170_cif.got.tgz:338150.got - 2010.06.03 13:09:07.
