data_PCOD9170250
_publ_section_title
;
Structure prediction by ZEFSAII (Michael W. Deem and Ramdas Pophale) SiO2 
 PCOD9170250
Probable space group: C 2/M
;
_chemical_formula_sum "Si O2"
_cell_formula_units_Z 48
_cell_length_a 22.256959
_cell_length_b 15.373791
_cell_length_c 20.495679
_cell_angle_alpha 90.000000
_cell_angle_beta 160.545903
_cell_angle_gamma 90.000000
_cell_volume 2335.718843
_symmetry_space_group_name_H-M "C 2/M"
_symmetry_group_IT_number 12
_symmetry_cell_setting 'monoclinic'
loop_
_space_group_symop_operation_xyz
x,y,z
-x,y,-z
-x,-y,-z
x,-y,z
1/2+x,1/2+y,z
1/2-x,1/2+y,-z
1/2-x,1/2-y,-z
1/2+x,1/2-y,z
loop_
_atom_site_type_symbol
_atom_site_label
_atom_site_fract_x
_atom_site_fract_y
_atom_site_fract_z
Si Si1 0.093249 0.142461 0.294808
Si Si2 0.158438 0.404109 0.607564
Si Si3 0.529825 0.836858 0.262221
Si Si4 0.843729 0.097411 0.162286
Si Si5 0.926796 0.723275 0.296734
Si Si6 0.371744 0.599084 0.949335
O O1 0.286337 0.118270 0.524445
O O2 0.086955 0.247922 0.284401
O O3 0.942487 0.111581 0.192945
O O4 0.047944 0.107696 0.176171
O O5 0.152370 0.500000 0.569408
O O6 0.332698 0.395166 0.831624
O O7 0.000000 0.406359 0.500000
O O8 0.102386 0.321495 0.507688
O O9 0.431182 0.803137 0.226091
O O10 0.372869 0.889594 0.065855
O O11 0.914502 0.173118 0.282755
O O12 0.884131 0.000000 0.225255
O O13 0.756372 0.674999 0.153560
O O14 0.307622 0.500000 0.898686
#
# Coordination Sequence:
#
# PCOD9170250 Si02
#       6
#     8   8   8   8   8   8
#     4  10  19  34  52  76 105 133 168 211 252 305
#     4   8  16  28  49  77  99 128 166 205 257 308
#     4  10  20  33  52  74 103 137 173 204 253 301
#     4  11  21  33  50  75 107 138 170 209 252 296
#     4  10  17  33  50  72 102 138 169 205 248 300
#     4  10  17  30  53  77 102 131 163 206 261 308
#
# _framework density 20.550418000000001
#
# number of rings (size 3 to 8) (size 9 to 14) (size 15 to 20)
#    0.000    2.167    3.333    3.000    0.000    2.000 
#    0.000    0.833    0.000    6.500    0.000    0.000 
#    0.000    4.667    0.000    0.000    0.000    0.000 
#
# Total GULP energy -133767.169850 kJ/mol
# GULP energy per Si atom -5573.632077 kJ/mol
# Density = 2.050364 g / cm^3
# Si number density = 20.550418 Si / 1000 Ang^3
#
#
#
# Elastic Constant Matrix: (Units=GPa)
#
#
# Indices 1 2 3 4 5 6 
#
# 1 -22.5443 41.1346 23.2920 0.0022 -56.5718 0.0011
# 2 41.1346 168.4234 62.6847 0.0019 -17.1652 0.0000
# 3 23.2920 62.6847 155.4025 0.0037 7.1973 0.0021
# 4 0.0022 0.0019 0.0037 26.6044 0.0028 -11.4547
# 5 -56.5718 -17.1652 7.1973 0.0028 5.0947 0.0008
# 6 0.0011 0.0000 0.0021 -11.4547 0.0008 13.6439
#
#
#
# Elastic Compliance Matrix: (Units=1/GPa)
#
#
# Indices 1 2 3 4 5 6 
#
# 1 -0.000673 -0.002428 0.001931 0.000004 -0.018379 0.000004
# 2 -0.002428 0.008320 -0.003255 -0.000001 0.005677 0.000000
# 3 0.001931 -0.003255 0.007462 -0.000002 -0.000065 -0.000003
# 4 0.000004 -0.000001 -0.000002 0.058866 0.000000 0.049420
# 5 -0.018379 0.005677 -0.000065 0.000000 0.011425 0.000001
# 6 0.000004 0.000000 -0.000003 0.049420 0.000001 0.114783
#
#
# Mechanical properties :
#
#
# Convention : Reuss Voigt Hill
#
# Bulk Modulus (GPa) = 131.47665 61.72268 96.59966
# Shear Modulus (GPa) = 23.78435 20.67996 22.23215
#
# Velocity S-wave (km/s) = 3.40570 3.17567 3.29269
# Velocity P-wave (km/s) = 8.92085 6.59897 7.84627
#
# Compressibility (1/GPa) = 0.00760591
#
# Stress axis : x y z
#
# Youngs Moduli (GPa) = -1486.20733 120.18546 134.02074
#
# Poissons Ratio (x) = 0.29175 -0.25882
# Poissons Ratio (y) = -3.60780 0.43628
# Poissons Ratio (z) = 2.87019 0.39124
#
# Static dielectric constant tensor:
#      x y z
#    x 1.808320 0.000000 0.083200 
#    y 0.000000 1.724000 0.000000 
#    z 0.083200 0.000000 1.870240 
# 
# From -- ./inp_files/325701.got.cif
#   From: 2010.05.17/outbox.cif.g08.bks.cpg/sg12_163_cif.got.tgz:325701.got - 2010.06.03 13:09:07.
