data_PCOD9170779
_publ_section_title
;
Structure prediction by ZEFSAII (Michael W. Deem and Ramdas Pophale) SiO2 
 PCOD9170779
Probable space group: C 2/M
;
_chemical_formula_sum "Si O2"
_cell_formula_units_Z 56
_cell_length_a 14.477070
_cell_length_b 20.468567
_cell_length_c 11.281341
_cell_angle_alpha 90.000000
_cell_angle_beta 119.054100
_cell_angle_gamma 90.000000
_cell_volume 2922.271345
_symmetry_space_group_name_H-M "C 2/M"
_symmetry_group_IT_number 12
_symmetry_cell_setting 'monoclinic'
loop_
_space_group_symop_operation_xyz
x,y,z
-x,y,-z
-x,-y,-z
x,-y,z
1/2+x,1/2+y,z
1/2-x,1/2+y,-z
1/2-x,1/2-y,-z
1/2+x,1/2-y,z
loop_
_atom_site_type_symbol
_atom_site_label
_atom_site_fract_x
_atom_site_fract_y
_atom_site_fract_z
Si Si1 0.156996 0.296232 0.908783
Si Si2 0.569873 0.246683 0.207259
Si Si3 0.751130 0.575946 0.470427
Si Si4 0.284596 0.194519 0.313681
Si Si5 0.399845 0.312681 0.522599
Si Si6 0.646323 0.931454 0.991423
Si Si7 0.097144 0.594752 0.225580
O O1 0.144394 0.304560 0.759748
O O2 0.196281 0.366002 0.978327
O O3 0.051013 0.268392 0.904528
O O4 0.250000 0.250000 0.000000
O O5 0.663012 0.288013 0.203629
O O6 0.562658 0.282304 0.329576
O O7 0.610453 0.172582 0.239374
O O8 0.720795 0.500000 0.421045
O O9 0.783463 0.625388 0.382952
O O10 0.663384 0.620356 0.485945
O O11 0.848744 0.570295 0.622274
O O12 0.326580 0.254892 0.420680
O O13 0.500000 0.324068 0.500000
O O14 0.525509 0.924071 0.868712
O O15 0.690521 0.000000 0.976610
O O16 0.647325 0.929339 0.134220
#
# Coordination Sequence:
#
# PCOD9170779 Si02
#       7
#     8   8   8   8   8   8   8
#     4  11  24  37  60  87 116 149 202 244 290 356
#     4  10  19  36  60  85 114 149 190 245 297 343
#     4  11  22  35  59  89 118 156 197 243 299 360
#     4  11  21  39  60  86 117 156 198 242 300 348
#     4  11  20  36  61  84 118 155 197 246 296 346
#     4  10  21  34  52  80 117 157 190 239 297 350
#     4  10  17  34  56  81 114 150 195 237 291 357
#
# _framework density 19.163174999999999
#
# number of rings (size 3 to 8) (size 9 to 14) (size 15 to 20)
#    0.000    1.429    4.286    3.429    0.000    2.571 
#    0.000    0.000    0.000    6.429    0.000    5.000 
#    0.000    0.000    0.000    0.000    0.000    0.000 
#
# Total GULP energy -155947.729555 kJ/mol
# GULP energy per Si atom -5569.561770 kJ/mol
# Density = 1.911956 g / cm^3
# Si number density = 19.163175 Si / 1000 Ang^3
#
#
#
# Elastic Constant Matrix: (Units=GPa)
#
#
# Indices 1 2 3 4 5 6 
#
# 1 62.8035 26.2536 10.0534 0.0000 -4.3368 0.0000
# 2 26.2536 174.3794 37.1927 0.0000 6.0189 0.0000
# 3 10.0534 37.1927 47.0576 0.0000 -0.6368 0.0000
# 4 0.0000 0.0000 0.0000 25.6227 0.0000 -21.2996
# 5 -4.3368 6.0189 -0.6368 0.0000 20.2974 0.0000
# 6 0.0000 0.0000 0.0000 -21.2996 0.0000 41.1134
#
#
#
# Elastic Compliance Matrix: (Units=1/GPa)
#
#
# Indices 1 2 3 4 5 6 
#
# 1 0.017519 -0.002410 -0.001778 0.000000 0.004402 0.000000
# 2 -0.002410 0.007330 -0.005317 0.000000 -0.002855 0.000000
# 3 -0.001778 -0.005317 0.025860 0.000000 0.002008 0.000000
# 4 0.000000 0.000000 0.000000 0.068549 0.000000 0.035513
# 5 0.004402 -0.002855 0.002008 0.000000 0.051118 0.000000
# 6 0.000000 0.000000 0.000000 0.035513 0.000000 0.042721
#
#
# Mechanical properties :
#
#
# Convention : Reuss Voigt Hill
#
# Bulk Modulus (GPa) = 31.54785 47.91553 39.73169
# Shear Modulus (GPa) = 20.60371 31.45607 26.02989
#
# Velocity S-wave (km/s) = 3.28254 4.05592 3.68955
# Velocity P-wave (km/s) = 5.55565 6.85509 6.23929
#
# Compressibility (1/GPa) = 0.03169788
#
# Stress axis : x y z
#
# Youngs Moduli (GPa) = 57.08137 136.42306 38.66955
#
# Poissons Ratio (x) = 0.32881 0.06876
# Poissons Ratio (y) = 0.13758 0.20561
# Poissons Ratio (z) = 0.10150 0.72539
#
# Static dielectric constant tensor:
#      x y z
#    x 1.706730 0.000000 -0.009570 
#    y 0.000000 1.686760 0.000000 
#    z -0.009570 0.000000 1.699510 
# 
# From -- ./inp_files/146221.got.cif
#   From: 2010.05.17/outbox.cif.g08.bks.cpg/sg12_74_cif.got.tgz:146221.got - 2010.06.03 13:09:07.
