data_PCOD9170577
_publ_section_title
;
Structure prediction by ZEFSAII (Michael W. Deem and Ramdas Pophale) SiO2 
 PCOD9170577
Probable space group: C 2/M
;
_chemical_formula_sum "Si O2"
_cell_formula_units_Z 56
_cell_length_a 14.766809
_cell_length_b 17.796327
_cell_length_c 21.914491
_cell_angle_alpha 90.000000
_cell_angle_beta 27.487609
_cell_angle_gamma 90.000000
_cell_volume 2658.113689
_symmetry_space_group_name_H-M "C 2/M"
_symmetry_group_IT_number 12
_symmetry_cell_setting 'monoclinic'
loop_
_space_group_symop_operation_xyz
x,y,z
-x,y,-z
-x,-y,-z
x,-y,z
1/2+x,1/2+y,z
1/2-x,1/2+y,-z
1/2-x,1/2-y,-z
1/2+x,1/2-y,z
loop_
_atom_site_type_symbol
_atom_site_label
_atom_site_fract_x
_atom_site_fract_y
_atom_site_fract_z
Si Si1 0.913716 0.293742 0.983852
Si Si2 0.369672 0.582964 0.811291
Si Si3 0.133321 0.082886 0.765380
Si Si4 0.166287 0.128579 0.954065
Si Si5 0.737877 0.245415 0.695821
Si Si6 0.483275 0.322108 0.382726
Si Si7 0.438308 0.819159 0.323373
O O1 0.084804 0.292083 0.833807
O O2 0.770876 0.362743 0.067025
O O3 0.809186 0.214287 0.038218
O O4 0.000000 0.293595 0.000000
O O5 0.286480 0.500000 0.858002
O O6 0.564246 0.582035 0.736350
O O7 0.406215 0.614823 0.722206
O O8 0.241850 0.164004 0.706241
O O9 0.226552 0.000000 0.722206
O O10 0.942254 0.087133 0.925001
O O11 0.388683 0.120140 0.794718
O O12 0.000000 0.124020 0.000000
O O13 0.934042 0.204791 0.601788
O O14 0.648766 0.223736 0.683918
O O15 0.511846 0.247560 0.323697
O O16 0.258293 0.347591 0.525275
#
# Coordination Sequence:
#
# PCOD9170577 Si02
#       7
#     8   8   8   8   8   8   8
#     4  10  17  32  56  86 115 145 196 244 299 351
#     4  11  21  37  57  88 126 156 197 256 317 364
#     4  10  21  35  59  91 123 157 195 253 320 366
#     4  10  19  36  62  90 118 152 200 259 305 360
#     4  11  20  37  63  88 126 155 205 258 295 355
#     4  11  22  38  57  90 120 162 215 241 296 362
#     4  11  21  36  62  88 116 158 209 257 291 351
#
# _framework density 21.067571000000001
#
# number of rings (size 3 to 8) (size 9 to 14) (size 15 to 20)
#    0.000    1.429    4.286    3.000    0.000    2.857 
#    0.000    0.714    0.000    9.429    0.000    0.000 
#    0.000    0.000    0.000    0.000    0.000    0.000 
#
# Total GULP energy -155963.742717 kJ/mol
# GULP energy per Si atom -5570.133668 kJ/mol
# Density = 2.101962 g / cm^3
# Si number density = 21.067571 Si / 1000 Ang^3
#
#
#
# Elastic Constant Matrix: (Units=GPa)
#
#
# Indices 1 2 3 4 5 6 
#
# 1 93.3709 15.1050 12.7137 0.0041 17.2295 -0.0060
# 2 15.1050 94.7448 7.9967 -0.0146 -0.2821 -0.0035
# 3 12.7137 7.9967 59.4808 -0.0070 -0.9912 -0.0180
# 4 0.0041 -0.0146 -0.0070 2.2587 -0.0118 -5.2197
# 5 17.2295 -0.2821 -0.9912 -0.0118 34.2313 0.0102
# 6 -0.0060 -0.0035 -0.0180 -5.2197 0.0102 6.2349
#
#
#
# Elastic Compliance Matrix: (Units=1/GPa)
#
#
# Indices 1 2 3 4 5 6 
#
# 1 0.012527 -0.001802 -0.002542 0.000046 -0.006394 0.000052
# 2 -0.001802 0.010935 -0.001069 -0.000080 0.000966 -0.000067
# 3 -0.002542 -0.001069 0.017529 -0.000176 0.001778 -0.000102
# 4 0.000046 -0.000080 -0.000176 -0.473682 -0.000073 -0.396556
# 5 -0.006394 0.000966 0.001778 -0.000073 0.032491 -0.000115
# 6 0.000052 -0.000067 -0.000102 -0.396556 -0.000115 -0.171600
#
#
# Mechanical properties :
#
#
# Convention : Reuss Voigt Hill
#
# Bulk Modulus (GPa) = 33.14997 35.46969 34.30983
# Shear Modulus (GPa) = -9.07574 22.66371 6.79399
#
# Velocity S-wave (km/s) = -2.07780 3.28344 1.79774
# Velocity P-wave (km/s) = 3.16431 5.58993 4.54204
#
# Compressibility (1/GPa) = 0.03016594
#
# Stress axis : x y z
#
# Youngs Moduli (GPa) = 79.82497 91.44951 57.04905
#
# Poissons Ratio (x) = 0.16477 0.14502
# Poissons Ratio (y) = 0.14382 0.06098
# Poissons Ratio (z) = 0.20291 0.09775
#
# Static dielectric constant tensor:
#      x y z
#    x 1.828940 0.000000 -0.043800 
#    y 0.000000 1.765110 0.000000 
#    z -0.043800 0.000000 1.890250 
# 
# From -- ./inp_files/311659.got.cif
#   From: 2010.05.17/outbox.cif.g08.bks.cpg/sg12_156_cif.got.tgz:311659.got - 2010.06.03 13:09:07.
