data_PCOD9170057
_publ_section_title
;
Structure prediction by ZEFSAII (Michael W. Deem and Ramdas Pophale) SiO2 
 PCOD9170057
Probable space group: C 2/M
;
_chemical_formula_sum "Si O2"
_cell_formula_units_Z 64
_cell_length_a 24.487141
_cell_length_b 18.323191
_cell_length_c 15.018107
_cell_angle_alpha 90.000000
_cell_angle_beta 152.409818
_cell_angle_gamma 90.000000
_cell_volume 3120.833420
_symmetry_space_group_name_H-M "C 2/M"
_symmetry_group_IT_number 12
_symmetry_cell_setting 'monoclinic'
loop_
_space_group_symop_operation_xyz
x,y,z
-x,y,-z
-x,-y,-z
x,-y,z
1/2+x,1/2+y,z
1/2-x,1/2+y,-z
1/2-x,1/2-y,-z
1/2+x,1/2-y,z
loop_
_atom_site_type_symbol
_atom_site_label
_atom_site_fract_x
_atom_site_fract_y
_atom_site_fract_z
Si Si1 0.875526 0.688607 0.619226
Si Si2 0.629961 0.285315 0.210108
Si Si3 0.746760 0.734186 0.784737
Si Si4 0.528470 0.917402 0.942377
Si Si5 0.569929 0.259380 0.789863
Si Si6 0.701896 0.420424 0.734492
Si Si7 0.162984 0.919588 0.889694
Si Si8 0.377839 0.852003 0.295011
O O1 0.744941 0.666111 0.399454
O O2 0.874265 0.734386 0.709200
O O3 0.958659 0.621911 0.763411
O O4 0.942744 0.739122 0.645402
O O5 0.671176 0.241182 0.182638
O O6 0.500000 0.316110 0.000000
O O7 0.663874 0.662698 0.658296
O O8 0.676329 0.808412 0.700074
O O9 0.834254 0.732592 0.997241
O O10 0.485091 0.000000 0.883443
O O11 0.500000 0.886457 0.000000
O O12 0.665845 0.918713 0.114462
O O13 0.589094 0.345917 0.802850
O O14 0.596739 0.212044 0.740924
O O15 0.649717 0.500000 0.630551
O O16 0.693508 0.421100 0.829145
O O17 0.113177 0.000000 0.840559
O O18 0.283392 0.906236 0.117481
O O19 0.500000 0.886999 0.500000
#
# Coordination Sequence:
#
# PCOD9170057 Si02
#       8
#     8   8   8   8   8   8   8   8
#     4  11  21  35  60  86 118 151 196 245 299 355
#     4  11  22  36  57  88 113 149 195 253 292 349
#     4  11  18  34  56  79 117 150 195 246 288 355
#     4  10  19  32  55  90 128 158 192 245 304 359
#     4  11  19  36  58  85 112 155 199 250 294 351
#     4  10  17  29  53  80 114 155 191 238 298 357
#     4  10  20  35  56  81 114 159 200 241 300 358
#     4  11  21  33  53  86 118 151 199 246 294 349
#
# _framework density 20.507342999999999
#
# number of rings (size 3 to 8) (size 9 to 14) (size 15 to 20)
#    0.000    1.375    5.000    2.625    0.000    0.250 
#    0.000    0.000    0.000   13.125    0.000    0.000 
#    0.000    0.000    0.000    0.000    0.000    0.000 
#
# Total GULP energy -178432.922743 kJ/mol
# GULP energy per Si atom -5576.028836 kJ/mol
# Density = 2.046067 g / cm^3
# Si number density = 20.507343 Si / 1000 Ang^3
#
#
#
# Elastic Constant Matrix: (Units=GPa)
#
#
# Indices 1 2 3 4 5 6 
#
# 1 107.7289 25.5057 11.1527 0.0000 -4.7698 0.0000
# 2 25.5057 98.1012 11.4982 0.0000 -3.0968 0.0000
# 3 11.1527 11.4982 111.9003 0.0000 6.8710 0.0000
# 4 0.0000 0.0000 0.0000 6.7057 0.0000 -1.3633
# 5 -4.7698 -3.0968 6.8710 0.0000 22.7206 0.0000
# 6 0.0000 0.0000 0.0000 -1.3633 0.0000 22.7267
#
#
#
# Elastic Compliance Matrix: (Units=1/GPa)
#
#
# Indices 1 2 3 4 5 6 
#
# 1 0.010042 -0.002444 -0.000875 0.000000 0.002040 0.000000
# 2 -0.002444 0.010982 -0.000963 0.000000 0.001275 0.000000
# 3 -0.000875 -0.000963 0.009315 0.000000 -0.003132 0.000000
# 4 0.000000 0.000000 0.000000 0.150968 0.000000 0.009056
# 5 0.002040 0.001275 -0.003132 0.000000 0.045562 0.000000
# 6 0.000000 0.000000 0.000000 0.009056 0.000000 0.044544
#
#
# Mechanical properties :
#
#
# Convention : Reuss Voigt Hill
#
# Bulk Modulus (GPa) = 45.92414 46.00483 45.96449
# Shear Modulus (GPa) = 17.40727 28.40219 22.90473
#
# Velocity S-wave (km/s) = 2.91663 3.72556 3.34564
# Velocity P-wave (km/s) = 5.81248 6.40223 6.11447
#
# Compressibility (1/GPa) = 0.02177504
#
# Stress axis : x y z
#
# Youngs Moduli (GPa) = 99.58105 91.05727 107.35363
#
# Poissons Ratio (x) = 0.22254 0.09393
# Poissons Ratio (y) = 0.24337 0.10340
# Poissons Ratio (z) = 0.08713 0.08770
#
# Static dielectric constant tensor:
#      x y z
#    x 1.731320 0.000000 0.011420 
#    y 0.000000 1.770310 0.000000 
#    z 0.011420 0.000000 1.806530 
# 
# From -- ./inp_files/241504.got.cif
#   From: 2010.05.17/outbox.cif.g08.bks.cpg/sg12_121_cif.got.tgz:241504.got - 2010.06.03 13:09:07.
