data_PCOD9170711
_publ_section_title
;
Structure prediction by ZEFSAII (Michael W. Deem and Ramdas Pophale) SiO2 
 PCOD9170711
Probable space group: C 2/M
;
_chemical_formula_sum "Si O2"
_cell_formula_units_Z 56
_cell_length_a 17.491185
_cell_length_b 22.205403
_cell_length_c 15.361033
_cell_angle_alpha 90.000000
_cell_angle_beta 27.635061
_cell_angle_gamma 90.000000
_cell_volume 2767.354955
_symmetry_space_group_name_H-M "C 2/M"
_symmetry_group_IT_number 12
_symmetry_cell_setting 'monoclinic'
loop_
_space_group_symop_operation_xyz
x,y,z
-x,y,-z
-x,-y,-z
x,-y,z
1/2+x,1/2+y,z
1/2-x,1/2+y,-z
1/2-x,1/2-y,-z
1/2+x,1/2-y,z
loop_
_atom_site_type_symbol
_atom_site_label
_atom_site_fract_x
_atom_site_fract_y
_atom_site_fract_z
Si Si1 0.151772 0.433683 0.586399
Si Si2 0.763460 0.683195 0.954021
Si Si3 0.264783 0.276251 0.584818
Si Si4 0.831579 0.069839 0.721726
Si Si5 0.970665 0.364399 0.907991
Si Si6 0.013818 0.114206 0.700029
Si Si7 0.454843 0.837514 0.451738
O O1 0.097120 0.500000 0.616882
O O2 0.346397 0.427362 0.402006
O O3 0.105535 0.385840 0.558469
O O4 0.079886 0.417395 0.754761
O O5 0.862119 0.653148 0.933627
O O6 0.870469 0.684581 0.760763
O O7 0.750000 0.750000 0.000000
O O8 0.593497 0.647906 0.119029
O O9 0.250000 0.250000 0.500000
O O10 0.395827 0.331008 0.443352
O O11 0.333917 0.220492 0.570982
O O12 0.096787 0.307612 0.790039
O O13 0.000000 0.087010 0.500000
O O14 0.896697 0.076816 0.754564
O O15 0.793164 0.000000 0.739686
O O16 0.664941 0.111242 0.885215
O O17 0.500000 0.862765 0.500000
#
# Coordination Sequence:
#
# PCOD9170711 Si02
#       7
#     8   8   8   8   8   8   8
#     4  10  20  37  61  85 117 161 212 253 292 359
#     4  10  17  33  58  85 115 152 191 242 300 362
#     4  11  17  37  62  85 118 153 197 256 305 364
#     4  10  21  37  56  87 132 166 201 251 301 351
#     4   9  19  33  61  87 114 159 209 245 292 370
#     4  10  19  33  62  84 116 158 213 244 295 362
#     4  11  23  37  60  91 123 155 197 251 316 365
#
# _framework density 20.23593
#
# number of rings (size 3 to 8) (size 9 to 14) (size 15 to 20)
#    0.000    1.857    5.714    0.857    0.000    0.857 
#    0.000    4.286    6.286    8.571    0.000    0.000 
#    0.000    0.000    0.000    0.000    0.000    0.143 
#
# Total GULP energy -155955.492126 kJ/mol
# GULP energy per Si atom -5569.839004 kJ/mol
# Density = 2.018987 g / cm^3
# Si number density = 20.235930 Si / 1000 Ang^3
#
#
#
# Elastic Constant Matrix: (Units=GPa)
#
#
# Indices 1 2 3 4 5 6 
#
# 1 37.1841 8.8964 18.6578 0.0037 2.8032 -0.0029
# 2 8.8964 93.4722 41.6158 0.0046 -0.4321 -0.0060
# 3 18.6578 41.6158 141.4886 0.0018 -10.3896 -0.0008
# 4 0.0037 0.0046 0.0018 22.1900 -0.0052 0.3351
# 5 2.8032 -0.4321 -10.3896 -0.0052 23.7140 0.0040
# 6 -0.0029 -0.0060 -0.0008 0.3351 0.0040 13.0472
#
#
#
# Elastic Compliance Matrix: (Units=1/GPa)
#
#
# Indices 1 2 3 4 5 6 
#
# 1 0.029534 -0.001070 -0.003965 -0.000006 -0.005248 0.000008
# 2 -0.001070 0.012395 -0.003594 -0.000002 -0.001222 0.000006
# 3 -0.003965 -0.003594 0.008966 0.000002 0.004331 -0.000003
# 4 -0.000006 -0.000002 0.000002 0.045083 0.000011 -0.001158
# 5 -0.005248 -0.001222 0.004331 0.000011 0.044665 -0.000016
# 6 0.000008 0.000006 -0.000003 -0.001158 -0.000016 0.076675
#
#
# Mechanical properties :
#
#
# Convention : Reuss Voigt Hill
#
# Bulk Modulus (GPa) = 29.72990 45.60942 37.66966
# Shear Modulus (GPa) = 20.34266 25.32189 22.83228
#
# Velocity S-wave (km/s) = 3.17405 3.54126 3.36267
# Velocity P-wave (km/s) = 5.30625 6.26964 5.80796
#
# Compressibility (1/GPa) = 0.03363617
#
# Stress axis : x y z
#
# Youngs Moduli (GPa) = 33.85871 80.67879 111.53411
#
# Poissons Ratio (x) = 0.08631 0.44227
# Poissons Ratio (y) = 0.03622 0.40089
# Poissons Ratio (z) = 0.13426 0.28999
#
# Static dielectric constant tensor:
#      x y z
#    x 1.725240 0.000000 -0.001210 
#    y 0.000000 1.613940 0.000000 
#    z -0.001210 0.000000 1.784910 
# 
# From -- ./inp_files/227575.got.cif
#   From: 2010.05.17/outbox.cif.g08.bks.cpg/sg12_114_cif.got.tgz:227575.got - 2010.06.03 13:09:07.
