data_PCOD9170837
_publ_section_title
;
Structure prediction by ZEFSAII (Michael W. Deem and Ramdas Pophale) SiO2 
 PCOD9170837
Probable space group: C 2/M
;
_chemical_formula_sum "Si O2"
_cell_formula_units_Z 48
_cell_length_a 29.129478
_cell_length_b 20.992090
_cell_length_c 9.303313
_cell_angle_alpha 90.000000
_cell_angle_beta 29.112086
_cell_angle_gamma 90.000000
_cell_volume 2767.747263
_symmetry_space_group_name_H-M "C 2/M"
_symmetry_group_IT_number 12
_symmetry_cell_setting 'monoclinic'
loop_
_space_group_symop_operation_xyz
x,y,z
-x,y,-z
-x,-y,-z
x,-y,z
1/2+x,1/2+y,z
1/2-x,1/2+y,-z
1/2-x,1/2-y,-z
1/2+x,1/2-y,z
loop_
_atom_site_type_symbol
_atom_site_label
_atom_site_fract_x
_atom_site_fract_y
_atom_site_fract_z
Si Si1 0.175000 0.804006 0.148123
Si Si2 0.931079 0.243605 0.314194
Si Si3 0.094047 0.622483 0.155962
Si Si4 0.726063 0.757961 0.732754
Si Si5 0.469861 0.104875 0.239695
Si Si6 0.788444 0.570158 0.906728
O O1 0.080608 0.789395 0.497925
O O2 0.250000 0.750000 0.000000
O O3 0.175156 0.794567 0.975215
O O4 0.216736 0.872180 0.077067
O O5 0.828833 0.236185 0.522250
O O6 0.956233 0.317854 0.273363
O O7 0.000000 0.219322 0.000000
O O8 0.156107 0.580764 0.094790
O O9 0.000000 0.644037 0.500000
O O10 0.050844 0.589625 0.133742
O O11 0.159582 0.680962 0.932184
O O12 0.750000 0.750000 0.500000
O O13 0.371136 0.076971 0.562349
O O14 0.500000 0.084335 0.000000
O O15 0.745962 0.500000 0.017954
#
# Coordination Sequence:
#
# PCOD9170837 Si02
#       6
#     8   8   8   8   8   8
#     4  10  17  35  54  74 104 138 173 228 268 306
#     4  10  18  32  54  79 105 136 174 224 274 311
#     4  10  20  33  51  77 108 141 179 212 262 318
#     4  11  19  30  54  80 105 136 177 223 269 311
#     4  10  19  32  51  78 113 141 173 214 261 324
#     4  11  21  35  53  75 106 151 182 211 263 322
#
# _framework density 17.342624000000001
#
# number of rings (size 3 to 8) (size 9 to 14) (size 15 to 20)
#    0.000    1.667    6.667    3.000    0.000    3.333 
#    0.000    0.000    0.000    0.500    0.000    0.000 
#    0.000    6.333    0.000    0.000    0.000    0.000 
#
# Total GULP energy -133669.064385 kJ/mol
# GULP energy per Si atom -5569.544349 kJ/mol
# Density = 1.730315 g / cm^3
# Si number density = 17.342624 Si / 1000 Ang^3
#
#
#
# Elastic Constant Matrix: (Units=GPa)
#
#
# Indices 1 2 3 4 5 6 
#
# 1 58.3761 7.0195 37.8165 0.0000 34.7707 0.0000
# 2 7.0195 92.3316 26.6955 0.0000 11.3188 0.0000
# 3 37.8165 26.6955 108.2805 0.0000 36.0092 0.0000
# 4 0.0000 0.0000 0.0000 8.9998 0.0000 -2.7160
# 5 34.7707 11.3188 36.0092 0.0000 35.5738 0.0000
# 6 0.0000 0.0000 0.0000 -2.7160 0.0000 4.9464
#
#
#
# Elastic Compliance Matrix: (Units=1/GPa)
#
#
# Indices 1 2 3 4 5 6 
#
# 1 0.041585 0.002237 -0.001991 0.000000 -0.039342 0.000000
# 2 0.002237 0.011817 -0.002588 0.000000 -0.003326 0.000000
# 3 -0.001991 -0.002588 0.014543 0.000000 -0.011951 0.000000
# 4 0.000000 0.000000 0.000000 0.133183 0.000000 0.073130
# 5 -0.039342 -0.003326 -0.011951 0.000000 0.079720 0.000000
# 6 0.000000 0.000000 0.000000 0.073130 0.000000 0.242322
#
#
# Mechanical properties :
#
#
# Convention : Reuss Voigt Hill
#
# Bulk Modulus (GPa) = 15.80795 44.67236 30.24015
# Shear Modulus (GPa) = 9.10844 22.40113 15.75478
#
# Velocity S-wave (km/s) = 2.29422 3.59789 3.01731
# Velocity P-wave (km/s) = 4.01906 6.56311 5.44184
#
# Compressibility (1/GPa) = 0.06325931
#
# Stress axis : x y z
#
# Youngs Moduli (GPa) = 24.04726 84.62685 68.75979
#
# Poissons Ratio (x) = -0.18932 0.13693
# Poissons Ratio (y) = -0.05380 0.17798
# Poissons Ratio (z) = 0.04789 0.21905
#
# Static dielectric constant tensor:
#      x y z
#    x 1.648000 0.000000 0.061390 
#    y 0.000000 1.590050 0.000000 
#    z 0.061390 0.000000 1.680260 
# 
# From -- ./inp_files/113157.got.cif
#   From: 2010.05.17/outbox.cif.g08.bks.cpg/sg12_57_cif.got.tgz:113157.got - 2010.06.03 13:09:07.
