data_PCOD9170890
_publ_section_title
;
Structure prediction by ZEFSAII (Michael W. Deem and Ramdas Pophale) SiO2 
 PCOD9170890
Probable space group: C 2/M
;
_chemical_formula_sum "Si O2"
_cell_formula_units_Z 48
_cell_length_a 18.749794
_cell_length_b 13.894845
_cell_length_c 9.519510
_cell_angle_alpha 90.000000
_cell_angle_beta 55.299892
_cell_angle_gamma 90.000000
_cell_volume 2038.976160
_symmetry_space_group_name_H-M "C 2/M"
_symmetry_group_IT_number 12
_symmetry_cell_setting 'monoclinic'
loop_
_space_group_symop_operation_xyz
x,y,z
-x,y,-z
-x,-y,-z
x,-y,z
1/2+x,1/2+y,z
1/2-x,1/2+y,-z
1/2-x,1/2-y,-z
1/2+x,1/2-y,z
loop_
_atom_site_type_symbol
_atom_site_label
_atom_site_fract_x
_atom_site_fract_y
_atom_site_fract_z
Si Si1 0.620687 0.103331 0.832385
Si Si2 0.601040 0.897560 0.191702
Si Si3 0.711506 0.345319 0.968796
Si Si4 0.591244 0.318350 0.836085
Si Si5 0.585072 0.693051 0.334094
Si Si6 0.299889 0.669617 0.533986
O O1 0.581930 0.202874 0.816486
O O2 0.722283 0.104870 0.678937
O O3 0.584715 0.000000 0.823712
O O4 0.610180 0.108513 0.012374
O O5 0.562413 0.796830 0.289832
O O6 0.557535 0.000000 0.275810
O O7 0.699663 0.902667 0.140364
O O8 0.634945 0.371854 0.163747
O O9 0.750000 0.250000 0.000000
O O10 0.664114 0.328238 0.875109
O O11 0.627902 0.368597 0.655607
O O12 0.500000 0.352887 0.000000
O O13 0.500000 0.649894 0.500000
O O14 0.651281 0.711538 0.386852
O O15 0.250000 0.750000 0.500000
#
# Coordination Sequence:
#
# PCOD9170890 Si02
#       6
#     8   8   8   8   8   8
#     4  10  19  35  57  80 108 144 180 219 265 323
#     4  10  19  34  58  81 106 142 183 223 265 314
#     4  10  17  36  57  76 104 144 190 215 249 320
#     4  11  21  35  57  85 112 140 174 223 278 320
#     4  11  20  33  56  81 108 139 178 227 266 312
#     4  10  20  35  54  80 108 142 186 218 254 320
#
# _framework density 23.541226999999999
#
# number of rings (size 3 to 8) (size 9 to 14) (size 15 to 20)
#    0.000    1.667    5.000    4.000    0.000    0.667 
#    0.000    7.500    0.000    6.000    0.000    0.000 
#    0.000    0.000    0.000    0.000    0.000    0.000 
#
# Total GULP energy -133943.286049 kJ/mol
# GULP energy per Si atom -5580.970252 kJ/mol
# Density = 2.348765 g / cm^3
# Si number density = 23.541227 Si / 1000 Ang^3
#
#
#
# Elastic Constant Matrix: (Units=GPa)
#
#
# Indices 1 2 3 4 5 6 
#
# 1 86.4461 2.3156 25.0402 0.0000 7.7083 0.0000
# 2 2.3156 37.1572 -7.8571 0.0000 9.7954 0.0000
# 3 25.0402 -7.8571 149.2891 0.0000 -11.5860 0.0000
# 4 0.0000 0.0000 0.0000 0.5999 0.0000 2.5312
# 5 7.7083 9.7954 -11.5860 0.0000 52.6929 0.0000
# 6 0.0000 0.0000 0.0000 2.5312 0.0000 1.8962
#
#
#
# Elastic Compliance Matrix: (Units=1/GPa)
#
#
# Indices 1 2 3 4 5 6 
#
# 1 0.012447 -0.000681 -0.002294 0.000000 -0.002199 0.000000
# 2 -0.000681 0.028515 0.001232 0.000000 -0.004930 0.000000
# 3 -0.002294 0.001232 0.007281 0.000000 0.001707 0.000000
# 4 0.000000 0.000000 0.000000 -0.359849 0.000000 0.480355
# 5 -0.002199 -0.004930 0.001707 0.000000 0.020591 0.000000
# 6 0.000000 0.000000 0.000000 0.480355 0.000000 -0.113852
#
#
# Mechanical properties :
#
#
# Convention : Reuss Voigt Hill
#
# Bulk Modulus (GPa) = 22.34296 34.65443 28.49869
# Shear Modulus (GPa) = -12.93788 27.93075 7.49643
#
# Velocity S-wave (km/s) = -2.34686 3.44824 1.78642
# Velocity P-wave (km/s) = 1.47238 5.53232 4.04811
#
# Compressibility (1/GPa) = 0.04475683
#
# Stress axis : x y z
#
# Youngs Moduli (GPa) = 80.34245 35.06874 137.35180
#
# Poissons Ratio (x) = 0.02389 0.31511
# Poissons Ratio (y) = 0.05473 -0.16927
# Poissons Ratio (z) = 0.18432 -0.04322
#
# Static dielectric constant tensor:
#      x y z
#    x 1.903980 0.000000 -0.074840 
#    y 0.000000 1.969410 0.000000 
#    z -0.074840 0.000000 1.949550 
# 
# From -- ./inp_files/87149.got.cif
#   From: 2010.05.17/outbox.cif.g08.bks.cpg/sg12_44_cif.got.tgz:87149.got - 2010.06.03 13:09:07.
