data_PCOD9170839
_publ_section_title
;
Structure prediction by ZEFSAII (Michael W. Deem and Ramdas Pophale) SiO2 
 PCOD9170839
Probable space group: C 2/M
;
_chemical_formula_sum "Si O2"
_cell_formula_units_Z 48
_cell_length_a 23.057037
_cell_length_b 20.183778
_cell_length_c 16.807653
_cell_angle_alpha 90.000000
_cell_angle_beta 158.986975
_cell_angle_gamma 90.000000
_cell_volume 2804.783215
_symmetry_space_group_name_H-M "C 2/M"
_symmetry_group_IT_number 12
_symmetry_cell_setting 'monoclinic'
loop_
_space_group_symop_operation_xyz
x,y,z
-x,y,-z
-x,-y,-z
x,-y,z
1/2+x,1/2+y,z
1/2-x,1/2+y,-z
1/2-x,1/2-y,-z
1/2+x,1/2-y,z
loop_
_atom_site_type_symbol
_atom_site_label
_atom_site_fract_x
_atom_site_fract_y
_atom_site_fract_z
Si Si1 0.212079 0.233802 0.135546
Si Si2 0.500000 0.298483 0.000000
Si Si3 0.940351 0.577040 0.249035
Si Si4 0.681065 0.315398 0.865174
Si Si5 0.500000 0.130595 0.500000
Si Si6 0.771326 0.655239 0.459367
Si Si7 0.580763 0.302612 0.355587
O O1 0.291476 0.295203 0.191024
O O2 0.348383 0.178694 0.322389
O O3 0.116213 0.245861 0.093916
O O4 0.073304 0.203522 0.900644
O O5 0.615761 0.343546 0.202654
O O6 0.911653 0.500000 0.198218
O O7 0.968712 0.590073 0.379463
O O8 0.096856 0.603108 0.400894
O O9 0.791561 0.623243 0.031518
O O10 0.498182 0.323873 0.662157
O O11 0.750000 0.250000 0.000000
O O12 0.709831 0.653552 0.472109
O O13 0.849085 0.728501 0.548194
#
# Coordination Sequence:
#
# PCOD9170839 Si02
#       7
#     8   4   8   8   4   8   8
#     4  10  18  29  54  76 107 134 182 234 261 302
#     4  10  20  28  49  82 107 134 168 230 280 310
#     4  12  23  35  52  78 115 150 178 214 274 335
#     4  10  17  35  54  77  99 139 192 229 255 308
#     4  12  19  34  50  78 113 142 182 218 265 320
#     4  10  18  33  49  76 107 138 178 224 266 317
#     4   9  17  31  55  71 100 137 182 233 259 303
#
# _framework density 17.113621999999999
#
# number of rings (size 3 to 8) (size 9 to 14) (size 15 to 20)
#    0.000    1.667    8.333    0.250    0.000    0.000 
#    0.000    1.250    0.000    0.000    0.000    1.167 
#    0.000    0.000    0.000    0.000    0.000    0.000 
#
# Total GULP energy -133709.574535 kJ/mol
# GULP energy per Si atom -5571.232272 kJ/mol
# Density = 1.707467 g / cm^3
# Si number density = 17.113622 Si / 1000 Ang^3
#
#
#
# Elastic Constant Matrix: (Units=GPa)
#
#
# Indices 1 2 3 4 5 6 
#
# 1 136.2869 41.6877 8.0514 0.0000 41.8050 0.0000
# 2 41.6877 100.4414 27.0367 0.0000 10.8291 0.0000
# 3 8.0514 27.0367 45.5082 0.0000 20.8908 0.0000
# 4 0.0000 0.0000 0.0000 11.1309 0.0000 -16.1466
# 5 41.8050 10.8291 20.8908 0.0000 29.7879 0.0000
# 6 0.0000 0.0000 0.0000 -16.1466 0.0000 -36.2645
#
#
#
# Elastic Compliance Matrix: (Units=1/GPa)
#
#
# Indices 1 2 3 4 5 6 
#
# 1 0.022689 -0.010742 0.022406 0.000000 -0.043651 0.000000
# 2 -0.010742 0.016955 -0.018086 0.000000 0.021596 0.000000
# 3 0.022406 -0.018086 0.059246 0.000000 -0.066420 0.000000
# 4 0.000000 0.000000 0.000000 0.054585 0.000000 -0.024304
# 5 -0.043651 0.021596 -0.066420 0.000000 0.133563 0.000000
# 6 0.000000 0.000000 0.000000 -0.024304 0.000000 -0.016754
#
#
# Mechanical properties :
#
#
# Convention : Reuss Voigt Hill
#
# Bulk Modulus (GPa) = 11.62177 48.42089 30.02133
# Shear Modulus (GPa) = 16.03545 14.62825 15.33185
#
# Velocity S-wave (km/s) = 3.06437 2.92682 2.99638
# Velocity P-wave (km/s) = 4.39615 6.30689 5.43613
#
# Compressibility (1/GPa) = 0.08604541
#
# Stress axis : x y z
#
# Youngs Moduli (GPa) = 44.07356 58.98137 16.87887
#
# Poissons Ratio (x) = 0.63358 -0.37819
# Poissons Ratio (y) = 0.47344 0.30527
# Poissons Ratio (z) = -0.98752 1.06674
#
# Static dielectric constant tensor:
#      x y z
#    x 1.724330 0.000000 0.027170 
#    y 0.000000 1.525730 0.000000 
#    z 0.027170 0.000000 1.623410 
# 
# From -- ./inp_files/290596.got.cif
#   From: 2010.05.17/outbox.cif.g08.bks.cpg/sg12_146_cif.got.tgz:290596.got - 2010.06.03 13:09:07.
