data_PCOD9170134
_publ_section_title
;
Structure prediction by ZEFSAII (Michael W. Deem and Ramdas Pophale) SiO2 
 PCOD9170134
Probable space group: C 2/M
;
_chemical_formula_sum "Si O2"
_cell_formula_units_Z 56
_cell_length_a 9.689739
_cell_length_b 27.580572
_cell_length_c 14.334716
_cell_angle_alpha 90.000000
_cell_angle_beta 123.601135
_cell_angle_gamma 90.000000
_cell_volume 3190.822623
_symmetry_space_group_name_H-M "C 2/M"
_symmetry_group_IT_number 12
_symmetry_cell_setting 'monoclinic'
loop_
_space_group_symop_operation_xyz
x,y,z
-x,y,-z
-x,-y,-z
x,-y,z
1/2+x,1/2+y,z
1/2-x,1/2+y,-z
1/2-x,1/2-y,-z
1/2+x,1/2-y,z
loop_
_atom_site_type_symbol
_atom_site_label
_atom_site_fract_x
_atom_site_fract_y
_atom_site_fract_z
Si Si1 0.921702 0.877157 0.569750
Si Si2 0.892198 0.694100 0.363385
Si Si3 0.458567 0.906393 0.586078
Si Si4 0.338851 0.441270 0.996532
Si Si5 0.850876 0.941660 0.221600
Si Si6 0.018038 0.443519 0.202195
Si Si7 0.612415 0.728355 0.377697
O O1 0.724117 0.883122 0.491161
O O2 0.959934 0.821044 0.606185
O O3 0.000000 0.890296 0.500000
O O4 0.000009 0.912811 0.674781
O O5 0.913401 0.637805 0.348157
O O6 0.710480 0.712093 0.322410
O O7 0.000000 0.698740 0.500000
O O8 0.976784 0.729703 0.321042
O O9 0.500000 0.928553 0.500000
O O10 0.459496 0.938756 0.678300
O O11 0.337805 0.500000 0.984375
O O12 0.349191 0.432140 0.110738
O O13 0.500000 0.423418 0.000000
O O14 0.161012 0.422741 0.893220
O O15 0.679660 0.924688 0.207561
O O16 0.868369 0.000000 0.242163
O O17 0.012742 0.500000 0.174064
O O18 0.750000 0.750000 0.500000
#
# Coordination Sequence:
#
# PCOD9170134 Si02
#       7
#     8   8   8   8   8   8   8
#     4  12  21  32  51  77 109 143 175 210 258 323
#     4   9  17  29  45  67  99 133 169 210 251 299
#     4  11  21  34  47  75 112 140 171 213 266 315
#     4   9  19  36  57  77  95 127 181 233 267 300
#     4  10  22  37  53  75 104 141 180 221 262 308
#     4  10  21  37  55  73 102 144 183 218 261 310
#     4  10  17  30  48  70  99 139 174 211 250 302
#
# _framework density 17.550332999999998
#
# number of rings (size 3 to 8) (size 9 to 14) (size 15 to 20)
#    0.000    1.857    5.714    1.714    2.000    2.857 
#    0.000    0.000    0.000    0.000    0.000    1.000 
#    0.000    0.286    0.000    0.000    0.000    0.000 
#
# Total GULP energy -155987.635115 kJ/mol
# GULP energy per Si atom -5570.986968 kJ/mol
# Density = 1.751039 g / cm^3
# Si number density = 17.550333 Si / 1000 Ang^3
#
#
#
# Elastic Constant Matrix: (Units=GPa)
#
#
# Indices 1 2 3 4 5 6 
#
# 1 92.0725 3.4071 18.1217 0.0000 -7.6151 0.0000
# 2 3.4071 30.2692 16.6896 0.0000 2.0775 0.0000
# 3 18.1217 16.6896 53.5585 0.0000 -4.2056 0.0000
# 4 0.0000 0.0000 0.0000 -2.5039 0.0000 4.2420
# 5 -7.6151 2.0775 -4.2056 0.0000 15.2841 0.0000
# 6 0.0000 0.0000 0.0000 4.2420 0.0000 21.4869
#
#
#
# Elastic Compliance Matrix: (Units=1/GPa)
#
#
# Indices 1 2 3 4 5 6 
#
# 1 0.011998 0.000413 -0.003806 0.000000 0.004874 0.000000
# 2 0.000413 0.041165 -0.013686 0.000000 -0.009156 0.000000
# 3 -0.003806 -0.013686 0.024756 0.000000 0.006776 0.000000
# 4 0.000000 0.000000 0.000000 -0.299280 0.000000 0.059085
# 5 0.004874 -0.009156 0.006776 0.000000 0.070965 0.000000
# 6 0.000000 0.000000 0.000000 0.059085 0.000000 0.034875
#
#
# Mechanical properties :
#
#
# Convention : Reuss Voigt Hill
#
# Bulk Modulus (GPa) = 22.85119 28.03742 25.44431
# Shear Modulus (GPa) = -74.87628 16.03222 -29.42203
#
# Velocity S-wave (km/s) = -6.53883 3.02569 -4.09887
# Velocity P-wave (km/s) = 6.63022 5.31193 2.80564
#
# Compressibility (1/GPa) = 0.04376139
#
# Stress axis : x y z
#
# Youngs Moduli (GPa) = 83.34807 24.29243 40.39474
#
# Poissons Ratio (x) = -0.01004 0.15372
# Poissons Ratio (y) = -0.03444 0.55286
# Poissons Ratio (z) = 0.31718 0.33247
#
# Static dielectric constant tensor:
#      x y z
#    x 1.655220 0.000000 0.017880 
#    y 0.000000 1.617250 0.000000 
#    z 0.017880 0.000000 1.584640 
# 
# From -- ./inp_files/201005.got.cif
#   From: 2010.05.17/outbox.cif.g08.bks.cpg/sg12_101_cif.got.tgz:201005.got - 2010.06.03 13:09:07.
