data_PCOD9170730
_publ_section_title
;
Structure prediction by ZEFSAII (Michael W. Deem and Ramdas Pophale) SiO2 
 PCOD9170730
Probable space group: C 2/M
;
_chemical_formula_sum "Si O2"
_cell_formula_units_Z 64
_cell_length_a 18.113309
_cell_length_b 30.742281
_cell_length_c 8.706338
_cell_angle_alpha 90.000000
_cell_angle_beta 137.588955
_cell_angle_gamma 90.000000
_cell_volume 3269.759210
_symmetry_space_group_name_H-M "C 2/M"
_symmetry_group_IT_number 12
_symmetry_cell_setting 'monoclinic'
loop_
_space_group_symop_operation_xyz
x,y,z
-x,y,-z
-x,-y,-z
x,-y,z
1/2+x,1/2+y,z
1/2-x,1/2+y,-z
1/2-x,1/2-y,-z
1/2+x,1/2-y,z
loop_
_atom_site_type_symbol
_atom_site_label
_atom_site_fract_x
_atom_site_fract_y
_atom_site_fract_z
Si Si1 0.966888 0.333669 0.192414
Si Si2 0.720130 0.870770 0.316474
Si Si3 0.802170 0.293312 0.505108
Si Si4 0.967526 0.571100 0.284343
Si Si5 0.725949 0.797549 0.900150
Si Si6 0.760655 0.948549 0.939916
Si Si7 0.827315 0.548048 0.544610
Si Si8 0.375395 0.372703 0.267021
O O1 0.007037 0.378870 0.329987
O O2 0.888463 0.311725 0.197631
O O3 0.065662 0.302830 0.289068
O O4 0.887842 0.351815 0.935972
O O5 0.749858 0.833671 0.484187
O O6 0.699584 0.914911 0.376035
O O7 0.811217 0.877116 0.328580
O O8 0.750000 0.250000 0.500000
O O9 0.777420 0.295247 0.287439
O O10 0.837855 0.565614 0.094545
O O11 0.000000 0.552907 0.500000
O O12 0.040942 0.547650 0.272712
O O13 0.750000 0.750000 0.000000
O O14 0.815946 0.832597 0.090854
O O15 0.721323 0.941863 0.701953
O O16 0.781944 0.000000 0.990711
O O17 0.856923 0.915883 0.135602
O O18 0.788489 0.500000 0.528590
O O19 0.500000 0.364328 0.500000
#
# Coordination Sequence:
#
# PCOD9170730 Si02
#       8
#     8   8   8   8   8   8   8   8
#     4  11  22  39  64  93 128 168 203 246 307 385
#     4  11  23  40  62  93 129 164 204 262 323 371
#     4  12  24  40  64  95 128 162 203 256 317 381
#     4  10  17  33  61  92 126 169 203 244 304 377
#     4  11  24  44  67  90 119 167 213 258 313 378
#     4  10  20  38  64  94 129 172 219 255 305 382
#     4  10  21  36  61  99 136 168 204 254 315 380
#     4  11  25  45  65  88 121 166 220 272 318 375
#
# _framework density 19.573307
#
# number of rings (size 3 to 8) (size 9 to 14) (size 15 to 20)
#    0.000    1.250    3.750    4.125    0.000    4.250 
#    0.000    4.375    0.000    1.500    0.000    0.000 
#    0.000    0.000    0.000    0.000    0.000    0.000 
#
# Total GULP energy -178609.733291 kJ/mol
# GULP energy per Si atom -5581.554165 kJ/mol
# Density = 1.952876 g / cm^3
# Si number density = 19.573307 Si / 1000 Ang^3
#
#
#
# Elastic Constant Matrix: (Units=GPa)
#
#
# Indices 1 2 3 4 5 6 
#
# 1 126.4324 77.4203 68.7244 0.0000 -15.0979 0.0000
# 2 77.4203 156.8081 49.3882 0.0000 -11.2467 0.0000
# 3 68.7244 49.3882 80.1317 0.0000 -3.0416 0.0000
# 4 0.0000 0.0000 0.0000 24.2930 0.0000 -2.3756
# 5 -15.0979 -11.2467 -3.0416 0.0000 37.1116 0.0000
# 6 0.0000 0.0000 0.0000 -2.3756 0.0000 30.7162
#
#
#
# Elastic Compliance Matrix: (Units=1/GPa)
#
#
# Indices 1 2 3 4 5 6 
#
# 1 0.018159 -0.004672 -0.012507 0.000000 0.004947 0.000000
# 2 -0.004672 0.009267 -0.001676 0.000000 0.000770 0.000000
# 3 -0.012507 -0.001676 0.024101 0.000000 -0.003621 0.000000
# 4 0.000000 0.000000 0.000000 0.041478 0.000000 0.003208
# 5 0.004947 0.000770 -0.003621 0.000000 0.028895 0.000000
# 6 0.000000 0.000000 0.000000 0.003208 0.000000 0.032804
#
#
# Mechanical properties :
#
#
# Convention : Reuss Voigt Hill
#
# Bulk Modulus (GPa) = 72.36560 83.82643 78.09602
# Shear Modulus (GPa) = 25.37828 29.61342 27.49585
#
# Velocity S-wave (km/s) = 3.60471 3.89388 3.75208
# Velocity P-wave (km/s) = 7.37408 7.94584 7.66529
#
# Compressibility (1/GPa) = 0.01381872
#
# Stress axis : x y z
#
# Youngs Moduli (GPa) = 55.06878 107.91277 41.49162
#
# Poissons Ratio (x) = 0.50413 0.51893
# Poissons Ratio (y) = 0.25726 0.06952
# Poissons Ratio (z) = 0.68874 0.18082
#
# Static dielectric constant tensor:
#      x y z
#    x 1.697340 0.000000 -0.020740 
#    y 0.000000 1.708420 0.000000 
#    z -0.020740 0.000000 1.779850 
# 
# From -- ./inp_files/80780.got.cif
#   From: 2010.05.17/outbox.cif.g08.bks.cpg/sg12_41_cif.got.tgz:80780.got - 2010.06.03 13:09:07.
