data_PCOD9170713
_publ_section_title
;
Structure prediction by ZEFSAII (Michael W. Deem and Ramdas Pophale) SiO2 
 PCOD9170713
Probable space group: C 2/M
;
_chemical_formula_sum "Si O2"
_cell_formula_units_Z 64
_cell_length_a 15.936672
_cell_length_b 17.083096
_cell_length_c 14.206037
_cell_angle_alpha 90.000000
_cell_angle_beta 121.310567
_cell_angle_gamma 90.000000
_cell_volume 3304.300910
_symmetry_space_group_name_H-M "C 2/M"
_symmetry_group_IT_number 12
_symmetry_cell_setting 'monoclinic'
loop_
_space_group_symop_operation_xyz
x,y,z
-x,y,-z
-x,-y,-z
x,-y,z
1/2+x,1/2+y,z
1/2-x,1/2+y,-z
1/2-x,1/2-y,-z
1/2+x,1/2-y,z
loop_
_atom_site_type_symbol
_atom_site_label
_atom_site_fract_x
_atom_site_fract_y
_atom_site_fract_z
Si Si1 0.238423 0.726340 0.845898
Si Si2 0.100274 0.414026 0.763560
Si Si3 0.556189 0.181540 0.434974
Si Si4 0.299066 0.171562 0.711273
Si Si5 0.247137 0.092949 0.492183
Si Si6 0.499674 0.115053 0.893876
Si Si7 0.418874 0.683889 0.693576
Si Si8 0.910530 0.783582 0.079671
O O1 0.181736 0.648524 0.782108
O O2 0.247350 0.794067 0.773475
O O3 0.169236 0.761199 0.887417
O O4 0.343136 0.698474 0.949940
O O5 0.124241 0.500000 0.743318
O O6 0.000125 0.381540 0.661917
O O7 0.076700 0.416531 0.861825
O O8 0.500000 0.185117 0.500000
O O9 0.666210 0.146798 0.503191
O O10 0.545590 0.264801 0.375829
O O11 0.239943 0.128201 0.594369
O O12 0.388550 0.114233 0.791748
O O13 0.347859 0.250582 0.698217
O O14 0.146910 0.112405 0.379038
O O15 0.268951 0.000000 0.504887
O O16 0.530933 0.205818 0.914914
O O17 0.500000 0.084583 0.000000
O O18 0.507020 0.665736 0.817917
#
# Coordination Sequence:
#
# PCOD9170713 Si02
#       8
#     8   8   8   8   8   8   8   8
#     4  10  19  34  59  85 114 153 196 244 292 349
#     4  11  23  37  53  88 127 151 184 240 307 360
#     4  11  22  38  62  85 115 157 197 243 294 351
#     4  10  19  34  62  84 112 151 201 246 288 347
#     4  11  24  40  58  87 126 156 194 250 301 355
#     4  10  17  33  58  88 112 149 195 242 297 342
#     4  10  21  37  59  87 114 154 207 243 284 347
#     4   9  18  34  57  86 111 147 202 249 279 339
#
# _framework density 19.368694999999999
#
# number of rings (size 3 to 8) (size 9 to 14) (size 15 to 20)
#    0.000    1.750    6.250    1.875    3.500    1.250 
#    0.000    0.625    0.000    3.375    0.000    2.625 
#    0.000    0.000    0.000    0.000    0.000    0.000 
#
# Total GULP energy -178274.651437 kJ/mol
# GULP energy per Si atom -5571.082857 kJ/mol
# Density = 1.932461 g / cm^3
# Si number density = 19.368695 Si / 1000 Ang^3
#
#
#
# Elastic Constant Matrix: (Units=GPa)
#
#
# Indices 1 2 3 4 5 6 
#
# 1 52.3742 15.8987 31.4670 0.0000 -10.2679 0.0000
# 2 15.8987 42.4727 5.9087 0.0000 8.3313 0.0000
# 3 31.4670 5.9087 85.0898 0.0000 19.0192 0.0000
# 4 0.0000 0.0000 0.0000 -5.3204 0.0000 2.5645
# 5 -10.2679 8.3313 19.0192 0.0000 45.1486 0.0000
# 6 0.0000 0.0000 0.0000 2.5645 0.0000 -0.3195
#
#
#
# Elastic Compliance Matrix: (Units=1/GPa)
#
#
# Indices 1 2 3 4 5 6 
#
# 1 0.037580 -0.015340 -0.016974 0.000000 0.018528 0.000000
# 2 -0.015340 0.030735 0.006167 0.000000 -0.011758 0.000000
# 3 -0.016974 0.006167 0.020664 0.000000 -0.013703 0.000000
# 4 0.000000 0.000000 0.000000 0.065529 0.000000 0.525897
# 5 0.018528 -0.011758 -0.013703 0.000000 0.034305 0.000000
# 6 0.000000 0.000000 0.000000 0.525897 0.000000 1.091062
#
#
# Mechanical properties :
#
#
# Convention : Reuss Voigt Hill
#
# Bulk Modulus (GPa) = 27.25867 31.83171 29.54519
# Shear Modulus (GPa) = 3.71914 16.34589 10.03251
#
# Velocity S-wave (km/s) = 1.38721 2.90821 2.27838
# Velocity P-wave (km/s) = 4.08288 5.26756 4.71259
#
# Compressibility (1/GPa) = 0.03668558
#
# Stress axis : x y z
#
# Youngs Moduli (GPa) = 26.60961 32.53581 48.39333
#
# Poissons Ratio (x) = 0.49911 0.82141
# Poissons Ratio (y) = 0.40820 -0.29844
# Poissons Ratio (z) = 0.45166 -0.20065
#
# Static dielectric constant tensor:
#      x y z
#    x 1.726060 0.000000 -0.014740 
#    y 0.000000 1.659270 0.000000 
#    z -0.014740 0.000000 1.773330 
# 
# From -- ./inp_files/216403.got.cif
#   From: 2010.05.17/outbox.cif.g08.bks.cpg/sg12_109_cif.got.tgz:216403.got - 2010.06.03 13:09:07.
