data_PCOD9170522
_publ_section_title
;
Structure prediction by ZEFSAII (Michael W. Deem and Ramdas Pophale) SiO2 
 PCOD9170522
Probable space group: C 2/M
;
_chemical_formula_sum "Si O2"
_cell_formula_units_Z 48
_cell_length_a 15.948084
_cell_length_b 22.626636
_cell_length_c 14.174238
_cell_angle_alpha 90.000000
_cell_angle_beta 29.498663
_cell_angle_gamma 90.000000
_cell_volume 2518.541645
_symmetry_space_group_name_H-M "C 2/M"
_symmetry_group_IT_number 12
_symmetry_cell_setting 'monoclinic'
loop_
_space_group_symop_operation_xyz
x,y,z
-x,y,-z
-x,-y,-z
x,-y,z
1/2+x,1/2+y,z
1/2-x,1/2+y,-z
1/2-x,1/2-y,-z
1/2+x,1/2-y,z
loop_
_atom_site_type_symbol
_atom_site_label
_atom_site_fract_x
_atom_site_fract_y
_atom_site_fract_z
Si Si1 0.686404 0.772852 0.428680
Si Si2 0.983469 0.303925 0.225133
Si Si3 0.689485 0.591916 0.920781
Si Si4 0.171502 0.228913 0.898391
Si Si5 0.494140 0.063191 0.260907
Si Si6 0.801709 0.091112 0.306931
O O1 0.808876 0.723371 0.353808
O O2 0.527276 0.783068 0.654658
O O3 0.681903 0.759175 0.321882
O O4 0.776301 0.837905 0.343102
O O5 0.984253 0.374569 0.216434
O O6 0.134532 0.275061 0.017178
O O7 0.690189 0.663319 0.920948
O O8 0.832783 0.567539 0.848208
O O9 0.727778 0.576255 0.774170
O O10 0.496962 0.574398 0.135024
O O11 0.000000 0.229654 0.000000
O O12 0.336940 0.064520 0.488124
O O13 0.490588 0.000000 0.212850
#
# Coordination Sequence:
#
# PCOD9170522 Si02
#       6
#     8   8   8   8   8   8
#     4   8  14  28  52  78  98 127 161 208 266 305
#     4   9  16  29  50  72 104 134 158 211 257 296
#     4  10  17  32  53  72  99 127 165 206 257 307
#     4   9  14  29  53  78 100 126 162 209 267 307
#     4  11  24  33  43  71 105 139 174 200 235 299
#     4   9  17  34  52  70  99 130 161 210 255 303
#
# _framework density 19.058648000000002
#
# number of rings (size 3 to 8) (size 9 to 14) (size 15 to 20)
#    0.000    2.667    5.000    0.500    0.000    2.667 
#    0.000    1.667    0.000    4.500    0.000    0.000 
#    0.000    1.333    0.000    0.000    0.000    0.000 
#
# Total GULP energy -133789.689606 kJ/mol
# GULP energy per Si atom -5574.570400 kJ/mol
# Density = 1.901527 g / cm^3
# Si number density = 19.058648 Si / 1000 Ang^3
#
#
#
# Elastic Constant Matrix: (Units=GPa)
#
#
# Indices 1 2 3 4 5 6 
#
# 1 31.9852 26.9857 20.1818 0.0106 -0.4261 -0.0042
# 2 26.9857 140.4497 33.7312 0.0041 13.5838 0.0071
# 3 20.1818 33.7312 109.5376 0.0072 15.4274 0.0123
# 4 0.0106 0.0041 0.0072 23.4872 0.0031 -22.3533
# 5 -0.4261 13.5838 15.4274 0.0031 30.7966 -0.0076
# 6 -0.0042 0.0071 0.0123 -22.3533 -0.0076 38.5609
#
#
#
# Elastic Compliance Matrix: (Units=1/GPa)
#
#
# Indices 1 2 3 4 5 6 
#
# 1 0.041376 -0.007077 -0.006417 -0.000017 0.006909 -0.000001
# 2 -0.007077 0.009064 -0.000979 -0.000001 -0.003605 -0.000003
# 3 -0.006417 -0.000979 0.011367 -0.000010 -0.005351 -0.000011
# 4 -0.000017 -0.000001 -0.000010 0.094973 0.000010 0.055055
# 5 0.006909 -0.003605 -0.005351 0.000010 0.036837 0.000016
# 6 -0.000001 -0.000003 -0.000011 0.055055 0.000016 0.057848
#
#
# Mechanical properties :
#
#
# Convention : Reuss Voigt Hill
#
# Bulk Modulus (GPa) = 30.43231 49.30776 39.87003
# Shear Modulus (GPa) = 17.16057 31.97387 24.56722
#
# Velocity S-wave (km/s) = 3.00394 4.10036 3.59420
# Velocity P-wave (km/s) = 5.29470 6.95306 6.17976
#
# Compressibility (1/GPa) = 0.03285981
#
# Stress axis : x y z
#
# Youngs Moduli (GPa) = 24.16836 110.33104 87.97499
#
# Poissons Ratio (x) = 0.78081 0.56455
# Poissons Ratio (y) = 0.17104 0.08616
# Poissons Ratio (z) = 0.15509 0.10806
#
# Static dielectric constant tensor:
#      x y z
#    x 1.693920 0.000000 -0.004130 
#    y 0.000000 1.684940 0.000010 
#    z -0.004130 0.000010 1.709060 
# 
# From -- ./inp_files/227212.got.cif
#   From: 2010.05.17/outbox.cif.g08.bks.cpg/sg12_114_cif.got.tgz:227212.got - 2010.06.03 13:09:07.
