data_PCOD9170350
_publ_section_title
;
Structure prediction by ZEFSAII (Michael W. Deem and Ramdas Pophale) SiO2 
 PCOD9170350
Probable space group: C 2/M
;
_chemical_formula_sum "Si O2"
_cell_formula_units_Z 40
_cell_length_a 22.493906
_cell_length_b 7.804087
_cell_length_c 30.973002
_cell_angle_alpha 90.000000
_cell_angle_beta 154.173570
_cell_angle_gamma 90.000000
_cell_volume 2368.668966
_symmetry_space_group_name_H-M "C 2/M"
_symmetry_group_IT_number 12
_symmetry_cell_setting 'monoclinic'
loop_
_space_group_symop_operation_xyz
x,y,z
-x,y,-z
-x,-y,-z
x,-y,z
1/2+x,1/2+y,z
1/2-x,1/2+y,-z
1/2-x,1/2-y,-z
1/2+x,1/2-y,z
loop_
_atom_site_type_symbol
_atom_site_label
_atom_site_fract_x
_atom_site_fract_y
_atom_site_fract_z
Si Si1 0.216908 0.500000 0.167268
Si Si2 0.585303 0.700622 0.510928
Si Si3 0.662499 0.808789 0.703027
Si Si4 0.914163 0.500000 0.010258
Si Si5 0.120291 0.198524 0.943766
Si Si6 0.671800 0.207955 0.275086
O O1 0.298137 0.666003 0.236721
O O2 0.183710 0.500000 0.095110
O O3 0.069961 0.500000 0.095278
O O4 0.500000 0.711032 0.500000
O O5 0.591942 0.500000 0.503546
O O6 0.493538 0.792241 0.415398
O O7 0.734810 0.761507 0.623152
O O8 0.754334 0.771621 0.720391
O O9 0.690544 0.000000 0.736704
O O10 0.891487 0.331867 0.024537
O O11 0.981261 0.224776 0.825630
O O12 0.129799 0.000000 0.963374
O O13 0.250000 0.250000 0.000000
O O14 0.672318 0.000000 0.274014
#
# Coordination Sequence:
#
# PCOD9170350 Si02
#       6
#     4   8   8   4   8   8
#     4  11  22  38  54  75 120 143 180 222 270 320
#     4   8  15  26  45  70 106 142 170 211 266 323
#     4  11  18  29  50  75 107 147 176 210 267 329
#     4  11  24  40  55  80 107 149 181 228 269 318
#     4  12  22  37  59  80 108 140 183 226 273 319
#     4  10  17  31  49  75 111 141 174 220 272 320
#
# _framework density 16.887122000000002
#
# number of rings (size 3 to 8) (size 9 to 14) (size 15 to 20)
#    0.000    1.600    6.000    1.800    0.000    5.200 
#    0.000    2.000    0.000    0.000    0.000    1.400 
#    0.000    0.000    0.000    0.000    0.000    0.000 
#
# Total GULP energy -111558.450141 kJ/mol
# GULP energy per Si atom -5577.922507 kJ/mol
# Density = 1.684869 g / cm^3
# Si number density = 16.887122 Si / 1000 Ang^3
#
#
#
# Elastic Constant Matrix: (Units=GPa)
#
#
# Indices 1 2 3 4 5 6 
#
# 1 40.3317 25.6779 41.0397 0.0000 5.7928 0.0001
# 2 25.6779 145.8906 57.0071 -0.0002 -10.1602 0.0000
# 3 41.0397 57.0071 149.5531 -0.0008 1.2002 -0.0004
# 4 0.0000 -0.0002 -0.0008 13.5387 -0.0003 10.6132
# 5 5.7928 -10.1602 1.2002 -0.0003 19.8589 -0.0002
# 6 0.0001 0.0000 -0.0004 10.6132 -0.0002 4.9103
#
#
#
# Elastic Compliance Matrix: (Units=1/GPa)
#
#
# Indices 1 2 3 4 5 6 
#
# 1 0.038242 -0.004182 -0.008798 -0.000001 -0.012763 0.000000
# 2 -0.004182 0.008898 -0.002291 0.000000 0.005911 0.000000
# 3 -0.008798 -0.002291 0.009968 0.000000 0.000792 0.000000
# 4 -0.000001 0.000000 0.000000 -0.106376 0.000000 0.229921
# 5 -0.012763 0.005911 0.000792 0.000000 0.057054 0.000002
# 6 0.000000 0.000000 0.000000 0.229921 0.000002 -0.293299
#
#
# Mechanical properties :
#
#
# Convention : Reuss Voigt Hill
#
# Bulk Modulus (GPa) = 37.64300 64.80276 51.22288
# Shear Modulus (GPa) = -20.31568 21.79828 0.74130
#
# Velocity S-wave (km/s) = -3.47223 3.59670 0.66327
# Velocity P-wave (km/s) = 2.50283 7.46363 5.56641
#
# Compressibility (1/GPa) = 0.02656536
#
# Stress axis : x y z
#
# Youngs Moduli (GPa) = 26.14901 112.39068 100.32193
#
# Poissons Ratio (x) = 0.47003 0.88260
# Poissons Ratio (y) = 0.10936 0.22988
# Poissons Ratio (z) = 0.23005 0.25753
#
# Static dielectric constant tensor:
#      x y z
#    x 1.522440 0.000000 0.015130 
#    y 0.000000 1.588440 0.000000 
#    z 0.015130 0.000000 1.608280 
# 
# From -- ./inp_files/365297.got.cif
#   From: 2010.05.17/outbox.cif.g08.bks.cpg/sg12_183_cif.got.tgz:365297.got - 2010.06.03 13:09:07.
