data_PCOD9170598
_publ_section_title
;
Structure prediction by ZEFSAII (Michael W. Deem and Ramdas Pophale) SiO2 
 PCOD9170598
Probable space group: C 2/M
;
_chemical_formula_sum "Si O2"
_cell_formula_units_Z 60
_cell_length_a 25.168767
_cell_length_b 25.687933
_cell_length_c 14.733915
_cell_angle_alpha 90.000000
_cell_angle_beta 163.450156
_cell_angle_gamma 90.000000
_cell_volume 2713.466723
_symmetry_space_group_name_H-M "C 2/M"
_symmetry_group_IT_number 12
_symmetry_cell_setting 'monoclinic'
loop_
_space_group_symop_operation_xyz
x,y,z
-x,y,-z
-x,-y,-z
x,-y,z
1/2+x,1/2+y,z
1/2-x,1/2+y,-z
1/2-x,1/2-y,-z
1/2+x,1/2-y,z
loop_
_atom_site_type_symbol
_atom_site_label
_atom_site_fract_x
_atom_site_fract_y
_atom_site_fract_z
Si Si1 0.736003 0.225879 0.250831
Si Si2 0.812797 0.093677 0.637965
Si Si3 0.633121 0.813996 0.632442
Si Si4 0.895648 0.791866 0.699443
Si Si5 0.531412 0.137210 0.816926
Si Si6 0.086332 0.000000 0.313046
Si Si7 0.857018 0.441601 0.130384
Si Si8 0.220391 0.079368 0.104600
O O1 0.816195 0.253560 0.292690
O O2 0.878341 0.213571 0.562868
O O3 0.596537 0.271035 0.057995
O O4 0.620368 0.174746 0.036840
O O5 0.851663 0.150101 0.658142
O O6 0.638747 0.104199 0.419642
O O7 0.785764 0.046662 0.524139
O O8 0.000000 0.078119 0.000000
O O9 0.500000 0.823457 0.500000
O O10 0.536752 0.827240 0.378519
O O11 0.791124 0.858559 0.898796
O O12 0.750000 0.750000 0.500000
O O13 0.674209 0.097891 0.002701
O O14 0.941296 0.045555 0.115787
O O15 0.824721 0.500000 0.047239
O O16 0.740220 0.430796 0.029834
O O17 0.076184 0.435688 0.519372
#
# Coordination Sequence:
#
# PCOD9170598 Si02
#       8
#     8   8   8   8   8   4   8   8
#     4  12  24  42  66  97 130 173 223 273 328 393
#     4  12  25  39  61  95 137 168 220 276 329 392
#     4  11  21  40  63  96 134 170 214 280 332 392
#     4  12  23  43  70  93 130 178 222 266 334 403
#     4  11  23  39  59  95 128 170 219 264 331 390
#     4  12  23  35  60 101 128 177 212 280 333 382
#     4  10  17  32  58  85 123 173 209 267 320 391
#     4  10  17  33  59  91 129 163 218 263 331 389
#
# _framework density 22.111934999999999
#
# number of rings (size 3 to 8) (size 9 to 14) (size 15 to 20)
#    0.000    0.800    6.667    5.000    0.933    0.533 
#    0.000    0.000    1.467    0.800    0.000    0.933 
#    0.000    0.000    0.000    0.000    0.000    0.000 
#
# Total GULP energy -167160.956656 kJ/mol
# GULP energy per Si atom -5572.031889 kJ/mol
# Density = 2.206161 g / cm^3
# Si number density = 22.111935 Si / 1000 Ang^3
#
#
#
# Elastic Constant Matrix: (Units=GPa)
#
#
# Indices 1 2 3 4 5 6 
#
# 1 90.8878 29.3311 20.9078 -0.0001 16.9880 0.0000
# 2 29.3311 106.7179 9.3422 -0.0001 1.2060 0.0000
# 3 20.9078 9.3422 30.8455 -0.0006 1.2471 -0.0003
# 4 -0.0001 -0.0001 -0.0006 21.4072 -0.0002 14.5221
# 5 16.9880 1.2060 1.2471 -0.0002 14.4416 -0.0001
# 6 0.0000 0.0000 -0.0003 14.5221 -0.0001 35.8674
#
#
#
# Elastic Compliance Matrix: (Units=1/GPa)
#
#
# Indices 1 2 3 4 5 6 
#
# 1 0.018547 -0.003942 -0.010545 0.000000 -0.020577 0.000000
# 2 -0.003942 0.010468 -0.000653 0.000000 0.003819 0.000000
# 3 -0.010545 -0.000653 0.039399 0.000001 0.009057 0.000000
# 4 0.000000 0.000000 0.000001 0.064402 0.000001 -0.026075
# 5 -0.020577 0.003819 0.009057 0.000001 0.092348 0.000000
# 6 0.000000 0.000000 0.000000 -0.026075 0.000000 0.038438
#
#
# Mechanical properties :
#
#
# Convention : Reuss Voigt Hill
#
# Bulk Modulus (GPa) = 26.22394 38.62371 32.42382
# Shear Modulus (GPa) = 16.30824 25.60125 20.95475
#
# Velocity S-wave (km/s) = 2.71870 3.40634 3.08176
# Velocity P-wave (km/s) = 4.66267 5.74249 5.23052
#
# Compressibility (1/GPa) = 0.03813310
#
# Stress axis : x y z
#
# Youngs Moduli (GPa) = 53.91828 95.53023 25.38126
#
# Poissons Ratio (x) = 0.37656 0.26766
# Poissons Ratio (y) = 0.21253 0.01657
# Poissons Ratio (z) = 0.56859 0.06238
#
# Static dielectric constant tensor:
#      x y z
#    x 1.846930 0.000000 0.033200 
#    y 0.000000 1.815920 0.000000 
#    z 0.033200 0.000000 1.830500 
# 
# From -- ./inp_files/242378.got.cif
#   From: 2010.05.17/outbox.cif.g08.bks.cpg/sg12_122_cif.got.tgz:242378.got - 2010.06.03 13:09:07.
