data_PCOD9170944
_publ_section_title
;
Structure prediction by ZEFSAII (Michael W. Deem and Ramdas Pophale) SiO2 
 PCOD9170944
Probable space group: C 2/M
;
_chemical_formula_sum "Si O2"
_cell_formula_units_Z 40
_cell_length_a 12.303207
_cell_length_b 21.852579
_cell_length_c 12.651629
_cell_angle_alpha 90.000000
_cell_angle_beta 41.126909
_cell_angle_gamma 90.000000
_cell_volume 2237.250042
_symmetry_space_group_name_H-M "C 2/M"
_symmetry_group_IT_number 12
_symmetry_cell_setting 'monoclinic'
loop_
_space_group_symop_operation_xyz
x,y,z
-x,y,-z
-x,-y,-z
x,-y,z
1/2+x,1/2+y,z
1/2-x,1/2+y,-z
1/2-x,1/2-y,-z
1/2+x,1/2-y,z
loop_
_atom_site_type_symbol
_atom_site_label
_atom_site_fract_x
_atom_site_fract_y
_atom_site_fract_z
Si Si1 0.314052 0.570501 0.332785
Si Si2 0.000000 0.349579 0.500000
Si Si3 0.165383 0.331465 0.948240
Si Si4 0.000000 0.879631 0.000000
Si Si5 0.818958 0.301579 0.830201
Si Si6 0.434549 0.573565 0.666367
O O1 0.266556 0.500000 0.377074
O O2 0.435097 0.580458 0.144633
O O3 0.416987 0.588036 0.361128
O O4 0.152842 0.609843 0.427628
O O5 0.060025 0.311375 0.356040
O O6 0.277110 0.270081 0.865894
O O7 0.276896 0.386975 0.821135
O O8 0.117420 0.332400 0.107788
O O9 0.000000 0.324949 0.000000
O O10 0.148780 0.836751 0.929321
O O11 0.500000 0.587073 0.500000
O O12 0.400808 0.500000 0.697215
#
# Coordination Sequence:
#
# PCOD9170944 Si02
#       6
#     8   4   8   4   8   8
#     4  10  20  37  59  85 116 155 193 238 292 341
#     4  10  23  36  60  88 121 148 190 250 286 354
#     4  11  23  40  63  84 117 156 197 238 294 349
#     4  10  17  38  58  82 117 150 192 242 286 352
#     4  10  22  39  57  92 116 149 192 246 291 347
#     4  10  23  41  60  85 119 156 200 243 283 343
#
# _framework density 17.879092
#
# number of rings (size 3 to 8) (size 9 to 14) (size 15 to 20)
#    0.000    1.800    3.000    0.600    4.200    0.400 
#    0.000    3.000    0.000    0.000    0.000    0.000 
#    0.000    0.000    0.000    0.000    0.000    0.000 
#
# Total GULP energy -111544.736509 kJ/mol
# GULP energy per Si atom -5577.236825 kJ/mol
# Density = 1.783840 g / cm^3
# Si number density = 17.879092 Si / 1000 Ang^3
#
#
#
# Elastic Constant Matrix: (Units=GPa)
#
#
# Indices 1 2 3 4 5 6 
#
# 1 120.2943 25.7798 59.8694 0.0000 30.3714 0.0000
# 2 25.7798 56.4228 34.0541 0.0000 4.9305 0.0000
# 3 59.8694 34.0541 124.6885 0.0000 19.3733 0.0000
# 4 0.0000 0.0000 0.0000 11.7086 0.0000 11.1387
# 5 30.3714 4.9305 19.3733 0.0000 27.6582 0.0000
# 6 0.0000 0.0000 0.0000 11.1387 0.0000 20.0071
#
#
#
# Elastic Compliance Matrix: (Units=1/GPa)
#
#
# Indices 1 2 3 4 5 6 
#
# 1 0.013981 -0.002889 -0.004060 0.000000 -0.011993 0.000000
# 2 -0.002889 0.021821 -0.005006 0.000000 0.002789 0.000000
# 3 -0.004060 -0.005006 0.011788 0.000000 -0.002906 0.000000
# 4 0.000000 0.000000 0.000000 0.181578 0.000000 -0.101092
# 5 -0.011993 0.002789 -0.002906 0.000000 0.050864 0.000000
# 6 0.000000 0.000000 0.000000 -0.101092 0.000000 0.106264
#
#
# Mechanical properties :
#
#
# Convention : Reuss Voigt Hill
#
# Bulk Modulus (GPa) = 42.23072 60.09025 51.16049
# Shear Modulus (GPa) = 11.95886 23.98829 17.97357
#
# Velocity S-wave (km/s) = 2.58907 3.66689 3.17406
# Velocity P-wave (km/s) = 5.71044 7.18403 6.48920
#
# Compressibility (1/GPa) = 0.02367944
#
# Stress axis : x y z
#
# Youngs Moduli (GPa) = 71.52559 45.82768 84.83022
#
# Poissons Ratio (x) = 0.13241 0.34445
# Poissons Ratio (y) = 0.20665 0.42463
# Poissons Ratio (z) = 0.29043 0.22940
#
# Static dielectric constant tensor:
#      x y z
#    x 1.609230 0.000000 0.028750 
#    y 0.000000 1.602170 0.000000 
#    z 0.028750 0.000000 1.605020 
# 
# From -- ./inp_files/50459.got.cif
#   From: 2010.05.17/outbox.cif.g08.bks.cpg/sg12_26_cif.got.tgz:50459.got - 2010.06.03 13:09:07.
