data_PCOD9170827
_publ_section_title
;
Structure prediction by ZEFSAII (Michael W. Deem and Ramdas Pophale) SiO2 
 PCOD9170827
Probable space group: C 2/M
;
_chemical_formula_sum "Si O2"
_cell_formula_units_Z 58
_cell_length_a 9.633233
_cell_length_b 17.876067
_cell_length_c 15.401053
_cell_angle_alpha 90.000000
_cell_angle_beta 102.906386
_cell_angle_gamma 90.000000
_cell_volume 2585.125289
_symmetry_space_group_name_H-M "C 2/M"
_symmetry_group_IT_number 12
_symmetry_cell_setting 'monoclinic'
loop_
_space_group_symop_operation_xyz
x,y,z
-x,y,-z
-x,-y,-z
x,-y,z
1/2+x,1/2+y,z
1/2-x,1/2+y,-z
1/2-x,1/2-y,-z
1/2+x,1/2-y,z
loop_
_atom_site_type_symbol
_atom_site_label
_atom_site_fract_x
_atom_site_fract_y
_atom_site_fract_z
Si Si1 0.224351 0.586286 0.581114
Si Si2 0.955623 0.082928 0.297537
Si Si3 0.421784 0.769000 0.811871
Si Si4 0.062520 0.135682 0.894951
Si Si5 0.157912 0.838052 0.563545
Si Si6 0.142644 0.295514 0.693139
Si Si7 0.132040 0.587659 0.083498
Si Si8 0.500000 0.500000 0.000000
O O1 0.187913 0.500000 0.558451
O O2 0.386394 0.588424 0.640922
O O3 0.232156 0.635596 0.494272
O O4 0.135923 0.624438 0.645646
O O5 0.939872 0.130992 0.209982
O O6 0.848363 0.103128 0.358926
O O7 0.930628 0.000000 0.263921
O O8 0.507528 0.720170 0.896188
O O9 0.278546 0.721520 0.773203
O O10 0.505643 0.779513 0.732634
O O11 0.391990 0.851687 0.844479
O O12 0.223356 0.114952 0.943579
O O13 0.973551 0.067897 0.923798
O O14 0.169954 0.760427 0.615973
O O15 0.000000 0.837646 0.500000
O O16 0.150126 0.500000 0.111867
O O17 0.000000 0.590334 0.000000
#
# Coordination Sequence:
#
# PCOD9170827 Si02
#       8
#     8   8   8   8   8   8   8   2
#     4  10  21  35  57  97 139 177 234 291 349 410
#     4  10  17  34  62  90 131 170 222 286 337 410
#     4  12  25  45  75 102 139 190 247 297 362 434
#     4  12  23  46  68 106 141 181 241 291 358 435
#     4  10  19  36  62  95 134 184 231 289 347 414
#     4  12  23  42  67 101 136 187 242 297 353 422
#     4  11  26  49  70  99 146 185 232 296 369 448
#     4  12  28  40  78 108 140 184 236 302 368 418
#
# _framework density 22.436050999999999
#
# number of rings (size 3 to 8) (size 9 to 14) (size 15 to 20)
#    0.000    0.966    5.517    1.655    0.966    3.862 
#    0.000    0.690    0.000    2.897    0.000    0.000 
#    0.000    0.000    0.000    0.000    0.000    0.000 
#
# Total GULP energy -161626.193668 kJ/mol
# GULP energy per Si atom -5573.317023 kJ/mol
# Density = 2.238499 g / cm^3
# Si number density = 22.436051 Si / 1000 Ang^3
#
#
#
# Elastic Constant Matrix: (Units=GPa)
#
#
# Indices 1 2 3 4 5 6 
#
# 1 47.1601 16.7498 16.8712 0.0000 -5.5112 0.0000
# 2 16.7498 112.9248 25.3103 0.0000 -16.4587 0.0000
# 3 16.8712 25.3103 80.7794 0.0000 -9.6314 0.0000
# 4 0.0000 0.0000 0.0000 37.4544 0.0000 1.8196
# 5 -5.5112 -16.4587 -9.6314 0.0000 29.6071 0.0000
# 6 0.0000 0.0000 0.0000 1.8196 0.0000 20.9902
#
#
#
# Elastic Compliance Matrix: (Units=1/GPa)
#
#
# Indices 1 2 3 4 5 6 
#
# 1 0.023680 -0.002355 -0.003993 0.000000 0.001800 0.000000
# 2 -0.002355 0.010371 -0.002208 0.000000 0.004609 0.000000
# 3 -0.003993 -0.002208 0.014222 0.000000 0.002656 0.000000
# 4 0.000000 0.000000 0.000000 0.026812 0.000000 -0.002324
# 5 0.001800 0.004609 0.002656 0.000000 0.037537 0.000000
# 6 0.000000 0.000000 0.000000 -0.002324 0.000000 0.047843
#
#
# Mechanical properties :
#
#
# Convention : Reuss Voigt Hill
#
# Bulk Modulus (GPa) = 32.09229 39.85853 35.97541
# Shear Modulus (GPa) = 26.60083 29.73921 28.17002
#
# Velocity S-wave (km/s) = 3.44703 3.64471 3.54725
# Velocity P-wave (km/s) = 5.49342 5.95951 5.73121
#
# Compressibility (1/GPa) = 0.03116013
#
# Stress axis : x y z
#
# Youngs Moduli (GPa) = 42.23036 96.41864 70.31398
#
# Poissons Ratio (x) = 0.22707 0.28077
# Poissons Ratio (y) = 0.09945 0.15527
# Poissons Ratio (z) = 0.16863 0.21292
#
# Static dielectric constant tensor:
#      x y z
#    x 1.877430 0.000000 -0.005320 
#    y 0.000000 1.924670 0.000000 
#    z -0.005320 0.000000 1.850790 
# 
# From -- ./inp_files/206220.got.cif
#   From: 2010.05.17/outbox.cif.g08.bks.cpg/sg12_104_cif.got.tgz:206220.got - 2010.06.03 13:09:07.
