data_PCOD9170303
_publ_section_title
;
Structure prediction by ZEFSAII (Michael W. Deem and Ramdas Pophale) SiO2 
 PCOD9170303
Probable space group: C 2/M
;
_chemical_formula_sum "Si O2"
_cell_formula_units_Z 44
_cell_length_a 10.328926
_cell_length_b 27.381676
_cell_length_c 13.102231
_cell_angle_alpha 90.000000
_cell_angle_beta 37.567206
_cell_angle_gamma 90.000000
_cell_volume 2259.283066
_symmetry_space_group_name_H-M "C 2/M"
_symmetry_group_IT_number 12
_symmetry_cell_setting 'monoclinic'
loop_
_space_group_symop_operation_xyz
x,y,z
-x,y,-z
-x,-y,-z
x,-y,z
1/2+x,1/2+y,z
1/2-x,1/2+y,-z
1/2-x,1/2-y,-z
1/2+x,1/2-y,z
loop_
_atom_site_type_symbol
_atom_site_label
_atom_site_fract_x
_atom_site_fract_y
_atom_site_fract_z
Si Si1 0.675912 0.357996 0.640974
Si Si2 0.595571 0.856805 0.284501
Si Si3 0.262421 0.692077 0.986256
Si Si4 0.500000 0.125948 0.000000
Si Si5 0.877220 0.056808 0.783314
Si Si6 0.221287 0.945150 0.914189
O O1 0.790949 0.363745 0.677987
O O2 0.586596 0.409353 0.653506
O O3 0.858358 0.337596 0.452479
O O4 0.474726 0.324467 0.794025
O O5 0.738302 0.826007 0.117657
O O6 0.592494 0.909997 0.235685
O O7 0.250000 0.750000 0.000000
O O8 0.080410 0.662183 0.038812
O O9 0.691273 0.089329 0.848564
O O10 0.895439 0.000000 0.738604
O O11 0.811274 0.055750 0.944460
O O12 0.259025 0.000000 0.855586
O O13 0.000000 0.928724 0.000000
#
# Coordination Sequence:
#
# PCOD9170303 Si02
#       6
#     8   8   8   4   8   8
#     4  10  22  36  61  92 117 155 194 241 304 346
#     4  11  20  38  60  87 126 150 191 253 292 351
#     4  11  24  41  64  83 116 153 201 249 303 356
#     4  10  21  38  60  90 108 162 199 236 302 348
#     4  10  19  35  58  86 122 158 200 237 284 358
#     4  10  17  30  56  84 116 160 196 235 289 343
#
# _framework density 19.475204999999999
#
# number of rings (size 3 to 8) (size 9 to 14) (size 15 to 20)
#    0.000    1.636    5.455    0.818    2.545    1.455 
#    0.000    5.455    0.000    1.091    0.000    0.000 
#    0.000    0.000    0.000    0.000    0.000    0.000 
#
# Total GULP energy -122574.637770 kJ/mol
# GULP energy per Si atom -5571.574444 kJ/mol
# Density = 1.943088 g / cm^3
# Si number density = 19.475205 Si / 1000 Ang^3
#
#
#
# Elastic Constant Matrix: (Units=GPa)
#
#
# Indices 1 2 3 4 5 6 
#
# 1 46.5488 20.5960 7.9402 0.0000 -20.2288 0.0000
# 2 20.5960 138.2391 37.2605 0.0000 -16.2531 0.0000
# 3 7.9402 37.2605 87.5777 0.0000 -14.5799 0.0000
# 4 0.0000 0.0000 0.0000 6.5937 0.0000 -2.9171
# 5 -20.2288 -16.2531 -14.5799 0.0000 19.3532 0.0000
# 6 0.0000 0.0000 0.0000 -2.9171 0.0000 16.7687
#
#
#
# Elastic Compliance Matrix: (Units=1/GPa)
#
#
# Indices 1 2 3 4 5 6 
#
# 1 0.040982 -0.002109 0.004595 0.000000 0.044527 0.000000
# 2 -0.002109 0.008698 -0.003042 0.000000 0.002809 0.000000
# 3 0.004595 -0.003042 0.014487 0.000000 0.013162 0.000000
# 4 0.000000 0.000000 0.000000 0.164304 0.000000 0.028583
# 5 0.044527 0.002809 0.013162 0.000000 0.110487 0.000000
# 6 0.000000 0.000000 0.000000 0.028583 0.000000 0.064607
#
#
# Mechanical properties :
#
#
# Convention : Reuss Voigt Hill
#
# Bulk Modulus (GPa) = 15.85924 44.88433 30.37179
# Shear Modulus (GPa) = 11.74543 22.31439 17.02991
#
# Velocity S-wave (km/s) = 2.45847 3.38862 2.96030
# Velocity P-wave (km/s) = 4.02737 6.19736 5.22623
#
# Compressibility (1/GPa) = 0.06305471
#
# Stress axis : x y z
#
# Youngs Moduli (GPa) = 24.40073 114.96619 69.02617
#
# Poissons Ratio (x) = 0.24248 -0.31714
# Poissons Ratio (y) = 0.05147 0.20997
# Poissons Ratio (z) = -0.11211 0.34972
#
# Static dielectric constant tensor:
#      x y z
#    x 1.724200 0.000000 -0.027840 
#    y 0.000000 1.693610 0.000000 
#    z -0.027840 0.000000 1.715290 
# 
# From -- ./inp_files/209041.got.cif
#   From: 2010.05.17/outbox.cif.g08.bks.cpg/sg12_105_cif.got.tgz:209041.got - 2010.06.03 13:09:07.
