data_PCOD9170906
_publ_section_title
;
Structure prediction by ZEFSAII (Michael W. Deem and Ramdas Pophale) SiO2 
 PCOD9170906
Probable space group: C 2/M
;
_chemical_formula_sum "Si O2"
_cell_formula_units_Z 60
_cell_length_a 26.207936
_cell_length_b 24.115098
_cell_length_c 20.409916
_cell_angle_alpha 90.000000
_cell_angle_beta 167.679633
_cell_angle_gamma 90.000000
_cell_volume 2752.403274
_symmetry_space_group_name_H-M "C 2/M"
_symmetry_group_IT_number 12
_symmetry_cell_setting 'monoclinic'
loop_
_space_group_symop_operation_xyz
x,y,z
-x,y,-z
-x,-y,-z
x,-y,z
1/2+x,1/2+y,z
1/2-x,1/2+y,-z
1/2-x,1/2-y,-z
1/2+x,1/2-y,z
loop_
_atom_site_type_symbol
_atom_site_label
_atom_site_fract_x
_atom_site_fract_y
_atom_site_fract_z
Si Si1 0.960290 0.500000 0.563545
Si Si2 0.437347 0.805643 0.264128
Si Si3 0.799353 0.387826 0.305047
Si Si4 0.730610 0.270379 0.833720
Si Si5 0.933437 0.205027 0.840511
Si Si6 0.263206 0.402822 0.162039
Si Si7 0.125722 0.565781 0.223193
Si Si8 0.821020 0.914190 0.088172
O O1 0.785177 0.449724 0.315742
O O2 0.152583 0.451659 0.831067
O O3 0.591472 0.843627 0.507838
O O4 0.319617 0.756957 0.158671
O O5 0.646865 0.791128 0.476034
O O6 0.245691 0.849865 0.000747
O O7 0.000000 0.391394 0.500000
O O8 0.547860 0.356933 0.972404
O O9 0.500000 0.255929 0.500000
O O10 0.742520 0.336354 0.851893
O O11 0.945752 0.243718 0.062343
O O12 0.000000 0.222203 0.000000
O O13 0.500000 0.418185 0.500000
O O14 0.274121 0.430175 0.104688
O O15 0.032766 0.419404 0.913660
O O16 0.125367 0.500000 0.215455
O O17 0.399732 0.581637 0.575334
O O18 0.000000 0.590311 0.000000
#
# Coordination Sequence:
#
# PCOD9170906 Si02
#       8
#     4   8   8   8   8   8   8   8
#     4  10  23  38  67  92 133 179 210 265 327 356
#     4  10  21  37  63  93 139 177 200 260 320 363
#     4  10  17  36  62  93 132 181 219 253 291 371
#     4  11  20  39  64  96 132 172 213 261 308 377
#     4  10  18  34  62  94 130 178 218 247 302 369
#     4  11  26  42  71 100 119 160 223 268 321 392
#     4  11  24  45  73  92 116 162 206 270 337 387
#     4  11  24  46  62  96 135 161 214 269 324 384
#
# _framework density 21.799130999999999
#
# number of rings (size 3 to 8) (size 9 to 14) (size 15 to 20)
#    0.000    1.467    6.000    0.200    0.933    3.467 
#    0.000    9.667    5.867    0.000    0.000    0.000 
#    0.000    0.000    0.000    0.000    0.000    0.000 
#
# Total GULP energy -167079.925690 kJ/mol
# GULP energy per Si atom -5569.330856 kJ/mol
# Density = 2.174951 g / cm^3
# Si number density = 21.799131 Si / 1000 Ang^3
#
#
#
# Elastic Constant Matrix: (Units=GPa)
#
#
# Indices 1 2 3 4 5 6 
#
# 1 91.9876 20.3729 13.5230 0.0005 37.3659 0.0127
# 2 20.3729 81.9692 0.6180 0.0029 14.6351 0.0135
# 3 13.5230 0.6180 161.6101 -0.0196 25.9303 -0.0124
# 4 0.0005 0.0029 -0.0196 33.2902 0.0007 0.6314
# 5 37.3659 14.6351 25.9303 0.0007 37.7052 0.0004
# 6 0.0127 0.0135 -0.0124 0.6314 0.0004 9.4699
#
#
#
# Elastic Compliance Matrix: (Units=1/GPa)
#
#
# Indices 1 2 3 4 5 6 
#
# 1 0.018661 -0.001250 0.001498 0.000001 -0.019038 -0.000021
# 2 -0.001250 0.013299 0.000768 0.000000 -0.004451 -0.000016
# 3 0.001498 0.000768 0.007132 0.000004 -0.006688 0.000006
# 4 0.000001 0.000000 0.000004 0.030077 -0.000005 -0.002005
# 5 -0.019038 -0.004451 -0.006688 -0.000005 0.051715 0.000021
# 6 -0.000021 -0.000016 0.000006 -0.002005 0.000021 0.105732
#
#
# Mechanical properties :
#
#
# Convention : Reuss Voigt Hill
#
# Bulk Modulus (GPa) = 24.31658 44.95496 34.63577
# Shear Modulus (GPa) = 20.98255 36.16327 28.57291
#
# Velocity S-wave (km/s) = 3.10585 4.07742 3.62434
# Velocity P-wave (km/s) = 4.90314 6.54479 5.78252
#
# Compressibility (1/GPa) = 0.04112421
#
# Stress axis : x y z
#
# Youngs Moduli (GPa) = 53.58750 75.19137 140.20372
#
# Poissons Ratio (x) = 0.09401 -0.21002
# Poissons Ratio (y) = 0.06700 -0.10767
# Poissons Ratio (z) = -0.08027 -0.05774
#
# Static dielectric constant tensor:
#      x y z
#    x 1.854390 0.000000 -0.004820 
#    y 0.000000 1.792690 -0.000010 
#    z -0.004820 -0.000010 1.864140 
# 
# From -- ./inp_files/354579.got.cif
#   From: 2010.05.17/outbox.cif.g08.bks.cpg/sg12_178_cif.got.tgz:354579.got - 2010.06.03 13:09:07.
