data_PCOD9170964
_publ_section_title
;
Structure prediction by ZEFSAII (Michael W. Deem and Ramdas Pophale) SiO2 
 PCOD9170964
Probable space group: C 2/M
;
_chemical_formula_sum "Si O2"
_cell_formula_units_Z 64
_cell_length_a 22.323906
_cell_length_b 13.864088
_cell_length_c 12.603158
_cell_angle_alpha 90.000000
_cell_angle_beta 64.019294
_cell_angle_gamma 90.000000
_cell_volume 3506.488006
_symmetry_space_group_name_H-M "C 2/M"
_symmetry_group_IT_number 12
_symmetry_cell_setting 'monoclinic'
loop_
_space_group_symop_operation_xyz
x,y,z
-x,y,-z
-x,-y,-z
x,-y,z
1/2+x,1/2+y,z
1/2-x,1/2+y,-z
1/2-x,1/2-y,-z
1/2+x,1/2-y,z
loop_
_atom_site_type_symbol
_atom_site_label
_atom_site_fract_x
_atom_site_fract_y
_atom_site_fract_z
Si Si1 0.629700 0.889583 0.482878
Si Si2 0.098715 0.384383 0.932408
Si Si3 0.689532 0.216584 0.621646
Si Si4 0.719837 0.608804 0.732153
Si Si5 0.511952 0.882806 0.811782
Si Si6 0.715606 0.784401 0.134633
Si Si7 0.744637 0.888737 0.774867
Si Si8 0.580396 0.116892 0.296270
O O1 0.634561 0.825326 0.584162
O O2 0.705612 0.891969 0.377376
O O3 0.585853 0.857259 0.416403
O O4 0.611588 0.000000 0.525214
O O5 0.092110 0.500000 0.934663
O O6 0.175883 0.367109 0.891193
O O7 0.074842 0.349912 0.834250
O O8 0.048936 0.352923 0.062462
O O9 0.750000 0.250000 0.500000
O O10 0.676966 0.311006 0.703712
O O11 0.721887 0.135060 0.672761
O O12 0.693994 0.500000 0.747688
O O13 0.733954 0.645971 0.839873
O O14 0.486248 0.854250 0.715314
O O15 0.515550 0.000000 0.805949
O O16 0.705548 0.690447 0.218430
O O17 0.644986 0.839049 0.186806
O O18 0.750000 0.750000 0.000000
O O19 0.763461 0.000000 0.772026
O O20 0.586216 0.000000 0.288244
#
# Coordination Sequence:
#
# PCOD9170964 Si02
#       8
#     8   8   8   8   8   8   8   8
#     4   8  13  22  36  52  70  95 126 157 192 230
#     4   8  14  24  38  57  79 105 137 169 198 231
#     4   9  16  26  39  54  73 102 137 170 201 241
#     4   8  15  26  37  50  70  98 130 162 192 227
#     4   8  13  23  40  58  77 105 139 167 193 234
#     4  10  18  25  36  56  82 110 134 158 196 244
#     4  10  19  28  39  58  85 112 137 168 203 237
#     4   9  16  26  40  57  79 108 138 165 194 235
#
# _framework density 18.25188
#
# number of rings (size 3 to 8) (size 9 to 14) (size 15 to 20)
#    0.000    3.250    0.000    3.750    0.000    2.500 
#    0.000    0.000    0.000    0.750    0.000    4.375 
#    0.000    5.000    0.000   54.875    0.000    4.250 
#
# Total GULP energy -178144.745435 kJ/mol
# GULP energy per Si atom -5567.023295 kJ/mol
# Density = 1.821034 g / cm^3
# Si number density = 18.251880 Si / 1000 Ang^3
#
#
#
# Elastic Constant Matrix: (Units=GPa)
#
#
# Indices 1 2 3 4 5 6 
#
# 1 69.6019 26.2731 22.7126 0.0000 29.1551 0.0000
# 2 26.2731 78.9939 16.0820 0.0000 17.5096 0.0000
# 3 22.7126 16.0820 72.8642 0.0000 21.7463 0.0000
# 4 0.0000 0.0000 0.0000 17.5528 0.0000 9.1163
# 5 29.1551 17.5096 21.7463 0.0000 34.0703 0.0000
# 6 0.0000 0.0000 0.0000 9.1163 0.0000 14.9185
#
#
#
# Elastic Compliance Matrix: (Units=1/GPa)
#
#
# Indices 1 2 3 4 5 6 
#
# 1 0.023449 -0.003689 -0.001325 0.000000 -0.017325 0.000000
# 2 -0.003689 0.014951 -0.000987 0.000000 -0.003897 0.000000
# 3 -0.001325 -0.000987 0.017128 0.000000 -0.009292 0.000000
# 4 0.000000 0.000000 0.000000 0.083458 0.000000 -0.050999
# 5 -0.017325 -0.003897 -0.009292 0.000000 0.052110 0.000000
# 6 0.000000 0.000000 0.000000 -0.050999 0.000000 0.098195
#
#
# Mechanical properties :
#
#
# Convention : Reuss Voigt Hill
#
# Bulk Modulus (GPa) = 22.97437 39.06615 31.02026
# Shear Modulus (GPa) = 15.83275 23.73447 19.78361
#
# Velocity S-wave (km/s) = 2.94846 3.61000 3.29587
# Velocity P-wave (km/s) = 4.91995 6.23109 5.61393
#
# Compressibility (1/GPa) = 0.04352677
#
# Stress axis : x y z
#
# Youngs Moduli (GPa) = 42.64493 66.88557 58.38404
#
# Poissons Ratio (x) = 0.24676 0.07733
# Poissons Ratio (y) = 0.15733 0.05762
# Poissons Ratio (z) = 0.05649 0.06601
#
# Static dielectric constant tensor:
#      x y z
#    x 1.697810 0.000000 -0.008680 
#    y 0.000000 1.626620 0.000000 
#    z -0.008680 0.000000 1.729240 
# 
# From -- ./inp_files/183014.got.cif
#   From: 2010.05.17/outbox.cif.g08.bks.cpg/sg12_92_cif.got.tgz:183014.got - 2010.06.03 13:09:07.
