data_PCOD9170995
_publ_section_title
;
Structure prediction by ZEFSAII (Michael W. Deem and Ramdas Pophale) SiO2 
 PCOD9170995
Probable space group: C 2/M
;
_chemical_formula_sum "Si O2"
_cell_formula_units_Z 56
_cell_length_a 10.874422
_cell_length_b 24.441687
_cell_length_c 12.006251
_cell_angle_alpha 90.000000
_cell_angle_beta 59.693049
_cell_angle_gamma 90.000000
_cell_volume 2755.013891
_symmetry_space_group_name_H-M "C 2/M"
_symmetry_group_IT_number 12
_symmetry_cell_setting 'monoclinic'
loop_
_space_group_symop_operation_xyz
x,y,z
-x,y,-z
-x,-y,-z
x,-y,z
1/2+x,1/2+y,z
1/2-x,1/2+y,-z
1/2-x,1/2-y,-z
1/2+x,1/2-y,z
loop_
_atom_site_type_symbol
_atom_site_label
_atom_site_fract_x
_atom_site_fract_y
_atom_site_fract_z
Si Si1 0.855923 0.194939 0.532184
Si Si2 0.370988 0.379524 0.207945
Si Si3 0.694235 0.500000 0.018674
Si Si4 0.804092 0.882831 0.970555
Si Si5 0.686864 0.740730 0.794299
Si Si6 0.572532 0.816666 0.580498
Si Si7 0.396908 0.795261 0.875597
Si Si8 0.350949 0.500000 0.215276
O O1 0.777429 0.218652 0.676925
O O2 0.731788 0.162105 0.528273
O O3 0.905282 0.250018 0.442614
O O4 0.000000 0.165025 0.500000
O O5 0.341505 0.383767 0.087004
O O6 0.307167 0.319980 0.262279
O O7 0.322607 0.438923 0.277031
O O8 0.540552 0.372540 0.152524
O O9 0.746566 0.442841 0.041286
O O10 0.720276 0.500000 0.874200
O O11 0.522227 0.500000 0.114887
O O12 0.678845 0.839734 0.012560
O O13 0.523222 0.759309 0.868907
O O14 0.766972 0.736464 0.874989
O O15 0.500000 0.835590 0.500000
O O16 0.475530 0.824564 0.733381
#
# Coordination Sequence:
#
# PCOD9170995 Si02
#       8
#     8   8   4   8   8   8   8   4
#     4   9  15  24  37  52  71 100 130 161 187 216
#     4   8  14  24  38  57  79 102 130 160 191 224
#     4   7  10  20  38  56  73  95 128 167 191 213
#     4   8  14  24  38  57  79 102 130 160 191 224
#     4  10  18  26  38  58  82 107 129 155 189 235
#     4   9  15  24  37  52  71 100 130 161 187 216
#     4  10  18  26  38  58  82 107 129 155 189 235
#     4   7  10  20  38  56  73  95 128 167 191 213
#
# _framework density 20.326577
#
# number of rings (size 3 to 8) (size 9 to 14) (size 15 to 20)
#    0.000    3.286    2.857    1.714    0.000    0.571 
#    0.000    0.000    0.000    0.000    0.000    3.000 
#    0.000    3.429    0.000   10.286    0.000    4.571 
#
# Total GULP energy -155941.953246 kJ/mol
# GULP energy per Si atom -5569.355473 kJ/mol
# Density = 2.028031 g / cm^3
# Si number density = 20.326577 Si / 1000 Ang^3
#
#
#
# Elastic Constant Matrix: (Units=GPa)
#
#
# Indices 1 2 3 4 5 6 
#
# 1 120.4669 36.7121 29.7316 0.0000 -35.0644 0.0000
# 2 36.7121 82.6023 21.1605 0.0000 -13.6168 0.0000
# 3 29.7316 21.1605 37.7240 0.0000 -8.8829 0.0000
# 4 0.0000 0.0000 0.0000 6.6380 0.0000 -3.2231
# 5 -35.0644 -13.6168 -8.8829 0.0000 35.1279 0.0000
# 6 0.0000 0.0000 0.0000 -3.2231 0.0000 12.7100
#
#
#
# Elastic Compliance Matrix: (Units=1/GPa)
#
#
# Indices 1 2 3 4 5 6 
#
# 1 0.014116 -0.002618 -0.006994 0.000000 0.011307 0.000000
# 2 -0.002618 0.015089 -0.005996 0.000000 0.001720 0.000000
# 3 -0.006994 -0.005996 0.035294 0.000000 -0.000381 0.000000
# 4 0.000000 0.000000 0.000000 0.171802 0.000000 0.043567
# 5 0.011307 0.001720 -0.000381 0.000000 0.040324 0.000000
# 6 0.000000 0.000000 0.000000 0.043567 0.000000 0.089726
#
#
# Mechanical properties :
#
#
# Convention : Reuss Voigt Hill
#
# Bulk Modulus (GPa) = 30.04500 46.22238 38.13369
# Shear Modulus (GPa) = 12.23500 21.10777 16.67139
#
# Velocity S-wave (km/s) = 2.45607 3.22597 2.86698
# Velocity P-wave (km/s) = 4.78082 6.05517 5.45533
#
# Compressibility (1/GPa) = 0.03328341
#
# Stress axis : x y z
#
# Youngs Moduli (GPa) = 70.83965 66.27255 28.33312
#
# Poissons Ratio (x) = 0.17351 0.19818
# Poissons Ratio (y) = 0.18547 0.16987
# Poissons Ratio (z) = 0.49549 0.39735
#
# Static dielectric constant tensor:
#      x y z
#    x 1.807690 0.000000 0.021960 
#    y 0.000000 1.772640 0.000000 
#    z 0.021960 0.000000 1.817170 
# 
# From -- ./inp_files/265386.got.cif
#   From: 2010.05.17/outbox.cif.g08.bks.cpg/sg12_133_cif.got.tgz:265386.got - 2010.06.03 13:09:07.
