data_PCOD9170840
_publ_section_title
;
Structure prediction by ZEFSAII (Michael W. Deem and Ramdas Pophale) SiO2 
 PCOD9170840
Probable space group: C 2/M
;
_chemical_formula_sum "Si O2"
_cell_formula_units_Z 48
_cell_length_a 19.652315
_cell_length_b 13.471991
_cell_length_c 8.277921
_cell_angle_alpha 90.000000
_cell_angle_beta 82.391514
_cell_angle_gamma 90.000000
_cell_volume 2172.332467
_symmetry_space_group_name_H-M "C 2/M"
_symmetry_group_IT_number 12
_symmetry_cell_setting 'monoclinic'
loop_
_space_group_symop_operation_xyz
x,y,z
-x,y,-z
-x,-y,-z
x,-y,z
1/2+x,1/2+y,z
1/2-x,1/2+y,-z
1/2-x,1/2-y,-z
1/2+x,1/2-y,z
loop_
_atom_site_type_symbol
_atom_site_label
_atom_site_fract_x
_atom_site_fract_y
_atom_site_fract_z
Si Si1 0.588983 0.811977 0.121863
Si Si2 0.304784 0.316891 0.340044
Si Si3 0.472627 0.886393 0.336833
Si Si4 0.845793 0.333098 0.550511
Si Si5 0.204438 0.386803 0.858247
Si Si6 0.652508 0.390250 0.999679
O O1 0.508230 0.829729 0.179072
O O2 0.622073 0.843821 0.283409
O O3 0.607310 0.697976 0.084750
O O4 0.631801 0.872639 0.974531
O O5 0.232776 0.365990 0.408266
O O6 0.343510 0.281193 0.488439
O O7 0.287888 0.210553 0.256928
O O8 0.345419 0.377529 0.194507
O O9 0.500000 0.844851 0.500000
O O10 0.392016 0.884297 0.398495
O O11 0.495280 0.000000 0.314120
O O12 0.209347 0.500000 0.793539
O O13 0.268716 0.377379 0.963170
O O14 0.629668 0.500000 0.053075
#
# Coordination Sequence:
#
# PCOD9170840 Si02
#       6
#     8   8   8   8   8   8
#     4  10  17  35  55  75 105 136 177 218 258 304
#     4  10  19  34  51  77 110 136 167 216 272 305
#     4   9  19  32  52  81 108 138 171 205 255 318
#     4  10  19  32  52  75 109 140 165 209 265 315
#     4  10  18  31  52  76 101 136 178 218 257 308
#     4  10  19  33  54  75  98 134 182 220 256 305
#
# _framework density 22.096064999999999
#
# number of rings (size 3 to 8) (size 9 to 14) (size 15 to 20)
#    0.000    2.167    3.333    1.500    0.000    2.000 
#    0.000    6.667    0.000   12.500    0.000    0.000 
#    0.000    0.000    0.000    0.000    0.000    0.000 
#
# Total GULP energy -133871.308248 kJ/mol
# GULP energy per Si atom -5577.971177 kJ/mol
# Density = 2.204577 g / cm^3
# Si number density = 22.096065 Si / 1000 Ang^3
#
#
#
# Elastic Constant Matrix: (Units=GPa)
#
#
# Indices 1 2 3 4 5 6 
#
# 1 45.5547 15.0421 27.6567 0.0000 -25.4460 0.0000
# 2 15.0421 102.7516 18.4387 0.0000 -25.7227 0.0000
# 3 27.6567 18.4387 103.5787 0.0000 -33.6982 0.0000
# 4 0.0000 0.0000 0.0000 12.1760 0.0000 -2.4939
# 5 -25.4460 -25.7227 -33.6982 0.0000 46.9972 0.0000
# 6 0.0000 0.0000 0.0000 -2.4939 0.0000 24.9199
#
#
#
# Elastic Compliance Matrix: (Units=1/GPa)
#
#
# Indices 1 2 3 4 5 6 
#
# 1 0.032629 -0.000410 -0.003867 0.000000 0.014669 0.000000
# 2 -0.000410 0.011283 0.000049 0.000000 0.005988 0.000000
# 3 -0.003867 0.000049 0.013050 0.000000 0.007291 0.000000
# 4 0.000000 0.000000 0.000000 0.083847 0.000000 0.008391
# 5 0.014669 0.005988 0.007291 0.000000 0.037726 0.000000
# 6 0.000000 0.000000 0.000000 0.008391 0.000000 0.040968
#
#
# Mechanical properties :
#
#
# Convention : Reuss Voigt Hill
#
# Bulk Modulus (GPa) = 20.61611 41.57334 31.09473
# Shear Modulus (GPa) = 20.48117 29.53513 25.00815
#
# Velocity S-wave (km/s) = 3.04783 3.66001 3.36786
# Velocity P-wave (km/s) = 4.66221 6.05942 5.40614
#
# Compressibility (1/GPa) = 0.04850574
#
# Stress axis : x y z
#
# Youngs Moduli (GPa) = 30.64792 88.63239 76.62771
#
# Poissons Ratio (x) = 0.03638 0.29630
# Poissons Ratio (y) = 0.01258 -0.00378
# Poissons Ratio (z) = 0.11851 -0.00438
#
# Static dielectric constant tensor:
#      x y z
#    x 1.930460 0.000000 0.046030 
#    y 0.000000 1.791510 0.000000 
#    z 0.046030 0.000000 1.863830 
# 
# From -- ./inp_files/85702.got.cif
#   From: 2010.05.17/outbox.cif.g08.bks.cpg/sg12_43_cif.got.tgz:85702.got - 2010.06.03 13:09:07.
