data_PCOD9170755
_publ_section_title
;
Structure prediction by ZEFSAII (Michael W. Deem and Ramdas Pophale) SiO2 
 PCOD9170755
Probable space group: C 2/M
;
_chemical_formula_sum "Si O2"
_cell_formula_units_Z 48
_cell_length_a 13.768535
_cell_length_b 22.337140
_cell_length_c 12.435852
_cell_angle_alpha 90.000000
_cell_angle_beta 137.938251
_cell_angle_gamma 90.000000
_cell_volume 2562.247026
_symmetry_space_group_name_H-M "C 2/M"
_symmetry_group_IT_number 12
_symmetry_cell_setting 'monoclinic'
loop_
_space_group_symop_operation_xyz
x,y,z
-x,y,-z
-x,-y,-z
x,-y,z
1/2+x,1/2+y,z
1/2-x,1/2+y,-z
1/2-x,1/2-y,-z
1/2+x,1/2-y,z
loop_
_atom_site_type_symbol
_atom_site_label
_atom_site_fract_x
_atom_site_fract_y
_atom_site_fract_z
Si Si1 0.560428 0.141730 0.758139
Si Si2 0.842018 0.845150 0.868396
Si Si3 0.130121 0.713263 0.022046
Si Si4 0.658958 0.660945 0.654528
Si Si5 0.191038 0.715732 0.555645
Si Si6 0.909893 0.568543 0.813176
O O1 0.701899 0.124407 0.805996
O O2 0.440055 0.171807 0.582637
O O3 0.505273 0.088245 0.789037
O O4 0.588667 0.193893 0.869577
O O5 0.853673 0.783641 0.947192
O O6 0.804935 0.823278 0.717302
O O7 0.000000 0.874916 0.000000
O O8 0.274819 0.676708 0.174031
O O9 0.000000 0.697944 0.000000
O O10 0.500000 0.636077 0.500000
O O11 0.656025 0.727201 0.600854
O O12 0.777007 0.615218 0.704751
O O13 0.250000 0.750000 0.500000
O O14 0.861233 0.500000 0.763378
O O15 0.000000 0.572129 0.000000
#
# Coordination Sequence:
#
# PCOD9170755 Si02
#       6
#     8   8   8   8   8   8
#     4  12  19  37  57  81 118 156 192 238 288 350
#     4  10  22  32  50  84 121 150 186 227 292 356
#     4  10  17  34  53  81 119 156 183 219 280 362
#     4  11  20  34  55  87 120 147 188 241 297 344
#     4  11  20  34  56  85 120 157 187 234 290 366
#     4  11  23  42  63  82 109 157 209 241 282 347
#
# _framework density 18.733556
#
# number of rings (size 3 to 8) (size 9 to 14) (size 15 to 20)
#    0.000    1.167    5.000    5.000    0.000    1.667 
#    0.000    0.000    0.000    2.500    0.000    0.000 
#    0.000    0.000    0.000    0.000    0.000    0.000 
#
# Total GULP energy -133763.797451 kJ/mol
# GULP energy per Si atom -5573.491560 kJ/mol
# Density = 1.869092 g / cm^3
# Si number density = 18.733556 Si / 1000 Ang^3
#
#
#
# Elastic Constant Matrix: (Units=GPa)
#
#
# Indices 1 2 3 4 5 6 
#
# 1 87.0646 5.6493 43.7504 0.0000 21.7092 0.0000
# 2 5.6493 51.2615 11.9000 0.0000 8.1798 0.0000
# 3 43.7504 11.9000 122.0183 0.0000 13.7604 0.0000
# 4 0.0000 0.0000 0.0000 10.5583 0.0000 0.0580
# 5 21.7092 8.1798 13.7604 0.0000 33.9088 0.0000
# 6 0.0000 0.0000 0.0000 0.0580 0.0000 -2.5659
#
#
#
# Elastic Compliance Matrix: (Units=1/GPa)
#
#
# Indices 1 2 3 4 5 6 
#
# 1 0.015978 0.000710 -0.004847 0.000000 -0.008434 0.000000
# 2 0.000710 0.020584 -0.001730 0.000000 -0.004718 0.000000
# 3 -0.004847 -0.001730 0.010171 0.000000 -0.000607 0.000000
# 4 0.000000 0.000000 0.000000 0.094700 0.000000 0.002141
# 5 -0.008434 -0.004718 -0.000607 0.000000 0.036275 0.000000
# 6 0.000000 0.000000 0.000000 0.002141 0.000000 -0.389683
#
#
# Mechanical properties :
#
#
# Convention : Reuss Voigt Hill
#
# Bulk Modulus (GPa) = 28.57245 42.54931 35.56088
# Shear Modulus (GPa) = -26.51473 21.64989 -2.43242
#
# Velocity S-wave (km/s) = -3.76621 3.40321 -1.14072
# Velocity P-wave (km/s) = 1.90455 6.18099 4.15796
#
# Compressibility (1/GPa) = 0.03499875
#
# Stress axis : x y z
#
# Youngs Moduli (GPa) = 62.58445 48.58133 98.32218
#
# Poissons Ratio (x) = -0.03450 0.47659
# Poissons Ratio (y) = -0.04444 0.17010
# Poissons Ratio (z) = 0.30336 0.08405
#
# Static dielectric constant tensor:
#      x y z
#    x 1.737360 0.000000 0.023210 
#    y 0.000000 1.624190 0.000000 
#    z 0.023210 0.000000 1.736390 
# 
# From -- ./inp_files/147998.got.cif
#   From: 2010.05.17/outbox.cif.g08.bks.cpg/sg12_74_cif.got.tgz:147998.got - 2010.06.03 13:09:07.
