data_PCOD9170110
_publ_section_title
;
Structure prediction by ZEFSAII (Michael W. Deem and Ramdas Pophale) SiO2 
 PCOD9170110
Probable space group: C 2/M
;
_chemical_formula_sum "Si O2"
_cell_formula_units_Z 64
_cell_length_a 21.421459
_cell_length_b 24.145645
_cell_length_c 8.685643
_cell_angle_alpha 90.000000
_cell_angle_beta 113.920188
_cell_angle_gamma 90.000000
_cell_volume 4106.660854
_symmetry_space_group_name_H-M "C 2/M"
_symmetry_group_IT_number 12
_symmetry_cell_setting 'monoclinic'
loop_
_space_group_symop_operation_xyz
x,y,z
-x,y,-z
-x,-y,-z
x,-y,z
1/2+x,1/2+y,z
1/2-x,1/2+y,-z
1/2-x,1/2-y,-z
1/2+x,1/2-y,z
loop_
_atom_site_type_symbol
_atom_site_label
_atom_site_fract_x
_atom_site_fract_y
_atom_site_fract_z
Si Si1 0.357023 0.227856 0.673419
Si Si2 0.767048 0.164365 0.952586
Si Si3 0.500000 0.379877 0.813532
Si Si4 0.642977 0.227856 0.959372
Si Si5 0.267048 0.664365 0.581509
Si Si6 0.641982 0.562986 0.329741
Si Si7 1.000000 0.755501 0.682725
Si Si8 0.858017 0.937014 0.045776
O O1 0.320642 0.286519 0.595605
O O2 0.304722 0.181089 0.563970
O O3 0.431205 0.226421 0.672845
O O4 0.363469 0.226264 0.863469
O O5 0.695278 0.181090 0.954526
O O6 0.760136 0.164444 0.760135
O O7 0.820642 0.213481 0.045678
O O8 0.799719 0.106300 0.035265
O O9 0.431709 0.412503 0.698422
O O10 0.500000 0.317937 0.749397
O O11 0.568291 0.412503 0.835004
O O12 0.500000 0.376023 0.000000
O O13 0.568795 0.226421 0.810434
O O14 0.299719 0.606300 0.564173
O O15 0.651155 0.500000 0.391591
O O16 0.642227 0.562493 0.142227
O O17 0.000000 0.757826 0.500000
O O18 0.848845 0.000000 0.089281
#
# Coordination Sequence:
#
# PCOD9170110 Si02
#       8
#     8   8   8   8   8   8   8   8
#     4  10  19  32  49  68  93 125 159 197 241 287
#     4   9  17  30  47  70  96 123 159 200 237 277
#     4  10  17  30  46  68  98 131 169 199 228 271
#     4  10  19  32  49  68  93 125 159 197 241 287
#     4   9  17  30  47  70  96 123 159 200 237 277
#     4   9  16  27  47  72  97 128 166 202 232 269
#     4  12  22  31  47  71  97 127 160 197 244 288
#     4   9  16  27  47  72  97 128 166 202 232 269
#
# _framework density 15.584436999999999
#
# number of rings (size 3 to 8) (size 9 to 14) (size 15 to 20)
#    0.000    2.250    2.500    2.250    0.000    2.500 
#    0.000    0.000    0.000    3.750    0.000    0.875 
#    0.000    7.000    0.000    0.000    0.000    0.000 
#
# Total GULP energy -178498.100511 kJ/mol
# GULP energy per Si atom -5578.065641 kJ/mol
# Density = 1.554897 g / cm^3
# Si number density = 15.584437 Si / 1000 Ang^3
#
#
#
# Elastic Constant Matrix: (Units=GPa)
#
#
# Indices 1 2 3 4 5 6 
#
# 1 119.7836 66.2655 42.4806 0.0000 26.9583 0.0000
# 2 66.2655 107.8370 34.7624 0.0000 22.9489 0.0000
# 3 42.4806 34.7624 49.9620 0.0000 23.9045 0.0000
# 4 0.0000 0.0000 0.0000 16.3597 0.0000 1.5408
# 5 26.9583 22.9489 23.9045 0.0000 22.3729 0.0000
# 6 0.0000 0.0000 0.0000 1.5408 0.0000 18.4748
#
#
#
# Elastic Compliance Matrix: (Units=1/GPa)
#
#
# Indices 1 2 3 4 5 6 
#
# 1 0.015122 -0.006214 -0.005862 0.000000 -0.005583 0.000000
# 2 -0.006214 0.015054 -0.002833 0.000000 -0.004926 0.000000
# 3 -0.005862 -0.002833 0.045420 0.000000 -0.038559 0.000000
# 4 0.000000 0.000000 0.000000 0.061610 0.000000 -0.005138
# 5 -0.005583 -0.004926 -0.038559 0.000000 0.097676 0.000000
# 6 0.000000 0.000000 0.000000 -0.005138 0.000000 0.054556
#
#
# Mechanical properties :
#
#
# Convention : Reuss Voigt Hill
#
# Bulk Modulus (GPa) = 21.84601 62.73327 42.28964
# Shear Modulus (GPa) = 14.94698 20.37974 17.66336
#
# Velocity S-wave (km/s) = 3.10029 3.62013 3.37025
# Velocity P-wave (km/s) = 5.18305 7.60362 6.50688
#
# Compressibility (1/GPa) = 0.04577496
#
# Stress axis : x y z
#
# Youngs Moduli (GPa) = 66.12964 66.42935 22.01679
#
# Poissons Ratio (x) = 0.41282 0.12907
# Poissons Ratio (y) = 0.41095 0.06238
# Poissons Ratio (z) = 0.38768 0.18822
#
# Static dielectric constant tensor:
#      x y z
#    x 1.513290 0.000000 -0.007830 
#    y 0.000000 1.508710 0.000000 
#    z -0.007830 0.000000 1.524030 
# 
# From -- ./inp_files/90435.got.cif
#   From: 2010.05.17/outbox.cif.g08.bks.cpg/sg12_46_cif.got.tgz:90435.got - 2010.06.03 13:09:07.
