data_PCOD9170608
_publ_section_title
;
Structure prediction by ZEFSAII (Michael W. Deem and Ramdas Pophale) SiO2 
 PCOD9170608
Probable space group: C 2/M
;
_chemical_formula_sum "Si O2"
_cell_formula_units_Z 44
_cell_length_a 18.286221
_cell_length_b 11.034360
_cell_length_c 28.754912
_cell_angle_alpha 90.000000
_cell_angle_beta 20.161273
_cell_angle_gamma 90.000000
_cell_volume 1999.764261
_symmetry_space_group_name_H-M "C 2/M"
_symmetry_group_IT_number 12
_symmetry_cell_setting 'monoclinic'
loop_
_space_group_symop_operation_xyz
x,y,z
-x,y,-z
-x,-y,-z
x,-y,z
1/2+x,1/2+y,z
1/2-x,1/2+y,-z
1/2-x,1/2-y,-z
1/2+x,1/2-y,z
loop_
_atom_site_type_symbol
_atom_site_label
_atom_site_fract_x
_atom_site_fract_y
_atom_site_fract_z
Si Si1 0.758482 0.638103 0.321680
Si Si2 0.535276 0.638152 0.752431
Si Si3 0.567017 0.367054 0.561075
Si Si4 0.500000 0.694656 0.000000
Si Si5 0.540046 0.791701 0.290211
Si Si6 0.937237 0.635263 0.949421
O O1 0.788670 0.500000 0.322818
O O2 0.816067 0.755991 0.317057
O O3 0.531261 0.644310 0.431535
O O4 0.920933 0.646762 0.180748
O O5 0.615980 0.500000 0.706500
O O6 0.475837 0.676556 0.735277
O O7 0.312257 0.645304 0.912916
O O8 0.497904 0.500000 0.619359
O O9 0.477567 0.261498 0.647361
O O10 0.821142 0.361448 0.411699
O O11 0.490395 0.772097 0.958419
O O12 0.261199 0.640887 0.146950
O O13 0.969032 0.500000 0.949637
#
# Coordination Sequence:
#
# PCOD9170608 Si02
#       6
#     8   8   8   4   8   8
#     4  10  20  36  59  86 118 158 197 239 294 357
#     4  10  21  36  57  88 121 154 195 246 298 349
#     4  10  21  39  61  85 117 156 200 245 297 356
#     4  10  17  32  59  88 118 144 193 254 299 344
#     4  10  21  37  60  88 116 152 196 249 300 348
#     4   9  17  30  55  87 117 150 192 244 297 348
#
# _framework density 22.002593999999998
#
# number of rings (size 3 to 8) (size 9 to 14) (size 15 to 20)
#    0.000    2.182    1.818    1.364    0.000    2.909 
#    0.000    7.727    0.000    2.182    0.000    0.000 
#    0.000    0.000    0.000    0.000    0.000    0.000 
#
# Total GULP energy -122724.263522 kJ/mol
# GULP energy per Si atom -5578.375615 kJ/mol
# Density = 2.195252 g / cm^3
# Si number density = 22.002594 Si / 1000 Ang^3
#
#
#
# Elastic Constant Matrix: (Units=GPa)
#
#
# Indices 1 2 3 4 5 6 
#
# 1 69.4274 46.1971 4.8376 -0.0423 -12.0149 0.0550
# 2 46.1971 129.1833 35.1978 -0.0272 -11.6925 0.0303
# 3 4.8376 35.1978 136.5858 -0.0863 -12.6226 0.0448
# 4 -0.0423 -0.0272 -0.0863 85.2551 -0.0280 -101.1263
# 5 -12.0149 -11.6925 -12.6226 -0.0280 28.3780 0.0408
# 6 0.0550 0.0303 0.0448 -101.1263 0.0408 169.5944
#
#
#
# Elastic Compliance Matrix: (Units=1/GPa)
#
#
# Indices 1 2 3 4 5 6 
#
# 1 0.020089 -0.007072 0.001698 0.000010 0.006347 -0.000001
# 2 -0.007072 0.011001 -0.002547 -0.000005 0.000405 -0.000002
# 3 0.001698 -0.002547 0.008225 0.000020 0.003328 0.000009
# 4 0.000010 -0.000005 0.000020 0.040072 0.000016 0.023894
# 5 0.006347 0.000405 0.003328 0.000016 0.039573 -0.000003
# 6 -0.000001 -0.000002 0.000009 0.023894 -0.000003 0.020144
#
#
# Mechanical properties :
#
#
# Convention : Reuss Voigt Hill
#
# Bulk Modulus (GPa) = 42.60380 56.40684 49.50532
# Shear Modulus (GPa) = 30.71786 73.24309 51.98048
#
# Velocity S-wave (km/s) = 3.74050 5.77587 4.86580
# Velocity P-wave (km/s) = 6.16930 8.37693 7.35640
#
# Compressibility (1/GPa) = 0.02347209
#
# Stress axis : x y z
#
# Youngs Moduli (GPa) = 49.77727 90.90362 121.57803
#
# Poissons Ratio (x) = 0.64289 -0.20638
# Poissons Ratio (y) = 0.35204 0.30965
# Poissons Ratio (z) = -0.08450 0.23152
#
# Static dielectric constant tensor:
#      x y z
#    x 1.803360 0.000000 0.008010 
#    y 0.000000 1.756230 0.000020 
#    z 0.008010 0.000020 1.916750 
# 
# From -- ./inp_files/379017.got.cif
#   From: 2010.05.17/outbox.cif.g08.bks.cpg/sg12_190_cif.got.tgz:379017.got - 2010.06.03 13:09:07.
