data_PCOD9170513
_publ_section_title
;
Structure prediction by ZEFSAII (Michael W. Deem and Ramdas Pophale) SiO2 
 PCOD9170513
Probable space group: C 2/M
;
_chemical_formula_sum "Si O2"
_cell_formula_units_Z 48
_cell_length_a 19.706419
_cell_length_b 14.947999
_cell_length_c 10.972137
_cell_angle_alpha 90.000000
_cell_angle_beta 46.160221
_cell_angle_gamma 90.000000
_cell_volume 2331.232524
_symmetry_space_group_name_H-M "C 2/M"
_symmetry_group_IT_number 12
_symmetry_cell_setting 'monoclinic'
loop_
_space_group_symop_operation_xyz
x,y,z
-x,y,-z
-x,-y,-z
x,-y,z
1/2+x,1/2+y,z
1/2-x,1/2+y,-z
1/2-x,1/2-y,-z
1/2+x,1/2-y,z
loop_
_atom_site_type_symbol
_atom_site_label
_atom_site_fract_x
_atom_site_fract_y
_atom_site_fract_z
Si Si1 0.733485 0.648125 0.971763
Si Si2 0.281925 0.599669 0.739367
Si Si3 0.045948 0.149392 0.068205
Si Si4 0.561570 0.136087 0.033088
Si Si5 0.051511 0.365908 0.317791
Si Si6 0.463209 0.665373 0.422159
O O1 0.837293 0.622220 0.801162
O O2 0.750000 0.750000 0.000000
O O3 0.700422 0.601504 0.137271
O O4 0.655052 0.632407 0.967043
O O5 0.300170 0.500000 0.669143
O O6 0.351264 0.668166 0.584934
O O7 0.171451 0.621223 0.868618
O O8 0.043877 0.257484 0.061749
O O9 0.987969 0.123134 0.261582
O O10 0.000000 0.114633 0.000000
O O11 0.536035 0.100624 0.199258
O O12 0.500000 0.099770 0.000000
O O13 0.000000 0.403048 0.500000
O O14 0.016730 0.261508 0.355490
O O15 0.500000 0.618174 0.500000
#
# Coordination Sequence:
#
# PCOD9170513 Si02
#       6
#     8   8   8   8   8   8
#     4  11  16  35  57  74 111 149 183 229 266 321
#     4  11  22  34  57  84 109 147 188 222 269 331
#     4  10  19  33  54  83 109 141 181 231 281 317
#     4   9  19  35  52  79 112 143 182 228 276 319
#     4   9  17  28  54  80 102 137 181 224 277 312
#     4  10  17  32  52  77 110 135 179 224 267 320
#
# _framework density 20.589967000000001
#
# number of rings (size 3 to 8) (size 9 to 14) (size 15 to 20)
#    0.000    2.000    6.667    1.000    0.000    0.667 
#    3.000    2.500    0.000   10.000    0.000    0.000 
#    0.000    0.000    0.000    0.000    0.000    0.000 
#
# Total GULP energy -133705.662517 kJ/mol
# GULP energy per Si atom -5571.069272 kJ/mol
# Density = 2.054310 g / cm^3
# Si number density = 20.589967 Si / 1000 Ang^3
#
#
#
# Elastic Constant Matrix: (Units=GPa)
#
#
# Indices 1 2 3 4 5 6 
#
# 1 206.1226 2.6704 97.5209 0.0000 17.6502 0.0000
# 2 2.6704 37.7843 12.1621 0.0000 3.0071 0.0000
# 3 97.5209 12.1621 183.0754 0.0000 4.8138 0.0000
# 4 0.0000 0.0000 0.0000 -12.5376 0.0000 7.1460
# 5 17.6502 3.0071 4.8138 0.0000 22.7618 0.0000
# 6 0.0000 0.0000 0.0000 7.1460 0.0000 -26.0039
#
#
#
# Elastic Compliance Matrix: (Units=1/GPa)
#
#
# Indices 1 2 3 4 5 6 
#
# 1 0.006980 0.001066 -0.003663 0.000000 -0.004779 0.000000
# 2 0.001066 0.027443 -0.002287 0.000000 -0.003969 0.000000
# 3 -0.003663 -0.002287 0.007525 0.000000 0.001551 0.000000
# 4 0.000000 0.000000 0.000000 -0.094574 0.000000 -0.025989
# 5 -0.004779 -0.003969 0.001551 0.000000 0.047835 0.000000
# 6 0.000000 0.000000 0.000000 -0.025989 0.000000 -0.045598
#
#
# Mechanical properties :
#
#
# Convention : Reuss Voigt Hill
#
# Bulk Modulus (GPa) = 31.07546 72.40988 51.74267
# Shear Modulus (GPa) = -167.25223 17.81935 -74.71644
#
# Velocity S-wave (km/s) = -9.02254 2.94502 -6.03047
# Velocity P-wave (km/s) = 9.66522 6.84165 4.82744
#
# Compressibility (1/GPa) = 0.03217974
#
# Stress axis : x y z
#
# Youngs Moduli (GPa) = 143.26528 36.43976 132.89509
#
# Poissons Ratio (x) = -0.03885 0.48684
# Poissons Ratio (y) = -0.15274 0.30388
# Poissons Ratio (z) = 0.52483 0.08332
#
# Static dielectric constant tensor:
#      x y z
#    x 1.766000 0.000000 0.000300 
#    y 0.000000 1.803120 0.000000 
#    z 0.000300 0.000000 1.737050 
# 
# From -- ./inp_files/168338.got.cif
#   From: 2010.05.17/outbox.cif.g08.bks.cpg/sg12_85_cif.got.tgz:168338.got - 2010.06.03 13:09:07.
