data_PCOD9170229
_publ_section_title
;
Structure prediction by ZEFSAII (Michael W. Deem and Ramdas Pophale) SiO2 
 PCOD9170229
Probable space group: C 2/M
;
_chemical_formula_sum "Si O2"
_cell_formula_units_Z 56
_cell_length_a 24.523841
_cell_length_b 14.574133
_cell_length_c 8.283038
_cell_angle_alpha 90.000000
_cell_angle_beta 122.255914
_cell_angle_gamma 90.000000
_cell_volume 2503.589979
_symmetry_space_group_name_H-M "C 2/M"
_symmetry_group_IT_number 12
_symmetry_cell_setting 'monoclinic'
loop_
_space_group_symop_operation_xyz
x,y,z
-x,y,-z
-x,-y,-z
x,-y,z
1/2+x,1/2+y,z
1/2-x,1/2+y,-z
1/2-x,1/2-y,-z
1/2+x,1/2-y,z
loop_
_atom_site_type_symbol
_atom_site_label
_atom_site_fract_x
_atom_site_fract_y
_atom_site_fract_z
Si Si1 0.240412 0.353346 0.432196
Si Si2 0.620748 0.897628 0.039516
Si Si3 0.042870 0.775072 0.906031
Si Si4 0.712219 0.108376 0.868424
Si Si5 0.319442 0.686607 0.247063
Si Si6 0.438874 0.393818 0.583625
Si Si7 0.359350 0.597493 0.797923
O O1 0.250000 0.250000 0.500000
O O2 0.167084 0.375198 0.267919
O O3 0.280205 0.362428 0.329704
O O4 0.283565 0.402126 0.636685
O O5 0.596728 0.000000 0.023914
O O6 0.562549 0.829231 0.911857
O O7 0.667251 0.893821 0.957222
O O8 0.001298 0.831898 0.713135
O O9 0.111748 0.822226 0.050128
O O10 0.000000 0.779594 0.000000
O O11 0.685873 0.202264 0.739266
O O12 0.712811 0.000000 0.814087
O O13 0.782819 0.145602 0.033751
O O14 0.391822 0.652704 0.380191
O O15 0.453029 0.500000 0.570846
O O16 0.397979 0.394704 0.688405
O O17 0.377539 0.500000 0.900645
#
# Coordination Sequence:
#
# PCOD9170229 Si02
#       7
#     8   8   8   8   8   8   8
#     4  10  17  30  52  77 108 130 156 204 259 310
#     4  10  20  34  52  72 100 141 178 209 252 306
#     4  10  19  31  49  72 104 136 173 213 250 296
#     4   9  18  35  57  77  99 132 175 213 253 305
#     4   9  18  32  56  79 101 131 166 208 257 304
#     4   9  17  30  51  76  99 129 168 204 250 307
#     4   9  16  28  48  73 101 132 163 198 248 307
#
# _framework density 22.36788
#
# number of rings (size 3 to 8) (size 9 to 14) (size 15 to 20)
#    0.000    2.571    1.429    1.286    0.000    5.429 
#    0.000    2.857    0.000    5.143    0.000    0.000 
#    0.000    0.000    0.000    0.000    0.000    0.000 
#
# Total GULP energy -156082.306429 kJ/mol
# GULP energy per Si atom -5574.368087 kJ/mol
# Density = 2.231697 g / cm^3
# Si number density = 22.367880 Si / 1000 Ang^3
#
#
#
# Elastic Constant Matrix: (Units=GPa)
#
#
# Indices 1 2 3 4 5 6 
#
# 1 45.9602 -1.2419 18.6310 0.0000 11.0871 0.0000
# 2 -1.2419 183.2075 81.2970 0.0000 27.6604 0.0000
# 3 18.6310 81.2970 118.4110 0.0000 28.0284 0.0000
# 4 0.0000 0.0000 0.0000 26.8805 0.0000 7.1405
# 5 11.0871 27.6604 28.0284 0.0000 17.2811 0.0000
# 6 0.0000 0.0000 0.0000 7.1405 0.0000 23.0166
#
#
#
# Elastic Compliance Matrix: (Units=1/GPa)
#
#
# Indices 1 2 3 4 5 6 
#
# 1 0.027970 0.004474 -0.002483 0.000000 -0.021079 0.000000
# 2 0.004474 0.008998 -0.004534 0.000000 -0.009919 0.000000
# 3 -0.002483 -0.004534 0.015994 0.000000 -0.017091 0.000000
# 4 0.000000 0.000000 0.000000 0.040543 0.000000 -0.012578
# 5 -0.021079 -0.009919 -0.017091 0.000000 0.114988 0.000000
# 6 0.000000 0.000000 0.000000 -0.012578 0.000000 0.047349
#
#
# Mechanical properties :
#
#
# Convention : Reuss Voigt Hill
#
# Bulk Modulus (GPa) = 20.88707 60.55010 40.71858
# Shear Modulus (GPa) = 18.05795 30.02849 24.04322
#
# Velocity S-wave (km/s) = 2.84441 3.66797 3.28212
# Velocity P-wave (km/s) = 4.48841 6.71323 5.71022
#
# Compressibility (1/GPa) = 0.04787652
#
# Stress axis : x y z
#
# Youngs Moduli (GPa) = 35.75229 111.13532 62.52299
#
# Poissons Ratio (x) = -0.49721 0.15525
# Poissons Ratio (y) = -0.15995 0.28346
# Poissons Ratio (z) = 0.08878 0.50385
#
# Static dielectric constant tensor:
#      x y z
#    x 1.894740 0.000000 -0.045880 
#    y 0.000000 1.897040 0.000000 
#    z -0.045880 0.000000 1.856670 
# 
# From -- ./inp_files/164846.got.cif
#   From: 2010.05.17/outbox.cif.g08.bks.cpg/sg12_83_cif.got.tgz:164846.got - 2010.06.03 13:09:07.
