data_PCOD9170046
_publ_section_title
;
Structure prediction by ZEFSAII (Michael W. Deem and Ramdas Pophale) SiO2 
 PCOD9170046
Probable space group: C 2/M
;
_chemical_formula_sum "Si O2"
_cell_formula_units_Z 64
_cell_length_a 25.294100
_cell_length_b 17.137864
_cell_length_c 18.435410
_cell_angle_alpha 90.000000
_cell_angle_beta 28.220835
_cell_angle_gamma 90.000000
_cell_volume 3778.953933
_symmetry_space_group_name_H-M "C 2/M"
_symmetry_group_IT_number 12
_symmetry_cell_setting 'monoclinic'
loop_
_space_group_symop_operation_xyz
x,y,z
-x,y,-z
-x,-y,-z
x,-y,z
1/2+x,1/2+y,z
1/2-x,1/2+y,-z
1/2-x,1/2-y,-z
1/2+x,1/2-y,z
loop_
_atom_site_type_symbol
_atom_site_label
_atom_site_fract_x
_atom_site_fract_y
_atom_site_fract_z
Si Si1 0.041131 0.718541 0.838913
Si Si2 0.236627 0.588078 0.462453
Si Si3 0.877670 0.092450 0.901813
Si Si4 0.731441 0.823877 0.970344
Si Si5 0.251659 0.725138 0.334220
Si Si6 0.982632 0.411698 0.814740
Si Si7 0.198391 0.789007 0.885418
Si Si8 0.386624 0.682225 0.385450
O O1 0.133024 0.728103 0.789453
O O2 0.096476 0.752161 0.697367
O O3 0.003479 0.631159 0.866129
O O4 0.929882 0.769728 0.981391
O O5 0.277684 0.500000 0.402583
O O6 0.266185 0.644850 0.360910
O O7 0.292608 0.624705 0.466642
O O8 0.103098 0.586308 0.631367
O O9 0.812183 0.111221 0.906258
O O10 0.997942 0.134809 0.749183
O O11 0.887008 0.000000 0.903092
O O12 0.812498 0.137050 0.046788
O O13 0.744727 0.784800 0.875338
O O14 0.750000 0.750000 0.000000
O O15 0.606655 0.858967 0.120059
O O16 0.235910 0.705741 0.269199
O O17 0.155607 0.775142 0.490958
O O18 0.941227 0.500000 0.872023
#
# Coordination Sequence:
#
# PCOD9170046 Si02
#       8
#     8   8   8   8   8   8   8   8
#     4   9  16  32  49  74 102 141 180 207 240 311
#     4  10  19  30  50  80 110 137 171 210 256 311
#     4  10  20  36  58  77 101 137 180 224 260 308
#     4   9  19  35  55  73  97 133 183 220 251 311
#     4  11  18  31  51  78 111 143 164 212 267 318
#     4  10  17  29  52  78  99 126 172 224 254 290
#     4   9  20  32  53  79 105 132 176 219 263 311
#     4  10  18  32  52  76 107 143 183 205 247 311
#
# _framework density 16.935904000000001
#
# number of rings (size 3 to 8) (size 9 to 14) (size 15 to 20)
#    0.000    2.250    2.500    2.625    0.000    0.500 
#    0.000    0.625    0.000   19.500    0.000    4.375 
#    0.000    0.000    0.000    0.000    0.000    0.000 
#
# Total GULP energy -178151.051001 kJ/mol
# GULP energy per Si atom -5567.220344 kJ/mol
# Density = 1.689736 g / cm^3
# Si number density = 16.935904 Si / 1000 Ang^3
#
#
#
# Elastic Constant Matrix: (Units=GPa)
#
#
# Indices 1 2 3 4 5 6 
#
# 1 74.3498 37.8308 38.3610 0.0000 -0.1572 0.0000
# 2 37.8308 105.0827 31.2931 0.0000 7.1164 0.0000
# 3 38.3610 31.2931 48.3754 0.0000 7.3108 0.0000
# 4 0.0000 0.0000 0.0000 18.9730 0.0000 -5.2450
# 5 -0.1572 7.1164 7.3108 0.0000 27.7706 0.0000
# 6 0.0000 0.0000 0.0000 -5.2450 0.0000 17.8628
#
#
#
# Elastic Compliance Matrix: (Units=1/GPa)
#
#
# Indices 1 2 3 4 5 6 
#
# 1 0.024733 -0.003960 -0.017940 0.000000 0.005878 0.000000
# 2 -0.003960 0.012451 -0.004612 0.000000 -0.001999 0.000000
# 3 -0.017940 -0.004612 0.039281 0.000000 -0.009261 0.000000
# 4 0.000000 0.000000 0.000000 0.057363 0.000000 0.016843
# 5 0.005878 -0.001999 -0.009261 0.000000 0.038993 0.000000
# 6 0.000000 0.000000 0.000000 0.016843 0.000000 0.060928
#
#
# Mechanical properties :
#
#
# Convention : Reuss Voigt Hill
#
# Bulk Modulus (GPa) = 42.65969 49.19755 45.92862
# Shear Modulus (GPa) = 16.97301 20.94281 18.95791
#
# Velocity S-wave (km/s) = 3.16917 3.52034 3.34936
# Velocity P-wave (km/s) = 6.21572 6.75544 6.49119
#
# Compressibility (1/GPa) = 0.02344134
#
# Stress axis : x y z
#
# Youngs Moduli (GPa) = 40.43115 80.31688 25.45779
#
# Poissons Ratio (x) = 0.31805 0.45671
# Poissons Ratio (y) = 0.16010 0.11741
# Poissons Ratio (z) = 0.72533 0.37041
#
# Static dielectric constant tensor:
#      x y z
#    x 1.587100 0.000000 -0.008780 
#    y 0.000000 1.603840 0.000000 
#    z -0.008780 0.000000 1.599340 
# 
# From -- ./inp_files/290440.got.cif
#   From: 2010.05.17/outbox.cif.g08.bks.cpg/sg12_146_cif.got.tgz:290440.got - 2010.06.03 13:09:07.
