data_PCOD9170404
_publ_section_title
;
Structure prediction by ZEFSAII (Michael W. Deem and Ramdas Pophale) SiO2 
 PCOD9170404
Probable space group: C 2/M
;
_chemical_formula_sum "Si O2"
_cell_formula_units_Z 64
_cell_length_a 25.434516
_cell_length_b 7.386019
_cell_length_c 14.999311
_cell_angle_alpha 90.000000
_cell_angle_beta 90.936466
_cell_angle_gamma 90.000000
_cell_volume 2817.391480
_symmetry_space_group_name_H-M "C 2/M"
_symmetry_group_IT_number 12
_symmetry_cell_setting 'monoclinic'
loop_
_space_group_symop_operation_xyz
x,y,z
-x,y,-z
-x,-y,-z
x,-y,z
1/2+x,1/2+y,z
1/2-x,1/2+y,-z
1/2-x,1/2-y,-z
1/2+x,1/2-y,z
loop_
_atom_site_type_symbol
_atom_site_label
_atom_site_fract_x
_atom_site_fract_y
_atom_site_fract_z
Si Si1 0.196925 0.780571 0.820919
Si Si2 0.587584 0.279139 0.732195
Si Si3 0.312033 0.288589 0.790252
Si Si4 0.976735 0.217502 0.789699
Si Si5 0.607221 0.719287 0.354908
Si Si6 0.327392 0.706087 0.988224
Si Si7 0.943086 0.705712 0.977308
Si Si8 0.441192 0.721210 0.468670
O O1 0.143272 0.719478 0.772505
O O2 0.249926 0.724687 0.772824
O O3 0.195643 0.000000 0.823708
O O4 0.198375 0.714107 0.923760
O O5 0.587718 0.500000 0.733007
O O6 0.537065 0.222743 0.789093
O O7 0.575716 0.222014 0.630531
O O8 0.328044 0.500000 0.798523
O O9 0.346393 0.215343 0.709170
O O10 0.320375 0.208915 0.890178
O O11 0.947064 0.261990 0.697799
O O12 0.943608 0.293205 0.870269
O O13 0.975629 0.000000 0.798264
O O14 0.611582 0.500000 0.359123
O O15 0.599803 0.780088 0.455977
O O16 0.308438 0.500000 0.981408
O O17 0.390104 0.703543 0.008539
O O18 0.942880 0.500000 0.010457
O O19 0.000000 0.789371 0.000000
O O20 0.500000 0.776520 0.500000
O O21 0.442136 0.500000 0.467173
#
# Coordination Sequence:
#
# PCOD9170404 Si02
#       8
#     8   8   8   8   8   8   8   8
#     4  10  21  35  51  76 105 136 175 217 261 305
#     4   9  17  29  49  78 108 135 169 214 263 309
#     4  10  20  35  53  74 101 136 178 217 255 306
#     4  10  17  31  54  76 102 134 169 213 259 303
#     4   9  16  28  49  78 105 127 165 214 258 302
#     4  10  20  36  56  75  98 132 179 224 258 298
#     4  11  23  34  46  73 111 143 170 203 253 316
#     4   9  14  24  47  79 109 132 160 211 266 304
#
# _framework density 22.716047
#
# number of rings (size 3 to 8) (size 9 to 14) (size 15 to 20)
#    0.000    2.250    2.500    1.500    0.000    3.000 
#    0.000    1.250    0.000    0.000    0.000    3.500 
#    0.000    0.000    0.000    0.000    0.000    0.000 
#
# Total GULP energy -178774.539261 kJ/mol
# GULP energy per Si atom -5586.704352 kJ/mol
# Density = 2.266434 g / cm^3
# Si number density = 22.716047 Si / 1000 Ang^3
#
#
#
# Elastic Constant Matrix: (Units=GPa)
#
#
# Indices 1 2 3 4 5 6 
#
# 1 145.7117 3.6898 40.9183 0.0000 -21.6048 0.0000
# 2 3.6898 80.2610 7.2398 0.0000 1.1383 0.0000
# 3 40.9183 7.2398 108.3014 0.0000 -21.9966 0.0000
# 4 0.0000 0.0000 0.0000 14.4954 0.0000 13.2850
# 5 -21.6048 1.1383 -21.9966 0.0000 32.5833 0.0000
# 6 0.0000 0.0000 0.0000 13.2850 0.0000 21.7807
#
#
#
# Elastic Compliance Matrix: (Units=1/GPa)
#
#
# Indices 1 2 3 4 5 6 
#
# 1 0.008071 -0.000222 -0.002255 0.000000 0.003837 0.000000
# 2 -0.000222 0.012579 -0.001015 0.000000 -0.001272 0.000000
# 3 -0.002255 -0.001015 0.011423 0.000000 0.006252 0.000000
# 4 0.000000 0.000000 0.000000 0.156438 0.000000 -0.095419
# 5 0.003837 -0.001272 0.006252 0.000000 0.037500 0.000000
# 6 0.000000 0.000000 0.000000 -0.095419 0.000000 0.104112
#
#
# Mechanical properties :
#
#
# Convention : Reuss Voigt Hill
#
# Bulk Modulus (GPa) = 39.85989 48.66333 44.26161
# Shear Modulus (GPa) = 14.47300 32.60028 23.53664
#
# Velocity S-wave (km/s) = 2.52688 3.79241 3.22238
# Velocity P-wave (km/s) = 5.10868 6.37538 5.77685
#
# Compressibility (1/GPa) = 0.02508787
#
# Stress axis : x y z
#
# Youngs Moduli (GPa) = 123.90596 79.49637 87.54123
#
# Poissons Ratio (x) = 0.01765 0.19742
# Poissons Ratio (y) = 0.02751 0.08889
# Poissons Ratio (z) = 0.27943 0.08072
#
# Static dielectric constant tensor:
#      x y z
#    x 1.827570 0.000000 0.010900 
#    y 0.000000 1.872870 0.000000 
#    z 0.010900 0.000000 1.852160 
# 
# From -- ./inp_files/238677.got.cif
#   From: 2010.05.17/outbox.cif.g08.bks.cpg/sg12_120_cif.got.tgz:238677.got - 2010.06.03 13:09:07.
