data_PCOD9170386
_publ_section_title
;
Structure prediction by ZEFSAII (Michael W. Deem and Ramdas Pophale) SiO2 
 PCOD9170386
Probable space group: C 2/M
;
_chemical_formula_sum "Si O2"
_cell_formula_units_Z 56
_cell_length_a 29.659960
_cell_length_b 8.279913
_cell_length_c 14.960431
_cell_angle_alpha 90.000000
_cell_angle_beta 59.346949
_cell_angle_gamma 90.000000
_cell_volume 3160.642563
_symmetry_space_group_name_H-M "C 2/M"
_symmetry_group_IT_number 12
_symmetry_cell_setting 'monoclinic'
loop_
_space_group_symop_operation_xyz
x,y,z
-x,y,-z
-x,-y,-z
x,-y,z
1/2+x,1/2+y,z
1/2-x,1/2+y,-z
1/2-x,1/2-y,-z
1/2+x,1/2-y,z
loop_
_atom_site_type_symbol
_atom_site_label
_atom_site_fract_x
_atom_site_fract_y
_atom_site_fract_z
Si Si1 0.600514 0.313830 0.567600
Si Si2 0.838171 0.686544 0.653785
Si Si3 0.214700 0.191488 0.773065
Si Si4 0.493115 0.807608 0.609383
Si Si5 0.305430 0.696606 0.401244
Si Si6 0.297574 0.309116 0.015031
Si Si7 0.115857 0.692391 0.200164
O O1 0.590287 0.500000 0.600163
O O2 0.627936 0.299025 0.443312
O O3 0.545379 0.225365 0.612575
O O4 0.644582 0.248865 0.591196
O O5 0.853753 0.500000 0.618864
O O6 0.777130 0.704958 0.696930
O O7 0.849246 0.714652 0.746182
O O8 0.190362 0.255293 0.705594
O O9 0.201742 0.000000 0.788999
O O10 0.202853 0.260034 0.883419
O O11 0.500000 0.744929 0.500000
O O12 0.441535 0.745906 0.712981
O O13 0.485095 0.000000 0.608623
O O14 0.305045 0.500000 0.402467
O O15 0.250000 0.750000 0.500000
O O16 0.289396 0.500000 0.031300
O O17 0.352629 0.273156 0.911710
O O18 0.250000 0.250000 0.000000
O O19 0.112936 0.500000 0.185108
#
# Coordination Sequence:
#
# PCOD9170386 Si02
#       7
#     8   8   8   8   8   8   8
#     4  11  22  32  48  80 112 133 168 221 265 295
#     4  10  17  31  53  73 103 143 175 201 245 316
#     4   9  18  33  52  72 101 142 175 200 243 313
#     4  10  20  36  56  74  99 142 181 205 251 323
#     4  10  20  34  52  75 104 138 174 212 254 304
#     4  11  21  34  53  77 105 138 173 210 258 306
#     4  10  20  35  53  76 103 134 176 213 250 306
#
# _framework density 17.717915999999999
#
# number of rings (size 3 to 8) (size 9 to 14) (size 15 to 20)
#    0.000    1.857    4.286    0.857    0.000    2.000 
#    0.000    1.429    0.000    0.857    0.000    6.000 
#    0.000    0.000    0.000    0.000    0.000    0.000 
#
# Total GULP energy -156123.078615 kJ/mol
# GULP energy per Si atom -5575.824236 kJ/mol
# Density = 1.767759 g / cm^3
# Si number density = 17.717916 Si / 1000 Ang^3
#
#
#
# Elastic Constant Matrix: (Units=GPa)
#
#
# Indices 1 2 3 4 5 6 
#
# 1 89.3640 3.5593 37.1799 0.0000 -0.0697 0.0000
# 2 3.5593 6.6474 8.0841 0.0000 -0.2946 0.0000
# 3 37.1799 8.0841 101.5621 0.0000 3.0925 0.0000
# 4 0.0000 0.0000 0.0000 20.8704 0.0000 -4.6050
# 5 -0.0697 -0.2946 3.0925 0.0000 13.2909 0.0000
# 6 0.0000 0.0000 0.0000 -4.6050 0.0000 20.8609
#
#
#
# Elastic Compliance Matrix: (Units=1/GPa)
#
#
# Indices 1 2 3 4 5 6 
#
# 1 0.013229 -0.001218 -0.004781 0.000000 0.001155 0.000000
# 2 -0.001218 0.167286 -0.013075 0.000000 0.006744 0.000000
# 3 -0.004781 -0.013075 0.012737 0.000000 -0.003278 0.000000
# 4 0.000000 0.000000 0.000000 0.050368 0.000000 0.011119
# 5 0.001155 0.006744 -0.003278 0.000000 0.076158 0.000000
# 6 0.000000 0.000000 0.000000 0.011119 0.000000 0.050391
#
#
# Mechanical properties :
#
#
# Convention : Reuss Voigt Hill
#
# Bulk Modulus (GPa) = 6.44726 32.80220 19.62473
# Shear Modulus (GPa) = 10.86914 20.92114 15.89514
#
# Velocity S-wave (km/s) = 2.47949 3.43999 2.99845
# Velocity P-wave (km/s) = 3.44150 5.85934 4.80498
#
# Compressibility (1/GPa) = 0.15510453
#
# Stress axis : x y z
#
# Youngs Moduli (GPa) = 75.59303 5.97777 78.51147
#
# Poissons Ratio (x) = 0.00728 0.37536
# Poissons Ratio (y) = 0.09205 1.02654
# Poissons Ratio (z) = 0.36141 0.07816
#
# Static dielectric constant tensor:
#      x y z
#    x 1.606780 0.000000 0.015140 
#    y 0.000000 1.629910 0.000000 
#    z 0.015140 0.000000 1.616070 
# 
# From -- ./inp_files/243661.got.cif
#   From: 2010.05.17/outbox.cif.g08.bks.cpg/sg12_122_cif.got.tgz:243661.got - 2010.06.03 13:09:07.
