data_PCOD9170877
_publ_section_title
;
Structure prediction by ZEFSAII (Michael W. Deem and Ramdas Pophale) SiO2 
 PCOD9170877
Probable space group: C 2/M
;
_chemical_formula_sum "Si O2"
_cell_formula_units_Z 56
_cell_length_a 18.463058
_cell_length_b 14.743358
_cell_length_c 16.962351
_cell_angle_alpha 90.000000
_cell_angle_beta 40.892100
_cell_angle_gamma 90.000000
_cell_volume 3022.639593
_symmetry_space_group_name_H-M "C 2/M"
_symmetry_group_IT_number 12
_symmetry_cell_setting 'monoclinic'
loop_
_space_group_symop_operation_xyz
x,y,z
-x,y,-z
-x,-y,-z
x,-y,z
1/2+x,1/2+y,z
1/2-x,1/2+y,-z
1/2-x,1/2-y,-z
1/2+x,1/2-y,z
loop_
_atom_site_type_symbol
_atom_site_label
_atom_site_fract_x
_atom_site_fract_y
_atom_site_fract_z
Si Si1 0.428259 0.900906 0.755222
Si Si2 0.185963 0.607513 0.579487
Si Si3 0.286091 0.713823 0.348163
Si Si4 0.401886 0.603482 0.718496
Si Si5 0.507765 0.604091 0.793035
Si Si6 0.392078 0.219901 0.636501
Si Si7 0.264662 0.356422 0.976092
O O1 0.553073 0.884839 0.680518
O O2 0.390793 0.828392 0.721909
O O3 0.343299 0.899090 0.897370
O O4 0.425333 0.000000 0.719402
O O5 0.213294 0.500000 0.568602
O O6 0.236623 0.647957 0.456991
O O7 0.220305 0.681868 0.616858
O O8 0.411107 0.677513 0.237150
O O9 0.214518 0.703169 0.328784
O O10 0.408435 0.500000 0.687905
O O11 0.497476 0.620173 0.706307
O O12 0.405118 0.674423 0.646515
O O13 0.292152 0.618409 0.863039
O O14 0.543276 0.500000 0.776712
O O15 0.379407 0.613823 0.923973
O O16 0.500000 0.188436 0.500000
O O17 0.250000 0.250000 0.000000
#
# Coordination Sequence:
#
# PCOD9170877 Si02
#       7
#     8   8   8   8   8   8   8
#     4  11  21  38  62  88 116 152 198 239 283 341
#     4  10  22  38  59  83 111 155 201 241 283 342
#     4  11  22  37  57  81 119 156 191 239 293 351
#     4   9  20  38  61  88 114 147 193 245 291 338
#     4   9  19  36  61  88 111 146 195 240 287 335
#     4  12  24  38  55  86 123 157 192 234 295 354
#     4  10  17  35  67  90 113 146 198 247 282 336
#
# _framework density 18.526852000000002
#
# number of rings (size 3 to 8) (size 9 to 14) (size 15 to 20)
#    0.857    0.857    2.857    3.000    2.000    2.286 
#    0.000    0.714    0.000    1.714    0.000    4.000 
#    0.000    0.000    0.000    0.000    0.000    0.000 
#
# Total GULP energy -156037.070246 kJ/mol
# GULP energy per Si atom -5572.752509 kJ/mol
# Density = 1.848468 g / cm^3
# Si number density = 18.526852 Si / 1000 Ang^3
#
#
#
# Elastic Constant Matrix: (Units=GPa)
#
#
# Indices 1 2 3 4 5 6 
#
# 1 28.1288 8.5662 8.6333 0.0000 -11.9689 0.0000
# 2 8.5662 95.1823 -0.8999 0.0000 -5.5567 0.0000
# 3 8.6333 -0.8999 51.9330 0.0000 -12.8127 0.0000
# 4 0.0000 0.0000 0.0000 21.2783 0.0000 -9.3233
# 5 -11.9689 -5.5567 -12.8127 0.0000 19.2617 0.0000
# 6 0.0000 0.0000 0.0000 -9.3233 0.0000 9.0460
#
#
#
# Elastic Compliance Matrix: (Units=1/GPa)
#
#
# Indices 1 2 3 4 5 6 
#
# 1 0.049038 -0.002731 -0.001048 0.000000 0.028986 0.000000
# 2 -0.002731 0.010894 0.001196 0.000000 0.002241 0.000000
# 3 -0.001048 0.001196 0.023179 0.000000 0.015112 0.000000
# 4 0.000000 0.000000 0.000000 0.085696 0.000000 0.088323
# 5 0.028986 0.002241 0.015112 0.000000 0.080627 0.000000
# 6 0.000000 0.000000 0.000000 0.088323 0.000000 0.201576
#
#
# Mechanical properties :
#
#
# Convention : Reuss Voigt Hill
#
# Bulk Modulus (GPa) = 12.82965 23.09367 17.96166
# Shear Modulus (GPa) = 10.37005 20.51352 15.44179
#
# Velocity S-wave (km/s) = 2.36843 3.33112 2.89014
# Velocity P-wave (km/s) = 3.79726 5.22371 4.56653
#
# Compressibility (1/GPa) = 0.07794448
#
# Stress axis : x y z
#
# Youngs Moduli (GPa) = 20.39239 91.79298 43.14268
#
# Poissons Ratio (x) = 0.25068 0.04521
# Poissons Ratio (y) = 0.05569 -0.05159
# Poissons Ratio (z) = 0.02137 -0.10976
#
# Static dielectric constant tensor:
#      x y z
#    x 1.627560 0.000000 -0.029080 
#    y 0.000000 1.646690 0.000000 
#    z -0.029080 0.000000 1.639680 
# 
# From -- ./inp_files/225181.got.cif
#   From: 2010.05.17/outbox.cif.g08.bks.cpg/sg12_113_cif.got.tgz:225181.got - 2010.06.03 13:09:07.
