data_PCOD9170011
_publ_section_title
;
Structure prediction by ZEFSAII (Michael W. Deem and Ramdas Pophale) SiO2 
 PCOD9170011
Probable space group: C 2/M
;
_chemical_formula_sum "Si O2"
_cell_formula_units_Z 48
_cell_length_a 15.342871
_cell_length_b 18.500473
_cell_length_c 16.757770
_cell_angle_alpha 90.000000
_cell_angle_beta 25.805372
_cell_angle_gamma 90.000000
_cell_volume 2070.664952
_symmetry_space_group_name_H-M "C 2/M"
_symmetry_group_IT_number 12
_symmetry_cell_setting 'monoclinic'
loop_
_space_group_symop_operation_xyz
x,y,z
-x,y,-z
-x,-y,-z
x,-y,z
1/2+x,1/2+y,z
1/2-x,1/2+y,-z
1/2-x,1/2-y,-z
1/2+x,1/2-y,z
loop_
_atom_site_type_symbol
_atom_site_label
_atom_site_fract_x
_atom_site_fract_y
_atom_site_fract_z
Si Si1 0.778405 0.791846 0.686447
Si Si2 0.671307 0.364623 0.767561
Si Si3 0.208179 0.331195 0.566406
Si Si4 0.776731 0.420446 0.151588
Si Si5 0.446955 0.415592 0.810718
Si Si6 0.037037 0.585611 0.346961
O O1 0.649292 0.720251 0.803575
O O2 0.714355 0.828050 0.656422
O O3 0.798579 0.851571 0.737874
O O4 0.000000 0.759142 0.500000
O O5 0.480549 0.385631 0.871296
O O6 0.854848 0.387583 0.555665
O O7 0.752792 0.401204 0.780994
O O8 0.250000 0.250000 0.500000
O O9 0.389775 0.379329 0.382526
O O10 0.008592 0.365871 0.692978
O O11 0.680536 0.500000 0.246506
O O12 0.754383 0.407407 0.075362
O O13 0.000000 0.425628 0.000000
O O14 0.488269 0.500000 0.783911
O O15 0.015635 0.500000 0.349276
#
# Coordination Sequence:
#
# PCOD9170011 Si02
#       6
#     8   8   8   8   8   8
#     4  12  20  33  58  84 109 144 179 226 281 326
#     4  10  17  29  50  80 108 141 173 220 273 321
#     4  11  18  30  49  82 117 143 167 225 276 322
#     4  10  24  42  56  75 110 151 189 232 277 326
#     4  10  19  32  54  76 106 144 184 218 264 327
#     4  10  18  28  45  74 119 149 170 210 275 335
#
# _framework density 23.180958
#
# number of rings (size 3 to 8) (size 9 to 14) (size 15 to 20)
#    0.000    1.500    6.667    3.500    0.000    1.667 
#    0.000    0.833    0.000    0.000    0.000    0.000 
#    0.000   10.000    0.000    0.000    0.000    0.000 
#
# Total GULP energy -133885.612066 kJ/mol
# GULP energy per Si atom -5578.567169 kJ/mol
# Density = 2.312820 g / cm^3
# Si number density = 23.180958 Si / 1000 Ang^3
#
#
#
# Elastic Constant Matrix: (Units=GPa)
#
#
# Indices 1 2 3 4 5 6 
#
# 1 225.5804 85.3204 34.1468 -0.0037 -29.9517 0.0092
# 2 85.3204 168.7239 15.0725 -0.0201 4.0438 0.0259
# 3 34.1468 15.0725 30.0682 -0.0435 -4.1211 0.0119
# 4 -0.0037 -0.0201 -0.0435 -8.2914 0.0033 -19.8437
# 5 -29.9517 4.0438 -4.1211 0.0033 34.5788 -0.0119
# 6 0.0092 0.0259 0.0119 -19.8437 -0.0119 33.7092
#
#
#
# Elastic Compliance Matrix: (Units=1/GPa)
#
#
# Indices 1 2 3 4 5 6 
#
# 1 0.007409 -0.003367 -0.005889 0.000011 0.006110 0.000011
# 2 -0.003367 0.007777 -0.000609 0.000000 -0.003899 -0.000006
# 3 -0.005889 -0.000609 0.040218 -0.000074 -0.000237 -0.000056
# 4 0.000011 0.000000 -0.000074 -0.050068 -0.000004 -0.029474
# 5 0.006110 -0.003899 -0.000237 -0.000004 0.034639 0.000011
# 6 0.000011 -0.000006 -0.000056 -0.029474 0.000011 0.012315
#
#
# Mechanical properties :
#
#
# Convention : Reuss Voigt Hill
#
# Bulk Modulus (GPa) = 28.03127 77.05023 52.54075
# Shear Modulus (GPa) = 59.58531 31.32150 45.45341
#
# Velocity S-wave (km/s) = 5.07545 3.67982 4.43291
# Velocity P-wave (km/s) = 6.81657 7.16697 6.99396
#
# Compressibility (1/GPa) = 0.03567445
#
# Stress axis : x y z
#
# Youngs Moduli (GPa) = 134.96838 128.57869 24.86429
#
# Poissons Ratio (x) = 0.43293 0.14642
# Poissons Ratio (y) = 0.45444 0.01515
# Poissons Ratio (z) = 0.79482 0.07833
#
# Static dielectric constant tensor:
#      x y z
#    x 1.905110 0.000000 -0.020360 
#    y 0.000000 1.879290 0.000020 
#    z -0.020360 0.000020 2.004730 
# 
# From -- ./inp_files/271620.got.cif
#   From: 2010.05.17/outbox.cif.g08.bks.cpg/sg12_136_cif.got.tgz:271620.got - 2010.06.03 13:09:07.
