data_PCOD9170820
_publ_section_title
;
Structure prediction by ZEFSAII (Michael W. Deem and Ramdas Pophale) SiO2 
 PCOD9170820
Probable space group: C 2/M
;
_chemical_formula_sum "Si O2"
_cell_formula_units_Z 52
_cell_length_a 13.612930
_cell_length_b 15.553259
_cell_length_c 14.090196
_cell_angle_alpha 90.000000
_cell_angle_beta 128.433366
_cell_angle_gamma 90.000000
_cell_volume 2336.876154
_symmetry_space_group_name_H-M "C 2/M"
_symmetry_group_IT_number 12
_symmetry_cell_setting 'monoclinic'
loop_
_space_group_symop_operation_xyz
x,y,z
-x,y,-z
-x,-y,-z
x,-y,z
1/2+x,1/2+y,z
1/2-x,1/2+y,-z
1/2-x,1/2-y,-z
1/2+x,1/2-y,z
loop_
_atom_site_type_symbol
_atom_site_label
_atom_site_fract_x
_atom_site_fract_y
_atom_site_fract_z
Si Si1 0.086274 0.592290 0.206407
Si Si2 0.888316 0.260650 0.623321
Si Si3 0.285808 0.819349 0.878313
Si Si4 0.361475 0.819872 0.303048
Si Si5 0.870706 0.101922 0.738366
Si Si6 0.796279 0.594742 0.062582
Si Si7 0.000000 0.819578 0.000000
O O1 0.122479 0.500000 0.270940
O O2 0.114540 0.672313 0.291050
O O3 0.151467 0.605906 0.145190
O O4 0.936810 0.591332 0.104621
O O5 0.750000 0.250000 0.500000
O O6 0.921015 0.167004 0.687455
O O7 0.989164 0.303202 0.610892
O O8 0.191593 0.774734 0.748721
O O9 0.226814 0.849907 0.941362
O O10 0.389423 0.746104 0.961842
O O11 0.274778 0.867879 0.328051
O O12 0.323518 0.869470 0.182853
O O13 0.876444 0.000000 0.722313
O O14 0.947270 0.125058 0.880931
O O15 0.740842 0.500000 0.036812
#
# Coordination Sequence:
#
# PCOD9170820 Si02
#       7
#     8   8   8   8   8   8   4
#     4  10  19  35  59  87 117 159 208 254 309 370
#     4  11  24  45  66  87 123 166 215 279 331 372
#     4  11  17  33  55  86 127 166 203 242 304 383
#     4  10  22  38  59  88 122 164 212 258 313 379
#     4  11  23  42  67  99 134 174 215 261 324 396
#     4  10  18  29  51  87 122 153 195 242 292 364
#     4  10  17  34  61  90 134 172 199 242 321 392
#
# _framework density 22.251927999999999
#
# number of rings (size 3 to 8) (size 9 to 14) (size 15 to 20)
#    0.000    1.538    4.615    2.538    0.000    4.308 
#    0.000    5.385    0.000    0.923    0.000    0.000 
#    0.000    0.000    0.000    0.000    0.000    0.000 
#
# Total GULP energy -145080.623297 kJ/mol
# GULP energy per Si atom -5580.023973 kJ/mol
# Density = 2.220128 g / cm^3
# Si number density = 22.251928 Si / 1000 Ang^3
#
#
#
# Elastic Constant Matrix: (Units=GPa)
#
#
# Indices 1 2 3 4 5 6 
#
# 1 62.8452 14.2258 0.6581 0.0000 9.7657 0.0000
# 2 14.2258 140.3231 19.0892 0.0000 -2.4949 0.0000
# 3 0.6581 19.0892 71.2269 0.0000 16.8463 0.0000
# 4 0.0000 0.0000 0.0000 8.9940 0.0000 5.1823
# 5 9.7657 -2.4949 16.8463 0.0000 25.2844 0.0000
# 6 0.0000 0.0000 0.0000 5.1823 0.0000 9.7859
#
#
#
# Elastic Compliance Matrix: (Units=1/GPa)
#
#
# Indices 1 2 3 4 5 6 
#
# 1 0.017770 -0.002301 0.002528 0.000000 -0.008775 0.000000
# 2 -0.002301 0.007823 -0.002930 0.000000 0.003613 0.000000
# 3 0.002528 -0.002930 0.017926 0.000000 -0.013209 0.000000
# 4 0.000000 0.000000 0.000000 0.160011 0.000000 -0.084737
# 5 -0.008775 0.003613 -0.013209 0.000000 0.052096 0.000000
# 6 0.000000 0.000000 0.000000 -0.084737 0.000000 0.147063
#
#
# Mechanical properties :
#
#
# Convention : Reuss Voigt Hill
#
# Bulk Modulus (GPa) = 26.23846 38.03792 32.13819
# Shear Modulus (GPa) = 11.88216 24.84099 18.36157
#
# Velocity S-wave (km/s) = 2.31331 3.34481 2.87569
# Velocity P-wave (km/s) = 4.35343 5.66112 5.04979
#
# Compressibility (1/GPa) = 0.03811200
#
# Stress axis : x y z
#
# Youngs Moduli (GPa) = 56.27419 127.83631 55.78628
#
# Poissons Ratio (x) = 0.29421 -0.14103
# Poissons Ratio (y) = 0.12951 0.16344
# Poissons Ratio (z) = -0.14226 0.37452
#
# Static dielectric constant tensor:
#      x y z
#    x 1.920040 0.000000 0.009880 
#    y 0.000000 1.859020 0.000000 
#    z 0.009880 0.000000 1.874150 
# 
# From -- ./inp_files/270772.got.cif
#   From: 2010.05.17/outbox.cif.g08.bks.cpg/sg12_136_cif.got.tgz:270772.got - 2010.06.03 13:09:07.
