data_PCOD9170484
_publ_section_title
;
Structure prediction by ZEFSAII (Michael W. Deem and Ramdas Pophale) SiO2 
 PCOD9170484
Probable space group: C 2/M
;
_chemical_formula_sum "Si O2"
_cell_formula_units_Z 52
_cell_length_a 25.701130
_cell_length_b 28.840332
_cell_length_c 5.040139
_cell_angle_alpha 90.000000
_cell_angle_beta 55.896873
_cell_angle_gamma 90.000000
_cell_volume 3093.434473
_symmetry_space_group_name_H-M "C 2/M"
_symmetry_group_IT_number 12
_symmetry_cell_setting 'monoclinic'
loop_
_space_group_symop_operation_xyz
x,y,z
-x,y,-z
-x,-y,-z
x,-y,z
1/2+x,1/2+y,z
1/2-x,1/2+y,-z
1/2-x,1/2-y,-z
1/2+x,1/2-y,z
loop_
_atom_site_type_symbol
_atom_site_label
_atom_site_fract_x
_atom_site_fract_y
_atom_site_fract_z
Si Si1 0.934896 0.647841 0.348446
Si Si2 0.814457 0.772155 0.430743
Si Si3 0.861496 0.277152 0.824508
Si Si4 0.805818 0.401543 0.586407
Si Si5 0.759788 0.356620 0.218797
Si Si6 0.573086 0.000000 0.007313
Si Si7 0.500000 0.922976 0.500000
Si Si8 0.846952 0.500000 0.702345
O O1 0.920925 0.696828 0.527952
O O2 0.871768 0.627799 0.390088
O O3 0.946821 0.609553 0.536727
O O4 0.000000 0.649645 0.000000
O O5 0.750000 0.750000 0.500000
O O6 0.829124 0.749555 0.672586
O O7 0.799391 0.826175 0.518407
O O8 0.865729 0.756734 0.065132
O O9 0.817286 0.319716 0.044186
O O10 0.777355 0.396812 0.375478
O O11 0.815646 0.452588 0.682802
O O12 0.759278 0.375477 0.922729
O O13 0.533305 0.044848 0.191941
O O14 0.632188 0.000000 0.048194
O O15 0.589823 0.000000 0.653663
#
# Coordination Sequence:
#
# PCOD9170484 Si02
#       8
#     8   8   8   8   8   4   4   4
#     4  11  23  32  47  63  90 121 156 196 236 276
#     4  10  17  32  49  68  86 105 132 184 235 283
#     4  10  20  30  47  68  87 109 141 182 236 280
#     4  11  22  34  48  68  86 119 151 192 237 278
#     4  10  19  33  51  67  86 107 143 183 238 287
#     4  11  24  38  48  62  78 120 168 206 244 272
#     4  11  24  34  50  58  84 120 166 206 242 273
#     4  12  22  37  48  64  92 112 154 202 237 277
#
# _framework density 16.809797
#
# number of rings (size 3 to 8) (size 9 to 14) (size 15 to 20)
#    0.000    1.385    1.538    8.308    8.615    0.615 
#    0.000    0.000    0.000    0.000    0.000    0.000 
#    0.000    0.000    0.000    0.000    0.000    0.000 
#
# Total GULP energy -145049.756340 kJ/mol
# GULP energy per Si atom -5578.836782 kJ/mol
# Density = 1.677154 g / cm^3
# Si number density = 16.809797 Si / 1000 Ang^3
#
#
#
# Elastic Constant Matrix: (Units=GPa)
#
#
# Indices 1 2 3 4 5 6 
#
# 1 42.4410 18.0774 8.6129 0.0000 17.8013 0.0000
# 2 18.0774 68.6830 29.9682 0.0000 -5.6457 0.0000
# 3 8.6129 29.9682 67.9357 0.0000 10.3319 0.0000
# 4 0.0000 0.0000 0.0000 72.3277 0.0000 4.7215
# 5 17.8013 -5.6457 10.3319 0.0000 19.8788 0.0000
# 6 0.0000 0.0000 0.0000 4.7215 0.0000 33.3633
#
#
#
# Elastic Compliance Matrix: (Units=1/GPa)
#
#
# Indices 1 2 3 4 5 6 
#
# 1 0.064818 -0.030561 0.016734 0.000000 -0.075421 0.000000
# 2 -0.030561 0.034499 -0.018455 0.000000 0.046757 0.000000
# 3 0.016734 -0.018455 0.025859 0.000000 -0.033667 0.000000
# 4 0.000000 0.000000 0.000000 0.013955 0.000000 -0.001975
# 5 -0.075421 0.046757 -0.033667 0.000000 0.148621 0.000000
# 6 0.000000 0.000000 0.000000 -0.001975 0.000000 0.030253
#
#
# Mechanical properties :
#
#
# Convention : Reuss Voigt Hill
#
# Bulk Modulus (GPa) = 16.49842 32.48631 24.49236
# Shear Modulus (GPa) = 12.41397 33.27402 22.84400
#
# Velocity S-wave (km/s) = 2.72048 4.45392 3.69042
# Velocity P-wave (km/s) = 4.43893 6.76887 5.72371
#
# Compressibility (1/GPa) = 0.06061186
#
# Stress axis : x y z
#
# Youngs Moduli (GPa) = 15.42792 28.98629 38.67085
#
# Poissons Ratio (x) = 0.88585 -0.64711
# Poissons Ratio (y) = 0.47149 0.71366
# Poissons Ratio (z) = -0.25817 0.53494
#
# Static dielectric constant tensor:
#      x y z
#    x 1.652740 0.000000 0.000170 
#    y 0.000000 1.612850 0.000000 
#    z 0.000170 0.000000 1.637630 
# 
# From -- ./inp_files/26634.got.cif
#   From: 2010.05.17/outbox.cif.g08.bks.cpg/sg12_14_cif.got.tgz:26634.got - 2010.06.03 13:09:07.
