data_PCOD9170201
_publ_section_title
;
Structure prediction by ZEFSAII (Michael W. Deem and Ramdas Pophale) SiO2 
 PCOD9170201
Probable space group: C 2/M
;
_chemical_formula_sum "Si O2"
_cell_formula_units_Z 64
_cell_length_a 12.237975
_cell_length_b 23.653563
_cell_length_c 26.700804
_cell_angle_alpha 90.000000
_cell_angle_beta 152.288103
_cell_angle_gamma 90.000000
_cell_volume 3594.244304
_symmetry_space_group_name_H-M "C 2/M"
_symmetry_group_IT_number 12
_symmetry_cell_setting 'monoclinic'
loop_
_space_group_symop_operation_xyz
x,y,z
-x,y,-z
-x,-y,-z
x,-y,z
1/2+x,1/2+y,z
1/2-x,1/2+y,-z
1/2-x,1/2-y,-z
1/2+x,1/2-y,z
loop_
_atom_site_type_symbol
_atom_site_label
_atom_site_fract_x
_atom_site_fract_y
_atom_site_fract_z
Si Si1 0.319110 0.837510 0.277981
Si Si2 0.675170 0.938994 0.117071
Si Si3 0.811762 0.277672 0.719462
Si Si4 0.783460 0.064193 0.688560
Si Si5 0.171301 0.207489 0.114281
Si Si6 0.274228 0.179352 0.815139
Si Si7 0.753684 0.654619 0.411099
Si Si8 0.312287 0.312716 0.505823
O O1 0.240285 0.787692 0.285109
O O2 0.283890 0.896625 0.291879
O O3 0.179609 0.827912 0.169601
O O4 0.599224 0.828940 0.383145
O O5 0.653057 0.883502 0.141263
O O6 0.935315 0.938509 0.199758
O O7 0.309253 0.000000 0.347725
O O8 0.500000 0.935360 0.000000
O O9 0.825202 0.308021 0.778647
O O10 0.583271 0.305877 0.600357
O O11 0.060063 0.288034 0.794912
O O12 0.724091 0.098482 0.613626
O O13 0.357721 0.000000 0.870312
O O14 0.106578 0.271949 0.103643
O O15 0.000000 0.188330 0.000000
O O16 0.988952 0.183776 0.704405
O O17 0.719602 0.648564 0.456991
O O18 0.000000 0.686252 0.500000
O O19 0.250000 0.250000 0.500000
#
# Coordination Sequence:
#
# PCOD9170201 Si02
#       8
#     8   8   8   8   8   8   8   8
#     4  10  20  35  51  77 104 134 175 215 263 311
#     4   9  17  29  47  72 101 136 174 208 249 306
#     4   9  19  34  51  74 103 134 173 213 259 311
#     4  10  20  33  52  78 109 137 167 215 271 317
#     4  11  23  35  50  75 103 138 179 221 264 309
#     4   9  19  31  49  75 102 138 169 210 266 306
#     4  10  17  30  51  75 110 134 168 210 246 310
#     4   9  18  31  49  77 103 138 170 202 251 306
#
# _framework density 17.806246000000002
#
# number of rings (size 3 to 8) (size 9 to 14) (size 15 to 20)
#    0.000    2.375    1.250    2.625    1.750    3.750 
#    0.000    0.000    0.000    1.125    0.000    0.875 
#    0.000    0.000    0.000    0.000    0.000    0.000 
#
# Total GULP energy -178217.295401 kJ/mol
# GULP energy per Si atom -5569.290481 kJ/mol
# Density = 1.776572 g / cm^3
# Si number density = 17.806246 Si / 1000 Ang^3
#
#
#
# Elastic Constant Matrix: (Units=GPa)
#
#
# Indices 1 2 3 4 5 6 
#
# 1 50.9776 36.2865 14.0345 0.0006 -6.0094 -0.0018
# 2 36.2865 111.3923 21.8614 -0.0036 -18.5320 -0.0004
# 3 14.0345 21.8614 93.2748 -0.0035 -19.1170 0.0028
# 4 0.0006 -0.0036 -0.0035 -0.8261 -0.0009 1.9475
# 5 -6.0094 -18.5320 -19.1170 -0.0009 19.8648 -0.0009
# 6 -0.0018 -0.0004 0.0028 1.9475 -0.0009 19.7615
#
#
#
# Elastic Compliance Matrix: (Units=1/GPa)
#
#
# Indices 1 2 3 4 5 6 
#
# 1 0.025965 -0.008362 -0.002412 0.000059 -0.002267 -0.000003
# 2 -0.008362 0.013344 0.000204 -0.000062 0.010115 0.000006
# 3 -0.002412 0.000204 0.013610 -0.000064 0.012558 0.000005
# 4 0.000059 -0.000062 -0.000064 -0.982283 -0.000144 0.096803
# 5 -0.002267 0.010115 0.012558 -0.000144 0.071177 0.000016
# 6 -0.000003 0.000006 0.000005 0.096803 0.000016 0.041064
#
#
# Mechanical properties :
#
#
# Convention : Reuss Voigt Hill
#
# Bulk Modulus (GPa) = 31.46676 44.44551 37.95613
# Shear Modulus (GPa) = -6.36626 19.99085 6.81229
#
# Velocity S-wave (km/s) = -1.89290 3.35429 1.95808
# Velocity P-wave (km/s) = 3.59621 6.32586 5.14535
#
# Compressibility (1/GPa) = 0.03177957
#
# Stress axis : x y z
#
# Youngs Moduli (GPa) = 38.51267 74.93909 73.47560
#
# Poissons Ratio (x) = 0.62666 0.17720
# Poissons Ratio (y) = 0.32205 -0.01498
# Poissons Ratio (z) = 0.09288 -0.01528
#
# Static dielectric constant tensor:
#      x y z
#    x 1.627630 0.000000 0.012360 
#    y 0.000000 1.631950 0.000000 
#    z 0.012360 0.000000 1.694620 
# 
# From -- ./inp_files/294273.got.cif
#   From: 2010.05.17/outbox.cif.g08.bks.cpg/sg12_148_cif.got.tgz:294273.got - 2010.06.03 13:09:07.
