data_PCOD9170568
_publ_section_title
;
Structure prediction by ZEFSAII (Michael W. Deem and Ramdas Pophale) SiO2 
 PCOD9170568
Probable space group: C 2/M
;
_chemical_formula_sum "Si O2"
_cell_formula_units_Z 64
_cell_length_a 18.732770
_cell_length_b 17.292238
_cell_length_c 22.586709
_cell_angle_alpha 90.000000
_cell_angle_beta 28.777490
_cell_angle_gamma 90.000000
_cell_volume 3522.254162
_symmetry_space_group_name_H-M "C 2/M"
_symmetry_group_IT_number 12
_symmetry_cell_setting 'monoclinic'
loop_
_space_group_symop_operation_xyz
x,y,z
-x,y,-z
-x,-y,-z
x,-y,z
1/2+x,1/2+y,z
1/2-x,1/2+y,-z
1/2-x,1/2-y,-z
1/2+x,1/2-y,z
loop_
_atom_site_type_symbol
_atom_site_label
_atom_site_fract_x
_atom_site_fract_y
_atom_site_fract_z
Si Si1 0.470958 0.655555 0.761285
Si Si2 0.202478 0.910938 0.510648
Si Si3 0.684533 0.910493 0.134787
Si Si4 0.520250 0.192095 0.646083
Si Si5 0.606351 0.298412 0.476832
Si Si6 0.026749 0.914353 0.910840
Si Si7 0.101594 0.220834 0.786188
Si Si8 0.166639 0.677080 0.030650
O O1 0.565554 0.593920 0.656177
O O2 0.499245 0.735607 0.705655
O O3 0.539655 0.670903 0.775755
O O4 0.295042 0.640920 0.896380
O O5 0.334150 0.857448 0.441864
O O6 0.149180 0.868979 0.489194
O O7 0.247901 0.000000 0.469174
O O8 0.617515 0.862877 0.238130
O O9 0.623559 0.877587 0.116916
O O10 0.648214 0.000000 0.168053
O O11 0.862179 0.902876 0.003346
O O12 0.537681 0.231168 0.569288
O O13 0.500000 0.319963 0.500000
O O14 0.754313 0.264038 0.340662
O O15 0.125021 0.842541 0.819673
O O16 0.081973 0.000000 0.853342
O O17 0.000000 0.914398 0.000000
O O18 0.977267 0.284442 0.893819
O O19 0.250000 0.750000 0.000000
#
# Coordination Sequence:
#
# PCOD9170568 Si02
#       8
#     8   8   8   8   8   8   8   8
#     4  10  17  33  58  82 110 138 182 235 281 326
#     4  11  22  37  60  85 113 147 184 237 287 327
#     4  11  20  31  52  81 110 141 177 223 277 327
#     4  11  19  37  56  80 114 145 188 234 273 330
#     4  11  24  39  58  83 112 153 192 228 274 336
#     4  10  22  35  49  75 112 150 182 220 274 334
#     4  11  18  37  58  79 108 143 186 231 271 329
#     4  10  17  32  56  82 108 136 175 231 280 320
#
# _framework density 18.170182
#
# number of rings (size 3 to 8) (size 9 to 14) (size 15 to 20)
#    0.000    1.375    7.500    1.125    1.750    1.250 
#    0.000    0.000    0.000    1.875    0.000    0.875 
#    0.000    0.000    0.000    0.000    0.000    0.000 
#
# Total GULP energy -178452.864116 kJ/mol
# GULP energy per Si atom -5576.652004 kJ/mol
# Density = 1.812883 g / cm^3
# Si number density = 18.170182 Si / 1000 Ang^3
#
#
#
# Elastic Constant Matrix: (Units=GPa)
#
#
# Indices 1 2 3 4 5 6 
#
# 1 49.2302 4.7613 -4.3810 0.0001 2.7506 -0.0001
# 2 4.7613 59.1250 -2.2527 0.0010 2.2871 -0.0011
# 3 -4.3810 -2.2527 70.6181 0.0006 9.0554 -0.0010
# 4 0.0001 0.0010 0.0006 17.5018 -0.0010 5.3832
# 5 2.7506 2.2871 9.0554 -0.0010 12.1581 0.0001
# 6 -0.0001 -0.0011 -0.0010 5.3832 0.0001 15.3291
#
#
#
# Elastic Compliance Matrix: (Units=1/GPa)
#
#
# Indices 1 2 3 4 5 6 
#
# 1 0.020961 -0.001379 0.002025 -0.000001 -0.005991 0.000000
# 2 -0.001379 0.017199 0.000926 -0.000002 -0.003613 0.000002
# 3 0.002025 0.000926 0.015917 -0.000002 -0.012487 0.000002
# 4 -0.000001 -0.000002 -0.000002 0.064056 0.000007 -0.022495
# 5 -0.005991 -0.003613 -0.012487 0.000007 0.093586 -0.000004
# 6 0.000000 0.000002 0.000002 -0.022495 -0.000004 0.073135
#
#
# Mechanical properties :
#
#
# Convention : Reuss Voigt Hill
#
# Bulk Modulus (GPa) = 17.47599 19.46983 18.47291
# Shear Modulus (GPa) = 16.62319 21.05416 18.83868
#
# Velocity S-wave (km/s) = 3.02795 3.40769 3.22342
# Velocity P-wave (km/s) = 4.67584 5.12071 4.90332
#
# Compressibility (1/GPa) = 0.05722136
#
# Stress axis : x y z
#
# Youngs Moduli (GPa) = 47.70766 58.14134 62.82554
#
# Poissons Ratio (x) = 0.08018 -0.12719
# Poissons Ratio (y) = 0.06579 -0.05820
# Poissons Ratio (z) = -0.09659 -0.05387
#
# Static dielectric constant tensor:
#      x y z
#    x 1.629850 0.000000 -0.004810 
#    y 0.000000 1.624570 0.000000 
#    z -0.004810 0.000000 1.680800 
# 
# From -- ./inp_files/344345.got.cif
#   From: 2010.05.17/outbox.cif.g08.bks.cpg/sg12_173_cif.got.tgz:344345.got - 2010.06.03 13:09:07.
