data_PCOD9170795
_publ_section_title
;
Structure prediction by ZEFSAII (Michael W. Deem and Ramdas Pophale) SiO2 
 PCOD9170795
Probable space group: C 2/M
;
_chemical_formula_sum "Si O2"
_cell_formula_units_Z 40
_cell_length_a 14.893988
_cell_length_b 25.966569
_cell_length_c 8.100358
_cell_angle_alpha 90.000000
_cell_angle_beta 38.457033
_cell_angle_gamma 90.000000
_cell_volume 1948.361740
_symmetry_space_group_name_H-M "C 2/M"
_symmetry_group_IT_number 12
_symmetry_cell_setting 'monoclinic'
loop_
_space_group_symop_operation_xyz
x,y,z
-x,y,-z
-x,-y,-z
x,-y,z
1/2+x,1/2+y,z
1/2-x,1/2+y,-z
1/2-x,1/2-y,-z
1/2+x,1/2-y,z
loop_
_atom_site_type_symbol
_atom_site_label
_atom_site_fract_x
_atom_site_fract_y
_atom_site_fract_z
Si Si1 0.835221 0.943312 0.795131
Si Si2 0.147525 0.356084 0.556689
Si Si3 0.173413 0.235682 0.783351
Si Si4 0.171176 0.658983 0.918794
Si Si5 0.654873 0.557978 0.825481
O O1 0.765917 0.889674 0.836082
O O2 0.000000 0.942856 0.500000
O O3 0.773316 0.000000 0.830634
O O4 0.833708 0.943066 0.994808
O O5 0.252002 0.319492 0.296820
O O6 0.157809 0.347180 0.739134
O O7 0.208222 0.412392 0.439859
O O8 0.979648 0.346841 0.767327
O O9 0.250000 0.250000 0.500000
O O10 0.210197 0.279987 0.864137
O O11 0.000000 0.233484 0.000000
O O12 0.652913 0.500000 0.760936
O O13 0.500000 0.582338 0.000000
#
# Coordination Sequence:
#
# PCOD9170795 Si02
#       5
#     8   8   8   8   8
#     4  10  22  40  60  83 118 158 194 246 307 358
#     4  10  20  35  60  89 119 157 196 241 295 354
#     4  10  17  34  58  86 120 159 197 241 292 346
#     4  10  20  36  58  88 120 153 198 240 295 360
#     4  10  21  38  60  86 112 149 201 247 296 360
#
# _framework density 20.530069000000001
#
# number of rings (size 3 to 8) (size 9 to 14) (size 15 to 20)
#    0.000    2.000    4.000    1.800    0.000    5.600 
#    0.000    5.000    0.000    0.000    0.000    0.000 
#    0.000    0.000    0.000    0.000    0.000    0.000 
#
# Total GULP energy -111347.116037 kJ/mol
# GULP energy per Si atom -5567.355802 kJ/mol
# Density = 2.048334 g / cm^3
# Si number density = 20.530069 Si / 1000 Ang^3
#
#
#
# Elastic Constant Matrix: (Units=GPa)
#
#
# Indices 1 2 3 4 5 6 
#
# 1 22.7311 31.5713 9.4808 0.0000 -8.0703 0.0000
# 2 31.5713 137.6703 56.6631 0.0000 -22.1287 0.0000
# 3 9.4808 56.6631 125.1762 0.0000 -8.0956 0.0000
# 4 0.0000 0.0000 0.0000 41.4412 0.0000 15.1378
# 5 -8.0703 -22.1287 -8.0956 0.0000 17.7683 0.0000
# 6 0.0000 0.0000 0.0000 15.1378 0.0000 17.2491
#
#
#
# Elastic Compliance Matrix: (Units=1/GPa)
#
#
# Indices 1 2 3 4 5 6 
#
# 1 0.067785 -0.014178 0.002198 0.000000 0.014132 0.000000
# 2 -0.014178 0.013805 -0.004616 0.000000 0.008651 0.000000
# 3 0.002198 -0.004616 0.009896 0.000000 -0.000242 0.000000
# 4 0.000000 0.000000 0.000000 0.035516 0.000000 -0.031169
# 5 0.014132 0.008651 -0.000242 0.000000 0.073362 0.000000
# 6 0.000000 0.000000 0.000000 -0.031169 0.000000 0.085328
#
#
# Mechanical properties :
#
#
# Convention : Reuss Voigt Hill
#
# Bulk Modulus (GPa) = 17.15429 53.44533 35.29981
# Shear Modulus (GPa) = 14.77908 27.81587 21.29747
#
# Velocity S-wave (km/s) = 2.68596 3.68487 3.22433
# Velocity P-wave (km/s) = 4.24182 6.64782 5.57613
#
# Compressibility (1/GPa) = 0.05829446
#
# Stress axis : x y z
#
# Youngs Moduli (GPa) = 14.75255 72.43535 101.04943
#
# Poissons Ratio (x) = 1.02698 -0.22209
# Poissons Ratio (y) = 0.20916 0.46644
# Poissons Ratio (z) = -0.03242 0.33436
#
# Static dielectric constant tensor:
#      x y z
#    x 1.656470 0.000000 -0.124340 
#    y 0.000000 1.860360 0.000000 
#    z -0.124340 0.000000 1.636890 
# 
# From -- ./inp_files/68446.got.cif
#   From: 2010.05.17/outbox.cif.g08.bks.cpg/sg12_35_cif.got.tgz:68446.got - 2010.06.03 13:09:07.
