data_PCOD9170390
_publ_section_title
;
Structure prediction by ZEFSAII (Michael W. Deem and Ramdas Pophale) SiO2 
 PCOD9170390
Probable space group: C 2/M
;
_chemical_formula_sum "Si O2"
_cell_formula_units_Z 56
_cell_length_a 30.067667
_cell_length_b 8.356838
_cell_length_c 14.675666
_cell_angle_alpha 90.000000
_cell_angle_beta 60.038440
_cell_angle_gamma 90.000000
_cell_volume 3194.760148
_symmetry_space_group_name_H-M "C 2/M"
_symmetry_group_IT_number 12
_symmetry_cell_setting 'monoclinic'
loop_
_space_group_symop_operation_xyz
x,y,z
-x,y,-z
-x,-y,-z
x,-y,z
1/2+x,1/2+y,z
1/2-x,1/2+y,-z
1/2-x,1/2-y,-z
1/2+x,1/2-y,z
loop_
_atom_site_type_symbol
_atom_site_label
_atom_site_fract_x
_atom_site_fract_y
_atom_site_fract_z
Si Si1 0.389887 0.315238 0.787853
Si Si2 0.836898 0.316605 0.672546
Si Si3 0.304087 0.189552 0.403494
Si Si4 0.502760 0.192252 0.391705
Si Si5 0.700347 0.694125 0.993216
Si Si6 0.601364 0.813148 0.577162
Si Si7 0.281481 0.308822 0.232328
O O1 0.401386 0.500000 0.795216
O O2 0.355556 0.298699 0.732193
O O3 0.442898 0.229115 0.709793
O O4 0.352457 0.251289 0.905205
O O5 0.837324 0.500000 0.708250
O O6 0.874243 0.310834 0.548616
O O7 0.779628 0.281535 0.699053
O O8 0.250000 0.250000 0.500000
O O9 0.354748 0.257568 0.402288
O O10 0.306351 0.226911 0.294111
O O11 0.303843 0.000000 0.419900
O O12 0.500000 0.251199 0.500000
O O13 0.455374 0.256694 0.379551
O O14 0.496693 0.000000 0.403187
O O15 0.701253 0.500000 0.994170
O O16 0.703060 0.744679 0.884934
O O17 0.750000 0.750000 0.000000
O O18 0.594998 0.000000 0.611226
O O19 0.290126 0.500000 0.230102
#
# Coordination Sequence:
#
# PCOD9170390 Si02
#       7
#     8   8   8   8   8   8   8
#     4  11  22  33  48  79 113 136 168 219 269 309
#     4  10  17  31  53  74 103 143 176 206 249 313
#     4  11  21  34  53  79 109 139 172 216 264 312
#     4  10  19  34  56  75  97 140 183 210 253 318
#     4  10  21  35  53  76 107 142 176 216 263 315
#     4   9  18  33  51  74 103 135 175 211 247 306
#     4  10  20  35  53  75 105 142 179 213 255 312
#
# _framework density 17.528701000000002
#
# number of rings (size 3 to 8) (size 9 to 14) (size 15 to 20)
#    0.000    1.857    4.286    0.857    0.000    2.000 
#    0.000    1.429    0.000    0.857    0.000    6.000 
#    0.000    0.000    0.000    0.000    0.000    0.000 
#
# Total GULP energy -156117.216329 kJ/mol
# GULP energy per Si atom -5575.614869 kJ/mol
# Density = 1.748881 g / cm^3
# Si number density = 17.528701 Si / 1000 Ang^3
#
#
#
# Elastic Constant Matrix: (Units=GPa)
#
#
# Indices 1 2 3 4 5 6 
#
# 1 107.3496 20.2395 41.2730 0.0000 -4.1420 0.0000
# 2 20.2395 7.5450 5.2207 0.0000 -0.7253 0.0000
# 3 41.2730 5.2207 78.5746 0.0000 -5.0516 0.0000
# 4 0.0000 0.0000 0.0000 18.5335 0.0000 1.0441
# 5 -4.1420 -0.7253 -5.0516 0.0000 28.4971 0.0000
# 6 0.0000 0.0000 0.0000 1.0441 0.0000 20.7369
#
#
#
# Elastic Compliance Matrix: (Units=1/GPa)
#
#
# Indices 1 2 3 4 5 6 
#
# 1 0.023187 -0.056338 -0.008407 0.000000 0.000446 0.000000
# 2 -0.056338 0.275915 0.011314 0.000000 0.000840 0.000000
# 3 -0.008407 0.011314 0.016519 0.000000 0.001994 0.000000
# 4 0.000000 0.000000 0.000000 0.054110 0.000000 -0.002725
# 5 0.000446 0.000840 0.001994 0.000000 0.035531 0.000000
# 6 0.000000 0.000000 0.000000 -0.002725 0.000000 0.048360
#
#
# Mechanical properties :
#
#
# Convention : Reuss Voigt Hill
#
# Bulk Modulus (GPa) = 4.79022 36.32617 20.55819
# Shear Modulus (GPa) = 7.93561 22.00257 14.96909
#
# Velocity S-wave (km/s) = 2.13003 3.54677 2.92546
# Velocity P-wave (km/s) = 2.96447 6.12712 4.81299
#
# Compressibility (1/GPa) = 0.20875867
#
# Stress axis : x y z
#
# Youngs Moduli (GPa) = 43.12794 3.62430 60.53476
#
# Poissons Ratio (x) = 0.20419 0.50894
# Poissons Ratio (y) = 2.42974 -0.68490
# Poissons Ratio (z) = 0.36260 -0.04101
#
# Static dielectric constant tensor:
#      x y z
#    x 1.615950 0.000000 0.000460 
#    y 0.000000 1.629860 0.000000 
#    z 0.000460 0.000000 1.595480 
# 
# From -- ./inp_files/248165.got.cif
#   From: 2010.05.17/outbox.cif.g08.bks.cpg/sg12_125_cif.got.tgz:248165.got - 2010.06.03 13:09:07.
