data_PCOD9170662
_publ_section_title
;
Structure prediction by ZEFSAII (Michael W. Deem and Ramdas Pophale) SiO2 
 PCOD9170662
Probable space group: C 2/M
;
_chemical_formula_sum "Si O2"
_cell_formula_units_Z 48
_cell_length_a 19.368106
_cell_length_b 18.705779
_cell_length_c 8.604307
_cell_angle_alpha 90.000000
_cell_angle_beta 63.259181
_cell_angle_gamma 90.000000
_cell_volume 2783.909659
_symmetry_space_group_name_H-M "C 2/M"
_symmetry_group_IT_number 12
_symmetry_cell_setting 'monoclinic'
loop_
_space_group_symop_operation_xyz
x,y,z
-x,y,-z
-x,-y,-z
x,-y,z
1/2+x,1/2+y,z
1/2-x,1/2+y,-z
1/2-x,1/2-y,-z
1/2+x,1/2-y,z
loop_
_atom_site_type_symbol
_atom_site_label
_atom_site_fract_x
_atom_site_fract_y
_atom_site_fract_z
Si Si1 0.628701 0.745041 0.734007
Si Si2 0.212464 0.193060 0.361286
Si Si3 0.934980 0.133040 0.952429
Si Si4 0.706473 0.581512 0.091751
Si Si5 0.517591 0.756649 0.299398
Si Si6 0.687866 0.195941 0.144080
O O1 0.695583 0.800877 0.709595
O O2 0.667095 0.691412 0.568344
O O3 0.554440 0.781893 0.731192
O O4 0.602648 0.696383 0.904593
O O5 0.192452 0.131634 0.257841
O O6 0.189728 0.271169 0.314480
O O7 0.867317 0.086543 0.947697
O O8 0.973056 0.174819 0.768651
O O9 0.000000 0.100068 0.000000
O O10 0.721633 0.500000 0.118912
O O11 0.777021 0.619217 0.927950
O O12 0.500000 0.760397 0.500000
O O13 0.599407 0.794673 0.183036
O O14 0.750000 0.250000 0.000000
#
# Coordination Sequence:
#
# PCOD9170662 Si02
#       6
#     8   8   8   8   8   8
#     4  10  19  30  57  86 108 133 170 243 274 314
#     4  10  18  34  56  81 108 136 189 225 274 316
#     4  10  19  31  50  81 112 136 178 220 271 324
#     4  11  21  36  54  74 110 156 184 215 270 329
#     4  11  18  31  56  87 110 136 177 230 281 317
#     4  10  17  33  54  78 103 137 183 226 256 318
#
# _framework density 17.241938999999999
#
# number of rings (size 3 to 8) (size 9 to 14) (size 15 to 20)
#    0.000    1.667    6.667    1.000    0.000    0.333 
#    0.000    0.833    0.000   12.000    0.000    0.000 
#    0.000    0.000    0.000    0.000    0.000    0.000 
#
# Total GULP energy -133631.510096 kJ/mol
# GULP energy per Si atom -5567.979587 kJ/mol
# Density = 1.720270 g / cm^3
# Si number density = 17.241939 Si / 1000 Ang^3
#
#
#
# Elastic Constant Matrix: (Units=GPa)
#
#
# Indices 1 2 3 4 5 6 
#
# 1 153.7320 30.5429 18.1023 0.0000 -9.1195 0.0000
# 2 30.5429 61.6000 22.5715 0.0000 7.7159 0.0000
# 3 18.1023 22.5715 76.0235 0.0000 3.2014 0.0000
# 4 0.0000 0.0000 0.0000 4.9680 0.0000 0.8025
# 5 -9.1195 7.7159 3.2014 0.0000 27.6307 0.0000
# 6 0.0000 0.0000 0.0000 0.8025 0.0000 10.5722
#
#
#
# Elastic Compliance Matrix: (Units=1/GPa)
#
#
# Indices 1 2 3 4 5 6 
#
# 1 0.007601 -0.003941 -0.000796 0.000000 0.003701 0.000000
# 2 -0.003941 0.020828 -0.004970 0.000000 -0.006541 0.000000
# 3 -0.000796 -0.004970 0.014844 0.000000 -0.000595 0.000000
# 4 0.000000 0.000000 0.000000 0.203785 0.000000 -0.015468
# 5 0.003701 -0.006541 -0.000595 0.000000 0.039309 0.000000
# 6 0.000000 0.000000 0.000000 -0.015468 0.000000 0.095762
#
#
# Mechanical properties :
#
#
# Convention : Reuss Voigt Hill
#
# Bulk Modulus (GPa) = 41.91144 48.19877 45.05511
# Shear Modulus (GPa) = 12.21016 23.31011 17.76014
#
# Velocity S-wave (km/s) = 2.66403 3.68087 3.21293
# Velocity P-wave (km/s) = 5.81578 6.78823 6.32074
#
# Compressibility (1/GPa) = 0.02385983
#
# Stress axis : x y z
#
# Youngs Moduli (GPa) = 131.56078 48.01173 67.36733
#
# Poissons Ratio (x) = 0.18921 0.05361
# Poissons Ratio (y) = 0.51846 0.33482
# Poissons Ratio (z) = 0.10469 0.23862
#
# Static dielectric constant tensor:
#      x y z
#    x 1.673230 0.000000 0.003040 
#    y 0.000000 1.553530 0.000000 
#    z 0.003040 0.000000 1.653910 
# 
# From -- ./inp_files/87145.got.cif
#   From: 2010.05.17/outbox.cif.g08.bks.cpg/sg12_44_cif.got.tgz:87145.got - 2010.06.03 13:09:07.
