data_PCOD9170579
_publ_section_title
;
Structure prediction by ZEFSAII (Michael W. Deem and Ramdas Pophale) SiO2 
 PCOD9170579
Probable space group: C 2/M
;
_chemical_formula_sum "Si O2"
_cell_formula_units_Z 40
_cell_length_a 12.470496
_cell_length_b 17.471390
_cell_length_c 12.217457
_cell_angle_alpha 90.000000
_cell_angle_beta 64.111929
_cell_angle_gamma 90.000000
_cell_volume 2394.776360
_symmetry_space_group_name_H-M "C 2/M"
_symmetry_group_IT_number 12
_symmetry_cell_setting 'monoclinic'
loop_
_space_group_symop_operation_xyz
x,y,z
-x,y,-z
-x,-y,-z
x,-y,z
1/2+x,1/2+y,z
1/2-x,1/2+y,-z
1/2-x,1/2-y,-z
1/2+x,1/2-y,z
loop_
_atom_site_type_symbol
_atom_site_label
_atom_site_fract_x
_atom_site_fract_y
_atom_site_fract_z
Si Si1 0.087846 0.669280 0.561890
Si Si2 0.354506 0.651166 0.466534
Si Si3 0.190692 0.591620 0.925419
Si Si4 0.004810 0.408175 0.178133
Si Si5 0.899722 0.090408 0.688531
O O1 0.220708 0.635285 0.487089
O O2 0.111423 0.760051 0.564042
O O3 0.000000 0.656358 0.500000
O O4 0.029389 0.634740 0.696638
O O5 0.361556 0.631758 0.592932
O O6 0.459762 0.604010 0.362318
O O7 0.199003 0.500000 0.936571
O O8 0.318812 0.618676 0.825355
O O9 0.099450 0.603833 0.865277
O O10 0.126146 0.619639 0.064239
O O11 0.011293 0.500000 0.194431
O O12 0.877320 0.000000 0.683125
#
# Coordination Sequence:
#
# PCOD9170579 Si02
#       5
#     8   8   8   8   8
#     4  11  21  33  49  70 109 143 158 199 253 311
#     4  10  20  32  48  74 103 133 170 202 251 300
#     4   8  15  29  52  76  97 121 166 226 251 270
#     4   9  17  30  48  74 101 131 170 205 249 294
#     4  10  17  32  57  77  95 123 174 225 251 276
#
# _framework density 16.703021
#
# number of rings (size 3 to 8) (size 9 to 14) (size 15 to 20)
#    0.000    2.400    4.000    2.400    0.000    1.200 
#    0.000    1.000    0.000    1.200    0.000    4.200 
#    0.000    0.000    0.000    0.000    0.000    0.000 
#
# Total GULP energy -111363.984372 kJ/mol
# GULP energy per Si atom -5568.199219 kJ/mol
# Density = 1.666500 g / cm^3
# Si number density = 16.703021 Si / 1000 Ang^3
#
#
#
# Elastic Constant Matrix: (Units=GPa)
#
#
# Indices 1 2 3 4 5 6 
#
# 1 102.5122 10.3123 68.1229 0.0000 -20.2602 0.0000
# 2 10.3123 42.7840 43.0302 0.0000 -3.5131 0.0000
# 3 68.1229 43.0302 150.2691 0.0000 -32.2010 0.0000
# 4 0.0000 0.0000 0.0000 -17.4942 0.0000 13.1032
# 5 -20.2602 -3.5131 -32.2010 0.0000 31.3280 0.0000
# 6 0.0000 0.0000 0.0000 13.1032 0.0000 13.7690
#
#
#
# Elastic Compliance Matrix: (Units=1/GPa)
#
#
# Indices 1 2 3 4 5 6 
#
# 1 0.014665 0.003963 -0.007253 0.000000 0.002473 0.000000
# 2 0.003963 0.035402 -0.013510 0.000000 -0.007353 0.000000
# 3 -0.007253 -0.013510 0.016007 0.000000 0.010248 0.000000
# 4 0.000000 0.000000 0.000000 -0.033374 0.000000 0.031760
# 5 0.002473 -0.007353 0.010248 0.000000 0.043229 0.000000
# 6 0.000000 0.000000 0.000000 0.031760 0.000000 0.042403
#
#
# Mechanical properties :
#
#
# Convention : Reuss Voigt Hill
#
# Bulk Modulus (GPa) = 30.79325 59.83292 45.31308
# Shear Modulus (GPa) = 30.72075 17.12724 23.92399
#
# Velocity S-wave (km/s) = 4.29328 3.20566 3.78870
# Velocity P-wave (km/s) = 6.56141 7.04280 6.80636
#
# Compressibility (1/GPa) = 0.03247465
#
# Stress axis : x y z
#
# Youngs Moduli (GPa) = 68.18956 28.24718 62.47085
#
# Poissons Ratio (x) = -0.11195 0.45311
# Poissons Ratio (y) = -0.27025 0.84397
# Poissons Ratio (z) = 0.49459 0.38162
#
# Static dielectric constant tensor:
#      x y z
#    x 1.589200 0.000000 -0.050880 
#    y 0.000000 1.568170 0.000000 
#    z -0.050880 0.000000 1.570310 
# 
# From -- ./inp_files/130345.got.cif
#   From: 2010.05.17/outbox.cif.g08.bks.cpg/sg12_66_cif.got.tgz:130345.got - 2010.06.03 13:09:07.
