data_PCOD9170742
_publ_section_title
;
Structure prediction by ZEFSAII (Michael W. Deem and Ramdas Pophale) SiO2 
 PCOD9170742
Probable space group: C 2/M
;
_chemical_formula_sum "Si O2"
_cell_formula_units_Z 40
_cell_length_a 8.979798
_cell_length_b 16.545737
_cell_length_c 19.736259
_cell_angle_alpha 90.000000
_cell_angle_beta 126.443427
_cell_angle_gamma 90.000000
_cell_volume 2358.920052
_symmetry_space_group_name_H-M "C 2/M"
_symmetry_group_IT_number 12
_symmetry_cell_setting 'monoclinic'
loop_
_space_group_symop_operation_xyz
x,y,z
-x,y,-z
-x,-y,-z
x,-y,z
1/2+x,1/2+y,z
1/2-x,1/2+y,-z
1/2-x,1/2-y,-z
1/2+x,1/2-y,z
loop_
_atom_site_type_symbol
_atom_site_label
_atom_site_fract_x
_atom_site_fract_y
_atom_site_fract_z
Si Si1 0.794643 0.500000 0.975797
Si Si2 0.405623 0.500000 0.261043
Si Si3 0.582581 0.861842 0.289409
Si Si4 0.966493 0.500000 0.163603
Si Si5 0.154225 0.000000 0.598616
Si Si6 0.246765 0.747304 0.775610
Si Si7 0.588038 0.637325 0.839076
O O1 0.689111 0.578884 0.919337
O O2 0.824006 0.500000 0.064113
O O3 0.000000 0.500000 0.000000
O O4 0.433399 0.500000 0.348978
O O5 0.475648 0.578265 0.239729
O O6 0.179601 0.500000 0.193084
O O7 0.459283 0.921237 0.208757
O O8 0.708011 0.809559 0.272281
O O9 0.442439 0.801673 0.288200
O O10 0.712700 0.921332 0.367422
O O11 0.000000 0.000000 0.500000
O O12 0.417064 0.685490 0.823930
O O13 0.220310 0.797717 0.837716
#
# Coordination Sequence:
#
# PCOD9170742 Si02
#       7
#     4   4   8   4   4   8   8
#     4  11  18  32  52  70 102 144 178 211 254 302
#     4   9  16  34  54  72  93 143 168 197 250 309
#     4   9  19  35  57  74 102 137 169 211 254 304
#     4  10  17  34  51  69 100 142 179 203 254 304
#     4  10  19  35  58  81 103 133 168 198 248 313
#     4  10  18  34  54  79 101 133 173 213 258 301
#     4  10  19  32  55  74 100 137 175 211 253 297
#
# _framework density 16.956911999999999
#
# number of rings (size 3 to 8) (size 9 to 14) (size 15 to 20)
#    0.000    2.400    6.000    0.000    0.000    3.200 
#    0.000   14.000    0.000    1.200    0.000    0.000 
#    0.000    0.000    0.000    0.000    0.000    0.000 
#
# Total GULP energy -111445.213625 kJ/mol
# GULP energy per Si atom -5572.260681 kJ/mol
# Density = 1.691832 g / cm^3
# Si number density = 16.956912 Si / 1000 Ang^3
#
#
#
# Elastic Constant Matrix: (Units=GPa)
#
#
# Indices 1 2 3 4 5 6 
#
# 1 72.8759 48.8196 28.0822 0.0000 6.9380 0.0000
# 2 48.8196 121.1208 52.2341 0.0000 9.0526 0.0000
# 3 28.0822 52.2341 127.1924 0.0000 -0.6172 0.0000
# 4 0.0000 0.0000 0.0000 7.0096 0.0000 9.9133
# 5 6.9380 9.0526 -0.6172 0.0000 13.3780 0.0000
# 6 0.0000 0.0000 0.0000 9.9133 0.0000 11.1564
#
#
#
# Elastic Compliance Matrix: (Units=1/GPa)
#
#
# Indices 1 2 3 4 5 6 
#
# 1 0.019344 -0.006718 -0.001539 0.000000 -0.005557 0.000000
# 2 -0.006718 0.013063 -0.003908 0.000000 -0.005536 0.000000
# 3 -0.001539 -0.003908 0.009826 0.000000 0.003896 0.000000
# 4 0.000000 0.000000 0.000000 -0.555817 0.000000 0.493886
# 5 -0.005557 -0.005536 0.003896 0.000000 0.081558 0.000000
# 6 0.000000 0.000000 0.000000 0.493886 0.000000 -0.349220
#
#
# Mechanical properties :
#
#
# Convention : Reuss Voigt Hill
#
# Bulk Modulus (GPa) = 55.85708 64.38453 60.12081
# Shear Modulus (GPa) = -6.65825 19.11234 6.22704
#
# Velocity S-wave (km/s) = -1.98371 3.36089 1.91840
# Velocity P-wave (km/s) = 5.26928 7.28785 6.35917
#
# Compressibility (1/GPa) = 0.01790283
#
# Stress axis : x y z
#
# Youngs Moduli (GPa) = 51.69430 76.55062 101.77246
#
# Poissons Ratio (x) = 0.51427 0.15663
# Poissons Ratio (y) = 0.34728 0.39776
# Poissons Ratio (z) = 0.07956 0.29918
#
# Static dielectric constant tensor:
#      x y z
#    x 1.587420 0.000000 -0.009630 
#    y 0.000000 1.609490 0.000000 
#    z -0.009630 0.000000 1.543180 
# 
# From -- ./inp_files/299999.got.cif
#   From: 2010.05.17/outbox.cif.g08.bks.cpg/sg12_150_cif.got.tgz:299999.got - 2010.06.03 13:09:07.
