data_PCOD9170974
_publ_section_title
;
Structure prediction by ZEFSAII (Michael W. Deem and Ramdas Pophale) SiO2 
 PCOD9170974
Probable space group: C 2/M
;
_chemical_formula_sum "Si O2"
_cell_formula_units_Z 48
_cell_length_a 5.599553
_cell_length_b 18.973462
_cell_length_c 21.755843
_cell_angle_alpha 90.000000
_cell_angle_beta 66.220771
_cell_angle_gamma 90.000000
_cell_volume 2115.179428
_symmetry_space_group_name_H-M "C 2/M"
_symmetry_group_IT_number 12
_symmetry_cell_setting 'monoclinic'
loop_
_space_group_symop_operation_xyz
x,y,z
-x,y,-z
-x,-y,-z
x,-y,z
1/2+x,1/2+y,z
1/2-x,1/2+y,-z
1/2-x,1/2-y,-z
1/2+x,1/2-y,z
loop_
_atom_site_type_symbol
_atom_site_label
_atom_site_fract_x
_atom_site_fract_y
_atom_site_fract_z
Si Si1 0.317353 0.669795 0.632481
Si Si2 0.515133 0.122701 0.780448
Si Si3 0.453543 0.394881 0.821419
Si Si4 0.285866 0.419880 0.976030
Si Si5 0.399596 0.168701 0.580038
Si Si6 0.689191 0.754973 0.112852
O O1 0.366602 0.750593 0.607074
O O2 0.606660 0.637502 0.610845
O O3 0.164271 0.665502 0.712284
O O4 0.124205 0.637587 0.600940
O O5 0.738679 0.081010 0.794330
O O6 0.386189 0.173473 0.844878
O O7 0.256159 0.088563 0.777480
O O8 0.391329 0.421900 0.896088
O O9 0.404104 0.309838 0.833026
O O10 0.241836 0.500000 0.004302
O O11 0.500000 0.388809 0.000000
O O12 0.000000 0.386437 0.000000
O O13 0.500000 0.170114 0.500000
O O14 0.497579 0.748762 0.075741
#
# Coordination Sequence:
#
# PCOD9170974 Si02
#       6
#     8   8   8   8   8   8
#     4  10  18  25  41  55  83 120 168 202 219 270
#     4  10  19  28  45  69  94 125 156 193 226 269
#     4  10  19  31  48  70  96 112 147 197 235 265
#     4  10  21  38  59  76  90 116 153 187 229 291
#     4  10  19  27  37  55  86 125 172 210 227 246
#     4   8  16  25  41  59  92 114 146 174 222 251
#
# _framework density 22.693111999999999
#
# number of rings (size 3 to 8) (size 9 to 14) (size 15 to 20)
#    0.000    2.333    0.000    4.500   14.000    0.000 
#    0.000    0.000    0.000   27.000    0.000    0.000 
#    0.000    0.000    0.000    0.000    0.000   96.667 
#
# Total GULP energy -133836.424076 kJ/mol
# GULP energy per Si atom -5576.517670 kJ/mol
# Density = 2.264146 g / cm^3
# Si number density = 22.693112 Si / 1000 Ang^3
#
#
#
# Elastic Constant Matrix: (Units=GPa)
#
#
# Indices 1 2 3 4 5 6 
#
# 1 279.5887 6.9660 20.8491 0.0000 -8.6167 0.0000
# 2 6.9660 45.7705 -2.1524 0.0000 4.3873 0.0000
# 3 20.8491 -2.1524 66.0093 0.0000 -2.2104 0.0000
# 4 0.0000 0.0000 0.0000 46.5810 0.0000 -2.7412
# 5 -8.6167 4.3873 -2.2104 0.0000 41.3908 0.0000
# 6 0.0000 0.0000 0.0000 -2.7412 0.0000 -19.7936
#
#
#
# Elastic Compliance Matrix: (Units=1/GPa)
#
#
# Indices 1 2 3 4 5 6 
#
# 1 0.003705 -0.000694 -0.001167 0.000000 0.000783 0.000000
# 2 -0.000694 0.022230 0.000862 0.000000 -0.002455 0.000000
# 3 -0.001167 0.000862 0.015563 0.000000 0.000497 0.000000
# 4 0.000000 0.000000 0.000000 0.021294 0.000000 -0.002949
# 5 0.000783 -0.002455 0.000497 0.000000 0.024610 0.000000
# 6 0.000000 0.000000 0.000000 -0.002949 0.000000 -0.050113
#
#
# Mechanical properties :
#
#
# Convention : Reuss Voigt Hill
#
# Bulk Modulus (GPa) = 25.31651 49.18822 37.25237
# Shear Modulus (GPa) = 95.32460 38.01602 66.67031
#
# Velocity S-wave (km/s) = 6.48823 4.09739 5.42613
# Velocity P-wave (km/s) = 8.20425 6.64133 7.46381
#
# Compressibility (1/GPa) = 0.03949991
#
# Stress axis : x y z
#
# Youngs Moduli (GPa) = 269.89930 44.98519 64.25652
#
# Poissons Ratio (x) = 0.03121 0.07497
# Poissons Ratio (y) = 0.18725 -0.05537
# Poissons Ratio (z) = 0.31488 -0.03877
#
# Static dielectric constant tensor:
#      x y z
#    x 2.013180 0.000000 -0.010550 
#    y 0.000000 1.856390 0.000000 
#    z -0.010550 0.000000 1.775710 
# 
# From -- ./inp_files/253141.got.cif
#   From: 2010.05.17/outbox.cif.g08.bks.cpg/sg12_127_cif.got.tgz:253141.got - 2010.06.03 13:09:07.
