data_PCOD9170358
_publ_section_title
;
Structure prediction by ZEFSAII (Michael W. Deem and Ramdas Pophale) SiO2 
 PCOD9170358
Probable space group: C 2/M
;
_chemical_formula_sum "Si O2"
_cell_formula_units_Z 48
_cell_length_a 13.408949
_cell_length_b 16.754900
_cell_length_c 9.230136
_cell_angle_alpha 90.000000
_cell_angle_beta 89.392422
_cell_angle_gamma 90.000000
_cell_volume 2073.577447
_symmetry_space_group_name_H-M "C 2/M"
_symmetry_group_IT_number 12
_symmetry_cell_setting 'monoclinic'
loop_
_space_group_symop_operation_xyz
x,y,z
-x,y,-z
-x,-y,-z
x,-y,z
1/2+x,1/2+y,z
1/2-x,1/2+y,-z
1/2-x,1/2-y,-z
1/2+x,1/2-y,z
loop_
_atom_site_type_symbol
_atom_site_label
_atom_site_fract_x
_atom_site_fract_y
_atom_site_fract_z
Si Si1 0.201063 0.500000 0.670594
Si Si2 0.918755 0.174436 0.374153
Si Si3 0.919928 0.000000 0.369730
Si Si4 0.601053 0.500000 0.161839
Si Si5 0.380532 0.169366 0.001901
Si Si6 0.202947 0.328003 0.670368
Si Si7 0.103560 0.826037 0.171580
Si Si8 0.880062 0.500000 0.998305
O O1 0.319168 0.500000 0.706536
O O2 0.174752 0.414313 0.602960
O O3 0.154259 0.500000 0.833337
O O4 0.868899 0.086482 0.372877
O O5 0.844062 0.247974 0.390922
O O6 0.000000 0.176088 0.500000
O O7 0.990290 0.183273 0.230041
O O8 0.000000 0.000000 0.500000
O O9 0.990480 0.000000 0.227319
O O10 0.615129 0.412467 0.093603
O O11 0.359909 0.251401 0.921304
O O12 0.345399 0.084688 0.934035
O O13 0.500000 0.165198 0.000000
O O14 0.339639 0.170332 0.164622
O O15 0.321438 0.326926 0.692802
O O16 0.000000 0.500000 0.000000
#
# Coordination Sequence:
#
# PCOD9170358 Si02
#       8
#     4   8   4   4   8   8   8   4
#     4   8  16  30  49  70  95 129 164 193 232 293
#     4  10  20  35  53  73  97 129 167 205 243 287
#     4   8  16  32  52  68  90 127 167 199 235 289
#     4   8  16  30  48  70  96 128 162 193 239 292
#     4  10  17  31  50  74 101 129 163 198 241 290
#     4  10  19  33  53  75 100 129 163 202 243 290
#     4  10  19  33  52  75 100 129 163 202 244 290
#     4   8  16  26  45  69  95 134 165 184 225 296
#
# _framework density 23.148402000000001
#
# number of rings (size 3 to 8) (size 9 to 14) (size 15 to 20)
#    0.000    2.667    1.667    0.500    0.000    0.667 
#    0.000    2.500    0.000    0.000    0.000    0.000 
#    0.000    0.000    0.000    0.000    0.000    0.000 
#
# Total GULP energy -133779.118224 kJ/mol
# GULP energy per Si atom -5574.129926 kJ/mol
# Density = 2.309572 g / cm^3
# Si number density = 23.148402 Si / 1000 Ang^3
#
#
#
# Elastic Constant Matrix: (Units=GPa)
#
#
# Indices 1 2 3 4 5 6 
#
# 1 79.9822 29.2971 5.7617 0.0000 -19.6943 0.0000
# 2 29.2971 311.3739 33.4600 0.0000 11.1300 0.0000
# 3 5.7617 33.4600 30.6126 0.0000 -14.1807 0.0000
# 4 0.0000 0.0000 0.0000 19.5600 0.0000 17.3514
# 5 -19.6943 11.1300 -14.1807 0.0000 27.8914 0.0000
# 6 0.0000 0.0000 0.0000 17.3514 0.0000 13.6322
#
#
#
# Elastic Compliance Matrix: (Units=1/GPa)
#
#
# Indices 1 2 3 4 5 6 
#
# 1 0.017485 -0.003204 0.008532 0.000000 0.017963 0.000000
# 2 -0.003204 0.004727 -0.008484 0.000000 -0.008462 0.000000
# 3 0.008532 -0.008484 0.058461 0.000000 0.039133 0.000000
# 4 0.000000 0.000000 0.000000 -0.395995 0.000000 0.504032
# 5 0.017963 -0.008462 0.039133 0.000000 0.071810 0.000000
# 6 0.000000 0.000000 0.000000 0.504032 0.000000 -0.568189
#
#
# Mechanical properties :
#
#
# Convention : Reuss Voigt Hill
#
# Bulk Modulus (GPa) = 13.44787 62.11182 37.77985
# Shear Modulus (GPa) = -6.40530 35.78006 14.68738
#
# Velocity S-wave (km/s) = -1.66525 3.93578 2.52164
# Velocity P-wave (km/s) = 1.45760 6.89522 4.98341
#
# Compressibility (1/GPa) = 0.07436119
#
# Stress axis : x y z
#
# Youngs Moduli (GPa) = 57.19266 211.54286 17.10547
#
# Poissons Ratio (x) = 0.67779 -0.14594
# Poissons Ratio (y) = 0.18325 0.14512
# Poissons Ratio (z) = -0.48797 1.79467
#
# Static dielectric constant tensor:
#      x y z
#    x 1.861960 0.000000 -0.030240 
#    y 0.000000 1.977420 0.000000 
#    z -0.030240 0.000000 1.897670 
# 
# From -- ./inp_files/142951.got.cif
#   From: 2010.05.17/outbox.cif.g08.bks.cpg/sg12_72_cif.got.tgz:142951.got - 2010.06.03 13:09:07.
