data_PCOD9170737
_publ_section_title
;
Structure prediction by ZEFSAII (Michael W. Deem and Ramdas Pophale) SiO2 
 PCOD9170737
Probable space group: C 2/M
;
_chemical_formula_sum "Si O2"
_cell_formula_units_Z 52
_cell_length_a 5.202851
_cell_length_b 30.880844
_cell_length_c 16.025273
_cell_angle_alpha 90.000000
_cell_angle_beta 89.021567
_cell_angle_gamma 90.000000
_cell_volume 2574.380039
_symmetry_space_group_name_H-M "C 2/M"
_symmetry_group_IT_number 12
_symmetry_cell_setting 'monoclinic'
loop_
_space_group_symop_operation_xyz
x,y,z
-x,y,-z
-x,-y,-z
x,-y,z
1/2+x,1/2+y,z
1/2-x,1/2+y,-z
1/2-x,1/2-y,-z
1/2+x,1/2-y,z
loop_
_atom_site_type_symbol
_atom_site_label
_atom_site_fract_x
_atom_site_fract_y
_atom_site_fract_z
Si Si1 0.940499 0.848350 0.262371
Si Si2 0.673384 0.547723 0.136706
Si Si3 0.485234 0.721571 0.595492
Si Si4 0.932330 0.595878 0.278111
Si Si5 0.255188 0.549706 0.554424
Si Si6 0.131773 0.132489 0.908880
Si Si7 0.000000 0.581847 0.000000
O O1 0.941068 0.812983 0.334771
O O2 0.718760 0.884510 0.282601
O O3 0.882181 0.834042 0.166668
O O4 0.231407 0.866003 0.259160
O O5 0.564769 0.500000 0.152484
O O6 0.880631 0.559537 0.207322
O O7 0.484397 0.588352 0.130329
O O8 0.797924 0.550953 0.044485
O O9 0.500000 0.704331 0.500000
O O10 0.197189 0.740392 0.604103
O O11 0.823785 0.576477 0.364484
O O12 0.500000 0.566248 0.500000
O O13 0.319597 0.500000 0.578464
O O14 0.000000 0.548894 0.500000
O O15 0.412960 0.115710 0.929946
O O16 0.000000 0.141873 0.000000
#
# Coordination Sequence:
#
# PCOD9170737 Si02
#       7
#     8   8   8   8   8   8   4
#     4  11  22  39  62  89 119 153 192 237 291 359
#     4  10  20  32  49  75 112 156 205 255 298 340
#     4  10  22  42  67  96 124 150 180 226 294 366
#     4  11  22  37  55  85 116 151 201 247 292 343
#     4  10  21  37  54  74 108 155 201 247 296 340
#     4   9  20  35  53  80 116 160 206 248 303 347
#     4  10  17  34  50  74 110 152 202 254 294 346
#
# _framework density 20.199034999999999
#
# number of rings (size 3 to 8) (size 9 to 14) (size 15 to 20)
#    0.000    1.846    1.538    2.538    0.000    5.231 
#    0.000    1.538    0.000    0.923    0.000    0.000 
#    0.000    0.000    0.000    0.000    0.000    0.000 
#
# Total GULP energy -144776.221010 kJ/mol
# GULP energy per Si atom -5568.316193 kJ/mol
# Density = 2.015306 g / cm^3
# Si number density = 20.199035 Si / 1000 Ang^3
#
#
#
# Elastic Constant Matrix: (Units=GPa)
#
#
# Indices 1 2 3 4 5 6 
#
# 1 73.9064 0.1577 15.3418 0.0000 -5.7931 0.0000
# 2 0.1577 31.4025 40.1157 0.0000 4.8888 0.0000
# 3 15.3418 40.1157 146.3716 0.0000 1.2032 0.0000
# 4 0.0000 0.0000 0.0000 28.1479 0.0000 14.2707
# 5 -5.7931 4.8888 1.2032 0.0000 37.3520 0.0000
# 6 0.0000 0.0000 0.0000 14.2707 0.0000 34.3989
#
#
#
# Elastic Compliance Matrix: (Units=1/GPa)
#
#
# Indices 1 2 3 4 5 6 
#
# 1 0.014124 0.002365 -0.002145 0.000000 0.001950 0.000000
# 2 0.002365 0.050770 -0.014114 0.000000 -0.005823 0.000000
# 3 -0.002145 -0.014114 0.010915 0.000000 0.001163 0.000000
# 4 0.000000 0.000000 0.000000 0.044989 0.000000 -0.018664
# 5 0.001950 -0.005823 0.001163 0.000000 0.027800 0.000000
# 6 0.000000 0.000000 0.000000 -0.018664 0.000000 0.036814
#
#
# Mechanical properties :
#
#
# Convention : Reuss Voigt Hill
#
# Bulk Modulus (GPa) = 20.82409 40.32343 30.57376
# Shear Modulus (GPa) = 21.81440 33.05076 27.43258
#
# Velocity S-wave (km/s) = 3.28986 4.04945 3.68926
# Velocity P-wave (km/s) = 4.97622 6.47074 5.77205
#
# Compressibility (1/GPa) = 0.04802132
#
# Stress axis : x y z
#
# Youngs Moduli (GPa) = 70.80335 19.69668 91.61321
#
# Poissons Ratio (x) = -0.04659 0.19647
# Poissons Ratio (y) = -0.16746 1.29307
# Poissons Ratio (z) = 0.15184 0.27801
#
# Static dielectric constant tensor:
#      x y z
#    x 1.765770 0.000000 0.016320 
#    y 0.000000 1.717980 0.000000 
#    z 0.016320 0.000000 1.803490 
# 
# From -- ./inp_files/192586.got.cif
#   From: 2010.05.17/outbox.cif.g08.bks.cpg/sg12_97_cif.got.tgz:192586.got - 2010.06.03 13:09:07.
