data_PCOD9170567
_publ_section_title
;
Structure prediction by ZEFSAII (Michael W. Deem and Ramdas Pophale) SiO2 
 PCOD9170567
Probable space group: C 2/M
;
_chemical_formula_sum "Si O2"
_cell_formula_units_Z 60
_cell_length_a 14.242839
_cell_length_b 23.784181
_cell_length_c 18.656822
_cell_angle_alpha 90.000000
_cell_angle_beta 151.014321
_cell_angle_gamma 90.000000
_cell_volume 3062.652860
_symmetry_space_group_name_H-M "C 2/M"
_symmetry_group_IT_number 12
_symmetry_cell_setting 'monoclinic'
loop_
_space_group_symop_operation_xyz
x,y,z
-x,y,-z
-x,-y,-z
x,-y,z
1/2+x,1/2+y,z
1/2-x,1/2+y,-z
1/2-x,1/2-y,-z
1/2+x,1/2-y,z
loop_
_atom_site_type_symbol
_atom_site_label
_atom_site_fract_x
_atom_site_fract_y
_atom_site_fract_z
Si Si1 0.159408 0.652407 0.413008
Si Si2 0.844751 0.268126 0.721758
Si Si3 0.790778 0.564554 0.336503
Si Si4 0.326459 0.064287 0.187979
Si Si5 0.000000 0.861732 0.000000
Si Si6 0.676400 0.224204 0.743846
Si Si7 0.543506 0.354094 0.265143
Si Si8 0.353971 0.182116 0.964263
O O1 0.208710 0.687884 0.375469
O O2 0.343562 0.637972 0.584177
O O3 0.022108 0.598903 0.303793
O O4 0.019597 0.692878 0.367169
O O5 0.681324 0.255252 0.671743
O O6 0.908873 0.208935 0.730495
O O7 0.021889 0.293889 0.886922
O O8 0.775288 0.500000 0.351434
O O9 0.796554 0.563151 0.254486
O O10 0.633096 0.602070 0.269638
O O11 0.000000 0.587611 0.500000
O O12 0.327152 0.000000 0.162905
O O13 0.137115 0.100404 0.040849
O O14 0.149473 0.821290 0.140834
O O15 0.739841 0.266916 0.848570
O O16 0.313719 0.359067 0.121809
O O17 0.500000 0.160429 0.000000
#
# Coordination Sequence:
#
# PCOD9170567 Si02
#       8
#     8   8   8   8   4   8   8   8
#     4  11  23  35  53  88 121 152 196 245 294 354
#     4  11  22  35  57  80 118 160 195 240 296 351
#     4  10  21  38  59  85 118 156 191 230 298 359
#     4  10  21  36  55  83 123 157 191 240 293 354
#     4  10  17  32  56  78 112 156 199 224 278 352
#     4  10  20  36  52  79 119 154 194 238 292 348
#     4  12  22  35  58  85 115 152 202 241 285 357
#     4  10  22  40  55  77 113 158 200 239 290 346
#
# _framework density 19.590858999999998
#
# number of rings (size 3 to 8) (size 9 to 14) (size 15 to 20)
#    0.000    1.467    4.667    2.600    0.000    1.067 
#    2.400    0.000    0.000    0.400    0.000    2.800 
#    0.000    8.533    0.000    0.000    0.000    0.000 
#
# Total GULP energy -167691.497644 kJ/mol
# GULP energy per Si atom -5589.716588 kJ/mol
# Density = 1.954627 g / cm^3
# Si number density = 19.590859 Si / 1000 Ang^3
#
#
#
# Elastic Constant Matrix: (Units=GPa)
#
#
# Indices 1 2 3 4 5 6 
#
# 1 52.1795 42.8878 19.5248 0.0017 -8.2745 0.0018
# 2 42.8878 78.4686 13.7880 -0.0017 8.2742 -0.0011
# 3 19.5248 13.7880 78.8811 -0.0012 -0.5504 -0.0036
# 4 0.0017 -0.0017 -0.0012 12.3797 0.0000 2.6211
# 5 -8.2745 8.2742 -0.5504 0.0000 25.4989 0.0005
# 6 0.0018 -0.0011 -0.0036 2.6211 0.0005 19.6849
#
#
#
# Elastic Compliance Matrix: (Units=1/GPa)
#
#
# Indices 1 2 3 4 5 6 
#
# 1 0.048737 -0.028020 -0.006993 -0.000010 0.024757 -0.000007
# 2 -0.028020 0.029749 0.001605 0.000007 -0.018711 0.000004
# 3 -0.006993 0.001605 0.014110 0.000002 -0.002486 0.000003
# 4 -0.000010 0.000007 0.000002 0.083121 -0.000006 -0.011068
# 5 0.024757 -0.018711 -0.002486 -0.000006 0.053269 -0.000004
# 6 -0.000007 0.000004 0.000003 -0.011068 -0.000004 0.052274
#
#
# Mechanical properties :
#
#
# Convention : Reuss Voigt Hill
#
# Bulk Modulus (GPa) = 38.78768 40.21451 39.50110
# Shear Modulus (GPa) = 14.01853 20.40127 17.20990
#
# Velocity S-wave (km/s) = 2.67791 3.23052 2.96711
# Velocity P-wave (km/s) = 5.42249 5.87254 5.65200
#
# Compressibility (1/GPa) = 0.02578138
#
# Stress axis : x y z
#
# Youngs Moduli (GPa) = 20.51816 33.61422 70.86966
#
# Poissons Ratio (x) = 0.94185 0.49560
# Poissons Ratio (y) = 0.57491 -0.11374
# Poissons Ratio (z) = 0.14349 -0.05395
#
# Static dielectric constant tensor:
#      x y z
#    x 1.706800 0.000000 -0.016150 
#    y 0.000000 1.702750 0.000000 
#    z -0.016150 0.000000 1.745720 
# 
# From -- ./inp_files/312375.got.cif
#   From: 2010.05.17/outbox.cif.g08.bks.cpg/sg12_157_cif.got.tgz:312375.got - 2010.06.03 13:09:07.
