data_PCOD9170970
_publ_section_title
;
Structure prediction by ZEFSAII (Michael W. Deem and Ramdas Pophale) SiO2 
 PCOD9170970
Probable space group: C 2/M
;
_chemical_formula_sum "Si O2"
_cell_formula_units_Z 56
_cell_length_a 25.138142
_cell_length_b 9.043696
_cell_length_c 18.360613
_cell_angle_alpha 90.000000
_cell_angle_beta 61.421276
_cell_angle_gamma 90.000000
_cell_volume 3665.559640
_symmetry_space_group_name_H-M "C 2/M"
_symmetry_group_IT_number 12
_symmetry_cell_setting 'monoclinic'
loop_
_space_group_symop_operation_xyz
x,y,z
-x,y,-z
-x,-y,-z
x,-y,z
1/2+x,1/2+y,z
1/2-x,1/2+y,-z
1/2-x,1/2-y,-z
1/2+x,1/2-y,z
loop_
_atom_site_type_symbol
_atom_site_label
_atom_site_fract_x
_atom_site_fract_y
_atom_site_fract_z
Si Si1 0.038718 0.174804 0.215331
Si Si2 0.543290 0.821466 0.363750
Si Si3 0.604245 0.324638 0.720869
Si Si4 0.088289 0.320949 0.487899
Si Si5 0.416254 0.826720 0.119096
Si Si6 0.684154 0.178207 0.544033
Si Si7 0.938972 0.672674 0.945359
O O1 0.966309 0.204113 0.253523
O O2 0.059227 0.251439 0.276314
O O3 0.070637 0.237714 0.122100
O O4 0.046835 0.000000 0.214287
O O5 0.583785 0.774672 0.406600
O O6 0.474376 0.777919 0.431040
O O7 0.544803 0.000000 0.357078
O O8 0.614888 0.500000 0.708280
O O9 0.613005 0.268632 0.797824
O O10 0.646536 0.235972 0.637973
O O11 0.087833 0.500000 0.487394
O O12 0.145428 0.274694 0.498107
O O13 0.488776 0.819448 0.085835
O O14 0.399402 0.000000 0.136303
O O15 0.407264 0.777460 0.041292
O O16 0.750000 0.250000 0.500000
O O17 0.687849 0.000000 0.542828
O O18 0.924553 0.500000 0.943573
#
# Coordination Sequence:
#
# PCOD9170970 Si02
#       7
#     8   8   8   8   8   8   8
#     4  10  18  25  37  62  92 117 143 177 218 260
#     4   9  15  28  47  64  82 111 149 182 214 260
#     4  10  19  29  41  60  86 116 148 179 218 265
#     4   8  16  29  47  65  81 108 148 185 218 258
#     4   8  14  25  40  57  78 109 148 183 213 250
#     4  11  21  34  49  65  86 114 148 188 225 260
#     4   8  14  24  38  56  80 113 148 177 209 254
#
# _framework density 15.277341
#
# number of rings (size 3 to 8) (size 9 to 14) (size 15 to 20)
#    0.000    2.857    1.429    3.000    0.000    1.714 
#    0.000    5.714    0.000    0.000    0.000    0.000 
#    0.000    1.143    0.000    3.429    0.000    4.571 
#
# Total GULP energy -155885.441956 kJ/mol
# GULP energy per Si atom -5567.337213 kJ/mol
# Density = 1.524257 g / cm^3
# Si number density = 15.277341 Si / 1000 Ang^3
#
#
#
# Elastic Constant Matrix: (Units=GPa)
#
#
# Indices 1 2 3 4 5 6 
#
# 1 74.6397 31.2960 55.6051 0.0000 19.5098 0.0000
# 2 31.2960 43.3417 50.4634 0.0000 12.0474 0.0000
# 3 55.6051 50.4634 109.6968 0.0000 41.0161 0.0000
# 4 0.0000 0.0000 0.0000 13.4560 0.0000 -4.6129
# 5 19.5098 12.0474 41.0161 0.0000 26.0957 0.0000
# 6 0.0000 0.0000 0.0000 -4.6129 0.0000 10.2675
#
#
#
# Elastic Compliance Matrix: (Units=1/GPa)
#
#
# Indices 1 2 3 4 5 6 
#
# 1 0.022332 -0.006930 -0.007484 0.000000 -0.001734 0.000000
# 2 -0.006930 0.065429 -0.041787 0.000000 0.040654 0.000000
# 3 -0.007484 -0.041787 0.055364 0.000000 -0.062133 0.000000
# 4 0.000000 0.000000 0.000000 0.087846 0.000000 0.039467
# 5 -0.001734 0.040654 -0.062133 0.000000 0.118506 0.000000
# 6 0.000000 0.000000 0.000000 0.039467 0.000000 0.115126
#
#
# Mechanical properties :
#
#
# Convention : Reuss Voigt Hill
#
# Bulk Modulus (GPa) = 32.54759 55.82303 44.18531
# Shear Modulus (GPa) = 8.51433 15.98477 12.24955
#
# Velocity S-wave (km/s) = 2.36332 3.23817 2.83470
# Velocity P-wave (km/s) = 5.36635 7.11338 6.30071
#
# Compressibility (1/GPa) = 0.03072424
#
# Stress axis : x y z
#
# Youngs Moduli (GPa) = 44.77922 15.28368 18.06217
#
# Poissons Ratio (x) = 0.10591 0.13517
# Poissons Ratio (y) = 0.31031 0.75476
# Poissons Ratio (z) = 0.33511 0.63866
#
# Static dielectric constant tensor:
#      x y z
#    x 1.497080 0.000000 0.025550 
#    y 0.000000 1.504380 0.000000 
#    z 0.025550 0.000000 1.515550 
# 
# From -- ./inp_files/287320.got.cif
#   From: 2010.05.17/outbox.cif.g08.bks.cpg/sg12_144_cif.got.tgz:287320.got - 2010.06.03 13:09:07.
