data_PCOD9170559
_publ_section_title
;
Structure prediction by ZEFSAII (Michael W. Deem and Ramdas Pophale) SiO2 
 PCOD9170559
Probable space group: C 2/M
;
_chemical_formula_sum "Si O2"
_cell_formula_units_Z 56
_cell_length_a 22.564462
_cell_length_b 14.817090
_cell_length_c 9.854162
_cell_angle_alpha 90.000000
_cell_angle_beta 72.700260
_cell_angle_gamma 90.000000
_cell_volume 3145.594907
_symmetry_space_group_name_H-M "C 2/M"
_symmetry_group_IT_number 12
_symmetry_cell_setting 'monoclinic'
loop_
_space_group_symop_operation_xyz
x,y,z
-x,y,-z
-x,-y,-z
x,-y,z
1/2+x,1/2+y,z
1/2-x,1/2+y,-z
1/2-x,1/2-y,-z
1/2+x,1/2-y,z
loop_
_atom_site_type_symbol
_atom_site_label
_atom_site_fract_x
_atom_site_fract_y
_atom_site_fract_z
Si Si1 0.704630 0.099264 0.850583
Si Si2 0.318715 0.898458 0.594901
Si Si3 0.693311 0.322020 0.056106
Si Si4 0.879042 0.346381 0.836880
Si Si5 0.514446 0.104131 0.830080
Si Si6 0.363184 0.784438 0.319127
Si Si7 0.325725 0.603176 0.232342
O O1 0.774252 0.111182 0.859841
O O2 0.686242 0.174515 0.754979
O O3 0.696125 0.000000 0.796929
O O4 0.657018 0.110256 0.009489
O O5 0.349666 0.885258 0.720453
O O6 0.341693 0.820459 0.479264
O O7 0.244921 0.892710 0.665670
O O8 0.333703 0.000000 0.534261
O O9 0.636779 0.260211 0.144150
O O10 0.750000 0.250000 0.000000
O O11 0.677654 0.368276 0.924141
O O12 0.951208 0.368090 0.798440
O O13 0.571297 0.168988 0.757411
O O14 0.530045 0.000000 0.787621
O O15 0.500000 0.109646 0.000000
O O16 0.363530 0.678070 0.290216
O O17 0.347616 0.500000 0.229511
#
# Coordination Sequence:
#
# PCOD9170559 Si02
#       7
#     8   8   8   8   8   8   8
#     4  11  18  31  56  81 110 143 181 225 274 331
#     4  11  22  35  55  85 118 147 178 227 285 344
#     4  10  17  32  55  83 105 139 185 229 270 325
#     4  11  20  35  56  80 116 148 187 218 278 337
#     4  11  21  34  56  82 112 150 188 229 277 336
#     4  12  23  37  52  84 116 147 189 234 275 330
#     4  11  21  37  59  82 111 149 189 233 290 337
#
# _framework density 17.802674
#
# number of rings (size 3 to 8) (size 9 to 14) (size 15 to 20)
#    0.000    1.000    7.143    3.429    0.000    0.571 
#    0.000    1.429    0.000    5.571    0.000    1.000 
#    0.000    0.000    0.000    0.000    0.000    0.000 
#
# Total GULP energy -156334.611173 kJ/mol
# GULP energy per Si atom -5583.378970 kJ/mol
# Density = 1.776215 g / cm^3
# Si number density = 17.802674 Si / 1000 Ang^3
#
#
#
# Elastic Constant Matrix: (Units=GPa)
#
#
# Indices 1 2 3 4 5 6 
#
# 1 60.3963 35.6076 3.6770 0.0000 -10.5089 0.0000
# 2 35.6076 134.1102 20.3264 0.0000 -6.5049 0.0000
# 3 3.6770 20.3264 44.0579 0.0000 6.2246 0.0000
# 4 0.0000 0.0000 0.0000 16.0015 0.0000 1.2022
# 5 -10.5089 -6.5049 6.2246 0.0000 14.4998 0.0000
# 6 0.0000 0.0000 0.0000 1.2022 0.0000 19.6164
#
#
#
# Elastic Compliance Matrix: (Units=1/GPa)
#
#
# Indices 1 2 3 4 5 6 
#
# 1 0.022073 -0.004912 -0.001623 0.000000 0.014491 0.000000
# 2 -0.004912 0.009548 -0.004362 0.000000 0.002596 0.000000
# 3 -0.001623 -0.004362 0.026921 0.000000 -0.014690 0.000000
# 4 0.000000 0.000000 0.000000 0.062783 0.000000 -0.003848
# 5 0.014491 0.002596 -0.014690 0.000000 0.086940 0.000000
# 6 0.000000 0.000000 0.000000 -0.003848 0.000000 0.051213
#
#
# Mechanical properties :
#
#
# Convention : Reuss Voigt Hill
#
# Bulk Modulus (GPa) = 27.21248 39.75402 33.48325
# Shear Modulus (GPa) = 17.03454 21.95379 19.49417
#
# Velocity S-wave (km/s) = 3.09666 3.51547 3.31269
# Velocity P-wave (km/s) = 5.30137 6.23353 5.78625
#
# Compressibility (1/GPa) = 0.03674784
#
# Stress axis : x y z
#
# Youngs Moduli (GPa) = 45.30337 104.73765 37.14621
#
# Poissons Ratio (x) = 0.51445 0.06031
# Poissons Ratio (y) = 0.22252 0.16202
# Poissons Ratio (z) = 0.07355 0.45683
#
# Static dielectric constant tensor:
#      x y z
#    x 1.597650 0.000000 0.011230 
#    y 0.000000 1.667110 0.000000 
#    z 0.011230 0.000000 1.611130 
# 
# From -- ./inp_files/96280.got.cif
#   From: 2010.05.17/outbox.cif.g08.bks.cpg/sg12_49_cif.got.tgz:96280.got - 2010.06.03 13:09:07.
