data_PCOD9170366
_publ_section_title
;
Structure prediction by ZEFSAII (Michael W. Deem and Ramdas Pophale) SiO2 
 PCOD9170366
Probable space group: C 2/M
;
_chemical_formula_sum "Si O2"
_cell_formula_units_Z 52
_cell_length_a 20.338943
_cell_length_b 10.773063
_cell_length_c 10.789023
_cell_angle_alpha 90.000000
_cell_angle_beta 75.322366
_cell_angle_gamma 90.000000
_cell_volume 2286.866683
_symmetry_space_group_name_H-M "C 2/M"
_symmetry_group_IT_number 12
_symmetry_cell_setting 'monoclinic'
loop_
_space_group_symop_operation_xyz
x,y,z
-x,y,-z
-x,-y,-z
x,-y,z
1/2+x,1/2+y,z
1/2-x,1/2+y,-z
1/2-x,1/2-y,-z
1/2+x,1/2-y,z
loop_
_atom_site_type_symbol
_atom_site_label
_atom_site_fract_x
_atom_site_fract_y
_atom_site_fract_z
Si Si1 0.696634 0.500000 0.116238
Si Si2 0.894892 0.855718 0.106971
Si Si3 0.474875 0.353188 0.329055
Si Si4 0.836652 0.500000 0.939832
Si Si5 0.603090 0.257781 0.149856
Si Si6 0.716821 0.258655 0.685832
Si Si7 0.178552 0.500000 0.771516
Si Si8 0.344905 0.645396 0.531233
O O1 0.653257 0.375359 0.136700
O O2 0.745161 0.500000 0.211814
O O3 0.754996 0.500000 0.984046
O O4 0.935050 0.842746 0.216538
O O5 0.817342 0.815586 0.175614
O O6 0.898516 0.000000 0.070374
O O7 0.922639 0.776837 0.979859
O O8 0.490690 0.500000 0.338502
O O9 0.543246 0.277652 0.276031
O O10 0.421251 0.314143 0.459855
O O11 0.862755 0.624446 0.864136
O O12 0.859643 0.500000 0.076928
O O13 0.676250 0.126381 0.695579
O O14 0.696727 0.343492 0.579167
O O15 0.796959 0.228778 0.641738
O O16 0.350412 0.500000 0.560534
#
# Coordination Sequence:
#
# PCOD9170366 Si02
#       8
#     4   8   8   4   8   8   4   8
#     4  10  22  36  56  75  97 143 185 215 264 314
#     4  10  18  30  52  80 104 138 183 214 257 315
#     4   9  18  31  50  77 102 138 179 215 254 318
#     4  10  24  34  50  78 108 133 171 225 270 304
#     4  12  19  36  55  75 107 139 176 222 265 319
#     4  10  17  31  51  74 107 138 162 220 265 294
#     4  10  20  34  50  76 107 130 168 223 267 304
#     4   9  18  31  53  78 104 141 176 208 253 319
#
# _framework density 22.738537000000001
#
# number of rings (size 3 to 8) (size 9 to 14) (size 15 to 20)
#    0.462    1.538    3.846    2.308    0.000    1.231 
#    0.000    4.615    1.692    1.846    0.000    0.000 
#    0.000    2.462    0.000    0.000    0.000    0.000 
#
# Total GULP energy -145116.102379 kJ/mol
# GULP energy per Si atom -5581.388553 kJ/mol
# Density = 2.268678 g / cm^3
# Si number density = 22.738537 Si / 1000 Ang^3
#
#
#
# Elastic Constant Matrix: (Units=GPa)
#
#
# Indices 1 2 3 4 5 6 
#
# 1 67.9816 45.5168 48.4779 0.0000 -35.9392 0.0000
# 2 45.5168 122.4172 28.7309 0.0000 -25.6890 0.0000
# 3 48.4779 28.7309 116.6104 0.0000 -35.1402 0.0000
# 4 0.0000 0.0000 0.0000 30.9481 0.0000 -6.0383
# 5 -35.9392 -25.6890 -35.1402 0.0000 57.6909 0.0000
# 6 0.0000 0.0000 0.0000 -6.0383 0.0000 20.2881
#
#
#
# Elastic Compliance Matrix: (Units=1/GPa)
#
#
# Indices 1 2 3 4 5 6 
#
# 1 0.031208 -0.007392 -0.007699 0.000000 0.011460 0.000000
# 2 -0.007392 0.010910 0.000565 0.000000 0.000597 0.000000
# 3 -0.007699 0.000565 0.012576 0.000000 0.003115 0.000000
# 4 0.000000 0.000000 0.000000 0.034304 0.000000 0.010210
# 5 0.011460 0.000597 0.003115 0.000000 0.026637 0.000000
# 6 0.000000 0.000000 0.000000 0.010210 0.000000 0.052329
#
#
# Mechanical properties :
#
#
# Convention : Reuss Voigt Hill
#
# Bulk Modulus (GPa) = 38.99900 61.38448 50.19174
# Shear Modulus (GPa) = 24.32350 34.07099 29.19725
#
# Velocity S-wave (km/s) = 3.27418 3.87509 3.58724
# Velocity P-wave (km/s) = 5.61088 6.86121 6.26730
#
# Compressibility (1/GPa) = 0.02564168
#
# Stress axis : x y z
#
# Youngs Moduli (GPa) = 32.04327 91.65952 79.51687
#
# Poissons Ratio (x) = 0.67752 0.61222
# Poissons Ratio (y) = 0.23686 -0.04492
# Poissons Ratio (z) = 0.24671 -0.05178
#
# Static dielectric constant tensor:
#      x y z
#    x 1.908620 0.000000 0.014570 
#    y 0.000000 1.810130 0.000000 
#    z 0.014570 0.000000 1.926680 
# 
# From -- ./inp_files/239254.got.cif
#   From: 2010.05.17/outbox.cif.g08.bks.cpg/sg12_120_cif.got.tgz:239254.got - 2010.06.03 13:09:07.
