data_PCOD9170848
_publ_section_title
;
Structure prediction by ZEFSAII (Michael W. Deem and Ramdas Pophale) SiO2 
 PCOD9170848
Probable space group: C 2/M
;
_chemical_formula_sum "Si O2"
_cell_formula_units_Z 40
_cell_length_a 14.062135
_cell_length_b 18.342363
_cell_length_c 9.625649
_cell_angle_alpha 90.000000
_cell_angle_beta 122.609232
_cell_angle_gamma 90.000000
_cell_volume 2091.400358
_symmetry_space_group_name_H-M "C 2/M"
_symmetry_group_IT_number 12
_symmetry_cell_setting 'monoclinic'
loop_
_space_group_symop_operation_xyz
x,y,z
-x,y,-z
-x,-y,-z
x,-y,z
1/2+x,1/2+y,z
1/2-x,1/2+y,-z
1/2-x,1/2-y,-z
1/2+x,1/2-y,z
loop_
_atom_site_type_symbol
_atom_site_label
_atom_site_fract_x
_atom_site_fract_y
_atom_site_fract_z
Si Si1 0.829240 0.582558 0.436552
Si Si2 0.445528 0.306099 0.317363
Si Si3 0.793827 0.691169 0.921422
Si Si4 0.833255 0.213500 0.680972
Si Si5 0.946588 0.638935 0.270571
O O1 0.804676 0.500000 0.458608
O O2 0.723048 0.635232 0.338766
O O3 0.886252 0.584322 0.328845
O O4 0.921858 0.618520 0.614187
O O5 0.500000 0.335126 0.500000
O O6 0.326747 0.346243 0.203163
O O7 0.540330 0.301576 0.273489
O O8 0.423953 0.218888 0.321062
O O9 0.834025 0.734447 0.816582
O O10 0.750000 0.750000 0.000000
O O11 0.889459 0.644657 0.074735
O O12 0.750000 0.250000 0.500000
#
# Coordination Sequence:
#
# PCOD9170848 Si02
#       5
#     8   8   8   8   8
#     4  11  21  37  61  88 125 165 204 247 310 384
#     4  11  18  33  57  88 119 152 201 256 300 351
#     4  10  20  33  55  90 122 146 198 261 302 349
#     4  12  20  36  61  90 122 162 204 255 305 360
#     4  10  17  35  55  87 116 151 198 251 308 344
#
# _framework density 19.125941999999998
#
# number of rings (size 3 to 8) (size 9 to 14) (size 15 to 20)
#    0.000    1.200   10.000    1.200    0.000    3.200 
#    0.000    0.000    0.000    7.800    0.000    0.000 
#    0.000    0.000    0.000    0.000    0.000    0.000 
#
# Total GULP energy -111388.910862 kJ/mol
# GULP energy per Si atom -5569.445543 kJ/mol
# Density = 1.908241 g / cm^3
# Si number density = 19.125942 Si / 1000 Ang^3
#
#
#
# Elastic Constant Matrix: (Units=GPa)
#
#
# Indices 1 2 3 4 5 6 
#
# 1 106.1381 14.3310 46.9205 0.0000 1.1034 0.0000
# 2 14.3310 59.7494 24.7679 0.0000 9.1106 0.0000
# 3 46.9205 24.7679 160.6990 0.0000 10.5298 0.0000
# 4 0.0000 0.0000 0.0000 9.9036 0.0000 -1.5913
# 5 1.1034 9.1106 10.5298 0.0000 29.5875 0.0000
# 6 0.0000 0.0000 0.0000 -1.5913 0.0000 8.8646
#
#
#
# Elastic Compliance Matrix: (Units=1/GPa)
#
#
# Indices 1 2 3 4 5 6 
#
# 1 0.010961 -0.001545 -0.003038 0.000000 0.001148 0.000000
# 2 -0.001545 0.018739 -0.002112 0.000000 -0.004961 0.000000
# 3 -0.003038 -0.002112 0.007562 0.000000 -0.001927 0.000000
# 4 0.000000 0.000000 0.000000 0.103972 0.000000 0.018664
# 5 0.001148 -0.004961 -0.001927 0.000000 0.035969 0.000000
# 6 0.000000 0.000000 0.000000 0.018664 0.000000 0.116159
#
#
# Mechanical properties :
#
#
# Convention : Reuss Voigt Hill
#
# Bulk Modulus (GPa) = 41.88877 55.40281 48.64579
# Shear Modulus (GPa) = 15.88773 25.70894 20.79833
#
# Velocity S-wave (km/s) = 2.88530 3.67030 3.30121
# Velocity P-wave (km/s) = 5.74883 6.85505 6.32616
#
# Compressibility (1/GPa) = 0.02387275
#
# Stress axis : x y z
#
# Youngs Moduli (GPa) = 91.23132 53.36440 132.24865
#
# Poissons Ratio (x) = 0.08245 0.40171
# Poissons Ratio (y) = 0.14095 0.27931
# Poissons Ratio (z) = 0.27712 0.11271
#
# Static dielectric constant tensor:
#      x y z
#    x 1.586670 0.000000 -0.260640 
#    y 0.000000 1.657600 0.000000 
#    z -0.260640 0.000000 1.233260 
# 
# From -- ./inp_files/61385.got.cif
#   From: 2010.05.17/outbox.cif.g08.bks.cpg/sg12_31_cif.got.tgz:61385.got - 2010.06.03 13:09:07.
