data_PCOD9170875
_publ_section_title
;
Structure prediction by ZEFSAII (Michael W. Deem and Ramdas Pophale) SiO2 
 PCOD9170875
Probable space group: C 2/M
;
_chemical_formula_sum "Si O2"
_cell_formula_units_Z 52
_cell_length_a 7.347796
_cell_length_b 25.487068
_cell_length_c 11.481973
_cell_angle_alpha 90.000000
_cell_angle_beta 110.951498
_cell_angle_gamma 90.000000
_cell_volume 2008.103864
_symmetry_space_group_name_H-M "C 2/M"
_symmetry_group_IT_number 12
_symmetry_cell_setting 'monoclinic'
loop_
_space_group_symop_operation_xyz
x,y,z
-x,y,-z
-x,-y,-z
x,-y,z
1/2+x,1/2+y,z
1/2-x,1/2+y,-z
1/2-x,1/2-y,-z
1/2+x,1/2-y,z
loop_
_atom_site_type_symbol
_atom_site_label
_atom_site_fract_x
_atom_site_fract_y
_atom_site_fract_z
Si Si1 0.274940 0.695447 0.571752
Si Si2 0.821585 0.811347 0.217515
Si Si3 0.359763 0.500000 0.669867
Si Si4 0.115650 0.696490 0.796382
Si Si5 0.796509 0.500000 0.704274
Si Si6 0.778927 0.386907 0.997631
Si Si7 0.230172 0.914227 0.519510
Si Si8 0.672628 0.500000 0.927271
O O1 0.250000 0.750000 0.500000
O O2 0.496688 0.688006 0.348173
O O3 0.175003 0.697010 0.675410
O O4 0.203547 0.644320 0.488051
O O5 0.837335 0.756068 0.153150
O O6 0.611528 0.812142 0.229252
O O7 0.839945 0.860190 0.134920
O O8 0.562006 0.500000 0.643842
O O9 0.254429 0.448622 0.595852
O O10 0.455515 0.500000 0.819068
O O11 0.226386 0.651669 0.893754
O O12 0.845176 0.447079 0.645514
O O13 0.821919 0.500000 0.848393
O O14 0.711655 0.445982 0.000987
O O15 0.000000 0.387351 0.000000
O O16 0.000000 0.910238 0.500000
#
# Coordination Sequence:
#
# PCOD9170875 Si02
#       8
#     8   8   4   8   4   8   8   4
#     4  12  28  41  69 106 147 187 239 291 353 421
#     4  11  24  47  71 101 141 190 234 292 356 430
#     4   7  14  31  59  96 130 176 232 273 346 427
#     4  11  25  47  68 103 138 190 239 292 352 427
#     4   7  16  31  61  97 132 180 231 275 352 428
#     4  10  23  41  71 102 140 183 240 293 361 430
#     4   9  17  34  60  96 137 181 234 282 334 429
#     4  10  17  35  66 103 135 176 232 295 358 422
#
# _framework density 25.895074999999999
#
# number of rings (size 3 to 8) (size 9 to 14) (size 15 to 20)
#    0.462    1.538    1.538    2.538    2.154    1.231 
#    0.000    1.538    0.000    1.846    0.000    4.308 
#    0.000    0.000    0.000    0.000    0.000    0.000 
#
# Total GULP energy -145634.857888 kJ/mol
# GULP energy per Si atom -5601.340688 kJ/mol
# Density = 2.583614 g / cm^3
# Si number density = 25.895075 Si / 1000 Ang^3
#
#
#
# Elastic Constant Matrix: (Units=GPa)
#
#
# Indices 1 2 3 4 5 6 
#
# 1 69.6746 3.4294 33.0070 0.0000 -14.3935 0.0000
# 2 3.4294 234.3965 77.1412 0.0000 8.6624 0.0000
# 3 33.0070 77.1412 96.2173 0.0000 2.4127 0.0000
# 4 0.0000 0.0000 0.0000 -85.4943 0.0000 103.8643
# 5 -14.3935 8.6624 2.4127 0.0000 36.8746 0.0000
# 6 0.0000 0.0000 0.0000 103.8643 0.0000 -72.7229
#
#
#
# Elastic Compliance Matrix: (Units=1/GPa)
#
#
# Indices 1 2 3 4 5 6 
#
# 1 0.020135 0.002380 -0.009013 0.000000 0.007890 0.000000
# 2 0.002380 0.006118 -0.005719 0.000000 -0.000134 0.000000
# 3 -0.009013 -0.005719 0.018154 0.000000 -0.003363 0.000000
# 4 0.000000 0.000000 0.000000 0.015912 0.000000 0.022725
# 5 0.007890 -0.000134 -0.003363 0.000000 0.030450 0.000000
# 6 0.000000 0.000000 0.000000 0.022725 0.000000 0.018706
#
#
# Mechanical properties :
#
#
# Convention : Reuss Voigt Hill
#
# Bulk Modulus (GPa) = 50.75037 69.71598 60.23317
# Shear Modulus (GPa) = 35.52460 -5.15448 15.18506
#
# Velocity S-wave (km/s) = 3.70789 -1.41239 2.42421
# Velocity P-wave (km/s) = 6.16217 4.93165 5.58092
#
# Compressibility (1/GPa) = 0.01970429
#
# Stress axis : x y z
#
# Youngs Moduli (GPa) = 49.66433 163.44138 55.08352
#
# Poissons Ratio (x) = -0.38902 0.49649
# Poissons Ratio (y) = -0.11821 0.31500
# Poissons Ratio (z) = 0.44765 0.93464
#
# Static dielectric constant tensor:
#      x y z
#    x 2.047990 0.000000 -0.004060 
#    y 0.000000 2.002430 0.000000 
#    z -0.004060 0.000000 2.054890 
# 
# From -- ./inp_files/52632.got.cif
#   From: 2010.05.17/outbox.cif.g08.bks.cpg/sg12_27_cif.got.tgz:52632.got - 2010.06.03 13:09:07.
