data_PCOD9170025
_publ_section_title
;
Structure prediction by ZEFSAII (Michael W. Deem and Ramdas Pophale) SiO2 
 PCOD9170025
Probable space group: C 2/M
;
_chemical_formula_sum "Si O2"
_cell_formula_units_Z 56
_cell_length_a 10.005692
_cell_length_b 25.382839
_cell_length_c 15.849943
_cell_angle_alpha 90.000000
_cell_angle_beta 63.144518
_cell_angle_gamma 90.000000
_cell_volume 3591.305276
_symmetry_space_group_name_H-M "C 2/M"
_symmetry_group_IT_number 12
_symmetry_cell_setting 'monoclinic'
loop_
_space_group_symop_operation_xyz
x,y,z
-x,y,-z
-x,-y,-z
x,-y,z
1/2+x,1/2+y,z
1/2-x,1/2+y,-z
1/2-x,1/2-y,-z
1/2+x,1/2-y,z
loop_
_atom_site_type_symbol
_atom_site_label
_atom_site_fract_x
_atom_site_fract_y
_atom_site_fract_z
Si Si1 0.352262 0.500000 0.916584
Si Si2 0.776233 0.108711 0.218654
Si Si3 0.389681 0.601934 0.798749
Si Si4 0.331654 0.306285 0.070011
Si Si5 0.160515 0.561082 0.411336
Si Si6 0.331773 0.184405 0.062124
Si Si7 0.799707 0.000000 0.121288
Si Si8 0.025525 0.062872 0.589091
O O1 0.327542 0.550829 0.865818
O O2 0.525418 0.500000 0.899230
O O3 0.270415 0.500000 0.029672
O O4 0.759646 0.158561 0.163317
O O5 0.676394 0.101427 0.329943
O O6 0.947762 0.110918 0.203940
O O7 0.746359 0.055375 0.174329
O O8 0.274954 0.649012 0.849446
O O9 0.425586 0.589792 0.690609
O O10 0.341282 0.244785 0.091593
O O11 0.500000 0.325360 0.000000
O O12 0.241340 0.312368 0.009502
O O13 0.179598 0.500000 0.375298
O O14 0.300792 0.570070 0.433614
O O15 0.000000 0.564918 0.500000
O O16 0.500000 0.163891 0.000000
O O17 0.000000 0.080237 0.500000
O O18 0.994611 0.000000 0.602058
#
# Coordination Sequence:
#
# PCOD9170025 Si02
#       8
#     4   8   8   8   8   8   4   8
#     4   9  16  24  44  70 100 128 157 196 239 286
#     4  10  17  29  51  76  97 130 167 202 245 294
#     4  10  17  31  51  72  98 132 168 204 239 293
#     4  10  19  34  53  73  96 133 174 203 239 296
#     4   9  17  31  49  74 104 125 156 207 254 291
#     4  10  21  34  49  72 103 134 167 206 246 284
#     4   9  16  22  41  78 102 118 157 201 240 287
#     4   9  17  31  52  72  95 132 170 197 236 302
#
# _framework density 15.593216
#
# number of rings (size 3 to 8) (size 9 to 14) (size 15 to 20)
#    0.000    2.429    2.857    0.857    2.000    0.000 
#    2.571    0.357    0.000    0.857    0.000    4.000 
#    0.000    0.000    0.000    0.000    0.000    0.000 
#
# Total GULP energy -155915.159382 kJ/mol
# GULP energy per Si atom -5568.398549 kJ/mol
# Density = 1.555772 g / cm^3
# Si number density = 15.593216 Si / 1000 Ang^3
#
#
#
# Elastic Constant Matrix: (Units=GPa)
#
#
# Indices 1 2 3 4 5 6 
#
# 1 40.0045 16.2059 41.5648 0.0000 -1.9400 0.0000
# 2 16.2059 63.1057 53.2389 0.0000 3.2799 0.0000
# 3 41.5648 53.2389 120.3850 0.0000 11.3795 0.0000
# 4 0.0000 0.0000 0.0000 11.9905 0.0000 -5.1511
# 5 -1.9400 3.2799 11.3795 0.0000 25.1032 0.0000
# 6 0.0000 0.0000 0.0000 -5.1511 0.0000 3.6880
#
#
#
# Elastic Compliance Matrix: (Units=1/GPa)
#
#
# Indices 1 2 3 4 5 6 
#
# 1 0.041583 0.002746 -0.016551 0.000000 0.010357 0.000000
# 2 0.002746 0.025540 -0.012482 0.000000 0.002534 0.000000
# 3 -0.016551 -0.012482 0.020381 0.000000 -0.008887 0.000000
# 4 0.000000 0.000000 0.000000 0.208511 0.000000 0.291229
# 5 0.010357 0.002534 -0.008887 0.000000 0.044334 0.000000
# 6 0.000000 0.000000 0.000000 0.291229 0.000000 0.677906
#
#
# Mechanical properties :
#
#
# Convention : Reuss Voigt Hill
#
# Bulk Modulus (GPa) = 28.62837 49.50158 39.06498
# Shear Modulus (GPa) = 4.61905 15.65538 10.13721
#
# Velocity S-wave (km/s) = 1.72298 3.17201 2.55248
# Velocity P-wave (km/s) = 4.72838 6.72533 5.81324
#
# Compressibility (1/GPa) = 0.03493038
#
# Stress axis : x y z
#
# Youngs Moduli (GPa) = 24.04813 39.15363 49.06453
#
# Poissons Ratio (x) = -0.10750 0.81205
# Poissons Ratio (y) = -0.06603 0.61245
# Poissons Ratio (z) = 0.39801 0.48873
#
# Static dielectric constant tensor:
#      x y z
#    x 1.521160 0.000000 0.001710 
#    y 0.000000 1.525620 0.000000 
#    z 0.001710 0.000000 1.515910 
# 
# From -- ./inp_files/199739.got.cif
#   From: 2010.05.17/outbox.cif.g08.bks.cpg/sg12_100_cif.got.tgz:199739.got - 2010.06.03 13:09:07.
