data_PCOD9170461
_publ_section_title
;
Structure prediction by ZEFSAII (Michael W. Deem and Ramdas Pophale) SiO2 
 PCOD9170461
Probable space group: C 2/M
;
_chemical_formula_sum "Si O2"
_cell_formula_units_Z 64
_cell_length_a 14.554777
_cell_length_b 18.623506
_cell_length_c 10.985260
_cell_angle_alpha 90.000000
_cell_angle_beta 98.139707
_cell_angle_gamma 90.000000
_cell_volume 2947.677529
_symmetry_space_group_name_H-M "C 2/M"
_symmetry_group_IT_number 12
_symmetry_cell_setting 'monoclinic'
loop_
_space_group_symop_operation_xyz
x,y,z
-x,y,-z
-x,-y,-z
x,-y,z
1/2+x,1/2+y,z
1/2-x,1/2+y,-z
1/2-x,1/2-y,-z
1/2+x,1/2-y,z
loop_
_atom_site_type_symbol
_atom_site_label
_atom_site_fract_x
_atom_site_fract_y
_atom_site_fract_z
Si Si1 0.013315 0.730419 0.130584
Si Si2 0.893273 0.083756 0.633474
Si Si3 0.879642 0.416205 0.604497
Si Si4 0.239075 0.081116 0.154955
Si Si5 0.908200 0.584477 0.329788
Si Si6 0.967150 0.786662 0.357344
Si Si7 0.779240 0.818511 0.423733
Si Si8 0.660076 0.704861 0.013937
O O1 0.999368 0.724489 0.271509
O O2 0.114152 0.764702 0.129778
O O3 0.928006 0.785910 0.089815
O O4 0.000000 0.684144 0.000000
O O5 0.830313 0.082951 0.742869
O O6 0.830725 0.122085 0.518482
O O7 0.981065 0.137623 0.662241
O O8 0.916041 0.000000 0.609924
O O9 0.848049 0.500000 0.600833
O O10 0.889830 0.391446 0.464703
O O11 0.807844 0.360802 0.648275
O O12 0.983069 0.416691 0.677401
O O13 0.336440 0.115588 0.218634
O O14 0.192634 0.125013 0.039520
O O15 0.254288 0.000000 0.118641
O O16 0.881121 0.500000 0.330340
O O17 0.856720 0.794096 0.342893
O O18 0.000000 0.767991 0.500000
O O19 0.750000 0.750000 0.500000
O O20 0.750000 0.750000 0.000000
#
# Coordination Sequence:
#
# PCOD9170461 Si02
#       8
#     8   8   8   8   8   8   8   8
#     4   8  19  39  60  86 117 152 209 252 296 374
#     4  10  19  36  59  83 117 165 210 253 309 384
#     4   9  16  32  52  76 113 160 208 249 299 373
#     4  10  17  31  60  93 118 150 201 261 311 365
#     4   8  15  28  53  82 110 149 200 251 300 363
#     4  10  21  39  57  85 127 158 201 259 314 374
#     4  11  23  34  48  81 127 169 203 256 319 371
#     4   9  19  36  64  87 116 160 205 252 299 371
#
# _framework density 21.712009999999999
#
# number of rings (size 3 to 8) (size 9 to 14) (size 15 to 20)
#    0.750    1.750    2.500    1.125    0.000    3.750 
#    6.750    1.875    2.750    0.000    0.000    1.750 
#    0.000    2.000    0.000    0.000    0.000    0.125 
#
# Total GULP energy -178238.017312 kJ/mol
# GULP energy per Si atom -5569.938041 kJ/mol
# Density = 2.166259 g / cm^3
# Si number density = 21.712010 Si / 1000 Ang^3
#
#
#
# Elastic Constant Matrix: (Units=GPa)
#
#
# Indices 1 2 3 4 5 6 
#
# 1 139.8134 31.0136 9.1028 0.0000 -9.8661 0.0000
# 2 31.0136 109.5551 12.7504 0.0000 -0.3919 0.0000
# 3 9.1028 12.7504 45.1622 0.0000 -11.2052 0.0000
# 4 0.0000 0.0000 0.0000 9.7051 0.0000 3.0074
# 5 -9.8661 -0.3919 -11.2052 0.0000 26.2166 0.0000
# 6 0.0000 0.0000 0.0000 3.0074 0.0000 17.3453
#
#
#
# Elastic Compliance Matrix: (Units=1/GPa)
#
#
# Indices 1 2 3 4 5 6 
#
# 1 0.007852 -0.002181 -0.000270 0.000000 0.002807 0.000000
# 2 -0.002181 0.010073 -0.002875 0.000000 -0.001899 0.000000
# 3 -0.000270 -0.002875 0.025698 0.000000 0.010839 0.000000
# 4 0.000000 0.000000 0.000000 0.108889 0.000000 -0.018880
# 5 0.002807 -0.001899 0.010839 0.000000 0.043804 0.000000
# 6 0.000000 0.000000 0.000000 -0.018880 0.000000 0.060926
#
#
# Mechanical properties :
#
#
# Convention : Reuss Voigt Hill
#
# Bulk Modulus (GPa) = 30.33179 44.47382 37.40281
# Shear Modulus (GPa) = 17.92846 26.76432 22.34639
#
# Velocity S-wave (km/s) = 2.87669 3.51479 3.21162
# Velocity P-wave (km/s) = 5.00341 6.08273 5.56928
#
# Compressibility (1/GPa) = 0.03296871
#
# Stress axis : x y z
#
# Youngs Moduli (GPa) = 127.35760 99.27358 38.91361
#
# Poissons Ratio (x) = 0.21654 0.01052
# Poissons Ratio (y) = 0.27780 0.11190
# Poissons Ratio (z) = 0.03444 0.28546
#
# Static dielectric constant tensor:
#      x y z
#    x 1.839890 0.000000 -0.033830 
#    y 0.000000 1.835750 0.000000 
#    z -0.033830 0.000000 1.909290 
# 
# From -- ./inp_files/146163.got.cif
#   From: 2010.05.17/outbox.cif.g08.bks.cpg/sg12_74_cif.got.tgz:146163.got - 2010.06.03 13:09:07.
