data_PCOD9170912
_publ_section_title
;
Structure prediction by ZEFSAII (Michael W. Deem and Ramdas Pophale) SiO2 
 PCOD9170912
Probable space group: C 2/M
;
_chemical_formula_sum "Si O2"
_cell_formula_units_Z 48
_cell_length_a 18.874201
_cell_length_b 15.129180
_cell_length_c 19.175454
_cell_angle_alpha 90.000000
_cell_angle_beta 25.674959
_cell_angle_gamma 90.000000
_cell_volume 2372.375651
_symmetry_space_group_name_H-M "C 2/M"
_symmetry_group_IT_number 12
_symmetry_cell_setting 'monoclinic'
loop_
_space_group_symop_operation_xyz
x,y,z
-x,y,-z
-x,-y,-z
x,-y,z
1/2+x,1/2+y,z
1/2-x,1/2+y,-z
1/2-x,1/2-y,-z
1/2+x,1/2-y,z
loop_
_atom_site_type_symbol
_atom_site_label
_atom_site_fract_x
_atom_site_fract_y
_atom_site_fract_z
Si Si1 0.376779 0.767708 0.168300
Si Si2 0.401296 0.159829 0.651001
Si Si3 0.927295 0.275450 0.368403
Si Si4 0.906635 0.903319 0.985676
Si Si5 0.026238 0.398840 0.802183
Si Si6 0.813837 0.154603 0.916707
O O1 0.203224 0.740333 0.290238
O O2 0.374457 0.834962 0.234491
O O3 0.500000 0.804572 0.000000
O O4 0.467974 0.676332 0.110547
O O5 0.500000 0.114857 0.500000
O O6 0.536092 0.191150 0.586976
O O7 0.258490 0.110646 0.822031
O O8 0.750000 0.250000 0.500000
O O9 0.972923 0.355816 0.275495
O O10 0.034392 0.186665 0.263093
O O11 0.976290 0.000000 0.939072
O O12 0.862575 0.896818 0.943118
O O13 0.078946 0.500000 0.755991
O O14 0.833905 0.390787 0.992707
O O15 0.750000 0.250000 0.000000
#
# Coordination Sequence:
#
# PCOD9170912 Si02
#       6
#     8   8   8   8   8   8
#     4  10  21  39  61  89 125 162 203 255 319 377
#     4  11  23  37  60  90 125 169 207 253 317 377
#     4  11  22  40  67  89 124 167 212 258 317 370
#     4  11  21  38  62  90 124 161 209 261 309 370
#     4  11  21  39  67  94 121 162 211 263 312 370
#     4  10  17  36  64  90 114 158 207 266 307 356
#
# _framework density 20.232883999999999
#
# number of rings (size 3 to 8) (size 9 to 14) (size 15 to 20)
#    0.000    1.333    6.667    2.500    0.000    3.667 
#    0.000    1.667    0.000    4.500    0.000    0.000 
#    0.000    0.000    0.000    0.000    0.000    0.000 
#
# Total GULP energy -133861.704309 kJ/mol
# GULP energy per Si atom -5577.571013 kJ/mol
# Density = 2.018683 g / cm^3
# Si number density = 20.232884 Si / 1000 Ang^3
#
#
#
# Elastic Constant Matrix: (Units=GPa)
#
#
# Indices 1 2 3 4 5 6 
#
# 1 115.9938 41.7413 4.2440 0.0004 0.9798 -0.0008
# 2 41.7413 114.2174 16.6628 -0.0026 5.3253 0.0011
# 3 4.2440 16.6628 40.5633 -0.0001 0.0128 -0.0011
# 4 0.0004 -0.0026 -0.0001 7.4159 -0.0002 3.6733
# 5 0.9798 5.3253 0.0128 -0.0002 39.5287 0.0002
# 6 -0.0008 0.0011 -0.0011 3.6733 0.0002 0.5305
#
#
#
# Elastic Compliance Matrix: (Units=1/GPa)
#
#
# Indices 1 2 3 4 5 6 
#
# 1 0.009938 -0.003715 0.000486 0.000005 0.000254 -0.000015
# 2 -0.003715 0.010764 -0.004033 -0.000009 -0.001357 0.000025
# 3 0.000486 -0.004033 0.026258 0.000014 0.000523 -0.000030
# 4 0.000005 -0.000009 0.000014 -0.055494 -0.000001 0.384275
# 5 0.000254 -0.001357 0.000523 -0.000001 0.025474 0.000003
# 6 -0.000015 0.000025 -0.000030 0.384275 0.000003 -0.775810
#
#
# Mechanical properties :
#
#
# Convention : Reuss Voigt Hill
#
# Bulk Modulus (GPa) = 30.82800 44.00786 37.41793
# Shear Modulus (GPa) = -6.81632 23.37012 8.27690
#
# Velocity S-wave (km/s) = -1.83746 3.40230 2.02477
# Velocity P-wave (km/s) = 3.28146 6.10181 4.89898
#
# Compressibility (1/GPa) = 0.03243804
#
# Stress axis : x y z
#
# Youngs Moduli (GPa) = 100.62434 92.89932 38.08310
#
# Poissons Ratio (x) = 0.34509 -0.01851
# Poissons Ratio (y) = 0.37378 0.15358
# Poissons Ratio (z) = -0.04891 0.37464
#
# Static dielectric constant tensor:
#      x y z
#    x 1.736610 0.000000 0.020620 
#    y 0.000000 1.702530 0.000000 
#    z 0.020620 0.000000 1.917700 
# 
# From -- ./inp_files/278045.got.cif
#   From: 2010.05.17/outbox.cif.g08.bks.cpg/sg12_140_cif.got.tgz:278045.got - 2010.06.03 13:09:07.
