data_PCOD9170406
_publ_section_title
;
Structure prediction by ZEFSAII (Michael W. Deem and Ramdas Pophale) SiO2 
 PCOD9170406
Probable space group: C 2/M
;
_chemical_formula_sum "Si O2"
_cell_formula_units_Z 56
_cell_length_a 19.458161
_cell_length_b 15.288949
_cell_length_c 31.823609
_cell_angle_alpha 90.000000
_cell_angle_beta 161.555592
_cell_angle_gamma 90.000000
_cell_volume 2995.324599
_symmetry_space_group_name_H-M "C 2/M"
_symmetry_group_IT_number 12
_symmetry_cell_setting 'monoclinic'
loop_
_space_group_symop_operation_xyz
x,y,z
-x,y,-z
-x,-y,-z
x,-y,z
1/2+x,1/2+y,z
1/2-x,1/2+y,-z
1/2-x,1/2-y,-z
1/2+x,1/2-y,z
loop_
_atom_site_type_symbol
_atom_site_label
_atom_site_fract_x
_atom_site_fract_y
_atom_site_fract_z
Si Si1 0.872954 0.131500 0.486401
Si Si2 0.130659 0.340907 0.514287
Si Si3 0.165062 0.634686 0.282339
Si Si4 0.927209 0.605766 0.909737
Si Si5 0.208225 0.348127 0.992967
Si Si6 0.068391 0.099858 0.385122
Si Si7 0.319434 0.651092 0.712497
O O1 0.879013 0.236344 0.488025
O O2 0.698093 0.106231 0.349642
O O3 0.839505 0.103902 0.514482
O O4 0.114978 0.103336 0.612940
O O5 0.263673 0.359720 0.549846
O O6 0.255792 0.375259 0.628186
O O7 0.882251 0.372399 0.374447
O O8 0.167144 0.741755 0.281316
O O9 0.951478 0.607336 0.133423
O O10 0.938537 0.500000 0.909941
O O11 0.677711 0.636695 0.758493
O O12 0.000000 0.623410 0.000000
O O13 0.081003 0.648902 0.963666
O O14 0.448882 0.385124 0.139369
O O15 0.250000 0.250000 0.000000
O O16 0.042080 0.000000 0.356467
#
# Coordination Sequence:
#
# PCOD9170406 Si02
#       7
#     8   8   8   8   8   8   8
#     4   9  16  31  49  71  96 129 161 203 251 297
#     4   9  17  32  50  73  97 131 164 201 251 301
#     4   8  15  28  50  73  99 119 160 210 251 289
#     4  10  21  35  50  75 112 141 162 205 272 324
#     4  10  17  31  54  77 103 130 172 217 247 297
#     4  11  21  32  48  73 102 131 167 207 249 302
#     4   8  16  29  51  74  98 125 163 206 248 291
#
# _framework density 18.695803999999999
#
# number of rings (size 3 to 8) (size 9 to 14) (size 15 to 20)
#    0.000    2.714    1.429    3.000    0.000    0.000 
#    0.000    4.286    0.000    0.000    0.000    1.000 
#    0.000    0.000    0.000    0.000    0.000    0.000 
#
# Total GULP energy -156032.425416 kJ/mol
# GULP energy per Si atom -5572.586622 kJ/mol
# Density = 1.865325 g / cm^3
# Si number density = 18.695804 Si / 1000 Ang^3
#
#
#
# Elastic Constant Matrix: (Units=GPa)
#
#
# Indices 1 2 3 4 5 6 
#
# 1 156.1902 23.1247 84.8943 0.0044 7.1982 -0.0210
# 2 23.1247 29.9343 19.2436 0.0361 0.6734 -0.0098
# 3 84.8943 19.2436 175.6216 0.0474 0.5929 -0.0367
# 4 0.0044 0.0361 0.0474 1.6269 -0.0086 -20.2953
# 5 7.1982 0.6734 0.5929 -0.0086 25.0702 -0.0002
# 6 -0.0210 -0.0098 -0.0367 -20.2953 -0.0002 165.6053
#
#
#
# Elastic Compliance Matrix: (Units=1/GPa)
#
#
# Indices 1 2 3 4 5 6 
#
# 1 0.009386 -0.004608 -0.004024 -0.000342 -0.002476 -0.000042
# 2 -0.004608 0.038218 -0.001962 0.001438 0.000343 0.000177
# 3 -0.004024 -0.001962 0.007851 0.000293 0.001022 0.000037
# 4 -0.000342 0.001438 0.000293 -1.162218 -0.000347 -0.142433
# 5 -0.002476 0.000343 0.001022 -0.000347 0.040565 -0.000043
# 6 -0.000042 0.000177 0.000037 -0.142433 -0.000043 -0.011417
#
#
# Mechanical properties :
#
#
# Convention : Reuss Voigt Hill
#
# Bulk Modulus (GPa) = 29.18220 68.47462 48.82841
# Shear Modulus (GPa) = -4.78466 54.09270 24.65402
#
# Velocity S-wave (km/s) = -1.60149 5.38478 3.63532
# Velocity P-wave (km/s) = 3.49616 8.68138 6.61776
#
# Compressibility (1/GPa) = 0.03426746
#
# Stress axis : x y z
#
# Youngs Moduli (GPa) = 106.54417 26.16577 127.38019
#
# Poissons Ratio (x) = 0.12057 0.51254
# Poissons Ratio (y) = 0.49094 0.24989
# Poissons Ratio (z) = 0.42870 0.05133
#
# Static dielectric constant tensor:
#      x y z
#    x 1.632600 -0.000010 -0.011360 
#    y -0.000010 1.693120 -0.000020 
#    z -0.011360 -0.000020 1.679640 
# 
# From -- ./inp_files/379675.got.cif
#   From: 2010.05.17/outbox.cif.g08.bks.cpg/sg12_190_cif.got.tgz:379675.got - 2010.06.03 13:09:07.
