data_PCOD9170445
_publ_section_title
;
Structure prediction by ZEFSAII (Michael W. Deem and Ramdas Pophale) SiO2 
 PCOD9170445
Probable space group: C 2/M
;
_chemical_formula_sum "Si O2"
_cell_formula_units_Z 48
_cell_length_a 12.684740
_cell_length_b 27.370064
_cell_length_c 9.813023
_cell_angle_alpha 90.000000
_cell_angle_beta 51.769802
_cell_angle_gamma 90.000000
_cell_volume 2676.230062
_symmetry_space_group_name_H-M "C 2/M"
_symmetry_group_IT_number 12
_symmetry_cell_setting 'monoclinic'
loop_
_space_group_symop_operation_xyz
x,y,z
-x,y,-z
-x,-y,-z
x,-y,z
1/2+x,1/2+y,z
1/2-x,1/2+y,-z
1/2-x,1/2-y,-z
1/2+x,1/2-y,z
loop_
_atom_site_type_symbol
_atom_site_label
_atom_site_fract_x
_atom_site_fract_y
_atom_site_fract_z
Si Si1 0.282310 0.138160 0.352293
Si Si2 0.287678 0.645969 0.908629
Si Si3 0.595866 0.444519 0.049281
Si Si4 0.542266 0.706957 0.621836
Si Si5 0.097935 0.945073 0.537507
Si Si6 0.025116 0.299065 0.141351
O O1 0.259557 0.133780 0.207402
O O2 0.185239 0.180287 0.491341
O O3 0.227047 0.087914 0.456015
O O4 0.434180 0.154060 0.250750
O O5 0.300529 0.598183 0.993036
O O6 0.434610 0.669380 0.772364
O O7 0.179537 0.686328 0.043538
O O8 0.650340 0.500000 0.984342
O O9 0.494500 0.447227 0.257301
O O10 0.500000 0.431426 0.000000
O O11 0.500000 0.718486 0.500000
O O12 0.529440 0.754466 0.725567
O O13 0.000000 0.922888 0.500000
O O14 0.134076 0.000000 0.464743
O O15 0.000000 0.288722 0.000000
#
# Coordination Sequence:
#
# PCOD9170445 Si02
#       6
#     8   8   8   8   8   8
#     4  10  18  34  54  79 105 134 174 216 255 299
#     4  10  19  35  54  77 106 138 171 213 259 305
#     4  10  20  34  54  82 107 131 170 217 259 303
#     4  10  19  35  54  74 102 138 181 219 249 295
#     4  10  17  31  57  80 100 132 174 213 252 304
#     4  10  22  35  51  75 110 141 170 211 261 311
#
# _framework density 17.935677999999999
#
# number of rings (size 3 to 8) (size 9 to 14) (size 15 to 20)
#    0.000    2.000    3.333    1.500    0.000    0.667 
#    3.000    0.833    0.000    3.000    0.000    3.500 
#    0.000    0.000    0.000    0.000    0.000    0.000 
#
# Total GULP energy -133736.645411 kJ/mol
# GULP energy per Si atom -5572.360225 kJ/mol
# Density = 1.789486 g / cm^3
# Si number density = 17.935678 Si / 1000 Ang^3
#
#
#
# Elastic Constant Matrix: (Units=GPa)
#
#
# Indices 1 2 3 4 5 6 
#
# 1 38.5940 22.0997 23.4090 0.0000 0.5969 0.0000
# 2 22.0997 89.9762 16.6298 0.0000 6.5792 0.0000
# 3 23.4090 16.6298 55.3860 0.0000 0.0591 0.0000
# 4 0.0000 0.0000 0.0000 25.2475 0.0000 4.8735
# 5 0.5969 6.5792 0.0591 0.0000 17.5108 0.0000
# 6 0.0000 0.0000 0.0000 4.8735 0.0000 10.9433
#
#
#
# Elastic Compliance Matrix: (Units=1/GPa)
#
#
# Indices 1 2 3 4 5 6 
#
# 1 0.038451 -0.006922 -0.014174 0.000000 0.001338 0.000000
# 2 -0.006922 0.013364 -0.001082 0.000000 -0.004781 0.000000
# 3 -0.014174 -0.001082 0.024370 0.000000 0.000807 0.000000
# 4 0.000000 0.000000 0.000000 0.043333 0.000000 -0.019298
# 5 0.001338 -0.004781 0.000807 0.000000 0.058856 0.000000
# 6 0.000000 0.000000 0.000000 -0.019298 0.000000 0.099974
#
#
# Mechanical properties :
#
#
# Convention : Reuss Voigt Hill
#
# Bulk Modulus (GPa) = 31.41884 34.24813 32.83348
# Shear Modulus (GPa) = 15.00086 18.86151 16.93118
#
# Velocity S-wave (km/s) = 2.89514 3.24639 3.07578
# Velocity P-wave (km/s) = 5.36016 5.76094 5.56416
#
# Compressibility (1/GPa) = 0.03182804
#
# Stress axis : x y z
#
# Youngs Moduli (GPa) = 26.00689 74.82875 41.03430
#
# Poissons Ratio (x) = 0.51799 0.58164
# Poissons Ratio (y) = 0.18003 0.04439
# Poissons Ratio (z) = 0.36863 0.08094
#
# Static dielectric constant tensor:
#      x y z
#    x 1.449250 0.000000 -0.219190 
#    y 0.000000 1.665730 0.000000 
#    z -0.219190 0.000000 1.313780 
# 
# From -- ./inp_files/52420.got.cif
#   From: 2010.05.17/outbox.cif.g08.bks.cpg/sg12_27_cif.got.tgz:52420.got - 2010.06.03 13:09:07.
