data_PCOD9170939
_publ_section_title
;
Structure prediction by ZEFSAII (Michael W. Deem and Ramdas Pophale) SiO2 
 PCOD9170939
Probable space group: C 2/M
;
_chemical_formula_sum "Si O2"
_cell_formula_units_Z 52
_cell_length_a 9.991353
_cell_length_b 30.010731
_cell_length_c 11.373463
_cell_angle_alpha 90.000000
_cell_angle_beta 56.455508
_cell_angle_gamma 90.000000
_cell_volume 2842.344937
_symmetry_space_group_name_H-M "C 2/M"
_symmetry_group_IT_number 12
_symmetry_cell_setting 'monoclinic'
loop_
_space_group_symop_operation_xyz
x,y,z
-x,y,-z
-x,-y,-z
x,-y,z
1/2+x,1/2+y,z
1/2-x,1/2+y,-z
1/2-x,1/2-y,-z
1/2+x,1/2-y,z
loop_
_atom_site_type_symbol
_atom_site_label
_atom_site_fract_x
_atom_site_fract_y
_atom_site_fract_z
Si Si1 0.020729 0.950237 0.191106
Si Si2 0.434480 0.214775 0.661199
Si Si3 0.500000 0.339593 0.000000
Si Si4 0.465170 0.112194 0.379653
Si Si5 0.402728 0.623796 0.428433
Si Si6 0.419929 0.291059 0.251922
Si Si7 0.271376 0.578466 0.123465
O O1 0.990424 0.912646 0.303300
O O2 0.866644 0.948432 0.178007
O O3 0.037464 0.000000 0.231191
O O4 0.169828 0.938890 0.031714
O O5 0.500000 0.226266 0.500000
O O6 0.488057 0.164157 0.660852
O O7 0.509765 0.248584 0.717165
O O8 0.243592 0.218694 0.739281
O O9 0.536855 0.310872 0.096358
O O10 0.352073 0.372563 0.097563
O O11 0.500000 0.102271 0.500000
O O12 0.275997 0.107100 0.453766
O O13 0.584584 0.082977 0.242100
O O14 0.500000 0.631852 0.500000
O O15 0.386301 0.669442 0.361724
#
# Coordination Sequence:
#
# PCOD9170939 Si02
#       7
#     8   8   4   8   8   8   8
#     4  10  20  38  65  95 120 152 196 240 300 366
#     4  11  22  34  56  83 116 156 200 250 290 342
#     4  10  18  36  59  78 114 156 194 240 297 344
#     4  11  19  39  61  87 120 157 203 249 291 342
#     4  12  24  39  62  88 123 161 195 245 307 355
#     4  12  22  38  55  84 118 161 200 248 294 344
#     4  10  17  37  65  87 116 155 196 244 294 350
#
# _framework density 18.294754000000001
#
# number of rings (size 3 to 8) (size 9 to 14) (size 15 to 20)
#    0.000    1.231    9.231    1.846    2.154    0.923 
#    0.000    3.077    0.000    0.923    0.000    0.000 
#    0.000    0.000    0.000    0.000    0.000    0.000 
#
# Total GULP energy -145090.617870 kJ/mol
# GULP energy per Si atom -5580.408380 kJ/mol
# Density = 1.825311 g / cm^3
# Si number density = 18.294754 Si / 1000 Ang^3
#
#
#
# Elastic Constant Matrix: (Units=GPa)
#
#
# Indices 1 2 3 4 5 6 
#
# 1 49.0013 0.4358 22.7956 0.0000 -17.2800 0.0000
# 2 0.4358 52.3325 21.7651 0.0000 -4.6905 0.0000
# 3 22.7956 21.7651 71.1798 0.0000 -15.2925 0.0000
# 4 0.0000 0.0000 0.0000 11.1909 0.0000 0.7737
# 5 -17.2800 -4.6905 -15.2925 0.0000 18.4468 0.0000
# 6 0.0000 0.0000 0.0000 0.7737 0.0000 14.0851
#
#
#
# Elastic Compliance Matrix: (Units=1/GPa)
#
#
# Indices 1 2 3 4 5 6 
#
# 1 0.032627 0.004676 -0.006153 0.000000 0.026651 0.000000
# 2 0.004676 0.022563 -0.007572 0.000000 0.003840 0.000000
# 3 -0.006153 -0.007572 0.020298 0.000000 0.009138 0.000000
# 4 0.000000 0.000000 0.000000 0.089699 0.000000 -0.004927
# 5 0.026651 0.003840 0.009138 0.000000 0.087728 0.000000
# 6 0.000000 0.000000 0.000000 -0.004927 0.000000 0.071268
#
#
# Mechanical properties :
#
#
# Convention : Reuss Voigt Hill
#
# Bulk Modulus (GPa) = 17.42438 29.16739 23.29588
# Shear Modulus (GPa) = 13.83472 17.24569 15.54021
#
# Velocity S-wave (km/s) = 2.75292 3.07360 2.91767
# Velocity P-wave (km/s) = 4.43279 5.34544 4.91036
#
# Compressibility (1/GPa) = 0.05739085
#
# Stress axis : x y z
#
# Youngs Moduli (GPa) = 30.64961 44.32050 49.26611
#
# Poissons Ratio (x) = -0.20724 0.30312
# Poissons Ratio (y) = -0.14332 0.37303
# Poissons Ratio (z) = 0.18858 0.33558
#
# Static dielectric constant tensor:
#      x y z
#    x 1.616960 0.000000 -0.034620 
#    y 0.000000 1.637860 0.000000 
#    z -0.034620 0.000000 1.665460 
# 
# From -- ./inp_files/125113.got.cif
#   From: 2010.05.17/outbox.cif.g08.bks.cpg/sg12_63_cif.got.tgz:125113.got - 2010.06.03 13:09:07.
