data_PCOD9170342
_publ_section_title
;
Structure prediction by ZEFSAII (Michael W. Deem and Ramdas Pophale) SiO2 
 PCOD9170342
Probable space group: C 2/M
;
_chemical_formula_sum "Si O2"
_cell_formula_units_Z 40
_cell_length_a 16.683811
_cell_length_b 25.324743
_cell_length_c 13.528931
_cell_angle_alpha 90.000000
_cell_angle_beta 155.363191
_cell_angle_gamma 90.000000
_cell_volume 2382.862873
_symmetry_space_group_name_H-M "C 2/M"
_symmetry_group_IT_number 12
_symmetry_cell_setting 'monoclinic'
loop_
_space_group_symop_operation_xyz
x,y,z
-x,y,-z
-x,-y,-z
x,-y,z
1/2+x,1/2+y,z
1/2-x,1/2+y,-z
1/2-x,1/2-y,-z
1/2+x,1/2-y,z
loop_
_atom_site_type_symbol
_atom_site_label
_atom_site_fract_x
_atom_site_fract_y
_atom_site_fract_z
Si Si1 0.112928 0.057712 0.781880
Si Si2 0.223870 0.578257 0.254792
Si Si3 0.785929 0.700396 0.783401
Si Si4 0.750881 0.827651 0.026292
Si Si5 0.571475 0.246527 0.374244
O O1 0.193932 0.063493 0.760693
O O2 0.193383 0.111063 0.921945
O O3 0.880843 0.058230 0.509110
O O4 0.170936 0.000000 0.886176
O O5 0.228740 0.641301 0.277156
O O6 0.000000 0.562282 0.000000
O O7 0.752511 0.689224 0.861230
O O8 0.643389 0.737496 0.563641
O O9 0.000000 0.719737 0.000000
O O10 0.915679 0.790493 0.165824
O O11 0.543372 0.808603 0.755744
O O12 0.750000 0.250000 0.500000
#
# Coordination Sequence:
#
# PCOD9170342 Si02
#       5
#     8   8   8   8   8
#     4  10  19  30  44  66  95 128 166 197 228 282
#     4   9  17  28  44  64  93 128 164 192 222 273
#     4  10  17  31  49  68  98 132 159 196 241 284
#     4  10  21  33  48  70  99 133 162 200 243 282
#     4  11  20  32  49  69  95 130 166 202 240 289
#
# _framework density 16.786529000000002
#
# number of rings (size 3 to 8) (size 9 to 14) (size 15 to 20)
#    0.000    2.000    4.000    1.800    0.000    1.600 
#    0.000    0.000    0.000    0.000    0.000    0.000 
#    0.000   13.600    0.000    3.200    0.000    1.600 
#
# Total GULP energy -111362.620956 kJ/mol
# GULP energy per Si atom -5568.131048 kJ/mol
# Density = 1.674832 g / cm^3
# Si number density = 16.786529 Si / 1000 Ang^3
#
#
#
# Elastic Constant Matrix: (Units=GPa)
#
#
# Indices 1 2 3 4 5 6 
#
# 1 32.0078 9.5584 20.4276 0.0000 12.2408 0.0000
# 2 9.5584 128.1553 56.5223 0.0000 -2.6360 0.0000
# 3 20.4276 56.5223 105.7837 0.0000 18.0481 0.0000
# 4 0.0000 0.0000 0.0000 16.3499 0.0000 -1.8411
# 5 12.2408 -2.6360 18.0481 0.0000 30.3300 0.0000
# 6 0.0000 0.0000 0.0000 -1.8411 0.0000 4.5703
#
#
#
# Elastic Compliance Matrix: (Units=1/GPa)
#
#
# Indices 1 2 3 4 5 6 
#
# 1 0.039718 -0.001113 -0.004813 0.000000 -0.013263 0.000000
# 2 -0.001113 0.010851 -0.006478 0.000000 0.005247 0.000000
# 3 -0.004813 -0.006478 0.015147 0.000000 -0.007634 0.000000
# 4 0.000000 0.000000 0.000000 0.064069 0.000000 0.025810
# 5 -0.013263 0.005247 -0.007634 0.000000 0.043322 0.000000
# 6 0.000000 0.000000 0.000000 0.025810 0.000000 0.229203
#
#
# Mechanical properties :
#
#
# Convention : Reuss Voigt Hill
#
# Bulk Modulus (GPa) = 24.44462 48.77371 36.60916
# Shear Modulus (GPa) = 11.34423 22.21261 16.77842
#
# Velocity S-wave (km/s) = 2.60242 3.64158 3.16494
# Velocity P-wave (km/s) = 4.86043 6.84104 5.93395
#
# Compressibility (1/GPa) = 0.04090880
#
# Stress axis : x y z
#
# Youngs Moduli (GPa) = 25.17736 92.15572 66.02160
#
# Poissons Ratio (x) = 0.10253 0.31774
# Poissons Ratio (y) = 0.02801 0.42771
# Poissons Ratio (z) = 0.12117 0.59702
#
# Static dielectric constant tensor:
#      x y z
#    x 1.569610 0.000000 0.025600 
#    y 0.000000 1.607240 0.000000 
#    z 0.025600 0.000000 1.633300 
# 
# From -- ./inp_files/218147.got.cif
#   From: 2010.05.17/outbox.cif.g08.bks.cpg/sg12_110_cif.got.tgz:218147.got - 2010.06.03 13:09:07.
