data_PCOD9170473
_publ_section_title
;
Structure prediction by ZEFSAII (Michael W. Deem and Ramdas Pophale) SiO2 
 PCOD9170473
Probable space group: C 2/M
;
_chemical_formula_sum "Si O2"
_cell_formula_units_Z 64
_cell_length_a 17.312867
_cell_length_b 23.589555
_cell_length_c 26.342036
_cell_angle_alpha 90.000000
_cell_angle_beta 21.172514
_cell_angle_gamma 90.000000
_cell_volume 3885.603616
_symmetry_space_group_name_H-M "C 2/M"
_symmetry_group_IT_number 12
_symmetry_cell_setting 'monoclinic'
loop_
_space_group_symop_operation_xyz
x,y,z
-x,y,-z
-x,-y,-z
x,-y,z
1/2+x,1/2+y,z
1/2-x,1/2+y,-z
1/2-x,1/2-y,-z
1/2+x,1/2-y,z
loop_
_atom_site_type_symbol
_atom_site_label
_atom_site_fract_x
_atom_site_fract_y
_atom_site_fract_z
Si Si1 0.447264 0.674504 0.091468
Si Si2 0.499407 0.435159 0.562251
Si Si3 0.439500 0.752293 0.642915
Si Si4 0.843765 0.654063 0.229647
Si Si5 0.633638 0.436366 0.970505
Si Si6 0.576014 0.740273 0.670094
Si Si7 0.073112 0.630573 0.702075
Si Si8 0.780250 0.278421 0.036110
O O1 0.214016 0.694654 0.251156
O O2 0.500000 0.666673 0.000000
O O3 0.516708 0.614462 0.072874
O O4 0.592648 0.728567 0.013942
O O5 0.500000 0.435514 0.500000
O O6 0.503231 0.500000 0.577101
O O7 0.288944 0.400525 0.706601
O O8 0.711211 0.400696 0.447547
O O9 0.313440 0.707946 0.684274
O O10 0.490206 0.723885 0.666867
O O11 0.671006 0.769502 0.480106
O O12 0.898930 0.645375 0.255160
O O13 0.062494 0.668528 0.066648
O O14 0.646004 0.500000 0.985081
O O15 0.871076 0.410481 0.817253
O O16 0.500000 0.442526 0.000000
O O17 0.546770 0.808558 0.692037
O O18 0.436122 0.712565 0.800256
O O19 0.750000 0.250000 0.000000
#
# Coordination Sequence:
#
# PCOD9170473 Si02
#       8
#     8   8   8   8   8   8   8   8
#     4  10  17  32  47  67 102 135 166 209 253 306
#     4   9  18  31  48  73 106 139 170 210 267 319
#     4  10  21  31  48  74 104 143 177 205 262 311
#     4  10  20  31  50  75 104 138 174 211 256 317
#     4  10  19  30  48  72 100 139 177 211 258 315
#     4  11  19  32  48  73 107 142 170 211 254 312
#     4  11  18  32  50  74 108 138 168 213 265 316
#     4  11  19  30  48  72 101 140 172 209 259 307
#
# _framework density 16.471057999999999
#
# number of rings (size 3 to 8) (size 9 to 14) (size 15 to 20)
#    0.000    1.750    5.000    1.125    0.000    0.500 
#    0.000    0.000    0.000    0.000    0.000    2.625 
#    0.000    4.000    0.000    0.000    0.000    0.000 
#
# Total GULP energy -178190.376227 kJ/mol
# GULP energy per Si atom -5568.449257 kJ/mol
# Density = 1.643357 g / cm^3
# Si number density = 16.471058 Si / 1000 Ang^3
#
#
#
# Elastic Constant Matrix: (Units=GPa)
#
#
# Indices 1 2 3 4 5 6 
#
# 1 46.2873 5.3968 20.2787 0.0549 -7.1199 -0.0153
# 2 5.3968 90.2554 40.4046 0.0847 -1.1911 -0.0294
# 3 20.2787 40.4046 143.9436 0.0703 -4.3922 -0.0577
# 4 0.0549 0.0847 0.0703 8.9115 -0.0086 6.7799
# 5 -7.1199 -1.1911 -4.3922 -0.0086 20.4890 0.0276
# 6 -0.0153 -0.0294 -0.0577 6.7799 0.0276 6.5924
#
#
#
# Elastic Compliance Matrix: (Units=1/GPa)
#
#
# Indices 1 2 3 4 5 6 
#
# 1 0.024183 0.000087 -0.003195 -0.000525 0.007723 0.000536
# 2 0.000087 0.012673 -0.003569 -0.000516 0.000001 0.000556
# 3 -0.003195 -0.003569 0.008414 -0.000226 0.000485 0.000280
# 4 -0.000525 -0.000516 -0.000226 0.515877 0.000670 -0.530558
# 5 0.007723 0.000001 0.000485 0.000670 0.051596 -0.000883
# 6 0.000536 0.000556 0.000280 -0.530558 -0.000883 0.697347
#
#
# Mechanical properties :
#
#
# Convention : Reuss Voigt Hill
#
# Bulk Modulus (GPa) = 31.33299 45.84961 38.59130
# Shear Modulus (GPa) = 3.74789 21.49233 12.62011
#
# Velocity S-wave (km/s) = 1.51009 3.61620 2.77103
# Velocity P-wave (km/s) = 4.70158 6.73296 5.80679
#
# Compressibility (1/GPa) = 0.03191525
#
# Stress axis : x y z
#
# Youngs Moduli (GPa) = 41.35212 78.90874 118.84768
#
# Poissons Ratio (x) = -0.00686 0.37973
# Poissons Ratio (y) = -0.00360 0.42417
# Poissons Ratio (z) = 0.13212 0.28162
#
# Static dielectric constant tensor:
#      x y z
#    x 1.576670 0.000290 -0.034320 
#    y 0.000290 1.787600 -0.000480 
#    z -0.034320 -0.000480 1.596640 
# 
# From -- ./inp_files/364883.got.cif
#   From: 2010.05.17/outbox.cif.g08.bks.cpg/sg12_183_cif.got.tgz:364883.got - 2010.06.03 13:09:07.
