data_PCOD9170416
_publ_section_title
;
Structure prediction by ZEFSAII (Michael W. Deem and Ramdas Pophale) SiO2 
 PCOD9170416
Probable space group: C 2/M
;
_chemical_formula_sum "Si O2"
_cell_formula_units_Z 56
_cell_length_a 25.429568
_cell_length_b 7.782407
_cell_length_c 17.415891
_cell_angle_alpha 90.000000
_cell_angle_beta 120.399071
_cell_angle_gamma 90.000000
_cell_volume 2972.820846
_symmetry_space_group_name_H-M "C 2/M"
_symmetry_group_IT_number 12
_symmetry_cell_setting 'monoclinic'
loop_
_space_group_symop_operation_xyz
x,y,z
-x,y,-z
-x,-y,-z
x,-y,z
1/2+x,1/2+y,z
1/2-x,1/2+y,-z
1/2-x,1/2-y,-z
1/2+x,1/2-y,z
loop_
_atom_site_type_symbol
_atom_site_label
_atom_site_fract_x
_atom_site_fract_y
_atom_site_fract_z
Si Si1 0.168629 0.301245 0.067065
Si Si2 0.983588 0.705861 0.775860
Si Si3 0.559295 0.790116 0.093021
Si Si4 0.200378 0.302661 0.786037
Si Si5 0.594975 0.790083 0.602910
Si Si6 0.875441 0.803423 0.126781
Si Si7 0.470703 0.790169 0.596324
O O1 0.153114 0.500000 0.040010
O O2 0.119698 0.234452 0.092750
O O3 0.236635 0.289491 0.149228
O O4 0.160838 0.209349 0.979869
O O5 0.975889 0.500000 0.769178
O O6 0.949508 0.771883 0.826379
O O7 0.962370 0.771425 0.676943
O O8 0.055762 0.740875 0.836219
O O9 0.560156 0.000000 0.096013
O O10 0.500000 0.740131 0.000000
O O11 0.215611 0.500000 0.779545
O O12 0.157928 0.230597 0.686658
O O13 0.158479 0.298013 0.831220
O O14 0.537515 0.739811 0.613878
O O15 0.577990 0.736272 0.504058
O O16 0.596313 0.000000 0.605251
O O17 0.877576 0.000000 0.153904
O O18 0.470321 0.000000 0.596817
#
# Coordination Sequence:
#
# PCOD9170416 Si02
#       7
#     8   8   8   8   8   8   8
#     4  11  22  37  53  71 100 135 172 210 246 295
#     4  10  17  31  55  78 101 133 168 209 249 291
#     4   9  17  31  53  76  97 127 170 211 250 289
#     4  11  21  35  53  74 102 136 169 204 249 299
#     4   8  14  25  46  76 103 126 158 205 248 291
#     4  12  23  34  49  75 106 135 166 202 251 305
#     4   8  13  24  47  78 102 123 161 206 248 288
#
# _framework density 18.837326999999998
#
# number of rings (size 3 to 8) (size 9 to 14) (size 15 to 20)
#    0.000    2.143    2.857    3.429    0.000    0.000 
#    0.000    2.143    0.000    3.429    0.000    0.000 
#    0.000    0.000    0.000    0.000    0.000    0.286 
#
# Total GULP energy -156269.019848 kJ/mol
# GULP energy per Si atom -5581.036423 kJ/mol
# Density = 1.879445 g / cm^3
# Si number density = 18.837327 Si / 1000 Ang^3
#
#
#
# Elastic Constant Matrix: (Units=GPa)
#
#
# Indices 1 2 3 4 5 6 
#
# 1 49.1523 -1.8780 38.7811 0.0000 6.6959 0.0000
# 2 -1.8780 29.0238 -3.5176 0.0000 -7.4621 0.0000
# 3 38.7811 -3.5176 151.8294 0.0000 -6.9675 0.0000
# 4 0.0000 0.0000 0.0000 9.0750 0.0000 8.4139
# 5 6.6959 -7.4621 -6.9675 0.0000 22.8515 0.0000
# 6 0.0000 0.0000 0.0000 8.4139 0.0000 5.0921
#
#
#
# Elastic Compliance Matrix: (Units=1/GPa)
#
#
# Indices 1 2 3 4 5 6 
#
# 1 0.027837 -0.001994 -0.007668 0.000000 -0.011146 0.000000
# 2 -0.001994 0.038075 0.002017 0.000000 0.013632 0.000000
# 3 -0.007668 0.002017 0.008849 0.000000 0.005604 0.000000
# 4 0.000000 0.000000 0.000000 -0.207135 0.000000 0.342258
# 5 -0.011146 0.013632 0.005604 0.000000 0.053187 0.000000
# 6 0.000000 0.000000 0.000000 0.342258 0.000000 -0.369147
#
#
# Mechanical properties :
#
#
# Convention : Reuss Voigt Hill
#
# Bulk Modulus (GPa) = 16.81485 32.97518 24.89501
# Shear Modulus (GPa) = -12.10007 20.51172 4.20582
#
# Velocity S-wave (km/s) = -2.53720 3.30341 1.49585
# Velocity P-wave (km/s) = 0.60210 5.66509 4.02838
#
# Compressibility (1/GPa) = 0.05947124
#
# Stress axis : x y z
#
# Youngs Moduli (GPa) = 35.92321 26.26404 113.00938
#
# Poissons Ratio (x) = 0.05237 0.86656
# Poissons Ratio (y) = 0.07162 -0.22794
# Poissons Ratio (z) = 0.27546 -0.05297
#
# Static dielectric constant tensor:
#      x y z
#    x 1.622800 0.000000 -0.015420 
#    y 0.000000 1.683390 0.000000 
#    z -0.015420 0.000000 1.667110 
# 
# From -- ./inp_files/287898.got.cif
#   From: 2010.05.17/outbox.cif.g08.bks.cpg/sg12_144_cif.got.tgz:287898.got - 2010.06.03 13:09:07.
