data_PCOD9170638
_publ_section_title
;
Structure prediction by ZEFSAII (Michael W. Deem and Ramdas Pophale) SiO2 
 PCOD9170638
Probable space group: C 2/M
;
_chemical_formula_sum "Si O2"
_cell_formula_units_Z 56
_cell_length_a 14.608912
_cell_length_b 23.122207
_cell_length_c 9.411070
_cell_angle_alpha 90.000000
_cell_angle_beta 67.619493
_cell_angle_gamma 90.000000
_cell_volume 2939.514264
_symmetry_space_group_name_H-M "C 2/M"
_symmetry_group_IT_number 12
_symmetry_cell_setting 'monoclinic'
loop_
_space_group_symop_operation_xyz
x,y,z
-x,y,-z
-x,-y,-z
x,-y,z
1/2+x,1/2+y,z
1/2-x,1/2+y,-z
1/2-x,1/2-y,-z
1/2+x,1/2-y,z
loop_
_atom_site_type_symbol
_atom_site_label
_atom_site_fract_x
_atom_site_fract_y
_atom_site_fract_z
Si Si1 0.462128 0.255239 0.864664
Si Si2 0.756312 0.201733 0.665778
Si Si3 0.701668 0.835823 0.292054
Si Si4 0.937984 0.696331 0.416652
Si Si5 0.041121 0.068308 0.135308
Si Si6 0.893967 0.146736 0.354563
Si Si7 0.215897 0.841742 0.053697
O O1 0.481661 0.198969 0.757061
O O2 0.534441 0.302873 0.748271
O O3 0.355271 0.285506 0.931220
O O4 0.500000 0.245741 0.000000
O O5 0.788875 0.266233 0.689769
O O6 0.662283 0.207774 0.616900
O O7 0.843919 0.168196 0.530334
O O8 0.733539 0.168574 0.824679
O O9 0.607431 0.851328 0.446471
O O10 0.801011 0.860750 0.304656
O O11 0.711991 0.849192 0.121217
O O12 0.000000 0.732860 0.500000
O O13 0.140660 0.104513 0.100953
O O14 0.961734 0.090427 0.298841
O O15 0.055888 0.000000 0.132934
O O16 0.000000 0.083023 0.000000
#
# Coordination Sequence:
#
# PCOD9170638 Si02
#       7
#     8   8   8   8   8   8   8
#     4  11  18  30  48  71 102 140 189 219 260 321
#     4  11  21  32  50  73 107 142 193 228 276 327
#     4  11  18  35  50  74 107 145 194 229 266 332
#     4  11  22  33  47  68 101 143 186 229 269 322
#     4  10  20  36  59  85 115 147 191 231 270 332
#     4  10  17  33  50  75 108 147 180 230 263 326
#     4  11  21  33  54  80 107 151 185 233 272 332
#
# _framework density 19.050767
#
# number of rings (size 3 to 8) (size 9 to 14) (size 15 to 20)
#    0.000    1.286    5.714    3.000    0.000    2.857 
#    0.000    1.429    0.000    0.000    0.000    0.000 
#    0.000   21.714    0.000    0.000    0.000    1.429 
#
# Total GULP energy -155917.444076 kJ/mol
# GULP energy per Si atom -5568.480146 kJ/mol
# Density = 1.900741 g / cm^3
# Si number density = 19.050767 Si / 1000 Ang^3
#
#
#
# Elastic Constant Matrix: (Units=GPa)
#
#
# Indices 1 2 3 4 5 6 
#
# 1 94.3010 24.3517 30.7078 0.0000 -5.0217 0.0000
# 2 24.3517 52.8163 20.5690 0.0000 -1.9946 0.0000
# 3 30.7078 20.5690 110.6482 0.0000 6.9252 0.0000
# 4 0.0000 0.0000 0.0000 14.9272 0.0000 -0.5743
# 5 -5.0217 -1.9946 6.9252 0.0000 46.4917 0.0000
# 6 0.0000 0.0000 0.0000 -0.5743 0.0000 14.5523
#
#
#
# Elastic Compliance Matrix: (Units=1/GPa)
#
#
# Indices 1 2 3 4 5 6 
#
# 1 0.012824 -0.004773 -0.002771 0.000000 0.001593 0.000000
# 2 -0.004773 0.022286 -0.002872 0.000000 0.000868 0.000000
# 3 -0.002771 -0.002872 0.010465 0.000000 -0.001981 0.000000
# 4 0.000000 0.000000 0.000000 0.067094 0.000000 0.002648
# 5 0.001593 0.000868 -0.001981 0.000000 0.022014 0.000000
# 6 0.000000 0.000000 0.000000 0.002648 0.000000 0.068822
#
#
# Mechanical properties :
#
#
# Convention : Reuss Voigt Hill
#
# Bulk Modulus (GPa) = 40.41968 45.44694 42.93331
# Shear Modulus (GPa) = 21.49743 27.33670 24.41706
#
# Velocity S-wave (km/s) = 3.36285 3.79217 3.58395
# Velocity P-wave (km/s) = 6.02837 6.56365 6.30170
#
# Compressibility (1/GPa) = 0.02474042
#
# Stress axis : x y z
#
# Youngs Moduli (GPa) = 77.97693 44.87156 95.55857
#
# Poissons Ratio (x) = 0.21419 0.26484
# Poissons Ratio (y) = 0.37221 0.27449
# Poissons Ratio (z) = 0.21611 0.12889
#
# Static dielectric constant tensor:
#      x y z
#    x 1.796160 0.000000 -0.023390 
#    y 0.000000 1.653120 0.000000 
#    z -0.023390 0.000000 1.753730 
# 
# From -- ./inp_files/66510.got.cif
#   From: 2010.05.17/outbox.cif.g08.bks.cpg/sg12_34_cif.got.tgz:66510.got - 2010.06.03 13:09:07.
