data_PCOD9170813
_publ_section_title
;
Structure prediction by ZEFSAII (Michael W. Deem and Ramdas Pophale) SiO2 
 PCOD9170813
Probable space group: C 2/M
;
_chemical_formula_sum "Si O2"
_cell_formula_units_Z 56
_cell_length_a 21.521964
_cell_length_b 19.701929
_cell_length_c 18.940394
_cell_angle_alpha 90.000000
_cell_angle_beta 21.152385
_cell_angle_gamma 90.000000
_cell_volume 2898.050478
_symmetry_space_group_name_H-M "C 2/M"
_symmetry_group_IT_number 12
_symmetry_cell_setting 'monoclinic'
loop_
_space_group_symop_operation_xyz
x,y,z
-x,y,-z
-x,-y,-z
x,-y,z
1/2+x,1/2+y,z
1/2-x,1/2+y,-z
1/2-x,1/2-y,-z
1/2+x,1/2-y,z
loop_
_atom_site_type_symbol
_atom_site_label
_atom_site_fract_x
_atom_site_fract_y
_atom_site_fract_z
Si Si1 0.409844 0.166007 0.312500
Si Si2 0.476470 0.887015 0.390681
Si Si3 0.421011 0.740888 0.659020
Si Si4 0.400464 0.377887 0.179047
Si Si5 0.491004 0.313445 0.287200
Si Si6 0.342318 0.426782 0.977429
Si Si7 0.519551 0.227896 0.061018
O O1 0.456856 0.115625 0.325959
O O2 0.489037 0.237498 0.257324
O O3 0.203274 0.163803 0.524501
O O4 0.473587 0.168304 0.164343
O O5 0.505728 0.813028 0.393707
O O6 0.291912 0.907065 0.617393
O O7 0.656048 0.924129 0.211554
O O8 0.500000 0.721507 0.500000
O O9 0.470324 0.691315 0.670820
O O10 0.216518 0.747957 0.866721
O O11 0.512131 0.416369 0.118366
O O12 0.403863 0.296424 0.194999
O O13 0.500000 0.381846 0.000000
O O14 0.628165 0.362993 0.105521
O O15 0.362753 0.500000 0.920187
O O16 0.500000 0.208707 0.000000
#
# Coordination Sequence:
#
# PCOD9170813 Si02
#       7
#     8   8   8   8   8   8   8
#     4  10  17  34  60  84 113 146 185 240 302 346
#     4  11  22  37  59  85 114 150 192 239 291 347
#     4  11  20  32  59  91 119 148 182 237 304 356
#     4  11  22  39  58  78 114 151 192 240 284 336
#     4  10  19  36  57  86 114 145 192 239 292 343
#     4  12  25  41  58  81 113 157 207 238 277 338
#     4  11  19  31  52  88 123 150 180 227 291 357
#
# _framework density 19.323336000000001
#
# number of rings (size 3 to 8) (size 9 to 14) (size 15 to 20)
#    0.000    1.143    4.286    5.143    0.000    3.143 
#    0.000    0.714    0.000    0.429    0.000    0.000 
#    0.000    5.143    0.000    0.000    0.000    0.000 
#
# Total GULP energy -156264.469371 kJ/mol
# GULP energy per Si atom -5580.873906 kJ/mol
# Density = 1.927935 g / cm^3
# Si number density = 19.323336 Si / 1000 Ang^3
#
#
#
# Elastic Constant Matrix: (Units=GPa)
#
#
# Indices 1 2 3 4 5 6 
#
# 1 97.2451 -1.0000 33.0866 -0.0024 6.7642 0.0003
# 2 -1.0000 26.3630 19.6493 -0.0066 -0.6621 0.0021
# 3 33.0866 19.6493 123.1850 -0.0219 -8.5712 0.0154
# 4 -0.0024 -0.0066 -0.0219 -7.0231 0.0110 7.5555
# 5 6.7642 -0.6621 -8.5712 0.0110 34.2125 -0.0071
# 6 0.0003 0.0021 0.0154 7.5555 -0.0071 -4.7732
#
#
#
# Elastic Compliance Matrix: (Units=1/GPa)
#
#
# Indices 1 2 3 4 5 6 
#
# 1 0.011889 0.003313 -0.003950 0.000009 -0.003276 0.000008
# 2 0.003313 0.044000 -0.008035 0.000034 -0.001816 0.000050
# 3 -0.003950 -0.008035 0.010690 -0.000012 0.003304 0.000007
# 4 0.000009 0.000034 -0.000012 0.202570 -0.000003 0.320648
# 5 -0.003276 -0.001816 0.003304 -0.000003 0.030669 -0.000041
# 6 0.000008 0.000050 0.000007 0.320648 -0.000041 0.298052
#
#
# Mechanical properties :
#
#
# Convention : Reuss Voigt Hill
#
# Bulk Modulus (GPa) = 20.31027 38.91833 29.61430
# Shear Modulus (GPa) = 7.91608 17.48706 12.70157
#
# Velocity S-wave (km/s) = 2.02621 3.01154 2.56660
# Velocity P-wave (km/s) = 4.00095 5.68127 4.91347
#
# Compressibility (1/GPa) = 0.04923617
#
# Stress axis : x y z
#
# Youngs Moduli (GPa) = 84.11104 22.72704 93.54379
#
# Poissons Ratio (x) = -0.07528 0.36946
# Poissons Ratio (y) = -0.27862 0.75159
# Poissons Ratio (z) = 0.33221 0.18260
#
# Static dielectric constant tensor:
#      x y z
#    x 1.704500 -0.000010 0.012520 
#    y -0.000010 1.711980 0.000010 
#    z 0.012520 0.000010 1.714800 
# 
# From -- ./inp_files/286017.got.cif
#   From: 2010.05.17/outbox.cif.g08.bks.cpg/sg12_144_cif.got.tgz:286017.got - 2010.06.03 13:09:07.
