data_PCOD9170885
_publ_section_title
;
Structure prediction by ZEFSAII (Michael W. Deem and Ramdas Pophale) SiO2 
 PCOD9170885
Probable space group: C 2/M
;
_chemical_formula_sum "Si O2"
_cell_formula_units_Z 64
_cell_length_a 22.708680
_cell_length_b 22.330979
_cell_length_c 9.267765
_cell_angle_alpha 90.000000
_cell_angle_beta 56.179164
_cell_angle_gamma 90.000000
_cell_volume 3904.467430
_symmetry_space_group_name_H-M "C 2/M"
_symmetry_group_IT_number 12
_symmetry_cell_setting 'monoclinic'
loop_
_space_group_symop_operation_xyz
x,y,z
-x,y,-z
-x,-y,-z
x,-y,z
1/2+x,1/2+y,z
1/2-x,1/2+y,-z
1/2-x,1/2-y,-z
1/2+x,1/2-y,z
loop_
_atom_site_type_symbol
_atom_site_label
_atom_site_fract_x
_atom_site_fract_y
_atom_site_fract_z
Si Si1 0.805653 0.736448 0.254784
Si Si2 0.111745 0.567981 0.063877
Si Si3 0.794524 0.825031 0.832541
Si Si4 0.172129 0.645437 0.228829
Si Si5 0.742987 0.569151 0.312498
Si Si6 0.950330 0.688348 0.934015
Si Si7 0.066666 0.753665 0.320112
Si Si8 0.758526 0.650368 0.564184
O O1 0.738292 0.719013 0.246193
O O2 0.801846 0.698242 0.407218
O O3 0.804663 0.806606 0.292015
O O4 0.871913 0.711570 0.078291
O O5 0.086177 0.500000 0.103187
O O6 0.176215 0.571711 0.859800
O O7 0.143047 0.589746 0.174907
O O8 0.055420 0.618502 0.098080
O O9 0.798487 0.888386 0.743465
O O10 0.870024 0.801329 0.782464
O O11 0.737275 0.829812 0.040131
O O12 0.109889 0.695248 0.320452
O O13 0.199447 0.630414 0.351053
O O14 0.721136 0.500000 0.342221
O O15 0.739761 0.598690 0.475820
O O16 0.970259 0.728785 0.772924
O O17 0.000000 0.697307 0.000000
O O18 0.000000 0.776638 0.500000
#
# Coordination Sequence:
#
# PCOD9170885 Si02
#       8
#     8   8   8   8   8   8   8   8
#     4  10  18  32  49  77  98 136 170 198 255 318
#     4   9  18  35  51  67  95 140 185 209 241 295
#     4  10  17  36  56  72 101 141 173 202 257 314
#     4  10  18  31  52  75 102 138 168 213 252 300
#     4   9  18  32  51  75 100 131 174 214 246 297
#     4  11  22  34  49  73 107 137 169 208 258 304
#     4  11  22  31  50  80 106 129 166 218 260 304
#     4  10  18  26  52  75 104 125 162 213 259 295
#
# _framework density 16.391479
#
# number of rings (size 3 to 8) (size 9 to 14) (size 15 to 20)
#    0.000    2.000    6.250    1.125    1.750    0.750 
#    0.000    0.000    0.000    6.375    0.000    0.000 
#    0.000    3.000    0.000    0.000    0.000    0.000 
#
# Total GULP energy -178213.795658 kJ/mol
# GULP energy per Si atom -5569.181114 kJ/mol
# Density = 1.635417 g / cm^3
# Si number density = 16.391479 Si / 1000 Ang^3
#
#
#
# Elastic Constant Matrix: (Units=GPa)
#
#
# Indices 1 2 3 4 5 6 
#
# 1 76.4428 26.4492 12.4881 0.0000 18.3573 0.0000
# 2 26.4492 83.3852 -0.9856 0.0000 13.6341 0.0000
# 3 12.4881 -0.9856 26.8998 0.0000 13.4620 0.0000
# 4 0.0000 0.0000 0.0000 14.8868 0.0000 8.3869
# 5 18.3573 13.6341 13.4620 0.0000 27.6100 0.0000
# 6 0.0000 0.0000 0.0000 8.3869 0.0000 9.9212
#
#
#
# Elastic Compliance Matrix: (Units=1/GPa)
#
#
# Indices 1 2 3 4 5 6 
#
# 1 0.016985 -0.004307 -0.004571 0.000000 -0.006937 0.000000
# 2 -0.004307 0.014645 0.006246 0.000000 -0.007413 0.000000
# 3 -0.004571 0.006246 0.052313 0.000000 -0.025552 0.000000
# 4 0.000000 0.000000 0.000000 0.128257 0.000000 -0.108423
# 5 -0.006937 -0.007413 -0.025552 0.000000 0.056950 0.000000
# 6 0.000000 0.000000 0.000000 -0.108423 0.000000 0.192450
#
#
# Mechanical properties :
#
#
# Convention : Reuss Voigt Hill
#
# Bulk Modulus (GPa) = 12.70997 29.18123 20.94560
# Shear Modulus (GPa) = 10.14011 20.40201 15.27106
#
# Velocity S-wave (km/s) = 2.48991 3.53182 3.05560
# Velocity P-wave (km/s) = 4.00463 5.87137 5.02544
#
# Compressibility (1/GPa) = 0.07867840
#
# Stress axis : x y z
#
# Youngs Moduli (GPa) = 58.87680 68.28395 19.11556
#
# Poissons Ratio (x) = 0.29411 0.08738
# Poissons Ratio (y) = 0.25359 -0.11940
# Poissons Ratio (z) = 0.26914 -0.42652
#
# Static dielectric constant tensor:
#      x y z
#    x 1.560710 0.000000 0.032370 
#    y 0.000000 1.565880 0.000000 
#    z 0.032370 0.000000 1.589590 
# 
# From -- ./inp_files/90659.got.cif
#   From: 2010.05.17/outbox.cif.g08.bks.cpg/sg12_46_cif.got.tgz:90659.got - 2010.06.03 13:09:07.
