data_PCOD9170467
_publ_section_title
;
Structure prediction by ZEFSAII (Michael W. Deem and Ramdas Pophale) SiO2 
 PCOD9170467
Probable space group: C 2/M
;
_chemical_formula_sum "Si O2"
_cell_formula_units_Z 48
_cell_length_a 31.095284
_cell_length_b 15.952141
_cell_length_c 10.648795
_cell_angle_alpha 90.000000
_cell_angle_beta 25.471412
_cell_angle_gamma 90.000000
_cell_volume 2271.662063
_symmetry_space_group_name_H-M "C 2/M"
_symmetry_group_IT_number 12
_symmetry_cell_setting 'monoclinic'
loop_
_space_group_symop_operation_xyz
x,y,z
-x,y,-z
-x,-y,-z
x,-y,z
1/2+x,1/2+y,z
1/2-x,1/2+y,-z
1/2-x,1/2-y,-z
1/2+x,1/2-y,z
loop_
_atom_site_type_symbol
_atom_site_label
_atom_site_fract_x
_atom_site_fract_y
_atom_site_fract_z
Si Si1 0.497988 0.348594 0.644405
Si Si2 0.778933 0.905792 0.268889
Si Si3 0.009940 0.344271 0.336254
Si Si4 0.731181 0.168260 0.641031
Si Si5 0.572497 0.145150 0.698710
Si Si6 0.577177 0.656200 0.693870
O O1 0.500000 0.387802 0.500000
O O2 0.530798 0.251493 0.542370
O O3 0.560741 0.381931 0.598582
O O4 0.381925 0.355317 0.988713
O O5 0.743541 0.904138 0.505995
O O6 0.687196 0.868054 0.432525
O O7 0.798352 0.000000 0.175482
O O8 0.000000 0.383389 0.500000
O O9 0.952399 0.388092 0.373571
O O10 0.123382 0.334919 0.988622
O O11 0.750000 0.250000 0.500000
O O12 0.814656 0.157670 0.527628
O O13 0.550037 0.244893 0.751428
O O14 0.500000 0.111301 0.000000
O O15 0.500000 0.619894 0.000000
#
# Coordination Sequence:
#
# PCOD9170467 Si02
#       6
#     8   8   8   8   8   8
#     4  10  21  37  56  89 121 152 189 242 297 341
#     4  12  24  37  58  87 120 159 197 233 286 356
#     4  10  20  34  60  92 120 141 190 255 300 332
#     4  12  18  37  61  85 116 154 198 245 284 337
#     4  10  18  34  58  88 114 147 194 239 287 341
#     4  10  17  31  63  89 110 147 193 243 289 335
#
# _framework density 21.129902999999999
#
# number of rings (size 3 to 8) (size 9 to 14) (size 15 to 20)
#    0.000    1.333    6.667    1.000    0.000    2.000 
#    0.000    6.667    0.000    4.000    0.000    0.000 
#    0.000    0.000    0.000    0.000    0.000    0.000 
#
# Total GULP energy -133794.585628 kJ/mol
# GULP energy per Si atom -5574.774401 kJ/mol
# Density = 2.108181 g / cm^3
# Si number density = 21.129903 Si / 1000 Ang^3
#
#
#
# Elastic Constant Matrix: (Units=GPa)
#
#
# Indices 1 2 3 4 5 6 
#
# 1 234.2364 -4.1343 59.7664 0.0000 22.1350 0.0000
# 2 -4.1343 32.9308 -4.1971 0.0000 6.4693 0.0000
# 3 59.7664 -4.1971 69.1882 0.0000 15.7678 0.0000
# 4 0.0000 0.0000 0.0000 -0.8394 0.0000 5.1645
# 5 22.1350 6.4693 15.7678 0.0000 43.9710 0.0000
# 6 0.0000 0.0000 0.0000 5.1645 0.0000 -9.1833
#
#
#
# Elastic Compliance Matrix: (Units=1/GPa)
#
#
# Indices 1 2 3 4 5 6 
#
# 1 0.005535 0.000367 -0.004477 0.000000 -0.001235 0.000000
# 2 0.000367 0.031962 0.002979 0.000000 -0.005956 0.000000
# 3 -0.004477 0.002979 0.019698 0.000000 -0.005248 0.000000
# 4 0.000000 0.000000 0.000000 0.484269 0.000000 0.272343
# 5 -0.001235 -0.005956 -0.005248 0.000000 0.026122 0.000000
# 6 0.000000 0.000000 0.000000 0.272343 0.000000 0.044266
#
#
# Mechanical properties :
#
#
# Convention : Reuss Voigt Hill
#
# Bulk Modulus (GPa) = 18.20426 48.80283 33.50355
# Shear Modulus (GPa) = 7.90608 25.78435 16.84521
#
# Velocity S-wave (km/s) = 1.93643 3.49704 2.82657
# Velocity P-wave (km/s) = 3.69240 6.28111 5.15200
#
# Compressibility (1/GPa) = 0.05493221
#
# Stress axis : x y z
#
# Youngs Moduli (GPa) = 180.67584 31.28675 50.76709
#
# Poissons Ratio (x) = -0.01147 0.22731
# Poissons Ratio (y) = -0.06626 -0.15125
# Poissons Ratio (z) = 0.80897 -0.09321
#
# Static dielectric constant tensor:
#      x y z
#    x 1.811490 0.000000 0.043100 
#    y 0.000000 1.800750 0.000000 
#    z 0.043100 0.000000 1.751250 
# 
# From -- ./inp_files/112728.got.cif
#   From: 2010.05.17/outbox.cif.g08.bks.cpg/sg12_57_cif.got.tgz:112728.got - 2010.06.03 13:09:07.
