data_PCOD9170929
_publ_section_title
;
Structure prediction by ZEFSAII (Michael W. Deem and Ramdas Pophale) SiO2 
 PCOD9170929
Probable space group: C 2/M
;
_chemical_formula_sum "Si O2"
_cell_formula_units_Z 44
_cell_length_a 17.412812
_cell_length_b 16.616604
_cell_length_c 25.458696
_cell_angle_alpha 90.000000
_cell_angle_beta 18.903780
_cell_angle_gamma 90.000000
_cell_volume 2386.521301
_symmetry_space_group_name_H-M "C 2/M"
_symmetry_group_IT_number 12
_symmetry_cell_setting 'monoclinic'
loop_
_space_group_symop_operation_xyz
x,y,z
-x,y,-z
-x,-y,-z
x,-y,z
1/2+x,1/2+y,z
1/2-x,1/2+y,-z
1/2-x,1/2-y,-z
1/2+x,1/2-y,z
loop_
_atom_site_type_symbol
_atom_site_label
_atom_site_fract_x
_atom_site_fract_y
_atom_site_fract_z
Si Si1 0.785140 0.500000 0.573699
Si Si2 0.353273 0.198028 0.042026
Si Si3 0.000000 0.210467 0.500000
Si Si4 0.186323 0.000000 0.764008
Si Si5 0.886388 0.150238 0.947669
Si Si6 0.072316 0.595953 0.812125
Si Si7 0.639539 0.321464 0.672094
O O1 0.737651 0.500000 0.667683
O O2 0.693830 0.411927 0.617973
O O3 0.054799 0.500000 0.380760
O O4 0.068220 0.206224 0.232745
O O5 0.500000 0.200284 0.000000
O O6 0.411061 0.273433 0.967921
O O7 0.441163 0.120539 0.951464
O O8 0.197793 0.151900 0.346097
O O9 0.133071 0.267496 0.457688
O O10 0.036171 0.922312 0.873959
O O11 0.001916 0.171957 0.816877
O O12 0.620235 0.121159 0.107718
O O13 0.118218 0.500000 0.780532
#
# Coordination Sequence:
#
# PCOD9170929 Si02
#       7
#     4   8   4   4   8   8   8
#     4   9  18  28  53  92 110 136 178 244 305 309
#     4  11  23  39  58  83 118 157 193 229 283 352
#     4  12  19  35  62  88 114 142 194 249 287 328
#     4   9  16  28  59  83 110 138 180 251 279 323
#     4  10  17  37  59  84 110 147 198 239 274 330
#     4  11  22  37  60  87 113 150 196 240 285 333
#     4  10  19  34  59  86 114 145 193 242 284 333
#
# _framework density 18.436878
#
# number of rings (size 3 to 8) (size 9 to 14) (size 15 to 20)
#    0.000    1.636    4.545    3.545    3.818    0.364 
#    0.000    1.364    0.000    0.000    0.000    0.000 
#    0.000    0.000    0.000    0.000    0.000    0.000 
#
# Total GULP energy -122503.712214 kJ/mol
# GULP energy per Si atom -5568.350555 kJ/mol
# Density = 1.839491 g / cm^3
# Si number density = 18.436878 Si / 1000 Ang^3
#
#
#
# Elastic Constant Matrix: (Units=GPa)
#
#
# Indices 1 2 3 4 5 6 
#
# 1 71.2280 32.2031 26.1735 0.4982 -30.8581 -0.3290
# 2 32.2031 130.7123 45.0534 0.3365 -20.5656 -0.2394
# 3 26.1735 45.0534 96.6041 0.9320 -31.5389 -0.7462
# 4 0.4982 0.3365 0.9320 -28.4545 -0.2789 36.3300
# 5 -30.8581 -20.5656 -31.5389 -0.2789 20.4998 0.1779
# 6 -0.3290 -0.2394 -0.7462 36.3300 0.1779 -25.2571
#
#
#
# Elastic Compliance Matrix: (Units=1/GPa)
#
#
# Indices 1 2 3 4 5 6 
#
# 1 0.067307 -0.004549 0.031082 0.000252 0.144579 -0.000371
# 2 -0.004549 0.009711 -0.004724 -0.000024 -0.004374 0.000041
# 3 0.031082 -0.004724 0.035880 0.000273 0.097256 -0.000343
# 4 0.000252 -0.000024 0.000273 0.042014 0.000823 0.060428
# 5 0.144579 -0.004374 0.097256 0.000823 0.411670 -0.000632
# 6 -0.000371 0.000041 -0.000343 0.060428 -0.000632 0.047337
#
#
# Mechanical properties :
#
#
# Convention : Reuss Voigt Hill
#
# Bulk Modulus (GPa) = 6.38916 56.15605 31.27260
# Shear Modulus (GPa) = 8.03246 6.36526 7.19886
#
# Velocity S-wave (km/s) = 2.08954 1.86010 1.97815
# Velocity P-wave (km/s) = 3.04869 5.92773 4.71341
#
# Compressibility (1/GPa) = 0.15651518
#
# Stress axis : x y z
#
# Youngs Moduli (GPa) = 14.85725 102.97170 27.87082
#
# Poissons Ratio (x) = 0.46847 -0.86628
# Poissons Ratio (y) = 0.06759 0.13166
# Poissons Ratio (z) = -0.46179 0.48645
#
# Static dielectric constant tensor:
#      x y z
#    x 1.644230 0.000000 -0.035880 
#    y 0.000000 1.678300 0.000020 
#    z -0.035880 0.000020 1.688440 
# 
# From -- ./inp_files/364102.got.cif
#   From: 2010.05.17/outbox.cif.g08.bks.cpg/sg12_183_cif.got.tgz:364102.got - 2010.06.03 13:09:07.
