data_PCOD9170898
_publ_section_title
;
Structure prediction by ZEFSAII (Michael W. Deem and Ramdas Pophale) SiO2 
 PCOD9170898
Probable space group: C 2/M
;
_chemical_formula_sum "Si O2"
_cell_formula_units_Z 58
_cell_length_a 29.252186
_cell_length_b 19.732676
_cell_length_c 9.610472
_cell_angle_alpha 90.000000
_cell_angle_beta 28.099144
_cell_angle_gamma 90.000000
_cell_volume 2612.815474
_symmetry_space_group_name_H-M "C 2/M"
_symmetry_group_IT_number 12
_symmetry_cell_setting 'monoclinic'
loop_
_space_group_symop_operation_xyz
x,y,z
-x,y,-z
-x,-y,-z
x,-y,z
1/2+x,1/2+y,z
1/2-x,1/2+y,-z
1/2-x,1/2-y,-z
1/2+x,1/2-y,z
loop_
_atom_site_type_symbol
_atom_site_label
_atom_site_fract_x
_atom_site_fract_y
_atom_site_fract_z
Si Si1 0.847181 0.286732 0.377485
Si Si2 0.418936 0.173299 0.878795
Si Si3 0.910454 0.384693 0.439966
Si Si4 0.188589 0.078758 0.108372
Si Si5 0.500000 0.000000 0.000000
Si Si6 0.876241 0.822780 0.950539
Si Si7 0.094195 0.132045 0.835517
Si Si8 0.249162 0.423212 0.759790
O O1 0.882223 0.319279 0.138571
O O2 0.898827 0.319318 0.371665
O O3 0.733951 0.303844 0.703876
O O4 0.870607 0.207413 0.305288
O O5 0.423512 0.249316 0.809744
O O6 0.338115 0.128943 0.020023
O O7 0.522151 0.136696 0.612783
O O8 0.802999 0.409909 0.766764
O O9 0.962999 0.441492 0.208732
O O10 0.130931 0.131225 0.166702
O O11 0.163566 0.000000 0.148211
O O12 0.184486 0.092411 0.283988
O O13 0.922643 0.863245 0.954763
O O14 0.182768 0.083541 0.557634
O O15 0.000000 0.113937 0.000000
O O16 0.213026 0.500000 0.872137
#
# Coordination Sequence:
#
# PCOD9170898 Si02
#       8
#     8   8   8   8   2   8   8   8
#     4  10  17  36  59  91 125 153 196 255 308 354
#     4  11  19  36  59  89 126 159 205 248 309 353
#     4  11  22  34  59  96 129 164 200 246 299 373
#     4  10  24  44  61  86 130 168 204 243 314 379
#     4  12  20  32  56  98 132 160 208 234 294 380
#     4  10  20  38  66  91 119 161 207 257 299 370
#     4  11  21  39  66  91 115 148 206 265 314 349
#     4  11  25  41  59  85 124 168 198 254 315 369
#
# _framework density 22.198277000000001
#
# number of rings (size 3 to 8) (size 9 to 14) (size 15 to 20)
#    0.000    1.379    4.828    2.483    0.966    1.931 
#    0.000    2.069    6.069    1.655    0.000    0.000 
#    0.000    0.000    0.000    0.000    0.000    0.000 
#
# Total GULP energy -161989.140137 kJ/mol
# GULP energy per Si atom -5585.832419 kJ/mol
# Density = 2.214775 g / cm^3
# Si number density = 22.198277 Si / 1000 Ang^3
#
#
#
# Elastic Constant Matrix: (Units=GPa)
#
#
# Indices 1 2 3 4 5 6 
#
# 1 106.1052 41.0716 14.3711 0.0000 -8.0640 0.0000
# 2 41.0716 59.6154 -2.0316 0.0000 15.8872 0.0000
# 3 14.3711 -2.0316 56.4805 0.0000 7.6744 0.0000
# 4 0.0000 0.0000 0.0000 -1.0346 0.0000 12.9705
# 5 -8.0640 15.8872 7.6744 0.0000 23.1382 0.0000
# 6 0.0000 0.0000 0.0000 12.9705 0.0000 20.4795
#
#
#
# Elastic Compliance Matrix: (Units=1/GPa)
#
#
# Indices 1 2 3 4 5 6 
#
# 1 0.020936 -0.021462 -0.009522 0.000000 0.025191 0.000000
# 2 -0.021462 0.042956 0.012598 0.000000 -0.041153 0.000000
# 3 -0.009522 0.012598 0.023255 0.000000 -0.019682 0.000000
# 4 0.000000 0.000000 0.000000 -0.108116 0.000000 0.068474
# 5 0.025191 -0.041153 -0.019682 0.000000 0.086783 0.000000
# 6 0.000000 0.000000 0.000000 0.068474 0.000000 0.005462
#
#
# Mechanical properties :
#
#
# Convention : Reuss Voigt Hill
#
# Bulk Modulus (GPa) = 19.85057 36.55813 28.20435
# Shear Modulus (GPa) = 40.05090 19.76928 29.91009
#
# Velocity S-wave (km/s) = 4.25224 2.98749 3.67469
# Velocity P-wave (km/s) = 5.75069 5.32962 5.54415
#
# Compressibility (1/GPa) = 0.05037639
#
# Stress axis : x y z
#
# Youngs Moduli (GPa) = 47.76399 23.27938 43.00064
#
# Poissons Ratio (x) = 0.49961 0.40945
# Poissons Ratio (y) = 1.02509 -0.54171
# Poissons Ratio (z) = 0.45481 -0.29327
#
# Static dielectric constant tensor:
#      x y z
#    x 1.824280 0.000000 0.007840 
#    y 0.000000 1.762530 0.000000 
#    z 0.007840 0.000000 1.860690 
# 
# From -- ./inp_files/99262.got.cif
#   From: 2010.05.17/outbox.cif.g08.bks.cpg/sg12_50_cif.got.tgz:99262.got - 2010.06.03 13:09:07.
