data_PCOD9170156
_publ_section_title
;
Structure prediction by ZEFSAII (Michael W. Deem and Ramdas Pophale) SiO2 
 PCOD9170156
Probable space group: C 2/M
;
_chemical_formula_sum "Si O2"
_cell_formula_units_Z 48
_cell_length_a 16.954747
_cell_length_b 14.074841
_cell_length_c 19.007372
_cell_angle_alpha 90.000000
_cell_angle_beta 159.102820
_cell_angle_gamma 90.000000
_cell_volume 1617.894794
_symmetry_space_group_name_H-M "C 2/M"
_symmetry_group_IT_number 12
_symmetry_cell_setting 'monoclinic'
loop_
_space_group_symop_operation_xyz
x,y,z
-x,y,-z
-x,-y,-z
x,-y,z
1/2+x,1/2+y,z
1/2-x,1/2+y,-z
1/2-x,1/2-y,-z
1/2+x,1/2-y,z
loop_
_atom_site_type_symbol
_atom_site_label
_atom_site_fract_x
_atom_site_fract_y
_atom_site_fract_z
Si Si1 0.985338 0.127833 0.906118
Si Si2 0.247626 0.364939 0.000997
Si Si3 0.460323 0.146976 0.894610
Si Si4 0.316966 0.360617 0.552973
Si Si5 0.535584 0.104177 0.440928
Si Si6 0.050929 0.168128 0.610833
O O1 0.996993 0.240986 0.918767
O O2 0.752961 0.106553 0.673430
O O3 0.000000 0.098488 0.000000
O O4 0.189180 0.101089 0.025166
O O5 0.060019 0.393108 0.902206
O O6 0.250000 0.250000 0.000000
O O7 0.474432 0.387890 0.227826
O O8 0.320615 0.127525 0.863324
O O9 0.178728 0.150010 0.640210
O O10 0.116099 0.402096 0.427743
O O11 0.407869 0.379689 0.552485
O O12 0.444873 0.214491 0.373694
O O13 0.431171 0.000000 0.367023
O O14 0.750000 0.250000 0.500000
#
# Coordination Sequence:
#
# PCOD9170156 Si02
#       6
#     8   8   8   8   8   8
#     4   9  18  32  50  77 110 143 189 229 276 334
#     4   9  17  28  49  75 108 142 175 227 287 331
#     4  10  17  30  49  78 111 144 176 232 287 333
#     4   9  19  34  52  81 107 140 188 239 275 328
#     4  10  21  37  56  78 113 159 190 224 280 344
#     4  11  20  33  54  85 115 137 188 239 280 331
#
# _framework density 29.668184
#
# number of rings (size 3 to 8) (size 9 to 14) (size 15 to 20)
#    0.000    2.333    3.333    0.000    2.333    0.667 
#    0.000    0.000    0.000    1.000    0.000    9.333 
#    0.000    0.000    0.000    0.000    0.000   48.167 
#
# Total GULP energy -133639.249830 kJ/mol
# GULP energy per Si atom -5568.302076 kJ/mol
# Density = 2.960066 g / cm^3
# Si number density = 29.668184 Si / 1000 Ang^3
#
#
#
# Elastic Constant Matrix: (Units=GPa)
#
#
# Indices 1 2 3 4 5 6 
#
# 1 372.9973 36.0875 105.0100 -0.0054 14.6198 -0.0043
# 2 36.0875 116.7779 -5.2424 -0.0141 1.4813 0.0140
# 3 105.0100 -5.2424 240.4855 -0.0144 26.9198 0.0100
# 4 -0.0054 -0.0141 -0.0144 -24.0793 -0.0048 9.4296
# 5 14.6198 1.4813 26.9198 -0.0048 43.5574 -0.0039
# 6 -0.0043 0.0140 0.0100 9.4296 -0.0039 -18.1105
#
#
#
# Elastic Compliance Matrix: (Units=1/GPa)
#
#
# Indices 1 2 3 4 5 6 
#
# 1 0.003181 -0.001043 -0.001392 0.000000 -0.000172 -0.000002
# 2 -0.001043 0.008922 0.000693 -0.000003 -0.000381 0.000006
# 3 -0.001392 0.000693 0.005083 -0.000001 -0.002698 0.000004
# 4 0.000000 -0.000003 -0.000001 -0.052166 -0.000007 -0.027161
# 5 -0.000172 -0.000381 -0.002698 -0.000007 0.024696 -0.000011
# 6 -0.000002 0.000006 0.000004 -0.027161 -0.000011 -0.069359
#
#
# Mechanical properties :
#
#
# Convention : Reuss Voigt Hill
#
# Bulk Modulus (GPa) = 72.99408 111.33012 92.16210
# Shear Modulus (GPa) = -69.84149 39.90055 -14.97047
#
# Velocity S-wave (km/s) = -4.85716 3.67126 -2.24876
# Velocity P-wave (km/s) = 2.60750 7.45502 4.93854
#
# Compressibility (1/GPa) = 0.01369974
#
# Stress axis : x y z
#
# Youngs Moduli (GPa) = 314.40194 112.08772 196.72054
#
# Poissons Ratio (x) = 0.11693 0.27391
# Poissons Ratio (y) = 0.32800 -0.13627
# Poissons Ratio (z) = 0.43777 -0.07764
#
# Static dielectric constant tensor:
#      x y z
#    x 2.367570 -0.000040 -0.013150 
#    y -0.000040 2.065290 0.000000 
#    z -0.013150 0.000000 2.618760 
# 
# From -- ./inp_files/271797.got.cif
#   From: 2010.05.17/outbox.cif.g08.bks.cpg/sg12_136_cif.got.tgz:271797.got - 2010.06.03 13:09:07.
