data_PCOD9170533
_publ_section_title
;
Structure prediction by ZEFSAII (Michael W. Deem and Ramdas Pophale) SiO2 
 PCOD9170533
Probable space group: C 2/M
;
_chemical_formula_sum "Si O2"
_cell_formula_units_Z 60
_cell_length_a 27.549350
_cell_length_b 14.238304
_cell_length_c 12.935391
_cell_angle_alpha 90.000000
_cell_angle_beta 137.616481
_cell_angle_gamma 90.000000
_cell_volume 3420.322264
_symmetry_space_group_name_H-M "C 2/M"
_symmetry_group_IT_number 12
_symmetry_cell_setting 'monoclinic'
loop_
_space_group_symop_operation_xyz
x,y,z
-x,y,-z
-x,-y,-z
x,-y,z
1/2+x,1/2+y,z
1/2-x,1/2+y,-z
1/2-x,1/2-y,-z
1/2+x,1/2-y,z
loop_
_atom_site_type_symbol
_atom_site_label
_atom_site_fract_x
_atom_site_fract_y
_atom_site_fract_z
Si Si1 0.345529 0.893546 0.684579
Si Si2 0.480300 0.890078 0.586725
Si Si3 0.063324 0.892171 0.356615
Si Si4 0.500000 0.843229 0.000000
Si Si5 0.152251 0.708233 0.534626
Si Si6 0.051930 0.256182 0.865342
Si Si7 0.914243 0.102194 0.847014
Si Si8 0.812455 0.749755 0.800803
O O1 0.427564 0.896686 0.855781
O O2 0.345003 0.830168 0.579976
O O3 0.304411 0.840751 0.713015
O O4 0.320443 0.000000 0.624840
O O5 0.500000 0.867266 0.500000
O O6 0.398164 0.863218 0.482721
O O7 0.526548 0.829409 0.739731
O O8 0.492258 0.000000 0.623188
O O9 0.113147 0.810201 0.483632
O O10 0.093359 0.898152 0.287533
O O11 0.983879 0.843859 0.221426
O O12 0.062039 0.000000 0.395282
O O13 0.517406 0.787003 0.921648
O O14 0.233692 0.713490 0.700149
O O15 0.136807 0.262739 0.019784
O O16 0.861208 0.178137 0.810779
O O17 0.895432 0.000000 0.861131
O O18 0.000000 0.113819 0.000000
#
# Coordination Sequence:
#
# PCOD9170533 Si02
#       8
#     8   8   8   4   8   8   8   8
#     4  11  21  31  48  76 116 157 189 221 273 339
#     4  10  22  42  66  86 106 143 194 240 281 330
#     4  10  18  31  51  72 104 150 192 224 260 319
#     4  10  17  32  53  82 116 146 187 234 279 330
#     4  11  22  37  52  79 116 149 186 233 283 334
#     4  10  19  34  57  83 113 145 187 232 277 334
#     4  10  18  29  47  72 107 151 187 217 257 320
#     4  11  22  34  49  81 118 150 181 228 280 342
#
# _framework density 17.542207000000001
#
# number of rings (size 3 to 8) (size 9 to 14) (size 15 to 20)
#    0.000    1.600    5.333    1.800    0.933    3.733 
#    0.000    0.667    0.000    6.400    0.000    0.000 
#    0.000    0.000    0.000    0.000    0.000    0.000 
#
# Total GULP energy -167145.840698 kJ/mol
# GULP energy per Si atom -5571.528023 kJ/mol
# Density = 1.750228 g / cm^3
# Si number density = 17.542207 Si / 1000 Ang^3
#
#
#
# Elastic Constant Matrix: (Units=GPa)
#
#
# Indices 1 2 3 4 5 6 
#
# 1 43.1270 16.9177 43.8209 0.0000 2.3752 0.0000
# 2 16.9177 107.2011 34.4849 0.0000 -12.6577 0.0000
# 3 43.8209 34.4849 85.0641 0.0000 12.2948 0.0000
# 4 0.0000 0.0000 0.0000 9.4319 0.0000 -2.3833
# 5 2.3752 -12.6577 12.2948 0.0000 20.9287 0.0000
# 6 0.0000 0.0000 0.0000 -2.3833 0.0000 14.3976
#
#
#
# Elastic Compliance Matrix: (Units=1/GPa)
#
#
# Indices 1 2 3 4 5 6 
#
# 1 0.051355 0.002998 -0.029605 0.000000 0.013377 0.000000
# 2 0.002998 0.013167 -0.008725 0.000000 0.012749 0.000000
# 3 -0.029605 -0.008725 0.033681 0.000000 -0.021703 0.000000
# 4 0.000000 0.000000 0.000000 0.110651 0.000000 0.018317
# 5 0.013377 0.012749 -0.021703 0.000000 0.066724 0.000000
# 6 0.000000 0.000000 0.000000 0.018317 0.000000 0.072488
#
#
# Mechanical properties :
#
#
# Convention : Reuss Voigt Hill
#
# Bulk Modulus (GPa) = 36.31061 47.31548 41.81304
# Shear Modulus (GPa) = 11.68469 18.29621 14.99045
#
# Velocity S-wave (km/s) = 2.58367 3.23303 2.92642
# Velocity P-wave (km/s) = 5.44467 6.40059 5.94188
#
# Compressibility (1/GPa) = 0.02754016
#
# Stress axis : x y z
#
# Youngs Moduli (GPa) = 19.47212 75.94637 29.69046
#
# Poissons Ratio (x) = -0.22771 0.87898
# Poissons Ratio (y) = -0.05838 0.25906
# Poissons Ratio (z) = 0.57647 0.66265
#
# Static dielectric constant tensor:
#      x y z
#    x 1.571200 0.000000 0.019780 
#    y 0.000000 1.668890 0.000000 
#    z 0.019780 0.000000 1.622980 
# 
# From -- ./inp_files/176469.got.cif
#   From: 2010.05.17/outbox.cif.g08.bks.cpg/sg12_89_cif.got.tgz:176469.got - 2010.06.03 13:09:07.
