data_PCOD9170136
_publ_section_title
;
Structure prediction by ZEFSAII (Michael W. Deem and Ramdas Pophale) SiO2 
 PCOD9170136
Probable space group: C 2/M
;
_chemical_formula_sum "Si O2"
_cell_formula_units_Z 48
_cell_length_a 8.897476
_cell_length_b 22.775518
_cell_length_c 15.135173
_cell_angle_alpha 90.000000
_cell_angle_beta 53.817052
_cell_angle_gamma 90.000000
_cell_volume 2475.535863
_symmetry_space_group_name_H-M "C 2/M"
_symmetry_group_IT_number 12
_symmetry_cell_setting 'monoclinic'
loop_
_space_group_symop_operation_xyz
x,y,z
-x,y,-z
-x,-y,-z
x,-y,z
1/2+x,1/2+y,z
1/2-x,1/2+y,-z
1/2-x,1/2-y,-z
1/2+x,1/2-y,z
loop_
_atom_site_type_symbol
_atom_site_label
_atom_site_fract_x
_atom_site_fract_y
_atom_site_fract_z
Si Si1 0.301618 0.398992 0.593930
Si Si2 0.693490 0.668447 0.052935
Si Si3 0.819291 0.500000 0.502100
Si Si4 0.434344 0.885385 0.813823
Si Si5 0.057564 0.500000 0.880398
Si Si6 0.070965 0.000000 0.317019
Si Si7 0.000000 0.742226 0.000000
Si Si8 0.934235 0.931796 0.126058
O O1 0.500000 0.368030 0.500000
O O2 0.212144 0.442351 0.549472
O O3 0.378855 0.444552 0.639768
O O4 0.124545 0.365946 0.699021
O O5 0.547626 0.714937 0.064308
O O6 0.584442 0.610515 0.120282
O O7 0.833272 0.655211 0.921764
O O8 0.823510 0.700476 0.077899
O O9 0.643507 0.500000 0.628707
O O10 0.000000 0.500000 0.500000
O O11 0.485799 0.943960 0.851363
O O12 0.272113 0.904243 0.801577
O O13 0.278724 0.500000 0.809721
O O14 0.000000 0.500000 0.000000
O O15 0.931253 0.000000 0.149480
O O16 0.000000 0.928437 0.000000
#
# Coordination Sequence:
#
# PCOD9170136 Si02
#       8
#     8   8   4   8   4   4   4   8
#     4   8  15  28  48  62  86 130 169 207 242 294
#     4  10  20  34  52  74  97 134 174 213 246 297
#     4   9  15  26  44  64  89 123 171 216 239 279
#     4  10  17  30  48  72  98 135 180 196 253 310
#     4  10  19  27  42  68 108 143 163 205 241 298
#     4   7  14  29  40  58  87 127 175 195 232 289
#     4  10  20  36  54  68 100 134 178 216 246 282
#     4   9  16  29  46  69 101 134 162 202 240 309
#
# _framework density 19.389741999999998
#
# number of rings (size 3 to 8) (size 9 to 14) (size 15 to 20)
#    0.000    2.833    3.333    1.500    2.333    0.000 
#    0.000    5.417    3.667    0.000    0.000    1.167 
#    0.000    0.000    0.000    0.000    0.000    0.000 
#
# Total GULP energy -133657.408988 kJ/mol
# GULP energy per Si atom -5569.058708 kJ/mol
# Density = 1.934561 g / cm^3
# Si number density = 19.389742 Si / 1000 Ang^3
#
#
#
# Elastic Constant Matrix: (Units=GPa)
#
#
# Indices 1 2 3 4 5 6 
#
# 1 119.1896 29.1673 37.7349 0.0000 -32.9033 0.0000
# 2 29.1673 66.4418 10.8547 0.0000 -16.1313 0.0000
# 3 37.7349 10.8547 107.2685 0.0000 -32.9547 0.0000
# 4 0.0000 0.0000 0.0000 7.3451 0.0000 -12.5700
# 5 -32.9033 -16.1313 -32.9547 0.0000 34.9376 0.0000
# 6 0.0000 0.0000 0.0000 -12.5700 0.0000 25.4293
#
#
#
# Elastic Compliance Matrix: (Units=1/GPa)
#
#
# Indices 1 2 3 4 5 6 
#
# 1 0.011890 -0.002906 -0.001212 0.000000 0.008713 0.000000
# 2 -0.002906 0.017733 0.001271 0.000000 0.006649 0.000000
# 3 -0.001212 0.001271 0.013305 0.000000 0.011996 0.000000
# 4 0.000000 0.000000 0.000000 0.883736 0.000000 0.436842
# 5 0.008713 0.006649 0.011996 0.000000 0.051213 0.000000
# 6 0.000000 0.000000 0.000000 0.436842 0.000000 0.255261
#
#
# Mechanical properties :
#
#
# Convention : Reuss Voigt Hill
#
# Bulk Modulus (GPa) = 26.85725 49.82373 38.34049
# Shear Modulus (GPa) = 3.99602 27.88528 15.94065
#
# Velocity S-wave (km/s) = 1.43714 3.79640 2.87037
# Velocity P-wave (km/s) = 4.07862 6.70586 5.54994
#
# Compressibility (1/GPa) = 0.03723390
#
# Stress axis : x y z
#
# Youngs Moduli (GPa) = 84.10333 56.39088 75.15747
#
# Poissons Ratio (x) = 0.16389 0.09108
# Poissons Ratio (y) = 0.24443 -0.09550
# Poissons Ratio (z) = 0.10192 -0.07165
#
# Static dielectric constant tensor:
#      x y z
#    x 1.732270 0.000000 -0.031080 
#    y 0.000000 1.675660 0.000000 
#    z -0.031080 0.000000 1.746190 
# 
# From -- ./inp_files/258831.got.cif
#   From: 2010.05.17/outbox.cif.g08.bks.cpg/sg12_130_cif.got.tgz:258831.got - 2010.06.03 13:09:07.
