data_PCOD9170437
_publ_section_title
;
Structure prediction by ZEFSAII (Michael W. Deem and Ramdas Pophale) SiO2 
 PCOD9170437
Probable space group: C 2/M
;
_chemical_formula_sum "Si O2"
_cell_formula_units_Z 64
_cell_length_a 15.775576
_cell_length_b 17.240394
_cell_length_c 12.741265
_cell_angle_alpha 90.000000
_cell_angle_beta 80.633980
_cell_angle_gamma 90.000000
_cell_volume 3419.136019
_symmetry_space_group_name_H-M "C 2/M"
_symmetry_group_IT_number 12
_symmetry_cell_setting 'monoclinic'
loop_
_space_group_symop_operation_xyz
x,y,z
-x,y,-z
-x,-y,-z
x,-y,z
1/2+x,1/2+y,z
1/2-x,1/2+y,-z
1/2-x,1/2-y,-z
1/2+x,1/2-y,z
loop_
_atom_site_type_symbol
_atom_site_label
_atom_site_fract_x
_atom_site_fract_y
_atom_site_fract_z
Si Si1 0.750328 0.909565 0.966591
Si Si2 0.702420 0.216927 0.809474
Si Si3 0.645676 0.835160 0.157485
Si Si4 0.946742 0.801749 0.264236
Si Si5 0.912901 0.090874 0.454225
Si Si6 0.954443 0.315970 0.616097
Si Si7 0.297650 0.703932 0.581240
Si Si8 0.926887 0.185312 0.928300
O O1 0.705839 0.855844 0.886366
O O2 0.841574 0.864966 0.966555
O O3 0.762792 0.000000 0.936851
O O4 0.689044 0.902128 0.080591
O O5 0.774619 0.279161 0.828173
O O6 0.613944 0.262875 0.810743
O O7 0.733319 0.191483 0.689103
O O8 0.592033 0.858215 0.273380
O O9 0.593201 0.776481 0.090614
O O10 0.905118 0.867116 0.343995
O O11 0.973868 0.735003 0.339752
O O12 0.030666 0.837162 0.192000
O O13 0.834268 0.122403 0.536911
O O14 0.000000 0.113139 0.500000
O O15 0.913681 0.000000 0.440939
O O16 0.879263 0.257143 0.595437
O O17 0.000000 0.349555 0.500000
O O18 0.250000 0.750000 0.500000
O O19 0.000000 0.173336 0.000000
#
# Coordination Sequence:
#
# PCOD9170437 Si02
#       8
#     8   8   8   8   8   8   8   8
#     4  11  23  39  56  84 121 153 189 240 307 355
#     4  10  20  34  61  81 110 156 202 244 276 337
#     4   9  20  35  56  84 112 152 193 244 284 341
#     4  11  18  34  57  85 115 149 198 237 278 346
#     4  11  22  34  52  85 130 156 181 236 300 349
#     4  10  17  31  56  86 109 138 199 244 285 320
#     4  11  18  33  56  82 116 155 202 234 271 343
#     4  10  20  35  61  84 112 149 198 233 286 352
#
# _framework density 18.718178000000002
#
# number of rings (size 3 to 8) (size 9 to 14) (size 15 to 20)
#    0.000    1.625    3.750    3.750    0.000    1.250 
#    0.000    1.875    0.000    9.750    0.000    0.000 
#    0.000    1.000    0.000    0.000    0.000    0.000 
#
# Total GULP energy -178241.595671 kJ/mol
# GULP energy per Si atom -5570.049865 kJ/mol
# Density = 1.867557 g / cm^3
# Si number density = 18.718178 Si / 1000 Ang^3
#
#
#
# Elastic Constant Matrix: (Units=GPa)
#
#
# Indices 1 2 3 4 5 6 
#
# 1 70.9143 32.0273 29.4056 0.0000 4.6069 0.0000
# 2 32.0273 54.3338 38.8434 0.0000 -3.2877 0.0000
# 3 29.4056 38.8434 119.5677 0.0000 -22.5024 0.0000
# 4 0.0000 0.0000 0.0000 18.9455 0.0000 -2.0464
# 5 4.6069 -3.2877 -22.5024 0.0000 46.7495 0.0000
# 6 0.0000 0.0000 0.0000 -2.0464 0.0000 15.4542
#
#
#
# Elastic Compliance Matrix: (Units=1/GPa)
#
#
# Indices 1 2 3 4 5 6 
#
# 1 0.019974 -0.010397 -0.002246 0.000000 -0.003781 0.000000
# 2 -0.010397 0.029605 -0.007121 0.000000 -0.000321 0.000000
# 3 -0.002246 -0.007121 0.012290 0.000000 0.005636 0.000000
# 4 0.000000 0.000000 0.000000 0.053549 0.000000 0.007091
# 5 -0.003781 -0.000321 0.005636 0.000000 0.024454 0.000000
# 6 0.000000 0.000000 0.000000 0.007091 0.000000 0.065646
#
#
# Mechanical properties :
#
#
# Convention : Reuss Voigt Hill
#
# Bulk Modulus (GPa) = 44.76153 49.48535 47.12344
# Shear Modulus (GPa) = 19.80257 25.86580 22.83418
#
# Velocity S-wave (km/s) = 3.25612 3.72136 3.49649
# Velocity P-wave (km/s) = 6.17266 6.70516 6.44441
#
# Compressibility (1/GPa) = 0.02234061
#
# Stress axis : x y z
#
# Youngs Moduli (GPa) = 50.06478 33.77855 81.36698
#
# Poissons Ratio (x) = 0.35119 0.18277
# Poissons Ratio (y) = 0.52051 0.57942
# Poissons Ratio (z) = 0.11246 0.24054
#
# Static dielectric constant tensor:
#      x y z
#    x 1.679240 0.000000 -0.012880 
#    y 0.000000 1.618320 0.000000 
#    z -0.012880 0.000000 1.715440 
# 
# From -- ./inp_files/157820.got.cif
#   From: 2010.05.17/outbox.cif.g08.bks.cpg/sg12_79_cif.got.tgz:157820.got - 2010.06.03 13:09:07.
