data_PCOD9170972
_publ_section_title
;
Structure prediction by ZEFSAII (Michael W. Deem and Ramdas Pophale) SiO2 
 PCOD9170972
Probable space group: C 2/M
;
_chemical_formula_sum "Si O2"
_cell_formula_units_Z 64
_cell_length_a 9.476302
_cell_length_b 14.832120
_cell_length_c 24.634181
_cell_angle_alpha 90.000000
_cell_angle_beta 126.126663
_cell_angle_gamma 90.000000
_cell_volume 2796.653925
_symmetry_space_group_name_H-M "C 2/M"
_symmetry_group_IT_number 12
_symmetry_cell_setting 'monoclinic'
loop_
_space_group_symop_operation_xyz
x,y,z
-x,y,-z
-x,-y,-z
x,-y,z
1/2+x,1/2+y,z
1/2-x,1/2+y,-z
1/2-x,1/2-y,-z
1/2+x,1/2-y,z
loop_
_atom_site_type_symbol
_atom_site_label
_atom_site_fract_x
_atom_site_fract_y
_atom_site_fract_z
Si Si1 0.676650 0.649784 0.063460
Si Si2 0.733882 0.350228 0.700070
Si Si3 0.526172 0.153462 0.065980
Si Si4 0.683927 0.607928 0.563905
Si Si5 0.137070 0.855813 0.791209
Si Si6 0.505632 0.895283 0.440613
Si Si7 0.242423 0.865815 0.290495
Si Si8 0.381867 0.864211 0.210444
O O1 0.603322 0.747353 0.067642
O O2 0.751567 0.604521 0.134543
O O3 0.842455 0.657840 0.058655
O O4 0.500000 0.606530 0.000000
O O5 0.693114 0.375068 0.629870
O O6 0.615665 0.380241 0.722912
O O7 0.746274 0.242298 0.704166
O O8 0.922202 0.386216 0.760275
O O9 0.685372 0.114490 0.138640
O O10 0.500000 0.110586 0.000000
O O11 0.500000 0.642137 0.500000
O O12 0.686128 0.500000 0.558213
O O13 0.847451 0.645572 0.566358
O O14 0.135184 0.745786 0.792624
O O15 0.953656 0.888603 0.772648
O O16 0.500000 0.855718 0.500000
O O17 0.324517 0.894809 0.366128
O O18 0.554723 0.000000 0.459181
O O19 0.357607 0.896574 0.266040
#
# Coordination Sequence:
#
# PCOD9170972 Si02
#       8
#     8   8   8   8   8   8   8   8
#     4  10  18  25  39  61  94 140 174 209 253 302
#     4  10  18  35  51  76 105 132 172 214 253 307
#     4  10  18  26  38  61  96 137 176 208 250 308
#     4  10  22  39  58  77 102 136 169 210 258 304
#     4   9  19  28  46  70 100 134 168 210 259 298
#     4  10  22  40  57  76 104 135 170 210 255 308
#     4  10  20  33  53  77 101 139 169 210 262 301
#     4   9  17  30  46  66 102 133 172 212 252 303
#
# _framework density 22.88449
#
# number of rings (size 3 to 8) (size 9 to 14) (size 15 to 20)
#    0.000    2.250    2.500    1.500    8.750    0.500 
#    0.000    1.250    0.000    0.000    0.000    0.000 
#    0.000    6.000    0.000    0.000    0.000    0.000 
#
# Total GULP energy -178313.140768 kJ/mol
# GULP energy per Si atom -5572.285649 kJ/mol
# Density = 2.283240 g / cm^3
# Si number density = 22.884490 Si / 1000 Ang^3
#
#
#
# Elastic Constant Matrix: (Units=GPa)
#
#
# Indices 1 2 3 4 5 6 
#
# 1 90.7534 7.3167 34.6877 0.0000 1.9003 0.0000
# 2 7.3167 56.6370 2.5370 0.0000 0.1061 0.0000
# 3 34.6877 2.5370 165.4480 0.0000 -6.8334 0.0000
# 4 0.0000 0.0000 0.0000 22.1675 0.0000 -8.8241
# 5 1.9003 0.1061 -6.8334 0.0000 39.6256 0.0000
# 6 0.0000 0.0000 0.0000 -8.8241 0.0000 -2.4768
#
#
#
# Elastic Compliance Matrix: (Units=1/GPa)
#
#
# Indices 1 2 3 4 5 6 
#
# 1 0.012137 -0.001451 -0.002565 0.000000 -0.001020 0.000000
# 2 -0.001451 0.017842 0.000032 0.000000 0.000027 0.000000
# 3 -0.002565 0.000032 0.006634 0.000000 0.001267 0.000000
# 4 0.000000 0.000000 0.000000 0.018655 0.000000 -0.066462
# 5 -0.001020 0.000027 0.001267 0.000000 0.025504 0.000000
# 6 0.000000 0.000000 0.000000 -0.066462 0.000000 -0.166964
#
#
# Mechanical properties :
#
#
# Convention : Reuss Voigt Hill
#
# Bulk Modulus (GPa) = 34.90959 44.65791 39.78375
# Shear Modulus (GPa) = -72.80669 29.74974 -21.52847
#
# Velocity S-wave (km/s) = -5.64659 3.60946 -3.07048
# Velocity P-wave (km/s) = 5.21767 6.07682 2.20269
#
# Compressibility (1/GPa) = 0.02864543
#
# Stress axis : x y z
#
# Youngs Moduli (GPa) = 82.38934 56.04663 150.74465
#
# Poissons Ratio (x) = 0.08133 0.38661
# Poissons Ratio (y) = 0.11956 -0.00479
# Poissons Ratio (z) = 0.21130 -0.00178
#
# Static dielectric constant tensor:
#      x y z
#    x 1.839390 0.000000 0.002710 
#    y 0.000000 1.919890 0.000000 
#    z 0.002710 0.000000 1.856810 
# 
# From -- ./inp_files/333999.got.cif
#   From: 2010.05.17/outbox.cif.g08.bks.cpg/sg12_167_cif.got.tgz:333999.got - 2010.06.03 13:09:07.
