data_PCOD9170310
_publ_section_title
;
Structure prediction by ZEFSAII (Michael W. Deem and Ramdas Pophale) SiO2 
 PCOD9170310
Probable space group: C 2/M
;
_chemical_formula_sum "Si O2"
_cell_formula_units_Z 64
_cell_length_a 19.973891
_cell_length_b 18.708234
_cell_length_c 21.255687
_cell_angle_alpha 90.000000
_cell_angle_beta 26.930860
_cell_angle_gamma 90.000000
_cell_volume 3597.388102
_symmetry_space_group_name_H-M "C 2/M"
_symmetry_group_IT_number 12
_symmetry_cell_setting 'monoclinic'
loop_
_space_group_symop_operation_xyz
x,y,z
-x,y,-z
-x,-y,-z
x,-y,z
1/2+x,1/2+y,z
1/2-x,1/2+y,-z
1/2-x,1/2-y,-z
1/2+x,1/2-y,z
loop_
_atom_site_type_symbol
_atom_site_label
_atom_site_fract_x
_atom_site_fract_y
_atom_site_fract_z
Si Si1 0.936615 0.769943 0.484118
Si Si2 0.148219 0.577524 0.914888
Si Si3 0.072514 0.710675 0.245610
Si Si4 0.474835 0.578764 0.629820
Si Si5 0.008393 0.920343 0.752431
Si Si6 0.857919 0.697219 0.981766
Si Si7 0.618223 0.727769 0.700982
Si Si8 0.688757 0.082641 0.083506
O O1 0.771790 0.745352 0.605102
O O2 0.000000 0.753303 0.500000
O O3 0.038259 0.735170 0.344563
O O4 0.940719 0.855346 0.470113
O O5 0.158510 0.500000 0.942835
O O6 0.305392 0.580364 0.748197
O O7 0.137838 0.652668 0.958448
O O8 0.000000 0.572562 0.000000
O O9 0.136616 0.630435 0.186275
O O10 0.928486 0.726713 0.322554
O O11 0.201385 0.762108 0.109344
O O12 0.537553 0.500000 0.564716
O O13 0.466415 0.587640 0.713396
O O14 0.109457 0.854506 0.687300
O O15 0.072621 0.000000 0.705343
O O16 0.861753 0.917039 0.918876
O O17 0.877087 0.632488 0.916244
O O18 0.987504 0.752709 0.859464
O O19 0.642063 0.000000 0.125307
#
# Coordination Sequence:
#
# PCOD9170310 Si02
#       8
#     8   8   8   8   8   8   8   8
#     4  12  26  40  56  80 116 163 198 230 281 339
#     4  10  19  30  51  79 115 157 189 221 270 337
#     4  11  20  38  59  83 117 149 188 239 293 330
#     4  10  20  37  57  81 119 159 191 226 281 346
#     4  10  17  32  62  92 112 140 184 237 295 347
#     4  11  18  32  58  88 114 143 181 239 289 336
#     4  11  21  36  60  88 113 150 188 242 282 337
#     4  10  17  30  56  89 115 135 174 238 300 340
#
# _framework density 17.790686000000001
#
# number of rings (size 3 to 8) (size 9 to 14) (size 15 to 20)
#    0.000    1.375    6.250    1.500    1.750    0.250 
#    0.000    3.750    0.000    1.500    0.000    1.750 
#    0.000    0.000    0.000    0.000    0.000    0.000 
#
# Total GULP energy -178227.346978 kJ/mol
# GULP energy per Si atom -5569.604593 kJ/mol
# Density = 1.775019 g / cm^3
# Si number density = 17.790686 Si / 1000 Ang^3
#
#
#
# Elastic Constant Matrix: (Units=GPa)
#
#
# Indices 1 2 3 4 5 6 
#
# 1 77.2420 38.0380 39.3159 -0.0012 -12.2373 0.0006
# 2 38.0380 129.4655 30.2799 -0.0013 -14.4512 0.0008
# 3 39.3159 30.2799 58.0653 -0.0006 -9.6597 0.0017
# 4 -0.0012 -0.0013 -0.0006 11.1835 0.0010 10.9155
# 5 -12.2373 -14.4512 -9.6597 0.0010 26.1848 -0.0003
# 6 0.0006 0.0008 0.0017 10.9155 -0.0003 9.2101
#
#
#
# Elastic Compliance Matrix: (Units=1/GPa)
#
#
# Indices 1 2 3 4 5 6 
#
# 1 0.021205 -0.002958 -0.012186 0.000001 0.003782 0.000000
# 2 -0.002958 0.009498 -0.002459 -0.000003 0.002952 0.000004
# 3 -0.012186 -0.002459 0.027255 -0.000021 0.003002 0.000021
# 4 0.000001 -0.000003 -0.000021 -0.570359 0.000021 0.675971
# 5 0.003782 0.002952 0.003002 0.000021 0.042694 -0.000025
# 6 0.000000 0.000004 0.000021 0.675971 -0.000025 -0.692563
#
#
# Mechanical properties :
#
#
# Convention : Reuss Voigt Hill
#
# Bulk Modulus (GPa) = 43.95293 53.33781 48.64537
# Shear Modulus (GPa) = -4.46636 19.79163 7.66264
#
# Velocity S-wave (km/s) = -1.58618 3.33899 2.07761
# Velocity P-wave (km/s) = 4.62651 6.70157 5.75828
#
# Compressibility (1/GPa) = 0.02275161
#
# Stress axis : x y z
#
# Youngs Moduli (GPa) = 47.15928 105.28794 36.69065
#
# Poissons Ratio (x) = 0.31143 0.44711
# Poissons Ratio (y) = 0.13949 0.09022
# Poissons Ratio (z) = 0.57469 0.25890
#
# Static dielectric constant tensor:
#      x y z
#    x 1.642810 0.000000 0.041660 
#    y 0.000000 1.656370 0.000000 
#    z 0.041660 0.000000 1.652960 
# 
# From -- ./inp_files/317784.got.cif
#   From: 2010.05.17/outbox.cif.g08.bks.cpg/sg12_159_cif.got.tgz:317784.got - 2010.06.03 13:09:07.
