data_PCOD9170074
_publ_section_title
;
Structure prediction by ZEFSAII (Michael W. Deem and Ramdas Pophale) SiO2 
 PCOD9170074
Probable space group: C 2/M
;
_chemical_formula_sum "Si O2"
_cell_formula_units_Z 40
_cell_length_a 9.193740
_cell_length_b 23.494684
_cell_length_c 12.245401
_cell_angle_alpha 90.000000
_cell_angle_beta 54.929977
_cell_angle_gamma 90.000000
_cell_volume 2164.847096
_symmetry_space_group_name_H-M "C 2/M"
_symmetry_group_IT_number 12
_symmetry_cell_setting 'monoclinic'
loop_
_space_group_symop_operation_xyz
x,y,z
-x,y,-z
-x,-y,-z
x,-y,z
1/2+x,1/2+y,z
1/2-x,1/2+y,-z
1/2-x,1/2-y,-z
1/2+x,1/2-y,z
loop_
_atom_site_type_symbol
_atom_site_label
_atom_site_fract_x
_atom_site_fract_y
_atom_site_fract_z
Si Si1 0.000000 0.903133 0.000000
Si Si2 0.997596 0.124818 0.242820
Si Si3 0.823802 0.688542 0.502224
Si Si4 0.308010 0.625593 0.638954
Si Si5 0.845628 0.000000 0.344571
Si Si6 0.216468 0.500000 0.165203
Si Si7 0.309241 0.000000 0.348768
O O1 0.984107 0.868969 0.894394
O O2 0.170736 0.945131 0.920061
O O3 0.823045 0.156815 0.361026
O O4 0.161220 0.144277 0.249273
O O5 0.960285 0.057565 0.282348
O O6 0.750000 0.750000 0.500000
O O7 0.833253 0.653894 0.382852
O O8 0.000000 0.692018 0.500000
O O9 0.500000 0.636709 0.500000
O O10 0.275679 0.558448 0.654021
O O11 0.733348 0.000000 0.503420
O O12 0.717647 0.000000 0.295836
O O13 0.012362 0.500000 0.222444
#
# Coordination Sequence:
#
# PCOD9170074 Si02
#       7
#     4   8   8   8   4   4   4
#     4   9  20  38  52  74 122 168 196 215 286 328
#     4  10  20  36  59  81 121 157 192 228 282 348
#     4  11  23  38  62  88 113 140 185 246 303 339
#     4  10  20  33  54  87 120 150 182 241 297 341
#     4  10  17  29  54  85 123 146 188 236 294 331
#     4   9  21  30  48  81 120 162 198 236 259 345
#     4  12  18  28  55  86 124 145 197 234 297 330
#
# _framework density 18.477055
#
# number of rings (size 3 to 8) (size 9 to 14) (size 15 to 20)
#    0.000    1.800    4.000    3.600    5.600    0.000 
#    0.000    2.000    0.000    4.800    0.000    0.000 
#    0.000    0.000    0.000    0.000    0.000    0.000 
#
# Total GULP energy -111462.862262 kJ/mol
# GULP energy per Si atom -5573.143113 kJ/mol
# Density = 1.843500 g / cm^3
# Si number density = 18.477055 Si / 1000 Ang^3
#
#
#
# Elastic Constant Matrix: (Units=GPa)
#
#
# Indices 1 2 3 4 5 6 
#
# 1 131.3034 38.9619 48.5755 0.0000 38.2262 0.0000
# 2 38.9619 68.3171 11.4763 0.0000 23.6593 0.0000
# 3 48.5755 11.4763 94.9676 0.0000 34.3180 0.0000
# 4 0.0000 0.0000 0.0000 0.3484 0.0000 4.6184
# 5 38.2262 23.6593 34.3180 0.0000 27.9965 0.0000
# 6 0.0000 0.0000 0.0000 4.6184 0.0000 17.0998
#
#
#
# Elastic Compliance Matrix: (Units=1/GPa)
#
#
# Indices 1 2 3 4 5 6 
#
# 1 0.012849 -0.002184 -0.001141 0.000000 -0.014300 0.000000
# 2 -0.002184 0.023891 0.007986 0.000000 -0.026997 0.000000
# 3 -0.001141 0.007986 0.021586 0.000000 -0.031651 0.000000
# 4 0.000000 0.000000 0.000000 -1.112386 0.000000 0.300439
# 5 -0.014300 -0.026997 -0.031651 0.000000 0.116856 0.000000
# 6 0.000000 0.000000 0.000000 0.300439 0.000000 -0.022664
#
#
# Mechanical properties :
#
#
# Convention : Reuss Voigt Hill
#
# Bulk Modulus (GPa) = 14.78238 54.73505 34.75872
# Shear Modulus (GPa) = -5.28184 22.12722 8.42269
#
# Velocity S-wave (km/s) = -1.69257 3.46432 2.13737
# Velocity P-wave (km/s) = 2.04891 6.75941 4.99438
#
# Compressibility (1/GPa) = 0.06764811
#
# Stress axis : x y z
#
# Youngs Moduli (GPa) = 77.82537 41.85657 46.32639
#
# Poissons Ratio (x) = 0.09142 0.05285
# Poissons Ratio (y) = 0.16997 -0.36995
# Poissons Ratio (z) = 0.08878 -0.33425
#
# Static dielectric constant tensor:
#      x y z
#    x 1.694360 0.000000 0.037340 
#    y 0.000000 1.618940 0.000000 
#    z 0.037340 0.000000 1.633090 
# 
# From -- ./inp_files/120358.got.cif
#   From: 2010.05.17/outbox.cif.g08.bks.cpg/sg12_61_cif.got.tgz:120358.got - 2010.06.03 13:09:07.
