data_PCOD9170768
_publ_section_title
;
Structure prediction by ZEFSAII (Michael W. Deem and Ramdas Pophale) SiO2 
 PCOD9170768
Probable space group: C 2/M
;
_chemical_formula_sum "Si O2"
_cell_formula_units_Z 44
_cell_length_a 9.104260
_cell_length_b 26.639125
_cell_length_c 7.467434
_cell_angle_alpha 90.000000
_cell_angle_beta 70.506744
_cell_angle_gamma 90.000000
_cell_volume 1707.263874
_symmetry_space_group_name_H-M "C 2/M"
_symmetry_group_IT_number 12
_symmetry_cell_setting 'monoclinic'
loop_
_space_group_symop_operation_xyz
x,y,z
-x,y,-z
-x,-y,-z
x,-y,z
1/2+x,1/2+y,z
1/2-x,1/2+y,-z
1/2-x,1/2-y,-z
1/2+x,1/2-y,z
loop_
_atom_site_type_symbol
_atom_site_label
_atom_site_fract_x
_atom_site_fract_y
_atom_site_fract_z
Si Si1 0.318389 0.319379 0.311586
Si Si2 0.729608 0.557228 0.077896
Si Si3 0.000000 0.882883 0.000000
Si Si4 0.134641 0.407090 0.344904
Si Si5 0.159819 0.231069 0.220581
Si Si6 0.396388 0.852624 0.201012
O O1 0.360765 0.345330 0.101537
O O2 0.253574 0.373007 0.416585
O O3 0.187252 0.277906 0.341270
O O4 0.482858 0.290679 0.283273
O O5 0.732401 0.500000 0.134434
O O6 0.558345 0.582000 0.135967
O O7 0.785472 0.561941 0.847080
O O8 0.833124 0.594128 0.153349
O O9 0.000000 0.437980 0.500000
O O10 0.024414 0.365603 0.295097
O O11 0.256992 0.186389 0.274943
O O12 0.250000 0.250000 0.000000
O O13 0.500000 0.828743 0.000000
#
# Coordination Sequence:
#
# PCOD9170768 Si02
#       6
#     8   8   4   8   8   8
#     4  11  20  32  55  84 119 158 197 240 292 351
#     4  10  20  36  63  91 118 150 196 256 311 355
#     4  10  17  34  54  92 120 150 185 244 308 358
#     4  10  23  41  56  80 123 165 205 244 294 361
#     4  12  18  31  56  90 120 151 196 249 300 351
#     4  10  20  35  57  87 119 153 197 251 300 348
#
# _framework density 25.77223
#
# number of rings (size 3 to 8) (size 9 to 14) (size 15 to 20)
#    0.000    1.455    3.636    4.636    0.000    3.636 
#    0.000    4.545    0.000    0.000    0.000    3.818 
#    0.000    0.000    0.000    0.000    0.000    0.000 
#
# Total GULP energy -122633.907653 kJ/mol
# GULP energy per Si atom -5574.268530 kJ/mol
# Density = 2.571357 g / cm^3
# Si number density = 25.772230 Si / 1000 Ang^3
#
#
#
# Elastic Constant Matrix: (Units=GPa)
#
#
# Indices 1 2 3 4 5 6 
#
# 1 147.8732 67.7641 4.8808 0.0000 -4.2168 0.0000
# 2 67.7641 178.7735 -2.8472 0.0000 4.0143 0.0000
# 3 4.8808 -2.8472 41.3187 0.0000 -0.0034 0.0000
# 4 0.0000 0.0000 0.0000 22.8352 0.0000 4.3978
# 5 -4.2168 4.0143 -0.0034 0.0000 40.4876 0.0000
# 6 0.0000 0.0000 0.0000 4.3978 0.0000 22.9938
#
#
#
# Elastic Compliance Matrix: (Units=1/GPa)
#
#
# Indices 1 2 3 4 5 6 
#
# 1 0.008298 -0.003191 -0.001200 0.000000 0.001181 0.000000
# 2 -0.003191 0.006839 0.000848 0.000000 -0.001010 0.000000
# 3 -0.001200 0.000848 0.024402 0.000000 -0.000207 0.000000
# 4 0.000000 0.000000 0.000000 0.045467 0.000000 -0.008696
# 5 0.001181 -0.001010 -0.000207 0.000000 0.024922 0.000000
# 6 0.000000 0.000000 0.000000 -0.008696 0.000000 0.045153
#
#
# Mechanical properties :
#
#
# Convention : Reuss Voigt Hill
#
# Bulk Modulus (GPa) = 30.81278 56.39567 43.60422
# Shear Modulus (GPa) = 28.90413 37.14117 33.02265
#
# Velocity S-wave (km/s) = 3.35255 3.80034 3.58345
# Velocity P-wave (km/s) = 5.19306 6.41768 5.83757
#
# Compressibility (1/GPa) = 0.03245407
#
# Stress axis : x y z
#
# Youngs Moduli (GPa) = 120.50896 146.21111 40.97976
#
# Poissons Ratio (x) = 0.46656 0.04918
# Poissons Ratio (y) = 0.38455 -0.03476
# Poissons Ratio (z) = 0.14461 -0.12401
#
# Static dielectric constant tensor:
#      x y z
#    x 2.128560 0.000000 -0.127980 
#    y 0.000000 1.953450 0.000000 
#    z -0.127980 0.000000 2.423050 
# 
# From -- ./inp_files/41615.got.cif
#   From: 2010.05.17/outbox.cif.g08.bks.cpg/sg12_21_cif.got.tgz:41615.got - 2010.06.03 13:09:07.
