data_PCOD9170199
_publ_section_title
;
Structure prediction by ZEFSAII (Michael W. Deem and Ramdas Pophale) SiO2 
 PCOD9170199
Probable space group: C 2/M
;
_chemical_formula_sum "Si O2"
_cell_formula_units_Z 56
_cell_length_a 27.497455
_cell_length_b 12.905996
_cell_length_c 10.329442
_cell_angle_alpha 90.000000
_cell_angle_beta 119.426886
_cell_angle_gamma 90.000000
_cell_volume 3192.792871
_symmetry_space_group_name_H-M "C 2/M"
_symmetry_group_IT_number 12
_symmetry_cell_setting 'monoclinic'
loop_
_space_group_symop_operation_xyz
x,y,z
-x,y,-z
-x,-y,-z
x,-y,z
1/2+x,1/2+y,z
1/2-x,1/2+y,-z
1/2-x,1/2-y,-z
1/2+x,1/2-y,z
loop_
_atom_site_type_symbol
_atom_site_label
_atom_site_fract_x
_atom_site_fract_y
_atom_site_fract_z
Si Si1 0.797787 0.620253 0.269162
Si Si2 0.214837 0.381372 0.047706
Si Si3 0.392238 0.381301 0.620307
Si Si4 0.692678 0.618359 0.286664
Si Si5 0.130632 0.809474 0.958778
Si Si6 0.338509 0.669321 0.287894
Si Si7 0.011253 0.878039 0.861224
O O1 0.813324 0.500000 0.309883
O O2 0.753188 0.655399 0.318854
O O3 0.844672 0.707353 0.322906
O O4 0.771890 0.625742 0.089555
O O5 0.197999 0.500000 0.051812
O O6 0.272386 0.356917 0.197121
O O7 0.165912 0.298413 0.010557
O O8 0.398318 0.500000 0.676785
O O9 0.344525 0.331202 0.649428
O O10 0.370527 0.383084 0.446407
O O11 0.454519 0.339407 0.718470
O O12 0.703222 0.500000 0.339987
O O13 0.656101 0.623027 0.108364
O O14 0.140330 0.854142 0.828107
O O15 0.064688 0.809131 0.896510
O O16 0.022581 0.000000 0.841938
O O17 0.000000 0.874843 0.000000
#
# Coordination Sequence:
#
# PCOD9170199 Si02
#       7
#     8   8   8   8   8   8   8
#     4   9  17  31  52  77 104 136 175 206 242 307
#     4  10  19  32  51  78 108 135 168 210 254 302
#     4  10  22  34  48  77 110 135 163 208 263 305
#     4  10  17  30  51  75 100 133 171 202 243 305
#     4  11  19  33  55  77  96 137 179 206 245 304
#     4  11  20  33  51  79 110 135 162 211 265 300
#     4  10  20  35  55  77 100 132 175 212 248 304
#
# _framework density 17.539501999999999
#
# number of rings (size 3 to 8) (size 9 to 14) (size 15 to 20)
#    0.000    1.857    4.286    1.714    0.000    2.857 
#    0.000    1.429    0.000    1.286    0.000    4.000 
#    0.000    0.000    0.000    0.000    0.000    0.000 
#
# Total GULP energy -155885.617636 kJ/mol
# GULP energy per Si atom -5567.343487 kJ/mol
# Density = 1.749958 g / cm^3
# Si number density = 17.539502 Si / 1000 Ang^3
#
#
#
# Elastic Constant Matrix: (Units=GPa)
#
#
# Indices 1 2 3 4 5 6 
#
# 1 85.4208 19.6973 28.9958 0.0000 0.8748 0.0000
# 2 19.6973 50.6740 6.7244 0.0000 5.1795 0.0000
# 3 28.9958 6.7244 67.9486 0.0000 1.9597 0.0000
# 4 0.0000 0.0000 0.0000 13.8083 0.0000 -2.4360
# 5 0.8748 5.1795 1.9597 0.0000 18.2276 0.0000
# 6 0.0000 0.0000 0.0000 -2.4360 0.0000 10.3064
#
#
#
# Elastic Compliance Matrix: (Units=1/GPa)
#
#
# Indices 1 2 3 4 5 6 
#
# 1 0.014874 -0.005143 -0.005878 0.000000 0.001379 0.000000
# 2 -0.005143 0.022337 0.000160 0.000000 -0.006118 0.000000
# 3 -0.005878 0.000160 0.017256 0.000000 -0.001619 0.000000
# 4 0.000000 0.000000 0.000000 0.075571 0.000000 0.017862
# 5 0.001379 -0.006118 -0.001619 0.000000 0.056708 0.000000
# 6 0.000000 0.000000 0.000000 0.017862 0.000000 0.101248
#
#
# Mechanical properties :
#
#
# Convention : Reuss Voigt Hill
#
# Bulk Modulus (GPa) = 30.53750 34.98650 32.76200
# Shear Modulus (GPa) = 15.59429 18.37685 16.98557
#
# Velocity S-wave (km/s) = 2.98501 3.24039 3.11532
# Velocity P-wave (km/s) = 5.41561 5.83016 5.62670
#
# Compressibility (1/GPa) = 0.03274662
#
# Stress axis : x y z
#
# Youngs Moduli (GPa) = 67.23276 44.76891 57.95040
#
# Poissons Ratio (x) = 0.23022 0.34063
# Poissons Ratio (y) = 0.34574 -0.00929
# Poissons Ratio (z) = 0.39519 -0.00718
#
# Static dielectric constant tensor:
#      x y z
#    x 1.642750 0.000000 -0.009550 
#    y 0.000000 1.641480 0.000000 
#    z -0.009550 0.000000 1.599230 
# 
# From -- ./inp_files/96259.got.cif
#   From: 2010.05.17/outbox.cif.g08.bks.cpg/sg12_49_cif.got.tgz:96259.got - 2010.06.03 13:09:07.
