data_PCOD9170588
_publ_section_title
;
Structure prediction by ZEFSAII (Michael W. Deem and Ramdas Pophale) SiO2 
 PCOD9170588
Probable space group: C 2/M
;
_chemical_formula_sum "Si O2"
_cell_formula_units_Z 64
_cell_length_a 21.561992
_cell_length_b 18.896483
_cell_length_c 9.903079
_cell_angle_alpha 90.000000
_cell_angle_beta 119.312227
_cell_angle_gamma 90.000000
_cell_volume 3518.350221
_symmetry_space_group_name_H-M "C 2/M"
_symmetry_group_IT_number 12
_symmetry_cell_setting 'monoclinic'
loop_
_space_group_symop_operation_xyz
x,y,z
-x,y,-z
-x,-y,-z
x,-y,z
1/2+x,1/2+y,z
1/2-x,1/2+y,-z
1/2-x,1/2-y,-z
1/2+x,1/2-y,z
loop_
_atom_site_type_symbol
_atom_site_label
_atom_site_fract_x
_atom_site_fract_y
_atom_site_fract_z
Si Si1 0.561804 0.655765 0.455502
Si Si2 0.751286 0.671386 0.436924
Si Si3 0.802273 0.653761 0.976210
Si Si4 0.690090 0.677869 0.079524
Si Si5 0.530497 0.675600 0.881037
Si Si6 0.094470 0.318152 0.496917
Si Si7 0.206523 0.916441 0.644348
Si Si8 0.947539 0.670727 0.235222
O O1 0.500000 0.662687 0.500000
O O2 0.523550 0.634524 0.275154
O O3 0.593147 0.734179 0.464291
O O4 0.625019 0.607925 0.578670
O O5 0.750000 0.750000 0.500000
O O6 0.704086 0.670490 0.252584
O O7 0.830959 0.653927 0.474027
O O8 0.725809 0.616351 0.520387
O O9 0.807137 0.738016 0.951022
O O10 0.760203 0.617440 0.810028
O O11 0.752714 0.644841 0.055570
O O12 0.884333 0.631171 0.088379
O O13 0.611698 0.648705 0.963458
O O14 0.538571 0.754714 0.825975
O O15 0.500000 0.678848 0.000000
O O16 0.084280 0.319840 0.647706
O O17 0.027504 0.355324 0.351874
O O18 0.212320 0.000000 0.653791
#
# Coordination Sequence:
#
# PCOD9170588 Si02
#       8
#     8   8   8   8   8   8   8   8
#     4  11  19  36  59  82 124 165 196 242 299 368
#     4  12  21  35  62  89 119 160 204 258 311 354
#     4  10  19  35  57  84 117 150 196 256 307 348
#     4  10  19  32  58  90 111 149 203 255 303 351
#     4  10  19  27  47  84 122 149 181 243 303 348
#     4  10  17  32  57  94 118 148 191 251 311 357
#     4  12  27  41  57  86 128 169 208 249 301 369
#     4   9  18  30  52  87 124 141 179 249 310 363
#
# _framework density 18.190344
#
# number of rings (size 3 to 8) (size 9 to 14) (size 15 to 20)
#    0.000    1.500    6.250    1.500    3.500    0.250 
#    0.000    0.625    0.000    4.875    0.000    1.750 
#    0.000    0.000    0.000    0.000    0.000    0.000 
#
# Total GULP energy -178382.730247 kJ/mol
# GULP energy per Si atom -5574.460320 kJ/mol
# Density = 1.814894 g / cm^3
# Si number density = 18.190344 Si / 1000 Ang^3
#
#
#
# Elastic Constant Matrix: (Units=GPa)
#
#
# Indices 1 2 3 4 5 6 
#
# 1 66.6799 0.5592 8.4852 0.0000 12.2002 0.0000
# 2 0.5592 19.5990 -1.5442 0.0000 6.5030 0.0000
# 3 8.4852 -1.5442 108.9838 0.0000 12.9505 0.0000
# 4 0.0000 0.0000 0.0000 4.4437 0.0000 -0.9164
# 5 12.2002 6.5030 12.9505 0.0000 35.0497 0.0000
# 6 0.0000 0.0000 0.0000 -0.9164 0.0000 2.8619
#
#
#
# Elastic Compliance Matrix: (Units=1/GPa)
#
#
# Indices 1 2 3 4 5 6 
#
# 1 0.016090 0.001370 -0.000562 0.000000 -0.005647 0.000000
# 2 0.001370 0.054932 0.002028 0.000000 -0.011419 0.000000
# 3 -0.000562 0.002028 0.009695 0.000000 -0.003763 0.000000
# 4 0.000000 0.000000 0.000000 0.240947 0.000000 0.077153
# 5 -0.005647 -0.011419 -0.003763 0.000000 0.034006 0.000000
# 6 0.000000 0.000000 0.000000 0.077153 0.000000 0.374126
#
#
# Mechanical properties :
#
#
# Convention : Reuss Voigt Hill
#
# Bulk Modulus (GPa) = 11.57523 23.36258 17.46891
# Shear Modulus (GPa) = 6.64081 20.98857 13.81469
#
# Velocity S-wave (km/s) = 1.91276 3.40049 2.75880
# Velocity P-wave (km/s) = 3.35491 5.31875 4.44660
#
# Compressibility (1/GPa) = 0.08639138
#
# Stress axis : x y z
#
# Youngs Moduli (GPa) = 62.14910 18.20418 103.14222
#
# Poissons Ratio (x) = -0.02495 0.05799
# Poissons Ratio (y) = -0.08517 -0.20922
# Poissons Ratio (z) = 0.03494 -0.03693
#
# Static dielectric constant tensor:
#      x y z
#    x 1.648750 0.000000 0.032090 
#    y 0.000000 1.582940 0.000000 
#    z 0.032090 0.000000 1.655640 
# 
# From -- ./inp_files/98876.got.cif
#   From: 2010.05.17/outbox.cif.g08.bks.cpg/sg12_50_cif.got.tgz:98876.got - 2010.06.03 13:09:07.
