data_PCOD9170469
_publ_section_title
;
Structure prediction by ZEFSAII (Michael W. Deem and Ramdas Pophale) SiO2 
 PCOD9170469
Probable space group: C 2/M
;
_chemical_formula_sum "Si O2"
_cell_formula_units_Z 44
_cell_length_a 27.690902
_cell_length_b 11.507249
_cell_length_c 8.607013
_cell_angle_alpha 90.000000
_cell_angle_beta 141.082996
_cell_angle_gamma 90.000000
_cell_volume 1722.879296
_symmetry_space_group_name_H-M "C 2/M"
_symmetry_group_IT_number 12
_symmetry_cell_setting 'monoclinic'
loop_
_space_group_symop_operation_xyz
x,y,z
-x,y,-z
-x,-y,-z
x,-y,z
1/2+x,1/2+y,z
1/2-x,1/2+y,-z
1/2-x,1/2-y,-z
1/2+x,1/2-y,z
loop_
_atom_site_type_symbol
_atom_site_label
_atom_site_fract_x
_atom_site_fract_y
_atom_site_fract_z
Si Si1 0.413085 0.872898 0.845089
Si Si2 0.422232 0.000000 0.192108
Si Si3 0.372028 0.809241 0.309592
Si Si4 0.986644 0.124600 0.651415
Si Si5 0.774361 0.128198 0.866229
Si Si6 0.855394 0.869894 0.760729
O O1 0.366668 0.752979 0.703241
O O2 0.383677 0.000000 0.709727
O O3 0.417270 0.899873 0.041178
O O4 0.500000 0.861503 0.000000
O O5 0.416065 0.098243 0.315604
O O6 0.431747 0.730223 0.550668
O O7 0.309146 0.862781 0.266602
O O8 0.324796 0.725791 0.075686
O O9 0.000000 0.129561 0.500000
O O10 0.066182 0.126570 0.941993
O O11 0.949769 0.000000 0.596457
O O12 0.805819 0.000000 0.983584
O O13 0.786440 0.139606 0.712196
O O14 0.847821 0.000000 0.666145
#
# Coordination Sequence:
#
# PCOD9170469 Si02
#       6
#     8   4   8   8   8   8
#     4   9  18  33  49  68  97 131 167 212 258 290
#     4  10  17  32  43  72 100 135 165 200 238 299
#     4  11  19  28  46  69 104 135 165 190 234 303
#     4  10  18  31  46  67  97 141 166 193 238 297
#     4  10  18  29  45  68  98 134 160 198 235 289
#     4  10  19  33  52  73 102 130 168 206 248 291
#
# _framework density 25.538641999999999
#
# number of rings (size 3 to 8) (size 9 to 14) (size 15 to 20)
#    0.545    1.455    4.545    0.545    0.000    0.364 
#    1.636    1.364    0.000    0.000    0.000    1.273 
#    0.000    0.727    0.000    0.000    0.000    0.000 
#
# Total GULP energy -122567.887258 kJ/mol
# GULP energy per Si atom -5571.267603 kJ/mol
# Density = 2.548051 g / cm^3
# Si number density = 25.538642 Si / 1000 Ang^3
#
#
#
# Elastic Constant Matrix: (Units=GPa)
#
#
# Indices 1 2 3 4 5 6 
#
# 1 141.8774 77.7554 23.4778 0.0000 14.4193 0.0000
# 2 77.7554 250.7058 35.8277 0.0000 13.8893 0.0000
# 3 23.4778 35.8277 55.8404 0.0000 8.1368 0.0000
# 4 0.0000 0.0000 0.0000 9.3695 0.0000 -8.4379
# 5 14.4193 13.8893 8.1368 0.0000 35.9543 0.0000
# 6 0.0000 0.0000 0.0000 -8.4379 0.0000 0.9423
#
#
#
# Elastic Compliance Matrix: (Units=1/GPa)
#
#
# Indices 1 2 3 4 5 6 
#
# 1 0.008882 -0.002361 -0.001896 0.000000 -0.002221 0.000000
# 2 -0.002361 0.005061 -0.002180 0.000000 -0.000515 0.000000
# 3 -0.001896 -0.002180 0.020548 0.000000 -0.003048 0.000000
# 4 0.000000 0.000000 0.000000 -0.015108 0.000000 -0.135288
# 5 -0.002221 -0.000515 -0.003048 0.000000 0.029593 0.000000
# 6 0.000000 0.000000 0.000000 -0.135288 0.000000 -0.150226
#
#
# Mechanical properties :
#
#
# Convention : Reuss Voigt Hill
#
# Bulk Modulus (GPa) = 46.25773 80.28282 63.27028
# Shear Modulus (GPa) = -61.59726 30.01073 -15.79327
#
# Velocity S-wave (km/s) = -4.91646 3.43171 -2.48948
# Velocity P-wave (km/s) = 3.75188 6.87068 4.06999
#
# Compressibility (1/GPa) = 0.02161801
#
# Stress axis : x y z
#
# Youngs Moduli (GPa) = 112.59356 197.59445 48.66683
#
# Poissons Ratio (x) = 0.46644 0.09227
# Poissons Ratio (y) = 0.26578 0.10607
# Poissons Ratio (z) = 0.21348 0.43067
#
# Static dielectric constant tensor:
#      x y z
#    x 1.974130 0.000000 0.039150 
#    y 0.000000 2.035260 0.000000 
#    z 0.039150 0.000000 2.032150 
# 
# From -- ./inp_files/188471.got.cif
#   From: 2010.05.17/outbox.cif.g08.bks.cpg/sg12_95_cif.got.tgz:188471.got - 2010.06.03 13:09:07.
