data_PCOD9170708
_publ_section_title
;
Structure prediction by ZEFSAII (Michael W. Deem and Ramdas Pophale) SiO2 
 PCOD9170708
Probable space group: C 2/M
;
_chemical_formula_sum "Si O2"
_cell_formula_units_Z 64
_cell_length_a 20.813603
_cell_length_b 7.475159
_cell_length_c 21.013153
_cell_angle_alpha 90.000000
_cell_angle_beta 115.209802
_cell_angle_gamma 90.000000
_cell_volume 2957.941162
_symmetry_space_group_name_H-M "C 2/M"
_symmetry_group_IT_number 12
_symmetry_cell_setting 'monoclinic'
loop_
_space_group_symop_operation_xyz
x,y,z
-x,y,-z
-x,-y,-z
x,-y,z
1/2+x,1/2+y,z
1/2-x,1/2+y,-z
1/2-x,1/2-y,-z
1/2+x,1/2-y,z
loop_
_atom_site_type_symbol
_atom_site_label
_atom_site_fract_x
_atom_site_fract_y
_atom_site_fract_z
Si Si1 0.022757 0.293848 0.748960
Si Si2 0.077199 0.281862 0.054758
Si Si3 0.177127 0.293952 0.782727
Si Si4 0.402645 0.780075 0.790788
Si Si5 0.251745 0.204543 0.684930
Si Si6 0.885869 0.781480 0.438829
Si Si7 0.722539 0.212576 0.058809
Si Si8 0.482095 0.283692 0.593755
O O1 0.036292 0.500000 0.773239
O O2 0.971892 0.218379 0.781720
O O3 0.981624 0.287374 0.664657
O O4 0.100332 0.214178 0.768102
O O5 0.075405 0.500000 0.053188
O O6 0.094079 0.227827 0.134164
O O7 0.142080 0.224846 0.037263
O O8 0.000000 0.219968 0.000000
O O9 0.166566 0.500000 0.758287
O O10 0.215670 0.203014 0.739644
O O11 0.226366 0.289326 0.865449
O O12 0.329815 0.716298 0.727299
O O13 0.401402 0.000000 0.788971
O O14 0.191905 0.284007 0.613359
O O15 0.262448 0.000000 0.668354
O O16 0.918091 0.727913 0.520356
O O17 0.944638 0.729786 0.410731
O O18 0.884615 0.000000 0.437253
O O19 0.723277 0.000000 0.068926
O O20 0.750000 0.250000 0.000000
O O21 0.481874 0.500000 0.596666
#
# Coordination Sequence:
#
# PCOD9170708 Si02
#       8
#     8   8   8   8   8   8   8   8
#     4  10  21  34  51  78 110 142 177 219 267 313
#     4   9  18  33  57  82 104 136 178 214 250 308
#     4  11  22  35  54  80 111 141 174 220 268 312
#     4   9  18  33  53  76 103 139 181 218 255 312
#     4  10  17  33  58  79  99 135 186 227 259 308
#     4   8  15  27  50  78 102 134 176 223 267 314
#     4  11  23  39  60  85 110 139 177 219 265 310
#     4   9  16  30  50  75 106 137 176 221 267 318
#
# _framework density 21.636671
#
# number of rings (size 3 to 8) (size 9 to 14) (size 15 to 20)
#    0.000    2.375    2.500    1.500    1.750    0.500 
#    0.000    3.125    0.000    1.500    0.000    0.000 
#    0.000    0.000    0.000    0.000    0.000    0.000 
#
# Total GULP energy -178700.116750 kJ/mol
# GULP energy per Si atom -5584.378648 kJ/mol
# Density = 2.158743 g / cm^3
# Si number density = 21.636671 Si / 1000 Ang^3
#
#
#
# Elastic Constant Matrix: (Units=GPa)
#
#
# Indices 1 2 3 4 5 6 
#
# 1 117.4772 -0.6175 31.0034 0.0000 7.7080 0.0000
# 2 -0.6175 66.7127 -9.5075 0.0003 3.8445 0.0001
# 3 31.0034 -9.5075 80.7898 0.0000 22.0957 0.0000
# 4 0.0000 0.0003 0.0000 -68.5045 0.0000 -64.0151
# 5 7.7080 3.8445 22.0957 0.0000 36.9876 0.0000
# 6 0.0000 0.0001 0.0000 -64.0151 0.0000 -32.5611
#
#
#
# Elastic Compliance Matrix: (Units=1/GPa)
#
#
# Indices 1 2 3 4 5 6 
#
# 1 0.009488 -0.000471 -0.003788 0.000000 0.000335 0.000000
# 2 -0.000471 0.015587 0.002906 0.000000 -0.003258 0.000000
# 3 -0.003788 0.002906 0.016782 0.000000 -0.009538 0.000000
# 4 0.000000 0.000000 0.000000 0.017437 0.000000 -0.034281
# 5 0.000335 -0.003258 -0.009538 0.000000 0.033003 0.000000
# 6 0.000000 0.000000 0.000000 -0.034281 0.000000 0.036685
#
#
# Mechanical properties :
#
#
# Convention : Reuss Voigt Hill
#
# Bulk Modulus (GPa) = 25.54214 34.08183 29.81198
# Shear Modulus (GPa) = 34.54522 3.45784 19.00153
#
# Velocity S-wave (km/s) = 4.00009 1.26555 2.96667
# Velocity P-wave (km/s) = 5.75890 4.23339 5.05403
#
# Compressibility (1/GPa) = 0.03915099
#
# Stress axis : x y z
#
# Youngs Moduli (GPa) = 105.40171 64.15508 59.58766
#
# Poissons Ratio (x) = 0.03024 0.22571
# Poissons Ratio (y) = 0.04967 -0.17318
# Poissons Ratio (z) = 0.39925 -0.18645
#
# Static dielectric constant tensor:
#      x y z
#    x 1.779680 0.000000 0.019740 
#    y 0.000000 1.830540 0.000000 
#    z 0.019740 0.000000 1.761480 
# 
# From -- ./inp_files/320138.got.cif
#   From: 2010.05.17/outbox.cif.g08.bks.cpg/sg12_161_cif.got.tgz:320138.got - 2010.06.03 13:09:07.
