data_PCOD9170610
_publ_section_title
;
Structure prediction by ZEFSAII (Michael W. Deem and Ramdas Pophale) SiO2 
 PCOD9170610
Probable space group: C 2/M
;
_chemical_formula_sum "Si O2"
_cell_formula_units_Z 52
_cell_length_a 27.351128
_cell_length_b 8.262364
_cell_length_c 11.396633
_cell_angle_alpha 90.000000
_cell_angle_beta 121.224403
_cell_angle_gamma 90.000000
_cell_volume 2202.394697
_symmetry_space_group_name_H-M "C 2/M"
_symmetry_group_IT_number 12
_symmetry_cell_setting 'monoclinic'
loop_
_space_group_symop_operation_xyz
x,y,z
-x,y,-z
-x,-y,-z
x,-y,z
1/2+x,1/2+y,z
1/2-x,1/2+y,-z
1/2-x,1/2-y,-z
1/2+x,1/2-y,z
loop_
_atom_site_type_symbol
_atom_site_label
_atom_site_fract_x
_atom_site_fract_y
_atom_site_fract_z
Si Si1 0.109357 0.811359 0.748841
Si Si2 0.046395 0.184462 0.299438
Si Si3 0.433911 0.689948 0.041219
Si Si4 0.716834 0.807767 0.760062
Si Si5 0.170741 0.689492 0.456106
Si Si6 0.000000 0.244807 0.500000
Si Si7 0.175130 0.691108 0.206644
O O1 0.096321 0.795143 0.869274
O O2 0.174541 0.770781 0.800777
O O3 0.064125 0.699254 0.620462
O O4 0.097659 0.000000 0.699689
O O5 0.102488 0.290707 0.374839
O O6 0.017816 0.176724 0.393678
O O7 0.998522 0.244600 0.148169
O O8 0.062237 0.000000 0.288034
O O9 0.436698 0.500000 0.014671
O O10 0.391434 0.776567 0.900310
O O11 0.694819 0.740622 0.606454
O O12 0.783790 0.768966 0.839427
O O13 0.709052 0.000000 0.756821
O O14 0.185432 0.500000 0.473499
O O15 0.189455 0.760194 0.354015
O O16 0.184882 0.500000 0.217524
#
# Coordination Sequence:
#
# PCOD9170610 Si02
#       7
#     8   8   8   8   8   4   8
#     4  10  19  35  61  89 119 151 189 234 288 348
#     4  10  19  34  61  90 118 152 191 234 286 346
#     4   9  21  39  59  88 120 154 194 238 283 339
#     4  11  23  39  60  88 118 148 191 247 295 342
#     4  10  23  40  58  87 119 150 192 243 295 342
#     4  10  17  32  59  90 119 148 185 230 281 342
#     4  11  24  42  61  79 112 160 203 240 285 344
#
# _framework density 23.610662000000001
#
# number of rings (size 3 to 8) (size 9 to 14) (size 15 to 20)
#    0.000    1.846    1.538    3.692    0.000    4.308 
#    0.000    6.154    0.000    0.000    0.000    0.000 
#    0.000    0.000    0.000    0.000    0.000    0.000 
#
# Total GULP energy -145063.576303 kJ/mol
# GULP energy per Si atom -5579.368319 kJ/mol
# Density = 2.355692 g / cm^3
# Si number density = 23.610662 Si / 1000 Ang^3
#
#
#
# Elastic Constant Matrix: (Units=GPa)
#
#
# Indices 1 2 3 4 5 6 
#
# 1 93.7618 3.3191 -8.1714 0.0000 5.8695 0.0000
# 2 3.3191 29.2174 4.9567 0.0000 -2.3492 0.0000
# 3 -8.1714 4.9567 68.2339 0.0000 7.4019 0.0000
# 4 0.0000 0.0000 0.0000 18.9756 0.0000 6.0471
# 5 5.8695 -2.3492 7.4019 0.0000 32.3677 0.0000
# 6 0.0000 0.0000 0.0000 6.0471 0.0000 16.1734
#
#
#
# Elastic Compliance Matrix: (Units=1/GPa)
#
#
# Indices 1 2 3 4 5 6 
#
# 1 0.011035 -0.001749 0.001722 0.000000 -0.002522 0.000000
# 2 -0.001749 0.035250 -0.003160 0.000000 0.003598 0.000000
# 3 0.001722 -0.003160 0.015535 0.000000 -0.004094 0.000000
# 4 0.000000 0.000000 0.000000 0.059828 0.000000 -0.022369
# 5 -0.002522 0.003598 -0.004094 0.000000 0.032550 0.000000
# 6 0.000000 0.000000 0.000000 -0.022369 0.000000 0.070193
#
#
# Mechanical properties :
#
#
# Convention : Reuss Voigt Hill
#
# Bulk Modulus (GPa) = 18.03514 21.26911 19.65212
# Shear Modulus (GPa) = 20.06038 26.24394 23.15216
#
# Velocity S-wave (km/s) = 2.91801 3.33758 3.13482
# Velocity P-wave (km/s) = 4.35984 4.88676 4.63080
#
# Compressibility (1/GPa) = 0.05544730
#
# Stress axis : x y z
#
# Youngs Moduli (GPa) = 90.61943 28.36855 64.36909
#
# Poissons Ratio (x) = 0.04960 -0.11085
# Poissons Ratio (y) = 0.15845 0.20343
# Poissons Ratio (z) = -0.15605 0.08966
#
# Static dielectric constant tensor:
#      x y z
#    x 1.928400 0.000000 0.004550 
#    y 0.000000 1.844510 0.000000 
#    z 0.004550 0.000000 1.932390 
# 
# From -- ./inp_files/181223.got.cif
#   From: 2010.05.17/outbox.cif.g08.bks.cpg/sg12_91_cif.got.tgz:181223.got - 2010.06.03 13:09:07.
