data_PCOD9170202
_publ_section_title
;
Structure prediction by ZEFSAII (Michael W. Deem and Ramdas Pophale) SiO2 
 PCOD9170202
Probable space group: C 2/M
;
_chemical_formula_sum "Si O2"
_cell_formula_units_Z 64
_cell_length_a 20.299873
_cell_length_b 15.085491
_cell_length_c 12.400295
_cell_angle_alpha 90.000000
_cell_angle_beta 129.670033
_cell_angle_gamma 90.000000
_cell_volume 2922.975658
_symmetry_space_group_name_H-M "C 2/M"
_symmetry_group_IT_number 12
_symmetry_cell_setting 'monoclinic'
loop_
_space_group_symop_operation_xyz
x,y,z
-x,y,-z
-x,-y,-z
x,-y,z
1/2+x,1/2+y,z
1/2-x,1/2+y,-z
1/2-x,1/2-y,-z
1/2+x,1/2-y,z
loop_
_atom_site_type_symbol
_atom_site_label
_atom_site_fract_x
_atom_site_fract_y
_atom_site_fract_z
Si Si1 0.003422 0.342933 0.339121
Si Si2 0.010246 0.134982 0.386755
Si Si3 0.691288 0.350074 0.490449
Si Si4 0.829276 0.137349 0.129414
Si Si5 0.045701 0.396504 0.933598
Si Si6 0.687601 0.847748 0.562719
Si Si7 0.314021 0.158599 0.186360
Si Si8 0.715127 0.901015 0.201717
O O1 0.000070 0.342016 0.206357
O O2 0.910218 0.381365 0.275422
O O3 0.008455 0.243172 0.390159
O O4 0.092697 0.390061 0.461966
O O5 0.100905 0.108171 0.430892
O O6 0.000000 0.104773 0.500000
O O7 0.928437 0.110966 0.227919
O O8 0.674786 0.244539 0.482977
O O9 0.733774 0.385373 0.425044
O O10 0.759081 0.363798 0.657436
O O11 0.825350 0.242951 0.148527
O O12 0.794561 0.097770 0.204954
O O13 0.762715 0.115777 0.963971
O O14 0.048798 0.500000 0.900792
O O15 0.139727 0.357201 0.054133
O O16 0.000000 0.393289 0.000000
O O17 0.708418 0.834661 0.710486
O O18 0.682765 0.000000 0.188925
#
# Coordination Sequence:
#
# PCOD9170202 Si02
#       8
#     8   8   8   8   8   8   8   8
#     4  10  17  30  51  75  96 137 175 205 267 311
#     4  10  18  32  53  73 106 130 166 227 268 309
#     4  10  19  33  49  76 104 136 174 215 269 313
#     4  10  18  32  51  76 100 136 174 210 271 305
#     4  10  21  34  48  72 109 144 176 215 256 313
#     4  10  19  31  52  75 105 134 171 223 264 310
#     4  10  18  31  53  74 106 132 171 222 260 311
#     4  11  20  34  54  75 108 142 175 217 259 316
#
# _framework density 21.895495
#
# number of rings (size 3 to 8) (size 9 to 14) (size 15 to 20)
#    0.000    1.875    3.750    3.375    0.000    0.000 
#    0.000    1.875    0.000    5.625    0.000    0.000 
#    0.000    2.000    0.000    0.000    0.000    0.000 
#
# Total GULP energy -178383.518273 kJ/mol
# GULP energy per Si atom -5574.484946 kJ/mol
# Density = 2.184566 g / cm^3
# Si number density = 21.895495 Si / 1000 Ang^3
#
#
#
# Elastic Constant Matrix: (Units=GPa)
#
#
# Indices 1 2 3 4 5 6 
#
# 1 140.7815 5.4520 70.6824 0.0000 -5.2589 0.0000
# 2 5.4520 41.0030 6.9991 0.0000 0.1840 0.0000
# 3 70.6824 6.9991 138.3566 0.0000 0.5385 0.0000
# 4 0.0000 0.0000 0.0000 18.6776 0.0000 -30.0807
# 5 -5.2589 0.1840 0.5385 0.0000 39.1502 0.0000
# 6 0.0000 0.0000 0.0000 -30.0807 0.0000 38.9621
#
#
#
# Elastic Compliance Matrix: (Units=1/GPa)
#
#
# Indices 1 2 3 4 5 6 
#
# 1 0.009634 -0.000450 -0.004904 0.000000 0.001364 0.000000
# 2 -0.000450 0.024622 -0.001015 0.000000 -0.000162 0.000000
# 3 -0.004904 -0.001015 0.009788 0.000000 -0.000789 0.000000
# 4 0.000000 0.000000 0.000000 -0.219962 0.000000 -0.169822
# 5 0.001364 -0.000162 -0.000789 0.000000 0.025737 0.000000
# 6 0.000000 0.000000 0.000000 -0.169822 0.000000 -0.105446
#
#
# Mechanical properties :
#
#
# Convention : Reuss Voigt Hill
#
# Bulk Modulus (GPa) = 31.94360 54.04535 42.99448
# Shear Modulus (GPa) = -21.50970 35.15850 6.82440
#
# Velocity S-wave (km/s) = -3.13769 4.01152 1.76736
# Velocity P-wave (km/s) = 1.22227 6.79656 4.88299
#
# Compressibility (1/GPa) = 0.03130517
#
# Stress axis : x y z
#
# Youngs Moduli (GPa) = 103.80091 40.61364 102.17085
#
# Poissons Ratio (x) = 0.01827 0.50107
# Poissons Ratio (y) = 0.04671 0.10371
# Poissons Ratio (z) = 0.50906 0.04123
#
# Static dielectric constant tensor:
#      x y z
#    x 1.894440 0.000000 0.081740 
#    y 0.000000 1.883820 0.000000 
#    z 0.081740 0.000000 1.802040 
# 
# From -- ./inp_files/168827.got.cif
#   From: 2010.05.17/outbox.cif.g08.bks.cpg/sg12_85_cif.got.tgz:168827.got - 2010.06.03 13:09:07.
