data_PCOD9170844
_publ_section_title
;
Structure prediction by ZEFSAII (Michael W. Deem and Ramdas Pophale) SiO2 
 PCOD9170844
Probable space group: C 2/M
;
_chemical_formula_sum "Si O2"
_cell_formula_units_Z 56
_cell_length_a 18.084214
_cell_length_b 20.587801
_cell_length_c 18.461327
_cell_angle_alpha 90.000000
_cell_angle_beta 151.157141
_cell_angle_gamma 90.000000
_cell_volume 3315.797158
_symmetry_space_group_name_H-M "C 2/M"
_symmetry_group_IT_number 12
_symmetry_cell_setting 'monoclinic'
loop_
_space_group_symop_operation_xyz
x,y,z
-x,y,-z
-x,-y,-z
x,-y,z
1/2+x,1/2+y,z
1/2-x,1/2+y,-z
1/2-x,1/2-y,-z
1/2+x,1/2-y,z
loop_
_atom_site_type_symbol
_atom_site_label
_atom_site_fract_x
_atom_site_fract_y
_atom_site_fract_z
Si Si1 0.867908 0.073993 0.031532
Si Si2 0.765661 0.924515 0.672872
Si Si3 0.609790 0.168352 0.437869
Si Si4 0.108977 0.743352 0.300416
Si Si5 0.276927 0.848510 0.217710
Si Si6 0.326312 0.687346 0.105228
Si Si7 0.407500 0.220968 0.985163
O O1 0.809699 0.124708 0.041166
O O2 0.051053 0.081354 0.179042
O O3 0.834912 0.000000 0.022362
O O4 0.789268 0.094022 0.889079
O O5 0.683251 0.898032 0.530289
O O6 0.716419 0.876917 0.695950
O O7 0.729032 0.000000 0.656150
O O8 0.724356 0.225263 0.563448
O O9 0.605862 0.179384 0.347929
O O10 0.441375 0.172343 0.327455
O O11 0.004745 0.793836 0.257896
O O12 0.025881 0.735304 0.152322
O O13 0.163035 0.787822 0.107536
O O14 0.235200 0.683130 0.101726
O O15 0.250000 0.750000 0.000000
O O16 0.500000 0.187783 0.000000
#
# Coordination Sequence:
#
# PCOD9170844 Si02
#       7
#     8   8   8   8   8   8   8
#     4  11  21  36  57  78 105 151 194 225 272 329
#     4  11  24  37  50  77 120 159 186 214 262 338
#     4  11  21  33  52  72 107 155 183 226 269 310
#     4  10  19  36  54  76 105 143 187 235 273 319
#     4  12  20  32  52  81 114 152 184 223 265 323
#     4  10  17  35  55  79 104 136 182 237 267 317
#     4  11  20  33  57  82 109 138 180 233 288 326
#
# _framework density 16.888850000000001
#
# number of rings (size 3 to 8) (size 9 to 14) (size 15 to 20)
#    0.000    1.143    5.714    3.857    0.000    2.857 
#    0.000    0.000    0.000    0.429    0.000    0.000 
#    0.000    2.286    0.000    0.000    0.000    0.000 
#
# Total GULP energy -156206.566536 kJ/mol
# GULP energy per Si atom -5578.805948 kJ/mol
# Density = 1.685041 g / cm^3
# Si number density = 16.888850 Si / 1000 Ang^3
#
#
#
# Elastic Constant Matrix: (Units=GPa)
#
#
# Indices 1 2 3 4 5 6 
#
# 1 89.6785 22.5475 18.0773 -0.0009 1.9392 0.0011
# 2 22.5475 62.0573 9.7904 0.0019 -3.0015 0.0009
# 3 18.0773 9.7904 72.9370 -0.0045 6.0366 -0.0010
# 4 -0.0009 0.0019 -0.0045 21.3055 -0.0028 -1.1245
# 5 1.9392 -3.0015 6.0366 -0.0028 25.9156 0.0000
# 6 0.0011 0.0009 -0.0010 -1.1245 0.0000 24.4138
#
#
#
# Elastic Compliance Matrix: (Units=1/GPa)
#
#
# Indices 1 2 3 4 5 6 
#
# 1 0.012752 -0.004278 -0.002515 0.000000 -0.000864 0.000000
# 2 -0.004278 0.018055 -0.001593 -0.000002 0.002782 -0.000001
# 3 -0.002515 -0.001593 0.014833 0.000003 -0.003452 0.000001
# 4 0.000000 -0.000002 0.000003 0.047051 0.000004 0.002167
# 5 -0.000864 0.002782 -0.003452 0.000004 0.039778 0.000000
# 6 0.000000 -0.000001 0.000001 0.002167 0.000000 0.041060
#
#
# Mechanical properties :
#
#
# Convention : Reuss Voigt Hill
#
# Bulk Modulus (GPa) = 34.64166 36.16703 35.40434
# Shear Modulus (GPa) = 25.00947 25.94414 25.47681
#
# Velocity S-wave (km/s) = 3.85233 3.92365 3.88815
# Velocity P-wave (km/s) = 6.35164 6.47981 6.41605
#
# Compressibility (1/GPa) = 0.02886698
#
# Stress axis : x y z
#
# Youngs Moduli (GPa) = 78.41755 55.38764 67.41584
#
# Poissons Ratio (x) = 0.23697 0.16954
# Poissons Ratio (y) = 0.33550 0.10742
# Poissons Ratio (z) = 0.19721 0.08825
#
# Static dielectric constant tensor:
#      x y z
#    x 1.604800 0.000000 0.008340 
#    y 0.000000 1.564930 0.000000 
#    z 0.008340 0.000000 1.619850 
# 
# From -- ./inp_files/279024.got.cif
#   From: 2010.05.17/outbox.cif.g08.bks.cpg/sg12_140_cif.got.tgz:279024.got - 2010.06.03 13:09:07.
