data_PCOD9170385
_publ_section_title
;
Structure prediction by ZEFSAII (Michael W. Deem and Ramdas Pophale) SiO2 
 PCOD9170385
Probable space group: C 2/M
;
_chemical_formula_sum "Si O2"
_cell_formula_units_Z 64
_cell_length_a 25.707209
_cell_length_b 19.610383
_cell_length_c 18.697148
_cell_angle_alpha 90.000000
_cell_angle_beta 158.203969
_cell_angle_gamma 90.000000
_cell_volume 3499.817772
_symmetry_space_group_name_H-M "C 2/M"
_symmetry_group_IT_number 12
_symmetry_cell_setting 'monoclinic'
loop_
_space_group_symop_operation_xyz
x,y,z
-x,y,-z
-x,-y,-z
x,-y,z
1/2+x,1/2+y,z
1/2-x,1/2+y,-z
1/2-x,1/2-y,-z
1/2+x,1/2-y,z
loop_
_atom_site_type_symbol
_atom_site_label
_atom_site_fract_x
_atom_site_fract_y
_atom_site_fract_z
Si Si1 0.781933 0.682763 0.752925
Si Si2 0.243126 0.204745 0.381703
Si Si3 0.008396 0.071183 0.738902
Si Si4 0.331653 0.166726 0.978517
Si Si5 0.171963 0.425073 0.305124
Si Si6 0.035144 0.207625 0.245825
Si Si7 0.068598 0.419189 0.334908
Si Si8 0.473988 0.628774 0.387429
O O1 0.800217 0.760236 0.748599
O O2 0.838933 0.657749 0.901950
O O3 0.848834 0.634189 0.778269
O O4 0.614158 0.670092 0.546229
O O5 0.111263 0.196912 0.266791
O O6 0.342151 0.262606 0.545795
O O7 0.333798 0.134526 0.496720
O O8 0.047270 0.078135 0.705454
O O9 0.839683 0.069590 0.525220
O O10 0.037620 0.139281 0.819211
O O11 0.063431 0.000000 0.839087
O O12 0.168448 0.171644 0.789140
O O13 0.418742 0.234779 0.100123
O O14 0.409627 0.108673 0.124710
O O15 0.118402 0.500000 0.214791
O O16 0.119896 0.410386 0.318211
O O17 0.078595 0.500000 0.366010
O O18 0.500000 0.598478 0.500000
#
# Coordination Sequence:
#
# PCOD9170385 Si02
#       8
#     8   8   8   8   8   8   8   8
#     4  10  18  34  51  74  98 137 176 204 256 309
#     4  10  17  31  53  72 101 133 170 211 251 314
#     4  10  18  31  51  71  97 134 170 201 241 303
#     4  10  22  32  50  73 106 134 166 222 259 296
#     4   9  16  28  48  71  96 127 164 197 239 305
#     4  10  18  31  49  78  99 126 169 216 258 297
#     4  10  20  33  49  74 105 136 166 208 262 308
#     4   9  19  35  50  70 101 135 172 204 249 305
#
# _framework density 18.286666
#
# number of rings (size 3 to 8) (size 9 to 14) (size 15 to 20)
#    0.000    2.250    3.750    1.500    0.000    3.750 
#    0.000    3.750    0.000    0.750    0.000    1.750 
#    0.000    3.000    0.000    0.000    0.000    0.000 
#
# Total GULP energy -178174.637020 kJ/mol
# GULP energy per Si atom -5567.957407 kJ/mol
# Density = 1.824504 g / cm^3
# Si number density = 18.286666 Si / 1000 Ang^3
#
#
#
# Elastic Constant Matrix: (Units=GPa)
#
#
# Indices 1 2 3 4 5 6 
#
# 1 33.8306 11.5863 -0.7502 0.0000 10.7337 0.0000
# 2 11.5863 111.1088 9.3507 0.0000 -3.3251 0.0000
# 3 -0.7502 9.3507 43.0330 0.0000 9.9018 0.0000
# 4 0.0000 0.0000 0.0000 10.0213 0.0000 15.5578
# 5 10.7337 -3.3251 9.9018 0.0000 13.3207 0.0000
# 6 0.0000 0.0000 0.0000 15.5578 0.0000 36.6929
#
#
#
# Elastic Compliance Matrix: (Units=1/GPa)
#
#
# Indices 1 2 3 4 5 6 
#
# 1 0.049316 -0.007956 0.014704 0.000000 -0.052654 0.000000
# 2 -0.007956 0.010685 -0.005488 0.000000 0.013158 0.000000
# 3 0.014704 -0.005488 0.033449 0.000000 -0.038083 0.000000
# 4 0.000000 0.000000 0.000000 0.291992 0.000000 -0.123805
# 5 -0.052654 0.013158 -0.038083 0.000000 0.149092 0.000000
# 6 0.000000 0.000000 0.000000 -0.123805 0.000000 0.079747
#
#
# Mechanical properties :
#
#
# Convention : Reuss Voigt Hill
#
# Bulk Modulus (GPa) = 10.41981 25.37179 17.89580
# Shear Modulus (GPa) = 7.76697 23.19271 15.47984
#
# Velocity S-wave (km/s) = 2.06314 3.56516 2.91264
# Velocity P-wave (km/s) = 3.37429 5.55444 4.59552
#
# Compressibility (1/GPa) = 0.09597106
#
# Stress axis : x y z
#
# Youngs Moduli (GPa) = 20.27748 93.58534 29.89582
#
# Poissons Ratio (x) = 0.74455 -0.43959
# Poissons Ratio (y) = 0.16132 0.16407
# Poissons Ratio (z) = -0.29816 0.51360
#
# Static dielectric constant tensor:
#      x y z
#    x 1.664670 0.000000 -0.009980 
#    y 0.000000 1.715560 0.000000 
#    z -0.009980 0.000000 1.670420 
# 
# From -- ./inp_files/328668.got.cif
#   From: 2010.05.17/outbox.cif.g08.bks.cpg/sg12_165_cif.got.tgz:328668.got - 2010.06.03 13:09:07.
