data_PCOD9170908
_publ_section_title
;
Structure prediction by ZEFSAII (Michael W. Deem and Ramdas Pophale) SiO2 
 PCOD9170908
Probable space group: C 2/M
;
_chemical_formula_sum "Si O2"
_cell_formula_units_Z 64
_cell_length_a 18.183761
_cell_length_b 19.249318
_cell_length_c 10.608132
_cell_angle_alpha 90.000000
_cell_angle_beta 65.721470
_cell_angle_gamma 90.000000
_cell_volume 3384.714217
_symmetry_space_group_name_H-M "C 2/M"
_symmetry_group_IT_number 12
_symmetry_cell_setting 'monoclinic'
loop_
_space_group_symop_operation_xyz
x,y,z
-x,y,-z
-x,-y,-z
x,-y,z
1/2+x,1/2+y,z
1/2-x,1/2+y,-z
1/2-x,1/2-y,-z
1/2+x,1/2-y,z
loop_
_atom_site_type_symbol
_atom_site_label
_atom_site_fract_x
_atom_site_fract_y
_atom_site_fract_z
Si Si1 0.459566 0.811150 0.238807
Si Si2 0.097611 0.855983 0.938662
Si Si3 0.167293 0.915923 0.628539
Si Si4 0.272991 0.077998 0.158354
Si Si5 0.038997 0.826348 0.606828
Si Si6 0.836433 0.420558 0.401120
Si Si7 0.118699 0.701839 0.984027
Si Si8 0.594990 0.424298 0.191495
O O1 0.439555 0.742058 0.330277
O O2 0.415857 0.873584 0.341963
O O3 0.421630 0.809404 0.125497
O O4 0.554566 0.812371 0.140603
O O5 0.132140 0.882598 0.781748
O O6 0.136870 0.784169 0.962530
O O7 0.113099 0.914565 0.031611
O O8 0.000000 0.844268 0.000000
O O9 0.114636 0.878914 0.556089
O O10 0.261751 0.898831 0.542323
O O11 0.158853 0.000000 0.632196
O O12 0.299300 0.081471 0.285649
O O13 0.312459 0.143531 0.059817
O O14 0.177420 0.082013 0.209372
O O15 0.297884 0.000000 0.095296
O O16 0.000000 0.809480 0.500000
O O17 0.968271 0.866159 0.729307
O O18 0.857133 0.500000 0.415499
O O19 0.558690 0.500000 0.241330
#
# Coordination Sequence:
#
# PCOD9170908 Si02
#       8
#     8   8   8   8   8   8   8   8
#     4  10  19  38  58  83 114 142 188 236 278 332
#     4  12  20  37  58  85 112 149 191 232 270 330
#     4  11  22  37  57  84 112 148 192 228 271 335
#     4   9  20  36  55  86 117 145 184 230 280 336
#     4  12  23  36  53  81 112 149 185 223 282 340
#     4   9  20  38  60  84 113 146 186 234 282 331
#     4  10  17  36  63  79 111 147 185 235 280 326
#     4  11  22  37  55  79 116 151 182 229 278 327
#
# _framework density 18.908539000000001
#
# number of rings (size 3 to 8) (size 9 to 14) (size 15 to 20)
#    0.000    1.500    5.000    1.500    0.000    4.000 
#    2.250    2.500    0.000    0.375    0.000    0.000 
#    0.000    0.000    0.000    0.000    0.000    0.000 
#
# Total GULP energy -178417.914966 kJ/mol
# GULP energy per Si atom -5575.559843 kJ/mol
# Density = 1.886550 g / cm^3
# Si number density = 18.908539 Si / 1000 Ang^3
#
#
#
# Elastic Constant Matrix: (Units=GPa)
#
#
# Indices 1 2 3 4 5 6 
#
# 1 25.8035 33.0494 13.9828 0.0000 -3.5561 0.0000
# 2 33.0494 113.4650 39.4340 0.0000 -21.1181 0.0000
# 3 13.9828 39.4340 78.6457 0.0000 -14.7439 0.0000
# 4 0.0000 0.0000 0.0000 18.7850 0.0000 2.9518
# 5 -3.5561 -21.1181 -14.7439 0.0000 20.3437 0.0000
# 6 0.0000 0.0000 0.0000 2.9518 0.0000 -1.4358
#
#
#
# Elastic Compliance Matrix: (Units=1/GPa)
#
#
# Indices 1 2 3 4 5 6 
#
# 1 0.064315 -0.019617 -0.003829 0.000000 -0.011896 0.000000
# 2 -0.019617 0.018035 -0.003111 0.000000 0.013038 0.000000
# 3 -0.003829 -0.003111 0.016462 0.000000 0.008032 0.000000
# 4 0.000000 0.000000 0.000000 0.040236 0.000000 0.082720
# 5 -0.011896 0.013038 0.008032 0.000000 0.066431 0.000000
# 6 0.000000 0.000000 0.000000 0.082720 0.000000 -0.526427
#
#
# Mechanical properties :
#
#
# Convention : Reuss Voigt Hill
#
# Bulk Modulus (GPa) = 21.88264 43.42741 32.65502
# Shear Modulus (GPa) = -19.79393 16.30178 -1.74607
#
# Velocity S-wave (km/s) = -3.23898 2.93941 -0.96200
# Velocity P-wave (km/s) = 1.54595 5.87683 4.00919
#
# Compressibility (1/GPa) = 0.04569833
#
# Stress axis : x y z
#
# Youngs Moduli (GPa) = 15.54841 55.44799 60.74719
#
# Poissons Ratio (x) = 1.08771 0.23260
# Poissons Ratio (y) = 0.30501 0.18898
# Poissons Ratio (z) = 0.05954 0.17250
#
# Static dielectric constant tensor:
#      x y z
#    x 1.658510 0.000000 0.009250 
#    y 0.000000 1.662600 0.000000 
#    z 0.009250 0.000000 1.676820 
# 
# From -- ./inp_files/168449.got.cif
#   From: 2010.05.17/outbox.cif.g08.bks.cpg/sg12_85_cif.got.tgz:168449.got - 2010.06.03 13:09:07.
