data_PCOD9170443
_publ_section_title
;
Structure prediction by ZEFSAII (Michael W. Deem and Ramdas Pophale) SiO2 
 PCOD9170443
Probable space group: C 2/M
;
_chemical_formula_sum "Si O2"
_cell_formula_units_Z 30
_cell_length_a 8.091046
_cell_length_b 20.750732
_cell_length_c 12.040358
_cell_angle_alpha 90.000000
_cell_angle_beta 145.631114
_cell_angle_gamma 90.000000
_cell_volume 1141.184697
_symmetry_space_group_name_H-M "C 2/M"
_symmetry_group_IT_number 12
_symmetry_cell_setting 'monoclinic'
loop_
_space_group_symop_operation_xyz
x,y,z
-x,y,-z
-x,-y,-z
x,-y,z
1/2+x,1/2+y,z
1/2-x,1/2+y,-z
1/2-x,1/2-y,-z
1/2+x,1/2-y,z
loop_
_atom_site_type_symbol
_atom_site_label
_atom_site_fract_x
_atom_site_fract_y
_atom_site_fract_z
Si Si1 0.412028 0.330981 0.252945
Si Si2 0.337955 0.073862 0.530325
Si Si3 0.500000 0.760163 0.500000
Si Si4 0.241405 0.130051 0.060563
Si Si5 0.000000 0.000000 0.000000
O O1 0.504173 0.403138 0.340288
O O2 0.364541 0.284861 0.329562
O O3 0.217202 0.337512 0.034840
O O4 0.728970 0.303390 0.387845
O O5 0.500000 0.076681 0.500000
O O6 0.386406 0.000000 0.593957
O O7 0.491368 0.117802 0.708936
O O8 0.000000 0.167909 0.000000
O O9 0.095803 0.058705 0.966870
#
# Coordination Sequence:
#
# PCOD9170443 Si02
#       5
#     8   8   4   8   2
#     4  11  22  41  63  84 122 155 202 254 291 349
#     4  11  19  32  62  95 118 148 194 243 299 355
#     4  10  24  44  60  84 116 164 214 240 288 354
#     4  10  17  31  56  93 116 147 190 242 294 342
#     4   8  16  28  54  90 122 136 194 238 282 360
#
# _framework density 26.28847
#
# number of rings (size 3 to 8) (size 9 to 14) (size 15 to 20)
#    0.800    0.800    5.333    0.000    5.600    0.000 
#    0.000   16.667    0.000    1.600    0.000    0.000 
#    0.000    0.000    0.000    0.000    0.000    0.000 
#
# Total GULP energy -83607.329757 kJ/mol
# GULP energy per Si atom -5573.821984 kJ/mol
# Density = 2.622864 g / cm^3
# Si number density = 26.288470 Si / 1000 Ang^3
#
#
#
# Elastic Constant Matrix: (Units=GPa)
#
#
# Indices 1 2 3 4 5 6 
#
# 1 56.7249 31.5435 7.8217 0.0000 -27.7751 0.0000
# 2 31.5435 79.1490 31.5217 0.0000 -25.7919 0.0000
# 3 7.8217 31.5217 156.5646 0.0000 -41.3133 0.0000
# 4 0.0000 0.0000 0.0000 33.2279 0.0000 -6.7046
# 5 -27.7751 -25.7919 -41.3133 0.0000 35.9724 0.0000
# 6 0.0000 0.0000 0.0000 -6.7046 0.0000 23.5719
#
#
#
# Elastic Compliance Matrix: (Units=1/GPa)
#
#
# Indices 1 2 3 4 5 6 
#
# 1 0.036269 -0.007208 0.008128 0.000000 0.032171 0.000000
# 2 -0.007208 0.017928 -0.001903 0.000000 0.005103 0.000000
# 3 0.008128 -0.001903 0.010991 0.000000 0.017535 0.000000
# 4 0.000000 0.000000 0.000000 0.031928 0.000000 0.009081
# 5 0.032171 0.005103 0.017535 0.000000 0.076436 0.000000
# 6 0.000000 0.000000 0.000000 0.009081 0.000000 0.045006
#
#
# Mechanical properties :
#
#
# Convention : Reuss Voigt Hill
#
# Bulk Modulus (GPa) = 15.81710 48.24583 32.03147
# Shear Modulus (GPa) = 20.69562 33.32455 27.01008
#
# Velocity S-wave (km/s) = 2.80884 3.56427 3.20886
# Velocity P-wave (km/s) = 4.06808 5.94399 5.09315
#
# Compressibility (1/GPa) = 0.06322270
#
# Stress axis : x y z
#
# Youngs Moduli (GPa) = 27.57201 55.77909 90.98262
#
# Poissons Ratio (x) = 0.40206 -0.73954
# Poissons Ratio (y) = 0.19874 0.17311
# Poissons Ratio (z) = -0.22411 0.10613
#
# Static dielectric constant tensor:
#      x y z
#    x 3.939870 0.000000 1.762560 
#    y 0.000000 2.110240 0.000000 
#    z 1.762560 0.000000 3.730760 
# 
# From -- ./inp_files/122293.got.cif
#   From: 2010.05.17/outbox.cif.g08.bks.cpg/sg12_62_cif.got.tgz:122293.got - 2010.06.03 13:09:07.
