data_PCOD9170510
_publ_section_title
;
Structure prediction by ZEFSAII (Michael W. Deem and Ramdas Pophale) SiO2 
 PCOD9170510
Probable space group: C 2/M
;
_chemical_formula_sum "Si O2"
_cell_formula_units_Z 36
_cell_length_a 5.696944
_cell_length_b 23.755055
_cell_length_c 11.947507
_cell_angle_alpha 90.000000
_cell_angle_beta 118.715103
_cell_angle_gamma 90.000000
_cell_volume 1418.027188
_symmetry_space_group_name_H-M "C 2/M"
_symmetry_group_IT_number 12
_symmetry_cell_setting 'monoclinic'
loop_
_space_group_symop_operation_xyz
x,y,z
-x,y,-z
-x,-y,-z
x,-y,z
1/2+x,1/2+y,z
1/2-x,1/2+y,-z
1/2-x,1/2-y,-z
1/2+x,1/2-y,z
loop_
_atom_site_type_symbol
_atom_site_label
_atom_site_fract_x
_atom_site_fract_y
_atom_site_fract_z
Si Si1 0.718437 0.135237 0.473554
Si Si2 0.000000 0.797783 0.000000
Si Si3 0.745660 0.620996 0.893352
Si Si4 0.790836 0.230024 0.262830
Si Si5 0.230024 0.565346 0.692047
O O1 0.500000 0.168171 0.500000
O O2 0.794002 0.084804 0.578592
O O3 0.528500 0.103999 0.340257
O O4 0.000000 0.160978 0.500000
O O5 0.784762 0.836640 0.009288
O O6 0.640748 0.736380 0.129075
O O7 0.720776 0.665207 0.782579
O O8 0.485117 0.582707 0.821846
O O9 0.000000 0.587357 0.000000
O O10 0.093981 0.255013 0.322012
O O11 0.169754 0.500000 0.684804
#
# Coordination Sequence:
#
# PCOD9170510 Si02
#       5
#     8   4   8   8   8
#     4   8  18  39  61  77  98 134 185 237 268 299
#     4  10  18  32  49  74 105 142 190 224 252 308
#     4  11  19  32  50  79 114 148 175 218 267 323
#     4  10  17  32  52  73 101 136 183 226 253 297
#     4   9  21  34  53  82 110 142 181 220 267 322
#
# _framework density 25.387381999999999
#
# number of rings (size 3 to 8) (size 9 to 14) (size 15 to 20)
#    1.333    0.889    3.333    2.667    0.000    4.000 
#    0.000    0.556    0.000    0.000    0.000   24.889 
#    0.000    0.000    0.000    0.000    0.000    0.000 
#
# Total GULP energy -100311.712319 kJ/mol
# GULP energy per Si atom -5572.872907 kJ/mol
# Density = 2.532960 g / cm^3
# Si number density = 25.387382 Si / 1000 Ang^3
#
#
#
# Elastic Constant Matrix: (Units=GPa)
#
#
# Indices 1 2 3 4 5 6 
#
# 1 219.5046 41.4015 43.5507 0.0000 18.7173 0.0000
# 2 41.4015 37.9653 28.4487 0.0000 -4.7241 0.0000
# 3 43.5507 28.4487 69.6984 0.0000 28.1701 0.0000
# 4 0.0000 0.0000 0.0000 20.5695 0.0000 -2.2076
# 5 18.7173 -4.7241 28.1701 0.0000 58.6875 0.0000
# 6 0.0000 0.0000 0.0000 -2.2076 0.0000 4.4417
#
#
#
# Elastic Compliance Matrix: (Units=1/GPa)
#
#
# Indices 1 2 3 4 5 6 
#
# 1 0.006077 -0.007018 0.000098 0.000000 -0.002550 0.000000
# 2 -0.007018 0.056204 -0.026413 0.000000 0.019441 0.000000
# 3 0.000098 -0.026413 0.032183 0.000000 -0.017605 0.000000
# 4 0.000000 0.000000 0.000000 0.051355 0.000000 0.025524
# 5 -0.002550 0.019441 -0.017605 0.000000 0.027868 0.000000
# 6 0.000000 0.000000 0.000000 0.025524 0.000000 0.237825
#
#
# Mechanical properties :
#
#
# Convention : Reuss Voigt Hill
#
# Bulk Modulus (GPa) = 35.97379 61.55223 48.76301
# Shear Modulus (GPa) = 10.25755 30.99089 20.62422
#
# Velocity S-wave (km/s) = 2.01226 3.49767 2.85332
# Velocity P-wave (km/s) = 4.42715 6.37255 5.48676
#
# Compressibility (1/GPa) = 0.02779802
#
# Stress axis : x y z
#
# Youngs Moduli (GPa) = 164.54184 17.79221 31.07242
#
# Poissons Ratio (x) = 0.12487 -0.00304
# Poissons Ratio (y) = 1.15478 0.82072
# Poissons Ratio (z) = -0.01610 0.46995
#
# Static dielectric constant tensor:
#      x y z
#    x 2.203530 0.000000 -0.009880 
#    y 0.000000 1.944650 0.000000 
#    z -0.009880 0.000000 2.068740 
# 
# From -- ./inp_files/115949.got.cif
#   From: 2010.05.17/outbox.cif.g08.bks.cpg/sg12_58_cif.got.tgz:115949.got - 2010.06.03 13:09:07.
