data_PCOD9170762
_publ_section_title
;
Structure prediction by ZEFSAII (Michael W. Deem and Ramdas Pophale) SiO2 
 PCOD9170762
Probable space group: C 2/M
;
_chemical_formula_sum "Si O2"
_cell_formula_units_Z 36
_cell_length_a 8.708485
_cell_length_b 20.700961
_cell_length_c 20.776913
_cell_angle_alpha 90.000000
_cell_angle_beta 146.531769
_cell_angle_gamma 90.000000
_cell_volume 2065.568481
_symmetry_space_group_name_H-M "C 2/M"
_symmetry_group_IT_number 12
_symmetry_cell_setting 'monoclinic'
loop_
_space_group_symop_operation_xyz
x,y,z
-x,y,-z
-x,-y,-z
x,-y,z
1/2+x,1/2+y,z
1/2-x,1/2+y,-z
1/2-x,1/2-y,-z
1/2+x,1/2-y,z
loop_
_atom_site_type_symbol
_atom_site_label
_atom_site_fract_x
_atom_site_fract_y
_atom_site_fract_z
Si Si1 0.000000 0.106884 0.500000
Si Si2 0.787167 0.425084 0.138452
Si Si3 0.730969 0.677663 0.704159
Si Si4 0.887872 0.570802 0.319715
Si Si5 0.251448 0.309216 0.638630
O O1 0.063939 0.148772 0.585084
O O2 0.283893 0.070338 0.582968
O O3 0.886175 0.500000 0.163768
O O4 0.744198 0.417344 0.200304
O O5 0.010268 0.370903 0.195975
O O6 0.500000 0.417757 0.000000
O O7 0.528552 0.680251 0.694072
O O8 0.798936 0.749875 0.704110
O O9 0.807122 0.500000 0.316269
O O10 0.827087 0.627462 0.348166
O O11 0.000000 0.295452 0.500000
#
# Coordination Sequence:
#
# PCOD9170762 Si02
#       5
#     4   8   8   8   8
#     4  10  17  34  54  80 111 146 186 230 281 340
#     4   9  20  41  64  84 112 150 190 235 284 335
#     4  11  21  35  59  83 113 152 194 228 284 340
#     4  10  21  35  55  84 115 148 190 234 282 338
#     4  12  22  37  55  85 122 156 185 232 290 341
#
# _framework density 17.428616000000002
#
# number of rings (size 3 to 8) (size 9 to 14) (size 15 to 20)
#    0.000    1.556    3.333    3.667    0.000    2.222 
#    0.000    5.556    0.000    4.000    0.000    0.000 
#    0.000    0.000    0.000    0.000    0.000    0.000 
#
# Total GULP energy -100394.442582 kJ/mol
# GULP energy per Si atom -5577.469032 kJ/mol
# Density = 1.738895 g / cm^3
# Si number density = 17.428616 Si / 1000 Ang^3
#
#
#
# Elastic Constant Matrix: (Units=GPa)
#
#
# Indices 1 2 3 4 5 6 
#
# 1 121.3982 82.1552 37.9734 0.0022 9.2377 0.0015
# 2 82.1552 153.7235 52.7551 -0.0007 7.8741 -0.0002
# 3 37.9734 52.7551 94.7246 0.0089 -0.3682 0.0033
# 4 0.0022 -0.0007 0.0089 12.1198 0.0036 12.3063
# 5 9.2377 7.8741 -0.3682 0.0036 10.6947 0.0032
# 6 0.0015 -0.0002 0.0033 12.3063 0.0032 3.0948
#
#
#
# Elastic Compliance Matrix: (Units=1/GPa)
#
#
# Indices 1 2 3 4 5 6 
#
# 1 0.013633 -0.006216 -0.002031 0.000001 -0.007268 0.000000
# 2 -0.006216 0.011292 -0.003809 0.000002 -0.003076 0.000003
# 3 -0.002031 -0.003809 0.013512 -0.000003 0.005024 -0.000008
# 4 0.000001 0.000002 -0.000003 -0.027162 -0.000026 0.108010
# 5 -0.007268 -0.003076 0.005024 -0.000026 0.102220 -0.000007
# 6 0.000000 0.000003 -0.000008 0.108010 -0.000007 -0.106373
#
#
# Mechanical properties :
#
#
# Convention : Reuss Voigt Hill
#
# Bulk Modulus (GPa) = 69.81372 79.51263 74.66318
# Shear Modulus (GPa) = 138.85538 18.31270 78.58404
#
# Velocity S-wave (km/s) = 8.93554 3.24501 6.72213
# Velocity P-wave (km/s) = 12.10795 7.73053 10.15784
#
# Compressibility (1/GPa) = 0.01432383
#
# Stress axis : x y z
#
# Youngs Moduli (GPa) = 73.35301 88.55740 74.00828
#
# Poissons Ratio (x) = 0.55051 0.15033
# Poissons Ratio (y) = 0.45599 0.28189
# Poissons Ratio (z) = 0.14900 0.33730
#
# Static dielectric constant tensor:
#      x y z
#    x 1.566750 0.000000 0.004190 
#    y 0.000000 1.621420 0.000000 
#    z 0.004190 0.000000 1.580380 
# 
# From -- ./inp_files/118487.got.cif
#   From: 2010.05.17/outbox.cif.g08.bks.cpg/sg12_60_cif.got.tgz:118487.got - 2010.06.03 13:09:07.
