data_PCOD9170468
_publ_section_title
;
Structure prediction by ZEFSAII (Michael W. Deem and Ramdas Pophale) SiO2 
 PCOD9170468
Probable space group: C 2/M
;
_chemical_formula_sum "Si O2"
_cell_formula_units_Z 36
_cell_length_a 10.329287
_cell_length_b 27.349060
_cell_length_c 7.809186
_cell_angle_alpha 90.000000
_cell_angle_beta 46.840498
_cell_angle_gamma 90.000000
_cell_volume 1609.219969
_symmetry_space_group_name_H-M "C 2/M"
_symmetry_group_IT_number 12
_symmetry_cell_setting 'monoclinic'
loop_
_space_group_symop_operation_xyz
x,y,z
-x,y,-z
-x,-y,-z
x,-y,z
1/2+x,1/2+y,z
1/2-x,1/2+y,-z
1/2-x,1/2-y,-z
1/2+x,1/2-y,z
loop_
_atom_site_type_symbol
_atom_site_label
_atom_site_fract_x
_atom_site_fract_y
_atom_site_fract_z
Si Si1 0.690563 0.167057 0.013687
Si Si2 0.000000 0.428750 0.500000
Si Si3 0.225681 0.698997 0.618122
Si Si4 0.670917 0.361096 0.767493
Si Si5 0.346004 0.052417 0.998534
O O1 0.760993 0.197637 0.788580
O O2 0.724346 0.108886 0.941120
O O3 0.478743 0.179170 0.215926
O O4 0.773090 0.175426 0.127392
O O5 0.833821 0.396430 0.596114
O O6 0.932588 0.452399 0.733447
O O7 0.250000 0.750000 0.500000
O O8 0.353598 0.663974 0.392193
O O9 0.500000 0.387124 0.000000
O O10 0.244525 0.000000 0.119222
O O11 0.500000 0.053651 0.000000
#
# Coordination Sequence:
#
# PCOD9170468 Si02
#       5
#     8   4   8   8   8
#     4  10  21  43  60  87 132 157 204 268 300 364
#     4  10  19  40  58  88 132 154 202 258 299 364
#     4  11  22  39  61  85 118 164 207 255 311 359
#     4  11  22  39  63  88 121 170 202 249 317 361
#     4  10  17  31  64  94 116 159 205 247 313 370
#
# _framework density 22.371088
#
# number of rings (size 3 to 8) (size 9 to 14) (size 15 to 20)
#    0.000    1.556    6.667    0.333    3.111    1.778 
#    4.000    0.000    0.000   16.667    0.000   18.667 
#    0.000    0.000    0.000    0.000    0.000    0.000 
#
# Total GULP energy -100221.696311 kJ/mol
# GULP energy per Si atom -5567.872017 kJ/mol
# Density = 2.232017 g / cm^3
# Si number density = 22.371088 Si / 1000 Ang^3
#
#
#
# Elastic Constant Matrix: (Units=GPa)
#
#
# Indices 1 2 3 4 5 6 
#
# 1 54.5949 -8.2028 -1.7708 0.0000 24.5980 0.0000
# 2 -8.2028 123.1408 35.4520 0.0000 3.5119 0.0000
# 3 -1.7708 35.4520 63.5130 0.0000 13.0278 0.0000
# 4 0.0000 0.0000 0.0000 10.5600 0.0000 12.6333
# 5 24.5980 3.5119 13.0278 0.0000 54.1937 0.0000
# 6 0.0000 0.0000 0.0000 12.6333 0.0000 37.7873
#
#
#
# Elastic Compliance Matrix: (Units=1/GPa)
#
#
# Indices 1 2 3 4 5 6 
#
# 1 0.023713 0.001241 0.002307 0.000000 -0.011398 0.000000
# 2 0.001241 0.009766 -0.005440 0.000000 0.000112 0.000000
# 3 0.002307 -0.005440 0.019973 0.000000 -0.005496 0.000000
# 4 0.000000 0.000000 0.000000 0.157818 0.000000 -0.052763
# 5 -0.011398 0.000112 -0.005496 0.000000 0.024940 0.000000
# 6 0.000000 0.000000 0.000000 -0.052763 0.000000 0.044104
#
#
# Mechanical properties :
#
#
# Convention : Reuss Voigt Hill
#
# Bulk Modulus (GPa) = 20.13381 32.46727 26.30054
# Shear Modulus (GPa) = 16.63034 34.89289 25.76161
#
# Velocity S-wave (km/s) = 2.72947 3.95363 3.39714
# Velocity P-wave (km/s) = 4.35348 5.94862 5.21243
#
# Compressibility (1/GPa) = 0.04966770
#
# Stress axis : x y z
#
# Youngs Moduli (GPa) = 42.17014 102.39261 50.06816
#
# Poissons Ratio (x) = -0.12703 -0.11549
# Poissons Ratio (y) = -0.05232 0.27236
# Poissons Ratio (z) = -0.09727 0.55699
#
# Static dielectric constant tensor:
#      x y z
#    x 1.903580 0.000000 0.005470 
#    y 0.000000 1.945290 0.000000 
#    z 0.005470 0.000000 1.831310 
# 
# From -- ./inp_files/52263.got.cif
#   From: 2010.05.17/outbox.cif.g08.bks.cpg/sg12_27_cif.got.tgz:52263.got - 2010.06.03 13:09:07.
