data_PCOD9170675
_publ_section_title
;
Structure prediction by ZEFSAII (Michael W. Deem and Ramdas Pophale) SiO2 
 PCOD9170675
Probable space group: C 2/M
;
_chemical_formula_sum "Si O2"
_cell_formula_units_Z 32
_cell_length_a 16.723899
_cell_length_b 13.796363
_cell_length_c 12.386569
_cell_angle_alpha 90.000000
_cell_angle_beta 23.695801
_cell_angle_gamma 90.000000
_cell_volume 1148.551022
_symmetry_space_group_name_H-M "C 2/M"
_symmetry_group_IT_number 12
_symmetry_cell_setting 'monoclinic'
loop_
_space_group_symop_operation_xyz
x,y,z
-x,y,-z
-x,-y,-z
x,-y,z
1/2+x,1/2+y,z
1/2-x,1/2+y,-z
1/2-x,1/2-y,-z
1/2+x,1/2-y,z
loop_
_atom_site_type_symbol
_atom_site_label
_atom_site_fract_x
_atom_site_fract_y
_atom_site_fract_z
Si Si1 0.210176 0.332129 0.918938
Si Si2 0.142586 0.146385 0.489708
Si Si3 0.738587 0.106626 0.197295
Si Si4 0.210761 0.364899 0.469242
O O1 0.232181 0.378199 0.772445
O O2 0.188362 0.213910 0.932952
O O3 0.082774 0.149162 0.275104
O O4 0.023472 0.375463 0.213013
O O5 0.223529 0.251627 0.423328
O O6 0.174267 0.099507 0.567077
O O7 0.500000 0.121540 0.500000
O O8 0.787422 0.094907 0.262814
O O9 0.771212 0.000000 0.104213
#
# Coordination Sequence:
#
# PCOD9170675 Si02
#       4
#     8   8   8   8
#     4  10  17  33  55  80 105 143 183 230 271 317
#     4   9  18  29  49  83 105 128 185 237 258 309
#     4  10  20  35  53  83 121 146 175 228 289 337
#     4  10  18  31  55  77 106 145 186 222 269 325
#
# _framework density 27.861191000000002
#
# number of rings (size 3 to 8) (size 9 to 14) (size 15 to 20)
#    0.000    2.250    5.000    1.500    0.000    0.000 
#    0.000    0.000    0.000   36.000    0.000    8.750 
#    0.000    1.000    0.000    0.000    0.000    0.000 
#
# Total GULP energy -89400.195512 kJ/mol
# GULP energy per Si atom -5587.512219 kJ/mol
# Density = 2.779778 g / cm^3
# Si number density = 27.861191 Si / 1000 Ang^3
#
#
#
# Elastic Constant Matrix: (Units=GPa)
#
#
# Indices 1 2 3 4 5 6 
#
# 1 187.4517 8.9995 44.2536 0.0002 9.5235 -0.0007
# 2 8.9995 131.4110 -3.3433 0.0010 -26.5375 -0.0011
# 3 44.2536 -3.3433 118.6374 0.0011 -21.6525 0.0000
# 4 0.0002 0.0010 0.0011 48.5156 0.0001 -6.2122
# 5 9.5235 -26.5375 -21.6525 0.0001 51.4444 0.0001
# 6 -0.0007 -0.0011 0.0000 -6.2122 0.0001 -25.3519
#
#
#
# Elastic Compliance Matrix: (Units=1/GPa)
#
#
# Indices 1 2 3 4 5 6 
#
# 1 0.006217 -0.001090 -0.002884 0.000000 -0.002927 0.000000
# 2 -0.001090 0.008827 0.001650 0.000000 0.005450 0.000000
# 3 -0.002884 0.001650 0.010620 0.000000 0.005855 0.000000
# 4 0.000000 0.000000 0.000000 0.019985 0.000000 -0.004897
# 5 -0.002927 0.005450 0.005855 0.000000 0.025256 0.000000
# 6 0.000000 0.000000 0.000000 -0.004897 0.000000 -0.038245
#
#
# Mechanical properties :
#
#
# Convention : Reuss Voigt Hill
#
# Bulk Modulus (GPa) = 47.58437 59.70219 53.64328
# Shear Modulus (GPa) = 112.83605 40.76097 76.79851
#
# Velocity S-wave (km/s) = 6.37081 3.82907 5.25590
# Velocity P-wave (km/s) = 8.43994 6.40500 7.49188
#
# Compressibility (1/GPa) = 0.02101530
#
# Stress axis : x y z
#
# Youngs Moduli (GPa) = 160.86081 113.29056 94.16368
#
# Poissons Ratio (x) = 0.12351 0.27155
# Poissons Ratio (y) = 0.17537 -0.15537
# Poissons Ratio (z) = 0.46389 -0.18693
#
# Static dielectric constant tensor:
#      x y z
#    x 2.329760 0.000000 0.041900 
#    y 0.000000 2.237210 0.000000 
#    z 0.041900 0.000000 2.223630 
# 
# From -- ./inp_files/157555.got.cif
#   From: 2010.05.17/outbox.cif.g08.bks.cpg/sg12_79_cif.got.tgz:157555.got - 2010.06.03 13:09:07.
