data_PCOD9170555
_publ_section_title
;
Structure prediction by ZEFSAII (Michael W. Deem and Ramdas Pophale) SiO2 
 PCOD9170555
Probable space group: C 2/M
;
_chemical_formula_sum "Si O2"
_cell_formula_units_Z 36
_cell_length_a 27.132633
_cell_length_b 10.658561
_cell_length_c 18.706808
_cell_angle_alpha 90.000000
_cell_angle_beta 19.290374
_cell_angle_gamma 90.000000
_cell_volume 1787.195954
_symmetry_space_group_name_H-M "C 2/M"
_symmetry_group_IT_number 12
_symmetry_cell_setting 'monoclinic'
loop_
_space_group_symop_operation_xyz
x,y,z
-x,y,-z
-x,-y,-z
x,-y,z
1/2+x,1/2+y,z
1/2-x,1/2+y,-z
1/2-x,1/2-y,-z
1/2+x,1/2-y,z
loop_
_atom_site_type_symbol
_atom_site_label
_atom_site_fract_x
_atom_site_fract_y
_atom_site_fract_z
Si Si1 0.325186 0.500000 0.364628
Si Si2 0.445207 0.714471 0.941612
Si Si3 0.293006 0.760137 0.857632
Si Si4 0.939624 0.500000 0.695401
Si Si5 0.727634 0.500000 0.126752
Si Si6 0.990995 0.500000 0.880807
Si Si7 0.786527 0.000000 0.249779
O O1 0.410103 0.627412 0.272473
O O2 0.154273 0.500000 0.622155
O O3 0.333065 0.500000 0.268170
O O4 0.477339 0.854687 0.929186
O O5 0.349765 0.726453 0.998797
O O6 0.349906 0.624553 0.124496
O O7 0.364627 0.626374 0.743140
O O8 0.398258 0.878124 0.707122
O O9 0.250000 0.750000 0.000000
O O10 0.108460 0.500000 0.488856
O O11 0.828075 0.500000 0.916713
O O12 0.851429 0.500000 0.018433
#
# Coordination Sequence:
#
# PCOD9170555 Si02
#       7
#     4   8   8   4   4   4   4
#     4  11  21  39  61  87 114 154 199 241 278 343
#     4  10  21  36  58  85 115 153 190 238 296 337
#     4   9  18  32  55  82 114 145 187 241 286 333
#     4  10  17  32  55  79 111 147 192 224 282 345
#     4   8  16  32  52  80 109 144 179 235 295 319
#     4  10  19  37  59  83 112 147 196 240 285 340
#     4  11  23  38  58  87 124 154 190 237 290 345
#
# _framework density 20.143287000000001
#
# number of rings (size 3 to 8) (size 9 to 14) (size 15 to 20)
#    0.000    2.222    1.111    3.333    0.000    1.778 
#    0.000    3.333    0.000    4.000    0.000    0.000 
#    0.000    0.000    0.000    0.000    0.000    0.000 
#
# Total GULP energy -100210.791165 kJ/mol
# GULP energy per Si atom -5567.266176 kJ/mol
# Density = 2.009744 g / cm^3
# Si number density = 20.143287 Si / 1000 Ang^3
#
#
#
# Elastic Constant Matrix: (Units=GPa)
#
#
# Indices 1 2 3 4 5 6 
#
# 1 70.9085 33.9339 12.9945 0.0000 2.8029 0.0000
# 2 33.9339 227.5922 30.3799 0.0000 -3.4033 0.0000
# 3 12.9945 30.3799 45.3383 0.0000 12.6856 0.0000
# 4 0.0000 0.0000 0.0000 -6.9742 0.0000 -10.5038
# 5 2.8029 -3.4033 12.6856 0.0000 18.7278 0.0000
# 6 0.0000 0.0000 0.0000 -10.5038 0.0000 25.4649
#
#
#
# Elastic Compliance Matrix: (Units=1/GPa)
#
#
# Indices 1 2 3 4 5 6 
#
# 1 0.015604 -0.001938 -0.002988 0.000000 -0.000663 0.000000
# 2 -0.001938 0.005294 -0.004124 0.000000 0.004045 0.000000
# 3 -0.002988 -0.004124 0.031785 0.000000 -0.021832 0.000000
# 4 0.000000 0.000000 0.000000 -0.088442 0.000000 -0.036481
# 5 -0.000663 0.004045 -0.021832 0.000000 0.069019 0.000000
# 6 0.000000 0.000000 0.000000 -0.036481 0.000000 0.024222
#
#
# Mechanical properties :
#
#
# Convention : Reuss Voigt Hill
#
# Bulk Modulus (GPa) = 28.91601 55.38397 42.14999
# Shear Modulus (GPa) = 57.40001 25.21242 41.30621
#
# Velocity S-wave (km/s) = 5.34394 3.54171 4.53329
# Velocity P-wave (km/s) = 7.24315 6.65429 6.95496
#
# Compressibility (1/GPa) = 0.03458292
#
# Stress axis : x y z
#
# Youngs Moduli (GPa) = 64.08706 188.90596 31.46178
#
# Poissons Ratio (x) = 0.36601 0.09402
# Poissons Ratio (y) = 0.12417 0.12974
# Poissons Ratio (z) = 0.19152 0.77898
#
# Static dielectric constant tensor:
#      x y z
#    x 1.812190 0.000000 0.062660 
#    y 0.000000 1.775420 0.000000 
#    z 0.062660 0.000000 1.692230 
# 
# From -- ./inp_files/293059.got.cif
#   From: 2010.05.17/outbox.cif.g08.bks.cpg/sg12_147_cif.got.tgz:293059.got - 2010.06.03 13:09:07.
