data_PCOD9170030
_publ_section_title
;
Structure prediction by ZEFSAII (Michael W. Deem and Ramdas Pophale) SiO2 
 PCOD9170030
Probable space group: C 2/M
;
_chemical_formula_sum "Si O2"
_cell_formula_units_Z 56
_cell_length_a 26.492234
_cell_length_b 16.036409
_cell_length_c 9.683978
_cell_angle_alpha 90.000000
_cell_angle_beta 134.845729
_cell_angle_gamma 90.000000
_cell_volume 2916.961613
_symmetry_space_group_name_H-M "C 2/M"
_symmetry_group_IT_number 12
_symmetry_cell_setting 'monoclinic'
loop_
_space_group_symop_operation_xyz
x,y,z
-x,y,-z
-x,-y,-z
x,-y,z
1/2+x,1/2+y,z
1/2-x,1/2+y,-z
1/2-x,1/2-y,-z
1/2+x,1/2-y,z
loop_
_atom_site_type_symbol
_atom_site_label
_atom_site_fract_x
_atom_site_fract_y
_atom_site_fract_z
Si Si1 0.161152 0.152345 0.830637
Si Si2 0.797129 0.598184 0.937802
Si Si3 0.259476 0.403988 0.448678
Si Si4 0.091359 0.909033 0.430469
Si Si5 0.658785 0.599524 0.141466
Si Si6 0.524943 0.717474 0.901602
Si Si7 0.929606 0.684867 0.274095
O O1 0.113295 0.098582 0.632776
O O2 0.119072 0.239372 0.760798
O O3 0.238630 0.150488 0.909630
O O4 0.169246 0.115852 0.999560
O O5 0.776366 0.500000 0.899920
O O6 0.874596 0.609701 0.150828
O O7 0.793174 0.630064 0.770670
O O8 0.237376 0.500000 0.426765
O O9 0.336043 0.402553 0.518101
O O10 0.276518 0.370448 0.634024
O O11 0.038227 0.836754 0.286747
O O12 0.059216 0.000000 0.341158
O O13 0.649088 0.500000 0.145898
O O14 0.589693 0.652731 0.048968
O O15 0.547066 0.785356 0.832732
O O16 0.500000 0.751814 0.000000
O O17 0.000000 0.671255 0.500000
#
# Coordination Sequence:
#
# PCOD9170030 Si02
#       7
#     8   8   8   8   8   8   8
#     4  10  20  36  56  87 116 148 183 230 287 337
#     4  10  21  40  64  82 107 148 195 240 279 332
#     4   8  16  30  50  77 106 140 180 224 267 317
#     4  10  17  29  51  77 113 153 186 218 266 334
#     4  10  18  28  49  82 118 148 184 226 269 335
#     4  11  21  33  49  77 117 155 189 221 278 339
#     4  11  23  40  58  84 116 150 187 232 289 339
#
# _framework density 19.198058
#
# number of rings (size 3 to 8) (size 9 to 14) (size 15 to 20)
#    0.000    2.000    2.857    3.000    0.000    0.857 
#    0.000    6.429    0.000    0.429    0.000    0.000 
#    0.000    0.000    0.000    0.000    0.000    0.000 
#
# Total GULP energy -156093.983694 kJ/mol
# GULP energy per Si atom -5574.785132 kJ/mol
# Density = 1.915436 g / cm^3
# Si number density = 19.198058 Si / 1000 Ang^3
#
#
#
# Elastic Constant Matrix: (Units=GPa)
#
#
# Indices 1 2 3 4 5 6 
#
# 1 39.5612 2.0751 51.9364 0.0000 -9.4426 0.0000
# 2 2.0751 13.9274 16.4428 0.0000 0.5505 0.0000
# 3 51.9364 16.4428 135.4647 0.0000 -7.5576 0.0000
# 4 0.0000 0.0000 0.0000 20.5277 0.0000 6.9409
# 5 -9.4426 0.5505 -7.5576 0.0000 34.7814 0.0000
# 6 0.0000 0.0000 0.0000 6.9409 0.0000 7.0609
#
#
#
# Elastic Compliance Matrix: (Units=1/GPa)
#
#
# Indices 1 2 3 4 5 6 
#
# 1 0.058520 0.019473 -0.024224 0.000000 0.010315 0.000000
# 2 0.019473 0.090734 -0.018489 0.000000 -0.000167 0.000000
# 3 -0.024224 -0.018489 0.018791 0.000000 -0.002201 0.000000
# 4 0.000000 0.000000 0.000000 0.072967 0.000000 -0.071726
# 5 0.010315 -0.000167 -0.002201 0.000000 0.031076 0.000000
# 6 0.000000 0.000000 0.000000 -0.071726 0.000000 0.212130
#
#
# Mechanical properties :
#
#
# Convention : Reuss Voigt Hill
#
# Bulk Modulus (GPa) = 8.22603 36.65130 22.43867
# Shear Modulus (GPa) = 8.75320 20.37394 14.56357
#
# Velocity S-wave (km/s) = 2.13760 3.26122 2.75725
# Velocity P-wave (km/s) = 3.22282 5.77177 4.67439
#
# Compressibility (1/GPa) = 0.12156528
#
# Stress axis : x y z
#
# Youngs Moduli (GPa) = 17.08812 11.02120 53.21727
#
# Poissons Ratio (x) = -0.21462 1.28916
# Poissons Ratio (y) = -0.33276 0.98391
# Poissons Ratio (z) = 0.41395 0.20377
#
# Static dielectric constant tensor:
#      x y z
#    x 1.667310 0.000000 -0.020660 
#    y 0.000000 1.661140 0.000000 
#    z -0.020660 0.000000 1.710590 
# 
# From -- ./inp_files/87367.got.cif
#   From: 2010.05.17/outbox.cif.g08.bks.cpg/sg12_44_cif.got.tgz:87367.got - 2010.06.03 13:09:07.
