data_PCOD9170761
_publ_section_title
;
Structure prediction by ZEFSAII (Michael W. Deem and Ramdas Pophale) SiO2 
 PCOD9170761
Probable space group: C 2/M
;
_chemical_formula_sum "Si O2"
_cell_formula_units_Z 56
_cell_length_a 20.081242
_cell_length_b 20.319312
_cell_length_c 10.634391
_cell_angle_alpha 90.000000
_cell_angle_beta 128.640514
_cell_angle_gamma 90.000000
_cell_volume 3389.278268
_symmetry_space_group_name_H-M "C 2/M"
_symmetry_group_IT_number 12
_symmetry_cell_setting 'monoclinic'
loop_
_space_group_symop_operation_xyz
x,y,z
-x,y,-z
-x,-y,-z
x,-y,z
1/2+x,1/2+y,z
1/2-x,1/2+y,-z
1/2-x,1/2-y,-z
1/2+x,1/2-y,z
loop_
_atom_site_type_symbol
_atom_site_label
_atom_site_fract_x
_atom_site_fract_y
_atom_site_fract_z
Si Si1 0.246876 0.619860 0.300646
Si Si2 0.802040 0.315044 0.523111
Si Si3 0.505252 0.203592 0.157587
Si Si4 0.772744 0.266567 0.222844
Si Si5 0.905906 0.074931 0.331397
Si Si6 0.619187 0.702702 0.858460
Si Si7 0.427429 0.071700 0.022885
O O1 0.238467 0.626667 0.441208
O O2 0.244534 0.694876 0.243845
O O3 0.333530 0.588609 0.351208
O O4 0.164559 0.583064 0.148318
O O5 0.750000 0.250000 0.500000
O O6 0.796767 0.314053 0.366329
O O7 0.898449 0.307267 0.685096
O O8 0.463595 0.265702 0.176321
O O9 0.451373 0.137563 0.126451
O O10 0.500000 0.212229 0.000000
O O11 0.850283 0.248821 0.221442
O O12 0.695504 0.294484 0.049335
O O13 0.893503 0.130101 0.210785
O O14 0.000000 0.082685 0.500000
O O15 0.896555 0.000000 0.275010
O O16 0.429096 0.000000 0.088575
O O17 0.500000 0.070099 0.000000
#
# Coordination Sequence:
#
# PCOD9170761 Si02
#       7
#     8   8   8   8   8   8   8
#     4  10  17  34  54  80 110 142 180 228 285 328
#     4  10  19  30  51  78 114 140 179 229 279 330
#     4  11  19  33  53  85 114 145 185 233 278 330
#     4   9  19  33  50  81 112 140 182 228 270 333
#     4  10  23  39  57  81 107 144 195 239 283 334
#     4  10  20  34  56  76 113 146 186 233 281 323
#     4  10  18  30  50  80 113 143 177 219 276 335
#
# _framework density 16.522693
#
# number of rings (size 3 to 8) (size 9 to 14) (size 15 to 20)
#    0.000    2.000    4.286    1.286    6.000    0.000 
#    0.000    0.000    0.000    3.000    0.000    1.000 
#    0.000    0.000    0.000    0.000    0.000    0.000 
#
# Total GULP energy -155994.453637 kJ/mol
# GULP energy per Si atom -5571.230487 kJ/mol
# Density = 1.648509 g / cm^3
# Si number density = 16.522693 Si / 1000 Ang^3
#
#
#
# Elastic Constant Matrix: (Units=GPa)
#
#
# Indices 1 2 3 4 5 6 
#
# 1 90.1556 35.1859 42.8319 0.0000 5.5032 0.0000
# 2 35.1859 89.7753 34.6831 0.0000 -1.4969 0.0000
# 3 42.8319 34.6831 74.5143 0.0000 -3.4582 0.0000
# 4 0.0000 0.0000 0.0000 21.8527 0.0000 8.2421
# 5 5.5032 -1.4969 -3.4582 0.0000 31.2064 0.0000
# 6 0.0000 0.0000 0.0000 8.2421 0.0000 31.6785
#
#
#
# Elastic Compliance Matrix: (Units=1/GPa)
#
#
# Indices 1 2 3 4 5 6 
#
# 1 0.016507 -0.003413 -0.008084 0.000000 -0.003971 0.000000
# 2 -0.003413 0.014287 -0.004652 0.000000 0.000772 0.000000
# 3 -0.008084 -0.004652 0.020393 0.000000 0.003462 0.000000
# 4 0.000000 0.000000 0.000000 0.050740 0.000000 -0.013201
# 5 -0.003971 0.000772 0.003462 0.000000 0.033166 0.000000
# 6 0.000000 0.000000 0.000000 -0.013201 0.000000 0.035002
#
#
# Mechanical properties :
#
#
# Convention : Reuss Voigt Hill
#
# Bulk Modulus (GPa) = 52.94245 53.31633 53.12939
# Shear Modulus (GPa) = 23.95909 26.39715 25.17812
#
# Velocity S-wave (km/s) = 3.81211 4.00137 3.90789
# Velocity P-wave (km/s) = 7.17552 7.32711 7.25171
#
# Compressibility (1/GPa) = 0.01888843
#
# Stress axis : x y z
#
# Youngs Moduli (GPa) = 60.58079 69.99531 49.03555
#
# Poissons Ratio (x) = 0.23886 0.39642
# Poissons Ratio (y) = 0.20674 0.22813
# Poissons Ratio (z) = 0.48975 0.32565
#
# Static dielectric constant tensor:
#      x y z
#    x 1.588170 0.000000 -0.011660 
#    y 0.000000 1.567870 0.000000 
#    z -0.011660 0.000000 1.543650 
# 
# From -- ./inp_files/169272.got.cif
#   From: 2010.05.17/outbox.cif.g08.bks.cpg/sg12_85_cif.got.tgz:169272.got - 2010.06.03 13:09:07.
