data_PCOD9170038
_publ_section_title
;
Structure prediction by ZEFSAII (Michael W. Deem and Ramdas Pophale) SiO2 
 PCOD9170038
Probable space group: C 2/M
;
_chemical_formula_sum "Si O2"
_cell_formula_units_Z 40
_cell_length_a 16.549957
_cell_length_b 17.864874
_cell_length_c 7.571226
_cell_angle_alpha 90.000000
_cell_angle_beta 136.000815
_cell_angle_gamma 90.000000
_cell_volume 1554.991120
_symmetry_space_group_name_H-M "C 2/M"
_symmetry_group_IT_number 12
_symmetry_cell_setting 'monoclinic'
loop_
_space_group_symop_operation_xyz
x,y,z
-x,y,-z
-x,-y,-z
x,-y,z
1/2+x,1/2+y,z
1/2-x,1/2+y,-z
1/2-x,1/2-y,-z
1/2+x,1/2-y,z
loop_
_atom_site_type_symbol
_atom_site_label
_atom_site_fract_x
_atom_site_fract_y
_atom_site_fract_z
Si Si1 0.984522 0.579072 0.283566
Si Si2 0.132259 0.091628 0.891499
Si Si3 0.804992 0.348453 0.465572
Si Si4 0.491533 0.273137 0.198843
Si Si5 0.287478 0.834858 0.833698
O O1 0.932018 0.500000 0.249820
O O2 0.000000 0.616850 0.500000
O O3 0.108930 0.581446 0.393282
O O4 0.898640 0.611831 0.008636
O O5 0.210731 0.121082 0.179672
O O6 0.119036 0.000000 0.867074
O O7 0.016839 0.143141 0.736958
O O8 0.198813 0.125009 0.825305
O O9 0.753552 0.328631 0.575694
O O10 0.900347 0.280862 0.569283
O O11 0.500000 0.274531 0.000000
O O12 0.361425 0.236315 0.027262
#
# Coordination Sequence:
#
# PCOD9170038 Si02
#       5
#     8   8   8   8   8
#     4  10  17  29  51  84 125 162 200 257 323 375
#     4  12  24  40  68 102 133 169 217 276 336 388
#     4  10  22  40  63  92 129 176 221 266 325 391
#     4   9  22  43  64  94 133 175 221 268 323 395
#     4  10  21  38  60  91 130 169 220 270 318 390
#
# _framework density 25.72362
#
# number of rings (size 3 to 8) (size 9 to 14) (size 15 to 20)
#    0.000    1.800    2.000    3.600    0.000    7.600 
#    0.000    4.000    0.000    0.000    0.000    9.800 
#    0.000    0.000    0.000    0.000    0.000    0.000 
#
# Total GULP energy -111367.992357 kJ/mol
# GULP energy per Si atom -5568.399618 kJ/mol
# Density = 2.566507 g / cm^3
# Si number density = 25.723620 Si / 1000 Ang^3
#
#
#
# Elastic Constant Matrix: (Units=GPa)
#
#
# Indices 1 2 3 4 5 6 
#
# 1 76.5971 69.0638 44.2596 0.0000 -14.4146 0.0000
# 2 69.0638 201.5464 42.0796 0.0000 -7.8200 0.0000
# 3 44.2596 42.0796 115.0204 0.0000 -16.4528 0.0000
# 4 0.0000 0.0000 0.0000 -361.0797 0.0000 20.2797
# 5 -14.4146 -7.8200 -16.4528 0.0000 37.9840 0.0000
# 6 0.0000 0.0000 0.0000 20.2797 0.0000 3.4053
#
#
#
# Elastic Compliance Matrix: (Units=1/GPa)
#
#
# Indices 1 2 3 4 5 6 
#
# 1 0.023289 -0.006567 -0.005851 0.000000 0.004952 0.000000
# 2 -0.006567 0.007226 -0.000278 0.000000 -0.001125 0.000000
# 3 -0.005851 -0.000278 0.011429 0.000000 0.002673 0.000000
# 4 0.000000 0.000000 0.000000 -0.002075 0.000000 0.012359
# 5 0.004952 -0.001125 0.002673 0.000000 0.029132 0.000000
# 6 0.000000 0.000000 0.000000 0.012359 0.000000 0.220057
#
#
# Mechanical properties :
#
#
# Convention : Reuss Voigt Hill
#
# Bulk Modulus (GPa) = 60.40794 78.21889 69.31341
# Shear Modulus (GPa) = 15.62661 -48.08737 -16.23038
#
# Velocity S-wave (km/s) = 2.46739 -4.32833 -2.51460
# Velocity P-wave (km/s) = 5.62599 2.34397 4.30964
#
# Compressibility (1/GPa) = 0.01655411
#
# Stress axis : x y z
#
# Youngs Moduli (GPa) = 42.93922 138.38571 87.49337
#
# Poissons Ratio (x) = 0.90873 0.51190
# Poissons Ratio (y) = 0.28197 0.02430
# Poissons Ratio (z) = 0.25123 0.03843
#
# Static dielectric constant tensor:
#      x y z
#    x 2.063170 0.000000 -0.010300 
#    y 0.000000 2.274500 0.000000 
#    z -0.010300 0.000000 2.143130 
# 
# From -- ./inp_files/88243.got.cif
#   From: 2010.05.17/outbox.cif.g08.bks.cpg/sg12_45_cif.got.tgz:88243.got - 2010.06.03 13:09:07.
