data_PCOD9170215
_publ_section_title
;
Structure prediction by ZEFSAII (Michael W. Deem and Ramdas Pophale) SiO2 
 PCOD9170215
Probable space group: C 2/M
;
_chemical_formula_sum "Si O2"
_cell_formula_units_Z 56
_cell_length_a 7.812692
_cell_length_b 22.230255
_cell_length_c 22.642635
_cell_angle_alpha 90.000000
_cell_angle_beta 51.345148
_cell_angle_gamma 90.000000
_cell_volume 3071.003003
_symmetry_space_group_name_H-M "C 2/M"
_symmetry_group_IT_number 12
_symmetry_cell_setting 'monoclinic'
loop_
_space_group_symop_operation_xyz
x,y,z
-x,y,-z
-x,-y,-z
x,-y,z
1/2+x,1/2+y,z
1/2-x,1/2+y,-z
1/2-x,1/2-y,-z
1/2+x,1/2-y,z
loop_
_atom_site_type_symbol
_atom_site_label
_atom_site_fract_x
_atom_site_fract_y
_atom_site_fract_z
Si Si1 0.168444 0.872133 0.271047
Si Si2 0.134533 0.747589 0.828240
Si Si3 0.988222 0.684500 0.409630
Si Si4 0.233474 0.183065 0.920990
Si Si5 0.359016 0.930009 0.828645
Si Si6 0.133059 0.176004 0.573446
Si Si7 0.685527 0.367037 0.750093
O O1 0.244656 0.804839 0.234224
O O2 0.383601 0.912665 0.228165
O O3 0.052939 0.866080 0.359526
O O4 0.988282 0.891363 0.260662
O O5 0.262854 0.783176 0.851790
O O6 0.085010 0.804694 0.796983
O O7 0.942262 0.713387 0.906398
O O8 0.957073 0.755994 0.409450
O O9 0.756612 0.661622 0.485648
O O10 0.175566 0.675943 0.418558
O O11 0.088204 0.652782 0.330852
O O12 0.262851 0.113028 0.900514
O O13 0.000000 0.193496 0.000000
O O14 0.243663 0.910093 0.792056
O O15 0.328012 0.000000 0.845991
#
# Coordination Sequence:
#
# PCOD9170215 Si02
#       7
#     8   8   8   8   8   8   8
#     4  10  19  33  55  77 110 144 171 223 264 307
#     4  10  17  30  51  84 110 132 174 200 265 342
#     4   9  17  26  43  75 111 142 167 203 264 325
#     4  10  20  33  54  79 110 138 160 218 272 323
#     4  10  24  39  55  78  98 140 198 223 253 314
#     4   9  17  26  43  75 111 142 167 203 264 325
#     4  10  19  33  55  77 110 144 171 223 264 307
#
# _framework density 18.235084000000001
#
# number of rings (size 3 to 8) (size 9 to 14) (size 15 to 20)
#    0.000    2.286    2.857    0.429    2.000    0.857 
#    0.000    0.000    0.000    1.714    0.000    8.000 
#    0.000    0.000    0.000    0.000    0.000    0.000 
#
# Total GULP energy -155882.448232 kJ/mol
# GULP energy per Si atom -5567.230294 kJ/mol
# Density = 1.819358 g / cm^3
# Si number density = 18.235084 Si / 1000 Ang^3
#
#
#
# Elastic Constant Matrix: (Units=GPa)
#
#
# Indices 1 2 3 4 5 6 
#
# 1 46.5727 20.9610 9.5987 0.0000 -8.9768 0.0000
# 2 20.9610 85.2530 13.8704 0.0000 1.6605 0.0000
# 3 9.5987 13.8704 69.6995 0.0000 -17.7309 0.0000
# 4 0.0000 0.0000 0.0000 10.9334 0.0000 1.3371
# 5 -8.9768 1.6605 -17.7309 0.0000 19.4930 0.0000
# 6 0.0000 0.0000 0.0000 1.3371 0.0000 18.6566
#
#
#
# Elastic Compliance Matrix: (Units=1/GPa)
#
#
# Indices 1 2 3 4 5 6 
#
# 1 0.027196 -0.007183 0.001335 0.000000 0.014350 0.000000
# 2 -0.007183 0.014290 -0.003910 0.000000 -0.008082 0.000000
# 3 0.001335 -0.003910 0.019754 0.000000 0.018916 0.000000
# 4 0.000000 0.000000 0.000000 0.092272 0.000000 -0.006613
# 5 0.014350 -0.008082 0.018916 0.000000 0.075803 0.000000
# 6 0.000000 0.000000 0.000000 -0.006613 0.000000 0.054074
#
#
# Mechanical properties :
#
#
# Convention : Reuss Voigt Hill
#
# Bulk Modulus (GPa) = 23.96876 32.26503 28.11690
# Shear Modulus (GPa) = 15.78220 20.28962 18.03591
#
# Velocity S-wave (km/s) = 2.94510 3.33929 3.14837
# Velocity P-wave (km/s) = 4.97370 5.70965 5.35434
#
# Compressibility (1/GPa) = 0.04172097
#
# Stress axis : x y z
#
# Youngs Moduli (GPa) = 36.77075 69.98131 50.62349
#
# Poissons Ratio (x) = 0.50269 -0.06757
# Poissons Ratio (y) = 0.26413 0.19796
# Poissons Ratio (z) = -0.04908 0.27366
#
# Static dielectric constant tensor:
#      x y z
#    x 1.755620 0.000000 -0.004800 
#    y 0.000000 1.599910 0.000000 
#    z -0.004800 0.000000 1.663060 
# 
# From -- ./inp_files/300892.got.cif
#   From: 2010.05.17/outbox.cif.g08.bks.cpg/sg12_151_cif.got.tgz:300892.got - 2010.06.03 13:09:07.
