data_PCOD9170042
_publ_section_title
;
Structure prediction by ZEFSAII (Michael W. Deem and Ramdas Pophale) SiO2 
 PCOD9170042
Probable space group: C 2/M
;
_chemical_formula_sum "Si O2"
_cell_formula_units_Z 64
_cell_length_a 19.784963
_cell_length_b 21.628674
_cell_length_c 10.333519
_cell_angle_alpha 90.000000
_cell_angle_beta 131.719171
_cell_angle_gamma 90.000000
_cell_volume 3300.608864
_symmetry_space_group_name_H-M "C 2/M"
_symmetry_group_IT_number 12
_symmetry_cell_setting 'monoclinic'
loop_
_space_group_symop_operation_xyz
x,y,z
-x,y,-z
-x,-y,-z
x,-y,z
1/2+x,1/2+y,z
1/2-x,1/2+y,-z
1/2-x,1/2-y,-z
1/2+x,1/2-y,z
loop_
_atom_site_type_symbol
_atom_site_label
_atom_site_fract_x
_atom_site_fract_y
_atom_site_fract_z
Si Si1 0.509399 0.396565 0.315403
Si Si2 0.628892 0.570728 0.069642
Si Si3 0.358309 0.705142 0.828082
Si Si4 0.480767 0.261227 0.766243
Si Si5 0.943856 0.337507 0.314373
Si Si6 0.788838 0.432430 0.059512
Si Si7 0.298874 0.741909 0.203477
Si Si8 0.650783 0.599519 0.686590
O O1 0.514790 0.321924 0.317755
O O2 0.431488 0.413530 0.318818
O O3 0.606900 0.417228 0.492901
O O4 0.467226 0.421137 0.128006
O O5 0.635505 0.500000 0.126073
O O6 0.638066 0.630359 0.173117
O O7 0.710174 0.580130 0.066890
O O8 0.389349 0.733590 0.732379
O O9 0.265673 0.729339 0.769979
O O10 0.434871 0.726814 0.028941
O O11 0.495415 0.196264 0.715389
O O12 0.866771 0.381900 0.161361
O O13 0.889981 0.280889 0.311170
O O14 0.000000 0.369153 0.500000
O O15 0.826474 0.500000 0.136047
O O16 0.737924 0.432893 0.857178
O O17 0.322701 0.671566 0.265239
O O18 0.250000 0.750000 0.000000
#
# Coordination Sequence:
#
# PCOD9170042 Si02
#       8
#     8   8   8   8   8   8   8   8
#     4   9  17  29  46  77 111 139 175 222 269 330
#     4   9  17  32  53  77 109 151 185 216 266 329
#     4  10  19  32  54  80 119 141 181 231 262 334
#     4  10  19  33  50  83 116 141 173 225 281 329
#     4  12  22  35  56  81 113 147 184 232 283 325
#     4  10  20  34  54  80 106 144 195 229 264 321
#     4  12  17  32  56  80 105 143 181 222 282 338
#     4  10  17  29  52  75 105 141 180 225 276 320
#
# _framework density 19.390360999999999
#
# number of rings (size 3 to 8) (size 9 to 14) (size 15 to 20)
#    0.000    1.750    5.000    1.500    0.000    0.750 
#    0.000   10.000    0.000    0.000    0.000    7.000 
#    0.000    0.000    0.000    0.000    0.000    0.000 
#
# Total GULP energy -178494.914959 kJ/mol
# GULP energy per Si atom -5577.966092 kJ/mol
# Density = 1.934623 g / cm^3
# Si number density = 19.390361 Si / 1000 Ang^3
#
#
#
# Elastic Constant Matrix: (Units=GPa)
#
#
# Indices 1 2 3 4 5 6 
#
# 1 85.2614 31.7860 11.7694 0.0000 6.8744 0.0000
# 2 31.7860 101.0977 23.7819 0.0000 3.4539 0.0000
# 3 11.7694 23.7819 72.5049 0.0000 5.5477 0.0000
# 4 0.0000 0.0000 0.0000 -8.4163 0.0000 0.2767
# 5 6.8744 3.4539 5.5477 0.0000 6.8278 0.0000
# 6 0.0000 0.0000 0.0000 0.2767 0.0000 13.9948
#
#
#
# Elastic Compliance Matrix: (Units=1/GPa)
#
#
# Indices 1 2 3 4 5 6 
#
# 1 0.014230 -0.004045 -0.000046 0.000000 -0.012243 0.000000
# 2 -0.004045 0.011916 -0.003308 0.000000 0.000732 0.000000
# 3 -0.000046 -0.003308 0.015731 0.000000 -0.011062 0.000000
# 4 0.000000 0.000000 0.000000 -0.118740 0.000000 0.002348
# 5 -0.012243 0.000732 -0.011062 0.000000 0.167405 0.000000
# 6 0.000000 0.000000 0.000000 0.002348 0.000000 0.071409
#
#
# Mechanical properties :
#
#
# Convention : Reuss Voigt Hill
#
# Bulk Modulus (GPa) = 36.92904 43.72653 40.32778
# Shear Modulus (GPa) = 26.91411 15.24970 21.08191
#
# Velocity S-wave (km/s) = 3.72965 2.80743 3.30090
# Velocity P-wave (km/s) = 6.13461 5.75400 5.94735
#
# Compressibility (1/GPa) = 0.02707896
#
# Stress axis : x y z
#
# Youngs Moduli (GPa) = 70.27335 83.91844 63.56828
#
# Poissons Ratio (x) = 0.33944 0.00295
# Poissons Ratio (y) = 0.28425 0.21029
# Poissons Ratio (z) = 0.00326 0.27761
#
# Static dielectric constant tensor:
#      x y z
#    x 1.704560 0.000000 -0.037330 
#    y 0.000000 1.673550 0.000000 
#    z -0.037330 0.000000 1.742060 
# 
# From -- ./inp_files/169713.got.cif
#   From: 2010.05.17/outbox.cif.g08.bks.cpg/sg12_85_cif.got.tgz:169713.got - 2010.06.03 13:09:07.
