data_PCOD9170108
_publ_section_title
;
Structure prediction by ZEFSAII (Michael W. Deem and Ramdas Pophale) SiO2 
 PCOD9170108
Probable space group: C 2/M
;
_chemical_formula_sum "Si O2"
_cell_formula_units_Z 44
_cell_length_a 23.600524
_cell_length_b 25.050993
_cell_length_c 5.549775
_cell_angle_alpha 90.000000
_cell_angle_beta 127.056758
_cell_angle_gamma 90.000000
_cell_volume 2618.460682
_symmetry_space_group_name_H-M "C 2/M"
_symmetry_group_IT_number 12
_symmetry_cell_setting 'monoclinic'
loop_
_space_group_symop_operation_xyz
x,y,z
-x,y,-z
-x,-y,-z
x,-y,z
1/2+x,1/2+y,z
1/2-x,1/2+y,-z
1/2-x,1/2-y,-z
1/2+x,1/2-y,z
loop_
_atom_site_type_symbol
_atom_site_label
_atom_site_fract_x
_atom_site_fract_y
_atom_site_fract_z
Si Si1 0.238998 0.323308 0.707540
Si Si2 0.500000 0.860680 0.000000
Si Si3 0.382003 0.744205 0.055163
Si Si4 0.689760 0.140303 0.078126
Si Si5 0.572082 0.938259 0.842028
Si Si6 0.912017 0.734237 0.626622
O O1 0.226908 0.359185 0.436880
O O2 0.170842 0.283683 0.555029
O O3 0.309824 0.289250 0.854065
O O4 0.238766 0.351295 0.969057
O O5 0.443611 0.899796 0.974283
O O6 0.542357 0.820068 0.279633
O O7 0.418644 0.731823 0.403138
O O8 0.360447 0.806903 0.028474
O O9 0.426187 0.739543 0.923124
O O10 0.640731 0.089032 0.902642
O O11 0.500000 0.935088 0.500000
O O12 0.583082 0.000000 0.932608
#
# Coordination Sequence:
#
# PCOD9170108 Si02
#       6
#     8   4   8   8   8   8
#     4  10  17  30  49  65  85 103 135 191 240 277
#     4  12  21  34  46  60  92 122 164 200 239 264
#     4  10  17  30  46  68  84 104 137 188 237 278
#     4  10  18  31  44  66  82 105 143 188 240 262
#     4  11  23  35  47  60  84 125 168 206 238 264
#     4  10  19  27  45  63  87 111 140 184 231 264
#
# _framework density 16.803766
#
# number of rings (size 3 to 8) (size 9 to 14) (size 15 to 20)
#    0.000    1.636    3.636    7.909    0.000    0.000 
#    0.000    0.000    0.000    0.000    0.000    0.000 
#    0.000    0.000    0.000    0.000    0.000    0.000 
#
# Total GULP energy -122619.055819 kJ/mol
# GULP energy per Si atom -5573.593446 kJ/mol
# Density = 1.676552 g / cm^3
# Si number density = 16.803766 Si / 1000 Ang^3
#
#
#
# Elastic Constant Matrix: (Units=GPa)
#
#
# Indices 1 2 3 4 5 6 
#
# 1 78.9090 36.7855 32.2128 0.0000 -16.8877 0.0000
# 2 36.7855 58.5082 28.5553 0.0000 10.0525 0.0000
# 3 32.2128 28.5553 95.6522 0.0000 -23.9180 0.0000
# 4 0.0000 0.0000 0.0000 10.8033 0.0000 6.4931
# 5 -16.8877 10.0525 -23.9180 0.0000 34.3545 0.0000
# 6 0.0000 0.0000 0.0000 6.4931 0.0000 11.9949
#
#
#
# Elastic Compliance Matrix: (Units=1/GPa)
#
#
# Indices 1 2 3 4 5 6 
#
# 1 0.025920 -0.021305 0.002877 0.000000 0.020978 0.000000
# 2 -0.021305 0.042786 -0.013739 0.000000 -0.032558 0.000000
# 3 0.002877 -0.013739 0.018097 0.000000 0.018034 0.000000
# 4 0.000000 0.000000 0.000000 0.137204 0.000000 -0.074271
# 5 0.020978 -0.032558 0.018034 0.000000 0.061503 0.000000
# 6 0.000000 0.000000 0.000000 -0.074271 0.000000 0.123573
#
#
# Mechanical properties :
#
#
# Convention : Reuss Voigt Hill
#
# Bulk Modulus (GPa) = 44.50816 47.57517 46.04167
# Shear Modulus (GPa) = 10.39704 20.46494 15.43099
#
# Velocity S-wave (km/s) = 2.49013 3.49360 3.03364
# Velocity P-wave (km/s) = 5.90019 6.68186 6.30315
#
# Compressibility (1/GPa) = 0.02246779
#
# Stress axis : x y z
#
# Youngs Moduli (GPa) = 38.58032 23.37214 55.25880
#
# Poissons Ratio (x) = 0.49794 -0.15897
# Poissons Ratio (y) = 0.82195 0.75922
# Poissons Ratio (z) = -0.11099 0.32112
#
# Static dielectric constant tensor:
#      x y z
#    x 1.636580 0.000000 -0.050750 
#    y 0.000000 1.518170 0.000000 
#    z -0.050750 0.000000 1.700690 
# 
# From -- ./inp_files/16723.got.cif
#   From: 2010.05.17/outbox.cif.g08.bks.cpg/sg12_9_cif.got.tgz:16723.got - 2010.06.03 13:09:07.
