data_PCOD9170096
_publ_section_title
;
Structure prediction by ZEFSAII (Michael W. Deem and Ramdas Pophale) SiO2 
 PCOD9170096
Probable space group: C 2/M
;
_chemical_formula_sum "Si O2"
_cell_formula_units_Z 40
_cell_length_a 18.359501
_cell_length_b 26.439236
_cell_length_c 5.100705
_cell_angle_alpha 90.000000
_cell_angle_beta 95.092670
_cell_angle_gamma 90.000000
_cell_volume 2466.165288
_symmetry_space_group_name_H-M "C 2/M"
_symmetry_group_IT_number 12
_symmetry_cell_setting 'monoclinic'
loop_
_space_group_symop_operation_xyz
x,y,z
-x,y,-z
-x,-y,-z
x,-y,z
1/2+x,1/2+y,z
1/2-x,1/2+y,-z
1/2-x,1/2-y,-z
1/2+x,1/2-y,z
loop_
_atom_site_type_symbol
_atom_site_label
_atom_site_fract_x
_atom_site_fract_y
_atom_site_fract_z
Si Si1 0.181923 0.211103 0.425118
Si Si2 0.629247 0.107353 0.260008
Si Si3 0.000000 0.321590 0.000000
Si Si4 0.447237 0.000000 0.733805
Si Si5 0.120112 0.253682 0.892490
Si Si6 0.792475 0.353045 0.199039
O O1 0.250000 0.250000 0.500000
O O2 0.139786 0.211187 0.687073
O O3 0.215409 0.159990 0.312421
O O4 0.128641 0.233999 0.189064
O O5 0.560624 0.142621 0.152443
O O6 0.657861 0.126575 0.548415
O O7 0.601317 0.050371 0.274808
O O8 0.691313 0.113622 0.053556
O O9 0.044964 0.283785 0.826798
O O10 0.500000 0.000000 0.500000
O O11 0.500000 0.000000 0.000000
O O12 0.180310 0.297993 0.886530
#
# Coordination Sequence:
#
# PCOD9170096 Si02
#       6
#     8   8   4   4   8   8
#     4  10  17  30  44  63  84 109 145 191 232 258
#     4  11  22  33  49  64  87 120 156 201 232 268
#     4  10  20  31  44  66  92 122 162 179 228 264
#     4  12  24  38  48  66  92 120 160 201 246 273
#     4  10  19  27  44  63  89 114 144 191 220 266
#     4  10  19  32  48  64  81 112 155 192 234 274
#
# _framework density 16.219512999999999
#
# number of rings (size 3 to 8) (size 9 to 14) (size 15 to 20)
#    0.000    1.600    1.000    9.600    2.800    4.000 
#    0.000    0.000    0.000    0.000    0.000    0.000 
#    0.000    0.000    0.000    0.000    0.000   70.000 
#
# Total GULP energy -111427.968706 kJ/mol
# GULP energy per Si atom -5571.398435 kJ/mol
# Density = 1.618260 g / cm^3
# Si number density = 16.219513 Si / 1000 Ang^3
#
#
#
# Elastic Constant Matrix: (Units=GPa)
#
#
# Indices 1 2 3 4 5 6 
#
# 1 36.8361 27.4581 1.8407 0.0000 -13.0646 0.0000
# 2 27.4581 56.7897 12.9378 0.0000 -3.4996 0.0000
# 3 1.8407 12.9378 88.7854 0.0000 -5.7629 0.0000
# 4 0.0000 0.0000 0.0000 13.4653 0.0000 -3.6758
# 5 -13.0646 -3.4996 -5.7629 0.0000 27.2570 0.0000
# 6 0.0000 0.0000 0.0000 -3.6758 0.0000 24.2872
#
#
#
# Elastic Compliance Matrix: (Units=1/GPa)
#
#
# Indices 1 2 3 4 5 6 
#
# 1 0.054707 -0.025940 0.004189 0.000000 0.023777 0.000000
# 2 -0.025940 0.030601 -0.004536 0.000000 -0.009463 0.000000
# 3 0.004189 -0.004536 0.012096 0.000000 0.003983 0.000000
# 4 0.000000 0.000000 0.000000 0.077466 0.000000 0.011724
# 5 0.023777 -0.009463 0.003983 0.000000 0.047711 0.000000
# 6 0.000000 0.000000 0.000000 0.011724 0.000000 0.042948
#
#
# Mechanical properties :
#
#
# Convention : Reuss Voigt Hill
#
# Bulk Modulus (GPa) = 22.30633 29.65383 25.98008
# Shear Modulus (GPa) = 15.01293 22.34686 18.67990
#
# Velocity S-wave (km/s) = 3.04568 3.71587 3.39734
# Velocity P-wave (km/s) = 5.11379 6.06075 5.60730
#
# Compressibility (1/GPa) = 0.04483032
#
# Stress axis : x y z
#
# Youngs Moduli (GPa) = 18.27922 32.67847 82.67387
#
# Poissons Ratio (x) = 0.84769 -0.34633
# Poissons Ratio (y) = 0.47417 0.37498
# Poissons Ratio (z) = -0.07657 0.14822
#
# Static dielectric constant tensor:
#      x y z
#    x 1.615730 0.000000 -0.028890 
#    y 0.000000 1.519140 0.000000 
#    z -0.028890 0.000000 1.589450 
# 
# From -- ./inp_files/16443.got.cif
#   From: 2010.05.17/outbox.cif.g08.bks.cpg/sg12_9_cif.got.tgz:16443.got - 2010.06.03 13:09:07.
