data_PCOD9170218
_publ_section_title
;
Structure prediction by ZEFSAII (Michael W. Deem and Ramdas Pophale) SiO2 
 PCOD9170218
Probable space group: C 2/M
;
_chemical_formula_sum "Si O2"
_cell_formula_units_Z 56
_cell_length_a 15.511792
_cell_length_b 24.544292
_cell_length_c 8.735731
_cell_angle_alpha 90.000000
_cell_angle_beta 76.241242
_cell_angle_gamma 90.000000
_cell_volume 3230.484661
_symmetry_space_group_name_H-M "C 2/M"
_symmetry_group_IT_number 12
_symmetry_cell_setting 'monoclinic'
loop_
_space_group_symop_operation_xyz
x,y,z
-x,y,-z
-x,-y,-z
x,-y,z
1/2+x,1/2+y,z
1/2-x,1/2+y,-z
1/2-x,1/2-y,-z
1/2+x,1/2-y,z
loop_
_atom_site_type_symbol
_atom_site_label
_atom_site_fract_x
_atom_site_fract_y
_atom_site_fract_z
Si Si1 0.679358 0.749464 0.751400
Si Si2 0.915804 0.325862 0.954784
Si Si3 0.233000 0.148666 0.936136
Si Si4 0.499366 0.250478 0.661412
Si Si5 0.335115 0.326750 0.691314
Si Si6 0.597318 0.561103 0.384786
Si Si7 0.092585 0.937653 0.016955
O O1 0.718450 0.697009 0.821438
O O2 0.598845 0.734795 0.671618
O O3 0.760630 0.786210 0.654784
O O4 0.630976 0.786802 0.900517
O O5 0.836970 0.361640 0.918863
O O6 0.954601 0.286442 0.808935
O O7 0.000000 0.353911 0.000000
O O8 0.193904 0.166729 0.118314
O O9 0.174836 0.096470 0.920670
O O10 0.500000 0.219400 0.500000
O O11 0.432891 0.300634 0.658763
O O12 0.342740 0.385752 0.608200
O O13 0.500000 0.567630 0.500000
O O14 0.629563 0.500000 0.414599
O O15 0.590614 0.561828 0.202379
O O16 0.096846 0.000000 0.961071
O O17 0.000000 0.912547 0.000000
#
# Coordination Sequence:
#
# PCOD9170218 Si02
#       7
#     8   8   8   8   8   8   8
#     4  10  19  31  50  67  91 131 165 195 233 292
#     4   9  17  32  48  65  89 123 162 194 232 288
#     4  10  17  30  52  68  88 127 166 199 232 289
#     4  11  21  30  43  68 102 126 150 196 244 286
#     4  10  18  32  47  70  98 123 167 198 233 284
#     4   9  18  32  49  68  96 131 161 191 234 286
#     4   9  19  31  47  72  98 124 160 202 238 280
#
# _framework density 17.334861
#
# number of rings (size 3 to 8) (size 9 to 14) (size 15 to 20)
#    0.000    2.286    2.857    1.286    4.000    0.571 
#    0.000    0.000    0.000    0.429    0.000    3.000 
#    0.000    1.143    0.000    0.000    0.000    0.000 
#
# Total GULP energy -155987.526408 kJ/mol
# GULP energy per Si atom -5570.983086 kJ/mol
# Density = 1.729541 g / cm^3
# Si number density = 17.334861 Si / 1000 Ang^3
#
#
#
# Elastic Constant Matrix: (Units=GPa)
#
#
# Indices 1 2 3 4 5 6 
#
# 1 156.3869 63.2431 20.7465 0.0000 -8.4675 0.0000
# 2 63.2431 86.8311 15.5102 0.0000 -13.1080 0.0000
# 3 20.7465 15.5102 33.6555 0.0000 -12.7051 0.0000
# 4 0.0000 0.0000 0.0000 10.8589 0.0000 -6.8305
# 5 -8.4675 -13.1080 -12.7051 0.0000 20.2820 0.0000
# 6 0.0000 0.0000 0.0000 -6.8305 0.0000 24.6069
#
#
#
# Elastic Compliance Matrix: (Units=1/GPa)
#
#
# Indices 1 2 3 4 5 6 
#
# 1 0.009415 -0.006588 -0.003786 0.000000 -0.002699 0.000000
# 2 -0.006588 0.017719 -0.001074 0.000000 0.008028 0.000000
# 3 -0.003786 -0.001074 0.041496 0.000000 0.023719 0.000000
# 4 0.000000 0.000000 0.000000 0.111572 0.000000 0.030971
# 5 -0.002699 0.008028 0.023719 0.000000 0.068225 0.000000
# 6 0.000000 0.000000 0.000000 0.030971 0.000000 0.049236
#
#
# Mechanical properties :
#
#
# Convention : Reuss Voigt Hill
#
# Bulk Modulus (GPa) = 21.86621 52.87480 37.37051
# Shear Modulus (GPa) = 14.88964 22.97448 18.93206
#
# Velocity S-wave (km/s) = 2.93395 3.64446 3.30834
# Velocity P-wave (km/s) = 4.91109 6.94822 6.01650
#
# Compressibility (1/GPa) = 0.04573265
#
# Stress axis : x y z
#
# Youngs Moduli (GPa) = 106.21411 56.43639 24.09878
#
# Poissons Ratio (x) = 0.37183 0.09125
# Poissons Ratio (y) = 0.69979 0.02587
# Poissons Ratio (z) = 0.40217 0.06060
#
# Static dielectric constant tensor:
#      x y z
#    x 1.620620 0.000000 0.004910 
#    y 0.000000 1.601060 0.000000 
#    z 0.004910 0.000000 1.614040 
# 
# From -- ./inp_files/65274.got.cif
#   From: 2010.05.17/outbox.cif.g08.bks.cpg/sg12_33_cif.got.tgz:65274.got - 2010.06.03 13:09:07.
