data_PCOD9170581
_publ_section_title
;
Structure prediction by ZEFSAII (Michael W. Deem and Ramdas Pophale) SiO2 
 PCOD9170581
Probable space group: C 2/M
;
_chemical_formula_sum "Si O2"
_cell_formula_units_Z 60
_cell_length_a 30.325424
_cell_length_b 8.410446
_cell_length_c 12.861620
_cell_angle_alpha 90.000000
_cell_angle_beta 74.704656
_cell_angle_gamma 90.000000
_cell_volume 3164.166450
_symmetry_space_group_name_H-M "C 2/M"
_symmetry_group_IT_number 12
_symmetry_cell_setting 'monoclinic'
loop_
_space_group_symop_operation_xyz
x,y,z
-x,y,-z
-x,-y,-z
x,-y,z
1/2+x,1/2+y,z
1/2-x,1/2+y,-z
1/2-x,1/2-y,-z
1/2+x,1/2-y,z
loop_
_atom_site_type_symbol
_atom_site_label
_atom_site_fract_x
_atom_site_fract_y
_atom_site_fract_z
Si Si1 0.098312 0.689865 0.116869
Si Si2 0.901342 0.813333 0.307275
Si Si3 0.162612 0.186862 0.257340
Si Si4 0.500000 0.759679 0.500000
Si Si5 0.858017 0.192318 0.116916
Si Si6 0.244078 0.190706 0.885724
Si Si7 0.596984 0.814305 0.471082
Si Si8 0.499308 0.820113 0.257400
O O1 0.101609 0.500000 0.131214
O O2 0.134818 0.773095 0.169405
O O3 0.047243 0.738751 0.182125
O O4 0.110360 0.733163 0.991785
O O5 0.874373 0.761571 0.221506
O O6 0.889094 0.717976 0.419179
O O7 0.955477 0.784247 0.257210
O O8 0.892883 0.000000 0.330006
O O9 0.214406 0.241199 0.207464
O O10 0.136721 0.277494 0.365751
O O11 0.160720 0.000000 0.278464
O O12 0.552840 0.701409 0.475216
O O13 0.502783 0.828241 0.380879
O O14 0.805721 0.238039 0.125529
O O15 0.861261 0.000000 0.107286
O O16 0.246784 0.000000 0.883873
O O17 0.250000 0.250000 0.000000
O O18 0.582412 0.000000 0.468484
O O19 0.491391 0.000000 0.224362
#
# Coordination Sequence:
#
# PCOD9170581 Si02
#       8
#     8   8   8   4   8   8   8   8
#     4  11  22  36  59  88 120 156 200 246 293 349
#     4  10  22  40  59  85 119 159 199 242 293 352
#     4  12  24  38  58  91 126 154 190 244 304 357
#     4  10  17  32  57  82 115 152 193 240 289 338
#     4  10  23  42  62  84 119 157 196 243 298 357
#     4  11  22  39  63  91 117 153 197 245 300 355
#     4  11  21  38  61  87 119 157 199 244 290 346
#     4  10  20  35  55  84 118 159 201 241 287 347
#
# _framework density 18.962340000000001
#
# number of rings (size 3 to 8) (size 9 to 14) (size 15 to 20)
#    0.000    1.333    2.667    4.800    0.000    3.200 
#    0.000    5.000    0.000    0.000    0.000    0.000 
#    0.000    0.000    0.000    0.000    0.000    0.000 
#
# Total GULP energy -167383.318320 kJ/mol
# GULP energy per Si atom -5579.443944 kJ/mol
# Density = 1.891918 g / cm^3
# Si number density = 18.962340 Si / 1000 Ang^3
#
#
#
# Elastic Constant Matrix: (Units=GPa)
#
#
# Indices 1 2 3 4 5 6 
#
# 1 108.8351 19.6488 71.2299 0.0000 5.1042 0.0000
# 2 19.6488 41.4549 19.6924 0.0000 3.1536 0.0000
# 3 71.2299 19.6924 119.2144 0.0000 -8.2108 0.0000
# 4 0.0000 0.0000 0.0000 25.6239 0.0000 -4.3518
# 5 5.1042 3.1536 -8.2108 0.0000 38.8561 0.0000
# 6 0.0000 0.0000 0.0000 -4.3518 0.0000 15.3818
#
#
#
# Elastic Compliance Matrix: (Units=1/GPa)
#
#
# Indices 1 2 3 4 5 6 
#
# 1 0.016009 -0.002849 -0.009360 0.000000 -0.003850 0.000000
# 2 -0.002849 0.027053 -0.002935 0.000000 -0.002442 0.000000
# 3 -0.009360 -0.002935 0.014782 0.000000 0.004591 0.000000
# 4 0.000000 0.000000 0.000000 0.040996 0.000000 0.011598
# 5 -0.003850 -0.002442 0.004591 0.000000 0.027410 0.000000
# 6 0.000000 0.000000 0.000000 0.011598 0.000000 0.068293
#
#
# Mechanical properties :
#
#
# Convention : Reuss Voigt Hill
#
# Bulk Modulus (GPa) = 36.28894 54.51630 45.40262
# Shear Modulus (GPa) = 21.36625 26.56793 23.96709
#
# Velocity S-wave (km/s) = 3.36039 3.74717 3.55904
# Velocity P-wave (km/s) = 5.85108 6.89449 6.39410
#
# Compressibility (1/GPa) = 0.02755660
#
# Stress axis : x y z
#
# Youngs Moduli (GPa) = 62.46588 36.96492 67.65179
#
# Poissons Ratio (x) = 0.10531 0.63320
# Poissons Ratio (y) = 0.17795 0.19854
# Poissons Ratio (z) = 0.58466 0.10848
#
# Static dielectric constant tensor:
#      x y z
#    x 1.650320 0.000000 -0.007560 
#    y 0.000000 1.672930 0.000000 
#    z -0.007560 0.000000 1.633440 
# 
# From -- ./inp_files/187382.got.cif
#   From: 2010.05.17/outbox.cif.g08.bks.cpg/sg12_94_cif.got.tgz:187382.got - 2010.06.03 13:09:07.
