data_PCOD9170271
_publ_section_title
;
Structure prediction by ZEFSAII (Michael W. Deem and Ramdas Pophale) SiO2 
 PCOD9170271
Probable space group: C 2/M
;
_chemical_formula_sum "Si O2"
_cell_formula_units_Z 32
_cell_length_a 8.678934
_cell_length_b 21.062933
_cell_length_c 9.728093
_cell_angle_alpha 90.000000
_cell_angle_beta 56.388185
_cell_angle_gamma 90.000000
_cell_volume 1481.007879
_symmetry_space_group_name_H-M "C 2/M"
_symmetry_group_IT_number 12
_symmetry_cell_setting 'monoclinic'
loop_
_space_group_symop_operation_xyz
x,y,z
-x,y,-z
-x,-y,-z
x,-y,z
1/2+x,1/2+y,z
1/2-x,1/2+y,-z
1/2-x,1/2-y,-z
1/2+x,1/2-y,z
loop_
_atom_site_type_symbol
_atom_site_label
_atom_site_fract_x
_atom_site_fract_y
_atom_site_fract_z
Si Si1 0.004135 0.337141 0.311913
Si Si2 0.657161 0.277289 0.758297
Si Si3 0.789674 0.924629 0.648484
Si Si4 0.264471 0.333501 0.916579
O O1 0.161890 0.320871 0.345091
O O2 0.888550 0.273387 0.337127
O O3 0.861290 0.394943 0.380683
O O4 0.132088 0.346347 0.110292
O O5 0.475590 0.320640 0.856286
O O6 0.700226 0.230305 0.866469
O O7 0.757588 0.889707 0.809511
O O8 0.000000 0.908980 0.500000
O O9 0.771347 0.000000 0.667201
#
# Coordination Sequence:
#
# PCOD9170271 Si02
#       4
#     8   8   8   8
#     4  10  17  30  54  78 102 128 157 194 239 293
#     4   9  16  29  52  83 107 124 150 193 247 293
#     4  10  22  38  50  64  93 133 173 208 242 280
#     4  10  17  30  54  78 102 128 157 194 239 293
#
# _framework density 21.606907
#
# number of rings (size 3 to 8) (size 9 to 14) (size 15 to 20)
#    0.000    2.250    0.000    8.250    0.000    2.000 
#    0.000   22.500    0.000    6.000    0.000    0.000 
#    0.000    0.000    0.000    0.000    0.000    0.000 
#
# Total GULP energy -89417.663864 kJ/mol
# GULP energy per Si atom -5588.603992 kJ/mol
# Density = 2.155773 g / cm^3
# Si number density = 21.606907 Si / 1000 Ang^3
#
#
#
# Elastic Constant Matrix: (Units=GPa)
#
#
# Indices 1 2 3 4 5 6 
#
# 1 170.1323 50.4772 36.8265 0.0000 -38.6661 0.0000
# 2 50.4772 93.9389 42.2088 0.0000 -22.7585 0.0000
# 3 36.8265 42.2088 86.6590 0.0000 -24.6834 0.0000
# 4 0.0000 0.0000 0.0000 28.1097 0.0000 -8.9105
# 5 -38.6661 -22.7585 -24.6834 0.0000 50.6629 0.0000
# 6 0.0000 0.0000 0.0000 -8.9105 0.0000 30.7519
#
#
#
# Elastic Compliance Matrix: (Units=1/GPa)
#
#
# Indices 1 2 3 4 5 6 
#
# 1 0.007873 -0.002850 -0.000709 0.000000 0.004383 0.000000
# 2 -0.002850 0.015168 -0.005638 0.000000 0.001892 0.000000
# 3 -0.000709 -0.005638 0.015921 0.000000 0.004683 0.000000
# 4 0.000000 0.000000 0.000000 0.039173 0.000000 0.011351
# 5 0.004383 0.001892 0.004683 0.000000 0.026215 0.000000
# 6 0.000000 0.000000 0.000000 0.011351 0.000000 0.035807
#
#
# Mechanical properties :
#
#
# Convention : Reuss Voigt Hill
#
# Bulk Modulus (GPa) = 48.61993 67.75061 58.18527
# Shear Modulus (GPa) = 30.22851 36.65276 33.44064
#
# Velocity S-wave (km/s) = 3.74441 4.12314 3.93833
# Velocity P-wave (km/s) = 6.42223 7.35467 6.90420
#
# Compressibility (1/GPa) = 0.02056770
#
# Stress axis : x y z
#
# Youngs Moduli (GPa) = 127.01707 65.92728 62.81108
#
# Poissons Ratio (x) = 0.18789 0.04454
# Poissons Ratio (y) = 0.36200 0.35413
# Poissons Ratio (z) = 0.09007 0.37170
#
# Static dielectric constant tensor:
#      x y z
#    x 1.868420 0.000000 0.050510 
#    y 0.000000 1.719320 0.000000 
#    z 0.050510 0.000000 1.926030 
# 
# From -- ./inp_files/37635.got.cif
#   From: 2010.05.17/outbox.cif.g08.bks.cpg/sg12_19_cif.got.tgz:37635.got - 2010.06.03 13:09:07.
