data_PCOD9170234
_publ_section_title
;
Structure prediction by ZEFSAII (Michael W. Deem and Ramdas Pophale) SiO2 
 PCOD9170234
Probable space group: C 2/M
;
_chemical_formula_sum "Si O2"
_cell_formula_units_Z 58
_cell_length_a 14.502365
_cell_length_b 13.049930
_cell_length_c 15.522030
_cell_angle_alpha 90.000000
_cell_angle_beta 111.265703
_cell_angle_gamma 90.000000
_cell_volume 2737.592520
_symmetry_space_group_name_H-M "C 2/M"
_symmetry_group_IT_number 12
_symmetry_cell_setting 'monoclinic'
loop_
_space_group_symop_operation_xyz
x,y,z
-x,y,-z
-x,-y,-z
x,-y,z
1/2+x,1/2+y,z
1/2-x,1/2+y,-z
1/2-x,1/2-y,-z
1/2+x,1/2-y,z
loop_
_atom_site_type_symbol
_atom_site_label
_atom_site_fract_x
_atom_site_fract_y
_atom_site_fract_z
Si Si1 0.009768 0.684284 0.134664
Si Si2 0.672235 0.379108 0.788806
Si Si3 0.781542 0.118970 0.386328
Si Si4 0.153752 0.382499 0.040513
Si Si5 0.045704 0.613052 0.336201
Si Si6 0.055867 0.117466 0.231704
Si Si7 0.500000 0.500000 0.500000
Si Si8 0.419054 0.682609 0.578667
O O1 0.082953 0.617608 0.100829
O O2 0.001040 0.639407 0.227562
O O3 0.060421 0.796022 0.160575
O O4 0.905759 0.681889 0.050240
O O5 0.697591 0.500000 0.790860
O O6 0.696862 0.339731 0.701699
O O7 0.743299 0.339658 0.888408
O O8 0.558568 0.372191 0.776234
O O9 0.664670 0.112324 0.361275
O O10 0.832718 0.182180 0.479076
O O11 0.824636 0.000000 0.410968
O O12 0.164651 0.500000 0.013052
O O13 0.015147 0.500000 0.354748
O O14 0.028469 0.708030 0.393753
O O15 0.116353 0.151569 0.337127
O O16 0.075724 0.000000 0.214805
O O17 0.488499 0.591216 0.570096
#
# Coordination Sequence:
#
# PCOD9170234 Si02
#       8
#     8   8   8   8   8   8   2   8
#     4  10  19  31  53  77 103 137 170 216 264 311
#     4   9  18  30  51  76 102 131 166 216 262 302
#     4  10  17  30  52  78 107 134 171 219 264 306
#     4  10  18  33  54  78 100 128 175 218 261 310
#     4  10  20  34  51  79 110 136 170 220 270 315
#     4  10  20  34  48  76 110 133 174 215 258 309
#     4  12  20  36  54  76 100 138 186 212 244 304
#     4  11  21  32  53  78 106 140 177 216 255 308
#
# _framework density 21.186499000000001
#
# number of rings (size 3 to 8) (size 9 to 14) (size 15 to 20)
#    0.000    1.931    2.759    2.897    1.931    0.552 
#    0.000    1.724    0.000    0.000    0.000    5.793 
#    0.000    0.000    0.000    0.000    0.000    0.000 
#
# Total GULP energy -161685.756599 kJ/mol
# GULP energy per Si atom -5575.370917 kJ/mol
# Density = 2.113828 g / cm^3
# Si number density = 21.186499 Si / 1000 Ang^3
#
#
#
# Elastic Constant Matrix: (Units=GPa)
#
#
# Indices 1 2 3 4 5 6 
#
# 1 27.0491 -4.8108 9.4922 0.0000 4.3708 0.0000
# 2 -4.8108 149.7248 37.4481 0.0000 -8.5142 0.0000
# 3 9.4922 37.4481 132.3093 0.0000 24.5501 0.0000
# 4 0.0000 0.0000 0.0000 29.7888 0.0000 -3.8825
# 5 4.3708 -8.5142 24.5501 0.0000 21.0050 0.0000
# 6 0.0000 0.0000 0.0000 -3.8825 0.0000 11.1582
#
#
#
# Elastic Compliance Matrix: (Units=1/GPa)
#
#
# Indices 1 2 3 4 5 6 
#
# 1 0.038835 0.001572 -0.002362 0.000000 -0.004683 0.000000
# 2 0.001572 0.008090 -0.003767 0.000000 0.007355 0.000000
# 3 -0.002362 -0.003767 0.011474 0.000000 -0.014446 0.000000
# 4 0.000000 0.000000 0.000000 0.035164 0.000000 0.012235
# 5 -0.004683 0.007355 -0.014446 0.000000 0.068448 0.000000
# 6 0.000000 0.000000 0.000000 0.012235 0.000000 0.093878
#
#
# Mechanical properties :
#
#
# Convention : Reuss Voigt Hill
#
# Bulk Modulus (GPa) = 20.29020 43.70469 31.99745
# Shear Modulus (GPa) = 17.76629 30.18731 23.97680
#
# Velocity S-wave (km/s) = 2.89894 3.77880 3.36773
# Velocity P-wave (km/s) = 4.56102 6.30178 5.50070
#
# Compressibility (1/GPa) = 0.04928488
#
# Stress axis : x y z
#
# Youngs Moduli (GPa) = 25.74994 123.61026 87.15112
#
# Poissons Ratio (x) = -0.19436 0.20588
# Poissons Ratio (y) = -0.04049 0.32832
# Poissons Ratio (z) = 0.06083 0.46567
#
# Static dielectric constant tensor:
#      x y z
#    x 1.651770 0.000000 -0.012340 
#    y 0.000000 1.812660 0.000000 
#    z -0.012340 0.000000 1.774360 
# 
# From -- ./inp_files/232540.got.cif
#   From: 2010.05.17/outbox.cif.g08.bks.cpg/sg12_117_cif.got.tgz:232540.got - 2010.06.03 13:09:07.
