data_PCOD9170222
_publ_section_title
;
Structure prediction by ZEFSAII (Michael W. Deem and Ramdas Pophale) SiO2 
 PCOD9170222
Probable space group: C 2/M
;
_chemical_formula_sum "Si O2"
_cell_formula_units_Z 56
_cell_length_a 25.928846
_cell_length_b 7.527907
_cell_length_c 26.303472
_cell_angle_alpha 90.000000
_cell_angle_beta 34.897117
_cell_angle_gamma 90.000000
_cell_volume 2937.284102
_symmetry_space_group_name_H-M "C 2/M"
_symmetry_group_IT_number 12
_symmetry_cell_setting 'monoclinic'
loop_
_space_group_symop_operation_xyz
x,y,z
-x,y,-z
-x,-y,-z
x,-y,z
1/2+x,1/2+y,z
1/2-x,1/2+y,-z
1/2-x,1/2-y,-z
1/2+x,1/2-y,z
loop_
_atom_site_type_symbol
_atom_site_label
_atom_site_fract_x
_atom_site_fract_y
_atom_site_fract_z
Si Si1 0.113210 0.213970 0.281285
Si Si2 0.780330 0.290338 0.902849
Si Si3 0.085677 0.787923 0.717205
Si Si4 0.897377 0.217090 0.595651
Si Si5 0.918774 0.217183 0.395140
Si Si6 0.216653 0.213466 0.408326
Si Si7 0.397330 0.296256 0.902881
O O1 0.188715 0.265624 0.179643
O O2 0.126838 0.276031 0.327905
O O3 0.015638 0.272834 0.339086
O O4 0.110268 0.000000 0.284855
O O5 0.780977 0.500000 0.914275
O O6 0.853363 0.206236 0.881990
O O7 0.681412 0.219006 0.997760
O O8 0.092499 0.721016 0.653629
O O9 0.178926 0.757624 0.670363
O O10 0.996393 0.715291 0.817135
O O11 0.071895 0.000000 0.724107
O O12 0.830948 0.277554 0.604749
O O13 0.000000 0.268925 0.500000
O O14 0.896138 0.000000 0.596612
O O15 0.839917 0.276869 0.496863
O O16 0.917696 0.000000 0.395856
O O17 0.208995 0.000000 0.414327
O O18 0.408952 0.500000 0.910445
#
# Coordination Sequence:
#
# PCOD9170222 Si02
#       7
#     8   8   8   8   8   8   8
#     4  10  17  30  52  73  97 130 162 195 240 292
#     4  10  19  30  48  76 101 122 155 204 250 284
#     4  10  19  32  48  68  97 134 162 185 234 301
#     4   9  16  29  52  74  92 124 170 207 235 277
#     4   9  16  28  48  70  96 128 160 191 231 286
#     4  10  19  31  48  73  98 124 164 207 236 272
#     4   9  18  33  51  69  96 131 164 194 235 296
#
# _framework density 19.065232000000002
#
# number of rings (size 3 to 8) (size 9 to 14) (size 15 to 20)
#    0.000    2.429    2.857    0.857    0.000    1.143 
#    0.000    1.429    0.000    1.714    0.000    6.000 
#    0.000    0.000    0.000    0.000    0.000    0.000 
#
# Total GULP energy -156251.163371 kJ/mol
# GULP energy per Si atom -5580.398692 kJ/mol
# Density = 1.902184 g / cm^3
# Si number density = 19.065232 Si / 1000 Ang^3
#
#
#
# Elastic Constant Matrix: (Units=GPa)
#
#
# Indices 1 2 3 4 5 6 
#
# 1 124.1795 -2.9713 88.8493 -0.0119 -17.8252 0.0102
# 2 -2.9713 48.3039 -1.3350 -0.0096 -1.9947 0.0074
# 3 88.8493 -1.3350 181.6097 -0.0073 -10.3451 0.0075
# 4 -0.0119 -0.0096 -0.0073 8.2221 0.0050 -1.3863
# 5 -17.8252 -1.9947 -10.3451 0.0050 27.6042 -0.0025
# 6 0.0102 0.0074 0.0075 -1.3863 -0.0025 9.5015
#
#
#
# Elastic Compliance Matrix: (Units=1/GPa)
#
#
# Indices 1 2 3 4 5 6 
#
# 1 0.013431 0.000920 -0.006199 0.000010 0.006416 -0.000007
# 2 0.000920 0.020838 -0.000181 0.000022 0.002032 -0.000013
# 3 -0.006199 -0.000181 0.008490 -0.000001 -0.000834 0.000000
# 4 0.000010 0.000022 -0.000001 0.124690 -0.000013 0.018192
# 5 0.006416 0.002032 -0.000834 -0.000013 0.040204 0.000001
# 6 -0.000007 -0.000013 0.000000 0.018192 0.000001 0.107901
#
#
# Mechanical properties :
#
#
# Convention : Reuss Voigt Hill
#
# Bulk Modulus (GPa) = 31.40803 58.13102 44.76953
# Shear Modulus (GPa) = 14.83299 27.03557 20.93428
#
# Velocity S-wave (km/s) = 2.79231 3.76979 3.31726
# Velocity P-wave (km/s) = 5.18708 7.03600 6.18106
#
# Compressibility (1/GPa) = 0.03183899
#
# Stress axis : x y z
#
# Youngs Moduli (GPa) = 74.45509 47.98983 117.78536
#
# Poissons Ratio (x) = -0.04414 0.73010
# Poissons Ratio (y) = -0.06848 0.02133
# Poissons Ratio (z) = 0.46152 0.00869
#
# Static dielectric constant tensor:
#      x y z
#    x 1.625410 -0.000160 -0.003150 
#    y -0.000160 2.286160 0.000210 
#    z -0.003150 0.000210 1.680460 
# 
# From -- ./inp_files/243007.got.cif
#   From: 2010.05.17/outbox.cif.g08.bks.cpg/sg12_122_cif.got.tgz:243007.got - 2010.06.03 13:09:07.
