data_PCOD9170071
_publ_section_title
;
Structure prediction by ZEFSAII (Michael W. Deem and Ramdas Pophale) SiO2 
 PCOD9170071
Probable space group: C 2/M
;
_chemical_formula_sum "Si O2"
_cell_formula_units_Z 44
_cell_length_a 9.479416
_cell_length_b 20.884185
_cell_length_c 14.803551
_cell_angle_alpha 90.000000
_cell_angle_beta 58.622225
_cell_angle_gamma 90.000000
_cell_volume 2502.056866
_symmetry_space_group_name_H-M "C 2/M"
_symmetry_group_IT_number 12
_symmetry_cell_setting 'monoclinic'
loop_
_space_group_symop_operation_xyz
x,y,z
-x,y,-z
-x,-y,-z
x,-y,z
1/2+x,1/2+y,z
1/2-x,1/2+y,-z
1/2-x,1/2-y,-z
1/2+x,1/2-y,z
loop_
_atom_site_type_symbol
_atom_site_label
_atom_site_fract_x
_atom_site_fract_y
_atom_site_fract_z
Si Si1 0.500000 0.244854 0.000000
Si Si2 0.421842 0.925675 0.924511
Si Si3 0.689484 0.076825 0.687777
Si Si4 0.490134 0.576492 0.714844
Si Si5 0.327049 0.334538 0.919424
Si Si6 0.831777 0.422019 0.509498
O O1 0.548347 0.287613 0.070446
O O2 0.330962 0.203891 0.069637
O O3 0.552812 0.902148 0.806404
O O4 0.381847 0.000000 0.920392
O O5 0.500000 0.923993 0.000000
O O6 0.262401 0.881251 0.978907
O O7 0.676442 0.101932 0.590737
O O8 0.868709 0.086934 0.670578
O O9 0.667623 0.000000 0.690205
O O10 0.482064 0.500000 0.740369
O O11 0.419376 0.620264 0.817772
O O12 0.673193 0.594173 0.622413
O O13 0.832051 0.500000 0.505623
O O14 0.000000 0.400946 0.500000
#
# Coordination Sequence:
#
# PCOD9170071 Si02
#       6
#     4   8   8   8   8   8
#     4  10  24  36  54  72 108 142 186 218 266 306
#     4  10  17  29  54  84 114 138 167 214 265 317
#     4   9  16  27  47  75 107 144 173 201 249 316
#     4  10  18  31  55  80 106 134 171 218 262 316
#     4  11  20  38  53  80 103 141 178 225 261 318
#     4   9  18  30  44  72 113 145 169 202 258 323
#
# _framework density 17.585531
#
# number of rings (size 3 to 8) (size 9 to 14) (size 15 to 20)
#    0.000    2.182    2.727    1.091    0.000    3.636 
#    0.000    3.636    0.000    0.000    0.000   31.818 
#    0.000    0.000    0.000    0.000    0.000    0.000 
#
# Total GULP energy -122588.910101 kJ/mol
# GULP energy per Si atom -5572.223186 kJ/mol
# Density = 1.754551 g / cm^3
# Si number density = 17.585531 Si / 1000 Ang^3
#
#
#
# Elastic Constant Matrix: (Units=GPa)
#
#
# Indices 1 2 3 4 5 6 
#
# 1 113.1064 48.5266 88.0422 0.0000 -14.6973 0.0000
# 2 48.5266 59.0320 43.4955 0.0000 -1.2418 0.0000
# 3 88.0422 43.4955 130.5413 0.0000 -22.9450 0.0000
# 4 0.0000 0.0000 0.0000 9.2173 0.0000 0.7230
# 5 -14.6973 -1.2418 -22.9450 0.0000 20.1087 0.0000
# 6 0.0000 0.0000 0.0000 0.7230 0.0000 10.0531
#
#
#
# Elastic Compliance Matrix: (Units=1/GPa)
#
#
# Indices 1 2 3 4 5 6 
#
# 1 0.022124 -0.009949 -0.011098 0.000000 0.002893 0.000000
# 2 -0.009949 0.028290 -0.004612 0.000000 -0.010787 0.000000
# 3 -0.011098 -0.004612 0.019021 0.000000 0.013308 0.000000
# 4 0.000000 0.000000 0.000000 0.109108 0.000000 -0.007846
# 5 0.002893 -0.010787 0.013308 0.000000 0.066362 0.000000
# 6 0.000000 0.000000 0.000000 -0.007846 0.000000 0.100036
#
#
# Mechanical properties :
#
#
# Convention : Reuss Voigt Hill
#
# Bulk Modulus (GPa) = 55.19690 73.64538 64.42114
# Shear Modulus (GPa) = 12.42857 16.05017 14.23937
#
# Velocity S-wave (km/s) = 2.66136 3.02436 2.84865
# Velocity P-wave (km/s) = 6.39528 7.35968 6.89437
#
# Compressibility (1/GPa) = 0.01811696
#
# Stress axis : x y z
#
# Youngs Moduli (GPa) = 45.19889 35.34866 52.57281
#
# Poissons Ratio (x) = 0.35168 0.58347
# Poissons Ratio (y) = 0.44968 0.24246
# Poissons Ratio (z) = 0.50163 0.16303
#
# Static dielectric constant tensor:
#      x y z
#    x 1.606730 0.000000 -0.003050 
#    y 0.000000 1.614780 0.000000 
#    z -0.003050 0.000000 1.599850 
# 
# From -- ./inp_files/121378.got.cif
#   From: 2010.05.17/outbox.cif.g08.bks.cpg/sg12_61_cif.got.tgz:121378.got - 2010.06.03 13:09:07.
