data_PCOD9170251
_publ_section_title
;
Structure prediction by ZEFSAII (Michael W. Deem and Ramdas Pophale) SiO2 
 PCOD9170251
Probable space group: C 2/M
;
_chemical_formula_sum "Si O2"
_cell_formula_units_Z 56
_cell_length_a 26.877522
_cell_length_b 15.860670
_cell_length_c 11.302340
_cell_angle_alpha 90.000000
_cell_angle_beta 31.351422
_cell_angle_gamma 90.000000
_cell_volume 2506.807970
_symmetry_space_group_name_H-M "C 2/M"
_symmetry_group_IT_number 12
_symmetry_cell_setting 'monoclinic'
loop_
_space_group_symop_operation_xyz
x,y,z
-x,y,-z
-x,-y,-z
x,-y,z
1/2+x,1/2+y,z
1/2-x,1/2+y,-z
1/2-x,1/2-y,-z
1/2+x,1/2-y,z
loop_
_atom_site_type_symbol
_atom_site_label
_atom_site_fract_x
_atom_site_fract_y
_atom_site_fract_z
Si Si1 0.991080 0.590654 0.658969
Si Si2 0.055282 0.837570 0.005563
Si Si3 0.264086 0.902260 0.659923
Si Si4 0.833668 0.317937 0.305812
Si Si5 0.487320 0.721473 0.667131
Si Si6 0.225087 0.407710 0.804894
Si Si7 0.261425 0.739274 0.114006
O O1 0.030112 0.500000 0.626711
O O2 0.029260 0.685134 0.606586
O O3 0.000000 0.586979 0.500000
O O4 0.878813 0.589701 0.921235
O O5 0.157362 0.883407 0.821856
O O6 0.083041 0.739961 0.916898
O O7 0.996239 0.837052 0.249709
O O8 0.000000 0.869222 0.000000
O O9 0.343518 0.867421 0.407655
O O10 0.270861 0.000000 0.666928
O O11 0.272935 0.847001 0.759441
O O12 0.750000 0.250000 0.500000
O O13 0.797791 0.385392 0.283681
O O14 0.500000 0.697786 0.500000
O O15 0.373975 0.734687 0.908192
O O16 0.270097 0.500000 0.727991
O O17 0.277806 0.324789 0.747224
O O18 0.250000 0.750000 0.000000
#
# Coordination Sequence:
#
# PCOD9170251 Si02
#       7
#     8   8   8   8   8   8   8
#     4   8  13  23  44  70  97 130 174 215 256 326
#     4  10  20  35  58  87 117 151 198 247 296 351
#     4  10  21  38  61  84 116 157 195 243 295 346
#     4  10  17  35  56  79 111 149 193 236 293 341
#     4   9  17  33  51  75 103 150 185 225 293 349
#     4  10  17  30  53  77 105 144 185 227 280 342
#     4  10  20  35  54  83 111 144 189 240 290 345
#
# _framework density 22.339165999999999
#
# number of rings (size 3 to 8) (size 9 to 14) (size 15 to 20)
#    0.000    2.429    5.714    0.429    0.000    2.000 
#    0.000    0.000    0.000   15.857    0.000    0.000 
#    0.000    0.000    0.000    0.000    0.000    0.000 
#
# Total GULP energy -155935.782279 kJ/mol
# GULP energy per Si atom -5569.135081 kJ/mol
# Density = 2.228832 g / cm^3
# Si number density = 22.339166 Si / 1000 Ang^3
#
#
#
# Elastic Constant Matrix: (Units=GPa)
#
#
# Indices 1 2 3 4 5 6 
#
# 1 84.2236 14.8897 24.6907 0.0000 12.3020 0.0000
# 2 14.8897 137.0931 29.2507 0.0000 24.7055 0.0000
# 3 24.6907 29.2507 107.3509 0.0000 27.2224 0.0000
# 4 0.0000 0.0000 0.0000 -108.9634 0.0000 -36.7883
# 5 12.3020 24.7055 27.2224 0.0000 44.1008 0.0000
# 6 0.0000 0.0000 0.0000 -36.7883 0.0000 -20.8421
#
#
#
# Elastic Compliance Matrix: (Units=1/GPa)
#
#
# Indices 1 2 3 4 5 6 
#
# 1 0.012932 -0.000572 -0.002353 0.000000 -0.001834 0.000000
# 2 -0.000572 0.008284 -0.001173 0.000000 -0.003757 0.000000
# 3 -0.002353 -0.001173 0.011670 0.000000 -0.005890 0.000000
# 4 0.000000 0.000000 0.000000 -0.022713 0.000000 0.040090
# 5 -0.001834 -0.003757 -0.005890 0.000000 0.028928 0.000000
# 6 0.000000 0.000000 0.000000 0.040090 0.000000 -0.118743
#
#
# Mechanical properties :
#
#
# Convention : Reuss Voigt Hill
#
# Bulk Modulus (GPa) = 40.50339 51.81443 46.15891
# Shear Modulus (GPa) = -79.09346 0.18150 -39.45598
#
# Velocity S-wave (km/s) = -5.95673 0.28535 -4.20721
# Velocity P-wave (km/s) = 5.39812 4.83253 1.70093
#
# Compressibility (1/GPa) = 0.02468929
#
# Stress axis : x y z
#
# Youngs Moduli (GPa) = 77.32697 120.71849 85.69208
#
# Poissons Ratio (x) = 0.06903 0.20167
# Poissons Ratio (y) = 0.04422 0.10051
# Poissons Ratio (z) = 0.18198 0.14159
#
# Static dielectric constant tensor:
#      x y z
#    x 1.893590 0.000000 0.043110 
#    y 0.000000 1.860660 0.000000 
#    z 0.043110 0.000000 1.845130 
# 
# From -- ./inp_files/98068.got.cif
#   From: 2010.05.17/outbox.cif.g08.bks.cpg/sg12_50_cif.got.tgz:98068.got - 2010.06.03 13:09:07.
