data_PCOD9170032
_publ_section_title
;
Structure prediction by ZEFSAII (Michael W. Deem and Ramdas Pophale) SiO2 
 PCOD9170032
Probable space group: C 2/M
;
_chemical_formula_sum "Si O2"
_cell_formula_units_Z 56
_cell_length_a 29.422615
_cell_length_b 8.727772
_cell_length_c 14.821398
_cell_angle_alpha 90.000000
_cell_angle_beta 119.959510
_cell_angle_gamma 90.000000
_cell_volume 3297.475004
_symmetry_space_group_name_H-M "C 2/M"
_symmetry_group_IT_number 12
_symmetry_cell_setting 'monoclinic'
loop_
_space_group_symop_operation_xyz
x,y,z
-x,y,-z
-x,-y,-z
x,-y,z
1/2+x,1/2+y,z
1/2-x,1/2+y,-z
1/2-x,1/2-y,-z
1/2+x,1/2-y,z
loop_
_atom_site_type_symbol
_atom_site_label
_atom_site_fract_x
_atom_site_fract_y
_atom_site_fract_z
Si Si1 0.448637 0.187816 0.507358
Si Si2 0.648060 0.678473 0.064265
Si Si3 0.910902 0.325246 0.149102
Si Si4 0.057016 0.314309 0.098522
Si Si5 0.858066 0.677664 0.288107
Si Si6 0.246621 0.818674 0.894998
Si Si7 0.533995 0.816257 0.272469
O O1 0.500000 0.234563 0.500000
O O2 0.394616 0.235106 0.405495
O O3 0.451152 0.241707 0.613491
O O4 0.449386 0.000000 0.507545
O O5 0.654668 0.500000 0.088765
O O6 0.605209 0.749841 0.089055
O O7 0.704142 0.759887 0.114459
O O8 0.623390 0.708027 0.941014
O O9 0.900259 0.500000 0.105424
O O10 0.896003 0.321999 0.238609
O O11 0.971920 0.293489 0.198212
O O12 0.058667 0.500000 0.097785
O O13 0.060143 0.260942 0.205849
O O14 0.000000 0.270645 0.000000
O O15 0.843295 0.500000 0.290595
O O16 0.806609 0.767936 0.207416
O O17 0.249030 0.000000 0.906699
O O18 0.250000 0.750000 0.000000
O O19 0.542353 0.000000 0.283631
#
# Coordination Sequence:
#
# PCOD9170032 Si02
#       7
#     8   8   8   8   8   8   8
#     4   9  15  26  49  83 114 141 177 218 258 310
#     4  12  24  36  52  77 109 143 180 224 272 320
#     4  10  17  29  51  78 110 146 179 214 255 316
#     4  10  19  33  54  78 108 147 184 222 266 317
#     4  10  19  31  53  82 113 144 177 217 262 313
#     4  12  24  38  56  78 107 141 179 220 269 325
#     4   9  16  28  49  79 112 147 183 216 259 313
#
# _framework density 16.982692
#
# number of rings (size 3 to 8) (size 9 to 14) (size 15 to 20)
#    0.000    1.714    4.286    2.571    0.000    0.286 
#    0.000    0.000    0.000    3.000    0.000    0.000 
#    0.000    0.000    0.000    0.000    0.000    0.000 
#
# Total GULP energy -156176.967606 kJ/mol
# GULP energy per Si atom -5577.748843 kJ/mol
# Density = 1.694404 g / cm^3
# Si number density = 16.982692 Si / 1000 Ang^3
#
#
#
# Elastic Constant Matrix: (Units=GPa)
#
#
# Indices 1 2 3 4 5 6 
#
# 1 89.0348 30.4961 31.6560 0.0000 9.7449 0.0000
# 2 30.4961 55.6234 20.9815 0.0000 8.4399 0.0000
# 3 31.6560 20.9815 95.9040 0.0000 1.0519 0.0000
# 4 0.0000 0.0000 0.0000 14.1400 0.0000 3.9803
# 5 9.7449 8.4399 1.0519 0.0000 9.7844 0.0000
# 6 0.0000 0.0000 0.0000 3.9803 0.0000 17.3731
#
#
#
# Elastic Compliance Matrix: (Units=1/GPa)
#
#
# Indices 1 2 3 4 5 6 
#
# 1 0.015630 -0.005551 -0.003831 0.000000 -0.010366 0.000000
# 2 -0.005551 0.024629 -0.003387 0.000000 -0.015351 0.000000
# 3 -0.003831 -0.003387 0.012373 0.000000 0.005407 0.000000
# 4 0.000000 0.000000 0.000000 0.075597 0.000000 -0.017320
# 5 -0.010366 -0.015351 0.005407 0.000000 0.125189 0.000000
# 6 0.000000 0.000000 0.000000 -0.017320 0.000000 0.061528
#
#
# Mechanical properties :
#
#
# Convention : Reuss Voigt Hill
#
# Bulk Modulus (GPa) = 36.91031 45.20324 41.05678
# Shear Modulus (GPa) = 14.30553 18.75475 16.53014
#
# Velocity S-wave (km/s) = 2.90549 3.32677 3.12324
# Velocity P-wave (km/s) = 5.74779 6.43674 6.10200
#
# Compressibility (1/GPa) = 0.02709270
#
# Stress axis : x y z
#
# Youngs Moduli (GPa) = 63.98127 40.60320 80.81875
#
# Poissons Ratio (x) = 0.22539 0.30960
# Poissons Ratio (y) = 0.35517 0.27377
# Poissons Ratio (z) = 0.24510 0.13754
#
# Static dielectric constant tensor:
#      x y z
#    x 1.573970 0.000000 -0.007490 
#    y 0.000000 1.584520 0.000000 
#    z -0.007490 0.000000 1.583100 
# 
# From -- ./inp_files/244290.got.cif
#   From: 2010.05.17/outbox.cif.g08.bks.cpg/sg12_123_cif.got.tgz:244290.got - 2010.06.03 13:09:07.
