data_PCOD9170975
_publ_section_title
;
Structure prediction by ZEFSAII (Michael W. Deem and Ramdas Pophale) SiO2 
 PCOD9170975
Probable space group: C 2/M
;
_chemical_formula_sum "Si O2"
_cell_formula_units_Z 48
_cell_length_a 25.397553
_cell_length_b 8.602636
_cell_length_c 15.830432
_cell_angle_alpha 90.000000
_cell_angle_beta 118.827657
_cell_angle_gamma 90.000000
_cell_volume 3030.100247
_symmetry_space_group_name_H-M "C 2/M"
_symmetry_group_IT_number 12
_symmetry_cell_setting 'monoclinic'
loop_
_space_group_symop_operation_xyz
x,y,z
-x,y,-z
-x,-y,-z
x,-y,z
1/2+x,1/2+y,z
1/2-x,1/2+y,-z
1/2-x,1/2-y,-z
1/2+x,1/2-y,z
loop_
_atom_site_type_symbol
_atom_site_label
_atom_site_fract_x
_atom_site_fract_y
_atom_site_fract_z
Si Si1 0.816860 0.186175 0.033618
Si Si2 0.207760 0.685725 0.346615
Si Si3 0.068695 0.310105 0.553923
Si Si4 0.208462 0.187021 0.167906
Si Si5 0.664764 0.187792 0.492816
Si Si6 0.845504 0.312656 0.227644
O O1 0.855717 0.250452 0.141019
O O2 0.815861 0.000000 0.036752
O O3 0.750000 0.250000 0.000000
O O4 0.828308 0.231728 0.944998
O O5 0.210542 0.500000 0.347969
O O6 0.187026 0.744746 0.239634
O O7 0.274477 0.751101 0.416504
O O8 0.168154 0.734837 0.397169
O O9 0.068052 0.500000 0.553606
O O10 0.107251 0.261105 0.502038
O O11 0.105621 0.262137 0.665855
O O12 0.000000 0.256838 0.500000
O O13 0.278379 0.235046 0.206383
O O14 0.208307 0.000000 0.173708
O O15 0.666907 0.000000 0.497856
O O16 0.845165 0.500000 0.224140
#
# Coordination Sequence:
#
# PCOD9170975 Si02
#       6
#     8   8   8   8   8   8
#     4   9  17  27  40  59  84 114 141 171 213 257
#     4  10  18  25  41  64  86 114 141 171 213 254
#     4   9  16  28  47  65  83 114 150 178 210 253
#     4   9  16  27  41  59  86 115 139 170 211 257
#     4   9  17  30  42  59  87 113 142 177 210 252
#     4   9  16  27  42  61  85 112 141 177 213 249
#
# _framework density 15.841061
#
# number of rings (size 3 to 8) (size 9 to 14) (size 15 to 20)
#    0.000    2.833    1.667    2.000    0.000    4.000 
#    0.000    0.000    0.000    2.000    0.000    1.167 
#    0.000    9.333    0.000    0.000    0.000    0.000 
#
# Total GULP energy -133603.546898 kJ/mol
# GULP energy per Si atom -5566.814454 kJ/mol
# Density = 1.580501 g / cm^3
# Si number density = 15.841061 Si / 1000 Ang^3
#
#
#
# Elastic Constant Matrix: (Units=GPa)
#
#
# Indices 1 2 3 4 5 6 
#
# 1 86.5232 13.8654 67.8151 0.0000 -14.7061 0.0000
# 2 13.8654 6.1976 21.9854 0.0000 -6.2559 0.0000
# 3 67.8151 21.9854 147.3553 0.0000 -32.7781 0.0000
# 4 0.0000 0.0000 0.0000 26.5515 0.0000 -5.3772
# 5 -14.7061 -6.2559 -32.7781 0.0000 25.3006 0.0000
# 6 0.0000 0.0000 0.0000 -5.3772 0.0000 11.0113
#
#
#
# Elastic Compliance Matrix: (Units=1/GPa)
#
#
# Indices 1 2 3 4 5 6 
#
# 1 0.019905 -0.026713 -0.005719 0.000000 -0.002444 0.000000
# 2 -0.026713 0.391238 -0.039356 0.000000 0.030224 0.000000
# 3 -0.005719 -0.039356 0.017401 0.000000 0.009488 0.000000
# 4 0.000000 0.000000 0.000000 0.041796 0.000000 0.020410
# 5 -0.002444 0.030224 0.009488 0.000000 0.057869 0.000000
# 6 0.000000 0.000000 0.000000 0.020410 0.000000 0.100783
#
#
# Mechanical properties :
#
#
# Convention : Reuss Voigt Hill
#
# Bulk Modulus (GPa) = 3.50915 49.71197 26.61056
# Shear Modulus (GPa) = 5.76331 21.66668 13.71499
#
# Velocity S-wave (km/s) = 1.90948 3.70233 2.94562
# Velocity P-wave (km/s) = 2.66111 7.05168 5.32953
#
# Compressibility (1/GPa) = 0.28496892
#
# Stress axis : x y z
#
# Youngs Moduli (GPa) = 50.23823 2.55599 57.46906
#
# Poissons Ratio (x) = 0.06828 0.32865
# Poissons Ratio (y) = 1.34199 2.26176
# Poissons Ratio (z) = 0.28730 0.10059
#
# Static dielectric constant tensor:
#      x y z
#    x 1.435330 0.000000 -0.082230 
#    y 0.000000 1.541760 0.000000 
#    z -0.082230 0.000000 1.531780 
# 
# From -- ./inp_files/236585.got.cif
#   From: 2010.05.17/outbox.cif.g08.bks.cpg/sg12_119_cif.got.tgz:236585.got - 2010.06.03 13:09:07.
