data_PCOD9170878
_publ_section_title
;
Structure prediction by ZEFSAII (Michael W. Deem and Ramdas Pophale) SiO2 
 PCOD9170878
Probable space group: C 2/M
;
_chemical_formula_sum "Si O2"
_cell_formula_units_Z 52
_cell_length_a 23.269437
_cell_length_b 14.992039
_cell_length_c 10.304703
_cell_angle_alpha 90.000000
_cell_angle_beta 137.810860
_cell_angle_gamma 90.000000
_cell_volume 2414.237091
_symmetry_space_group_name_H-M "C 2/M"
_symmetry_group_IT_number 12
_symmetry_cell_setting 'monoclinic'
loop_
_space_group_symop_operation_xyz
x,y,z
-x,y,-z
-x,-y,-z
x,-y,z
1/2+x,1/2+y,z
1/2-x,1/2+y,-z
1/2-x,1/2-y,-z
1/2+x,1/2-y,z
loop_
_atom_site_type_symbol
_atom_site_label
_atom_site_fract_x
_atom_site_fract_y
_atom_site_fract_z
Si Si1 0.390434 0.602218 0.421404
Si Si2 0.868138 0.278177 0.666466
Si Si3 0.764341 0.894397 0.437241
Si Si4 0.975773 0.766205 0.218892
Si Si5 0.500000 0.860259 0.500000
Si Si6 0.167038 0.404951 0.631211
Si Si7 0.689631 0.676714 0.968507
O O1 0.416592 0.500000 0.460094
O O2 0.302596 0.608968 0.356534
O O3 0.462479 0.657260 0.618086
O O4 0.369506 0.638304 0.244829
O O5 0.825182 0.179981 0.611235
O O6 0.828773 0.349603 0.700794
O O7 0.969334 0.269127 0.810366
O O8 0.838321 0.322680 0.477774
O O9 0.769896 0.000000 0.483652
O O10 0.968984 0.696279 0.324925
O O11 0.878077 0.793138 0.034862
O O12 0.583115 0.905874 0.580261
O O13 0.171245 0.500000 0.568114
O O14 0.247198 0.392020 0.858410
O O15 0.750000 0.750000 0.000000
#
# Coordination Sequence:
#
# PCOD9170878 Si02
#       7
#     8   8   8   8   4   8   8
#     4  10  20  33  54  82 109 141 185 234 274 325
#     4   9  19  35  56  81 109 145 186 232 277 327
#     4   9  17  33  58  83 105 140 193 236 270 322
#     4  10  18  33  53  77 107 150 182 224 280 324
#     4  10  17  36  49  72 106 142 187 220 266 328
#     4  11  22  33  53  82 111 147 182 225 281 336
#     4  12  20  33  52  78 113 148 182 226 281 339
#
# _framework density 21.538893999999999
#
# number of rings (size 3 to 8) (size 9 to 14) (size 15 to 20)
#    0.000    1.846    3.077    3.000    0.000    1.846 
#    0.000    0.000    0.000   14.769    0.000   20.462 
#    0.000    0.000    0.000    0.000    0.000    0.000 
#
# Total GULP energy -144942.754436 kJ/mol
# GULP energy per Si atom -5574.721324 kJ/mol
# Density = 2.148987 g / cm^3
# Si number density = 21.538894 Si / 1000 Ang^3
#
#
#
# Elastic Constant Matrix: (Units=GPa)
#
#
# Indices 1 2 3 4 5 6 
#
# 1 153.7944 39.4921 32.6306 0.0000 34.8972 0.0000
# 2 39.4921 139.7781 19.3106 0.0000 7.9331 0.0000
# 3 32.6306 19.3106 51.9993 0.0000 15.1023 0.0000
# 4 0.0000 0.0000 0.0000 4.5680 0.0000 -2.5861
# 5 34.8972 7.9331 15.1023 0.0000 35.3867 0.0000
# 6 0.0000 0.0000 0.0000 -2.5861 0.0000 22.4616
#
#
#
# Elastic Compliance Matrix: (Units=1/GPa)
#
#
# Indices 1 2 3 4 5 6 
#
# 1 0.009296 -0.001788 -0.002995 0.000000 -0.007488 0.000000
# 2 -0.001788 0.007895 -0.002064 0.000000 0.000874 0.000000
# 3 -0.002995 -0.002064 0.023839 0.000000 -0.006758 0.000000
# 4 0.000000 0.000000 0.000000 0.234177 0.000000 0.026962
# 5 -0.007488 0.000874 -0.006758 0.000000 0.038332 0.000000
# 6 0.000000 0.000000 0.000000 0.026962 0.000000 0.047625
#
#
# Mechanical properties :
#
#
# Convention : Reuss Voigt Hill
#
# Bulk Modulus (GPa) = 36.57918 58.71539 47.64729
# Shear Modulus (GPa) = 13.02189 29.42585 21.22387
#
# Velocity S-wave (km/s) = 2.46148 3.70019 3.14247
# Velocity P-wave (km/s) = 5.00981 6.75089 5.94444
#
# Compressibility (1/GPa) = 0.02733796
#
# Stress axis : x y z
#
# Youngs Moduli (GPa) = 107.57591 126.66570 41.94732
#
# Poissons Ratio (x) = 0.22644 0.12561
# Poissons Ratio (y) = 0.19231 0.08657
# Poissons Ratio (z) = 0.32214 0.26142
#
# Static dielectric constant tensor:
#      x y z
#    x 1.849930 0.000000 0.029370 
#    y 0.000000 1.805790 0.000000 
#    z 0.029370 0.000000 1.716140 
# 
# From -- ./inp_files/176512.got.cif
#   From: 2010.05.17/outbox.cif.g08.bks.cpg/sg12_89_cif.got.tgz:176512.got - 2010.06.03 13:09:07.
