data_PCOD9170550
_publ_section_title
;
Structure prediction by ZEFSAII (Michael W. Deem and Ramdas Pophale) SiO2 
 PCOD9170550
Probable space group: C 2/M
;
_chemical_formula_sum "Si O2"
_cell_formula_units_Z 56
_cell_length_a 12.029719
_cell_length_b 17.312100
_cell_length_c 23.387365
_cell_angle_alpha 90.000000
_cell_angle_beta 148.789764
_cell_angle_gamma 90.000000
_cell_volume 2523.870218
_symmetry_space_group_name_H-M "C 2/M"
_symmetry_group_IT_number 12
_symmetry_cell_setting 'monoclinic'
loop_
_space_group_symop_operation_xyz
x,y,z
-x,y,-z
-x,-y,-z
x,-y,z
1/2+x,1/2+y,z
1/2-x,1/2+y,-z
1/2-x,1/2-y,-z
1/2+x,1/2-y,z
loop_
_atom_site_type_symbol
_atom_site_label
_atom_site_fract_x
_atom_site_fract_y
_atom_site_fract_z
Si Si1 0.420049 0.342171 0.029762
Si Si2 0.823478 0.405541 0.376694
Si Si3 0.070880 0.090705 0.725948
Si Si4 0.178650 0.344778 0.334169
Si Si5 0.920698 0.086777 0.537285
Si Si6 0.185406 0.587776 0.756100
Si Si7 0.558642 0.193666 0.163497
O O1 0.562993 0.408626 0.120744
O O2 0.495057 0.267895 0.099185
O O3 0.500000 0.333418 0.000000
O O4 0.165301 0.350846 0.923605
O O5 0.829272 0.500000 0.380699
O O6 0.581444 0.384659 0.289143
O O7 0.866334 0.383185 0.330300
O O8 0.000000 0.377308 0.500000
O O9 0.272137 0.143776 0.798757
O O10 0.913844 0.096386 0.601710
O O11 0.130745 0.000000 0.758002
O O12 0.327929 0.409481 0.369292
O O13 0.307702 0.344930 0.451604
O O14 0.154248 0.288167 0.269166
O O15 0.944406 0.365044 0.253684
O O16 0.843014 0.000000 0.490032
O O17 0.114205 0.500000 0.729115
#
# Coordination Sequence:
#
# PCOD9170550 Si02
#       7
#     8   8   8   8   8   8   8
#     4  11  24  45  61  84 114 161 214 257 318 371
#     4   9  18  34  58  90 129 166 196 232 294 376
#     4   9  18  34  59  94 127 165 208 248 297 359
#     4  10  17  32  54  88 120 152 191 243 294 361
#     4   9  16  27  53  90 129 161 190 234 302 366
#     4  11  22  36  61  93 122 152 199 259 313 361
#     4  10  23  40  63  84 115 163 207 253 304 376
#
# _framework density 22.188144999999999
#
# number of rings (size 3 to 8) (size 9 to 14) (size 15 to 20)
#    0.000    2.143    1.429    2.571    0.000    6.571 
#    0.000    0.000    6.286   11.571    0.000    0.000 
#    0.000    0.000    0.000    0.000    0.000    0.000 
#
# Total GULP energy -155994.617671 kJ/mol
# GULP energy per Si atom -5571.236345 kJ/mol
# Density = 2.213764 g / cm^3
# Si number density = 22.188145 Si / 1000 Ang^3
#
#
#
# Elastic Constant Matrix: (Units=GPa)
#
#
# Indices 1 2 3 4 5 6 
#
# 1 116.9813 23.4326 28.0439 0.0003 7.5709 0.0008
# 2 23.4326 32.9771 23.7016 -0.0002 3.9898 0.0002
# 3 28.0439 23.7016 90.5818 0.0000 6.7671 -0.0048
# 4 0.0003 -0.0002 0.0000 16.6759 0.0000 -7.8210
# 5 7.5709 3.9898 6.7671 0.0000 43.3586 0.0005
# 6 0.0008 0.0002 -0.0048 -7.8210 0.0005 13.0306
#
#
#
# Elastic Compliance Matrix: (Units=1/GPa)
#
#
# Indices 1 2 3 4 5 6 
#
# 1 0.010181 -0.006038 -0.001498 -0.000001 -0.000988 -0.000002
# 2 -0.006038 0.041090 -0.008781 -0.000002 -0.001356 -0.000004
# 3 -0.001498 -0.008781 0.013883 0.000003 -0.001097 0.000007
# 4 -0.000001 -0.000002 0.000003 0.083461 -0.000001 0.050094
# 5 -0.000988 -0.001356 -0.001097 -0.000001 0.023532 -0.000002
# 6 -0.000002 -0.000004 0.000007 0.050094 -0.000002 0.106809
#
#
# Mechanical properties :
#
#
# Convention : Reuss Voigt Hill
#
# Bulk Modulus (GPa) = 30.75063 43.43294 37.09179
# Shear Modulus (GPa) = 15.50725 25.63715 20.57220
#
# Velocity S-wave (km/s) = 2.64654 3.40287 3.04825
# Velocity P-wave (km/s) = 4.81954 5.92087 5.39836
#
# Compressibility (1/GPa) = 0.03251965
#
# Stress axis : x y z
#
# Youngs Moduli (GPa) = 98.22239 24.33710 72.02968
#
# Poissons Ratio (x) = 0.14694 0.10792
# Poissons Ratio (y) = 0.59305 0.63248
# Poissons Ratio (z) = 0.14717 0.21370
#
# Static dielectric constant tensor:
#      x y z
#    x 1.820150 0.000000 0.005110 
#    y 0.000000 1.859020 0.000000 
#    z 0.005110 0.000000 1.883100 
# 
# From -- ./inp_files/336801.got.cif
#   From: 2010.05.17/outbox.cif.g08.bks.cpg/sg12_169_cif.got.tgz:336801.got - 2010.06.03 13:09:07.
