data_PCOD9170739
_publ_section_title
;
Structure prediction by ZEFSAII (Michael W. Deem and Ramdas Pophale) SiO2 
 PCOD9170739
Probable space group: C 2/M
;
_chemical_formula_sum "Si O2"
_cell_formula_units_Z 40
_cell_length_a 16.914640
_cell_length_b 18.238173
_cell_length_c 7.823127
_cell_angle_alpha 90.000000
_cell_angle_beta 46.213909
_cell_angle_gamma 90.000000
_cell_volume 1742.282182
_symmetry_space_group_name_H-M "C 2/M"
_symmetry_group_IT_number 12
_symmetry_cell_setting 'monoclinic'
loop_
_space_group_symop_operation_xyz
x,y,z
-x,y,-z
-x,-y,-z
x,-y,z
1/2+x,1/2+y,z
1/2-x,1/2+y,-z
1/2-x,1/2-y,-z
1/2+x,1/2-y,z
loop_
_atom_site_type_symbol
_atom_site_label
_atom_site_fract_x
_atom_site_fract_y
_atom_site_fract_z
Si Si1 0.510246 0.187685 0.189230
Si Si2 0.055255 0.855653 0.228774
Si Si3 0.228932 0.298201 0.361061
Si Si4 0.755004 0.647929 0.140586
Si Si5 0.853932 0.083065 0.354438
O O1 0.535084 0.272719 0.194781
O O2 0.393462 0.170124 0.447146
O O3 0.500000 0.181420 0.000000
O O4 0.616088 0.141534 0.084376
O O5 0.179716 0.873582 0.094227
O O6 0.000000 0.858333 0.500000
O O7 0.979348 0.906308 0.225145
O O8 0.250000 0.250000 0.500000
O O9 0.265906 0.265266 0.788217
O O10 0.318458 0.361043 0.258484
O O11 0.716574 0.605616 0.369893
O O12 0.831560 0.000000 0.341574
#
# Coordination Sequence:
#
# PCOD9170739 Si02
#       5
#     8   8   8   8   8
#     4  12  18  31  56  78 108 139 183 232 262 312
#     4  10  19  33  51  81 111 138 180 223 278 314
#     4  10  17  34  50  77 110 139 185 221 262 320
#     4  10  20  33  53  81 110 141 187 223 271 317
#     4  10  19  33  54  80 115 146 174 221 279 328
#
# _framework density 22.958393999999998
#
# number of rings (size 3 to 8) (size 9 to 14) (size 15 to 20)
#    0.000    1.600   10.000    0.600    0.000    3.600 
#    0.000    2.000    0.000    5.400    0.000    4.200 
#    0.000    0.000    0.000    0.000    0.000    0.000 
#
# Total GULP energy -111836.767664 kJ/mol
# GULP energy per Si atom -5591.838383 kJ/mol
# Density = 2.290614 g / cm^3
# Si number density = 22.958394 Si / 1000 Ang^3
#
#
#
# Elastic Constant Matrix: (Units=GPa)
#
#
# Indices 1 2 3 4 5 6 
#
# 1 135.8345 18.6558 44.6641 0.0000 -11.0619 0.0000
# 2 18.6558 80.0596 -0.2884 0.0000 -3.0207 0.0000
# 3 44.6641 -0.2884 94.3469 0.0000 -36.9001 0.0000
# 4 0.0000 0.0000 0.0000 16.2390 0.0000 -3.2452
# 5 -11.0619 -3.0207 -36.9001 0.0000 57.9446 0.0000
# 6 0.0000 0.0000 0.0000 -3.2452 0.0000 13.2706
#
#
#
# Elastic Compliance Matrix: (Units=1/GPa)
#
#
# Indices 1 2 3 4 5 6 
#
# 1 0.009166 -0.002211 -0.004936 0.000000 -0.001509 0.000000
# 2 -0.002211 0.013059 0.001581 0.000000 0.001266 0.000000
# 3 -0.004936 0.001581 0.016785 0.000000 0.009829 0.000000
# 4 0.000000 0.000000 0.000000 0.064744 0.000000 0.015832
# 5 -0.001509 0.001266 0.009829 0.000000 0.023295 0.000000
# 6 0.000000 0.000000 0.000000 0.015832 0.000000 0.079226
#
#
# Mechanical properties :
#
#
# Convention : Reuss Voigt Hill
#
# Bulk Modulus (GPa) = 35.86794 48.47822 42.17308
# Shear Modulus (GPa) = 22.05574 33.97147 28.01361
#
# Velocity S-wave (km/s) = 3.10285 3.85086 3.49691
# Velocity P-wave (km/s) = 5.33796 6.39794 5.89184
#
# Compressibility (1/GPa) = 0.02788005
#
# Stress axis : x y z
#
# Youngs Moduli (GPa) = 109.10358 76.57406 59.57718
#
# Poissons Ratio (x) = 0.16927 0.29406
# Poissons Ratio (y) = 0.24117 -0.09422
# Poissons Ratio (z) = 0.53852 -0.12110
#
# Static dielectric constant tensor:
#      x y z
#    x 1.881030 0.000000 0.038530 
#    y 0.000000 1.800350 0.000000 
#    z 0.038530 0.000000 2.091980 
# 
# From -- ./inp_files/157601.got.cif
#   From: 2010.05.17/outbox.cif.g08.bks.cpg/sg12_79_cif.got.tgz:157601.got - 2010.06.03 13:09:07.
