data_PCOD9170789
_publ_section_title
;
Structure prediction by ZEFSAII (Michael W. Deem and Ramdas Pophale) SiO2 
 PCOD9170789
Probable space group: C 2/M
;
_chemical_formula_sum "Si O2"
_cell_formula_units_Z 52
_cell_length_a 14.785152
_cell_length_b 18.040217
_cell_length_c 21.297325
_cell_angle_alpha 90.000000
_cell_angle_beta 29.608059
_cell_angle_gamma 90.000000
_cell_volume 2806.570534
_symmetry_space_group_name_H-M "C 2/M"
_symmetry_group_IT_number 12
_symmetry_cell_setting 'monoclinic'
loop_
_space_group_symop_operation_xyz
x,y,z
-x,y,-z
-x,-y,-z
x,-y,z
1/2+x,1/2+y,z
1/2-x,1/2+y,-z
1/2-x,1/2-y,-z
1/2+x,1/2-y,z
loop_
_atom_site_type_symbol
_atom_site_label
_atom_site_fract_x
_atom_site_fract_y
_atom_site_fract_z
Si Si1 0.670274 0.914682 0.003443
Si Si2 0.059490 0.315932 0.656593
Si Si3 0.420845 0.718643 0.855110
Si Si4 0.279657 0.082371 0.880504
Si Si5 0.000000 0.191998 0.000000
Si Si6 0.847824 0.301578 0.184604
Si Si7 0.039993 0.215882 0.548664
O O1 0.854326 0.865382 0.882166
O O2 0.679403 0.000000 0.975558
O O3 0.646834 0.917038 0.093114
O O4 0.496047 0.866699 0.085924
O O5 0.055373 0.284732 0.588312
O O6 0.267677 0.325249 0.555446
O O7 0.967226 0.257784 0.761362
O O8 0.936833 0.388471 0.739668
O O9 0.588656 0.746790 0.796938
O O10 0.250000 0.750000 0.000000
O O11 0.219839 0.000000 0.900438
O O12 0.110906 0.138796 0.978935
O O13 0.861885 0.246262 0.117900
O O14 0.642528 0.327829 0.319905
O O15 0.000000 0.234878 0.500000
#
# Coordination Sequence:
#
# PCOD9170789 Si02
#       7
#     8   8   8   8   4   8   8
#     4  10  20  34  55  86 120 151 181 231 296 350
#     4  11  21  37  58  86 112 153 197 236 285 338
#     4  10  17  34  57  84 113 144 188 234 283 339
#     4  11  20  34  55  86 120 146 183 238 294 349
#     4  12  21  34  57  92 110 148 192 242 291 344
#     4  11  20  34  59  84 116 146 193 242 283 338
#     4  11  22  36  59  84 109 148 203 244 274 331
#
# _framework density 18.527951000000002
#
# number of rings (size 3 to 8) (size 9 to 14) (size 15 to 20)
#    0.000    1.231    7.692    1.154    0.000    0.000 
#    0.000    1.154    0.000    6.923    0.000    0.000 
#    0.000    0.000    0.000    0.000    0.000    0.000 
#
# Total GULP energy -144809.994127 kJ/mol
# GULP energy per Si atom -5569.615159 kJ/mol
# Density = 1.848578 g / cm^3
# Si number density = 18.527951 Si / 1000 Ang^3
#
#
#
# Elastic Constant Matrix: (Units=GPa)
#
#
# Indices 1 2 3 4 5 6 
#
# 1 68.7045 6.6638 9.8706 0.0017 -4.5019 0.0000
# 2 6.6638 106.9760 16.0306 -0.0001 -8.8115 0.0014
# 3 9.8706 16.0306 67.9273 0.0028 -14.8809 0.0015
# 4 0.0017 -0.0001 0.0028 14.5778 0.0023 0.3862
# 5 -4.5019 -8.8115 -14.8809 0.0023 36.5571 -0.0012
# 6 0.0000 0.0014 0.0015 0.3862 -0.0012 15.3001
#
#
#
# Elastic Compliance Matrix: (Units=1/GPa)
#
#
# Indices 1 2 3 4 5 6 
#
# 1 0.014936 -0.000578 -0.001824 -0.000002 0.000957 0.000000
# 2 -0.000578 0.009793 -0.001894 0.000000 0.001518 -0.000001
# 3 -0.001824 -0.001894 0.016781 -0.000004 0.006150 -0.000001
# 4 -0.000002 0.000000 -0.000004 0.068643 -0.000006 -0.001733
# 5 0.000957 0.001518 0.006150 -0.000006 0.030342 0.000002
# 6 0.000000 -0.000001 -0.000001 -0.001733 0.000002 0.065403
#
#
# Mechanical properties :
#
#
# Convention : Reuss Voigt Hill
#
# Bulk Modulus (GPa) = 30.38029 34.30421 32.34225
# Shear Modulus (GPa) = 22.17657 27.35652 24.76655
#
# Velocity S-wave (km/s) = 3.46341 3.84669 3.66007
# Velocity P-wave (km/s) = 5.69441 6.18744 5.94604
#
# Compressibility (1/GPa) = 0.03291607
#
# Stress axis : x y z
#
# Youngs Moduli (GPa) = 66.95241 102.11545 59.59126
#
# Poissons Ratio (x) = 0.05904 0.10871
# Poissons Ratio (y) = 0.03871 0.11290
# Poissons Ratio (z) = 0.12213 0.19346
#
# Static dielectric constant tensor:
#      x y z
#    x 1.715350 0.000000 -0.010590 
#    y 0.000000 1.659270 0.000000 
#    z -0.010590 0.000000 1.677540 
# 
# From -- ./inp_files/311490.got.cif
#   From: 2010.05.17/outbox.cif.g08.bks.cpg/sg12_156_cif.got.tgz:311490.got - 2010.06.03 13:09:07.
