data_PCOD9170397
_publ_section_title
;
Structure prediction by ZEFSAII (Michael W. Deem and Ramdas Pophale) SiO2 
 PCOD9170397
Probable space group: C 2/M
;
_chemical_formula_sum "Si O2"
_cell_formula_units_Z 40
_cell_length_a 15.371125
_cell_length_b 23.618763
_cell_length_c 12.575103
_cell_angle_alpha 90.000000
_cell_angle_beta 28.639772
_cell_angle_gamma 90.000000
_cell_volume 2188.179106
_symmetry_space_group_name_H-M "C 2/M"
_symmetry_group_IT_number 12
_symmetry_cell_setting 'monoclinic'
loop_
_space_group_symop_operation_xyz
x,y,z
-x,y,-z
-x,-y,-z
x,-y,z
1/2+x,1/2+y,z
1/2-x,1/2+y,-z
1/2-x,1/2-y,-z
1/2+x,1/2-y,z
loop_
_atom_site_type_symbol
_atom_site_label
_atom_site_fract_x
_atom_site_fract_y
_atom_site_fract_z
Si Si1 0.232974 0.846460 0.487564
Si Si2 0.745082 0.232649 0.345936
Si Si3 0.317962 0.743208 0.807678
Si Si4 0.898026 0.113579 0.714553
Si Si5 0.482343 0.934612 0.892081
O O1 0.198007 0.818011 0.638776
O O2 0.292655 0.793104 0.348650
O O3 0.389987 0.892560 0.310256
O O4 0.050382 0.875366 0.639309
O O5 0.792924 0.228908 0.170158
O O6 0.524167 0.234450 0.586180
O O7 0.323536 0.676893 0.772111
O O8 0.250000 0.750000 0.000000
O O9 0.000000 0.092419 0.500000
O O10 0.724863 0.075265 0.921148
O O11 0.535039 0.000000 0.822562
O O12 0.500000 0.921194 0.000000
#
# Coordination Sequence:
#
# PCOD9170397 Si02
#       5
#     8   8   8   8   8
#     4  10  19  35  53  75 115 144 182 229 276 341
#     4   9  18  32  52  81 111 150 181 216 284 341
#     4  10  17  31  53  80 113 144 180 221 274 340
#     4  11  19  35  50  73 111 146 180 231 278 328
#     4  11  22  33  52  80 107 150 196 232 285 334
#
# _framework density 18.28004
#
# number of rings (size 3 to 8) (size 9 to 14) (size 15 to 20)
#    0.000    1.800    6.000    1.200    0.000    1.200 
#    0.000    8.000    0.000    0.000    0.000   11.200 
#    0.000   20.800    0.000    0.000    0.000    0.000 
#
# Total GULP energy -111629.380943 kJ/mol
# GULP energy per Si atom -5581.469047 kJ/mol
# Density = 1.823843 g / cm^3
# Si number density = 18.280040 Si / 1000 Ang^3
#
#
#
# Elastic Constant Matrix: (Units=GPa)
#
#
# Indices 1 2 3 4 5 6 
#
# 1 90.6837 30.8957 38.5571 -0.0305 16.4506 -0.0346
# 2 30.8957 61.1950 36.1924 -0.0306 -4.3901 0.0008
# 3 38.5571 36.1924 71.3022 -0.0357 9.1459 0.0160
# 4 -0.0305 -0.0306 -0.0357 23.5237 0.0243 -3.4261
# 5 16.4506 -4.3901 9.1459 0.0243 30.6974 0.0043
# 6 -0.0346 0.0008 0.0160 -3.4261 0.0043 7.1463
#
#
#
# Elastic Compliance Matrix: (Units=1/GPa)
#
#
# Indices 1 2 3 4 5 6 
#
# 1 0.016708 -0.006191 -0.004815 0.000031 -0.008405 0.000112
# 2 -0.006191 0.027256 -0.011866 -0.000004 0.010751 -0.000015
# 3 -0.004815 -0.011866 0.023434 0.000011 -0.006099 -0.000066
# 4 0.000031 -0.000004 0.000011 0.045702 -0.000060 0.021911
# 5 -0.008405 0.010751 -0.006099 -0.000060 0.040435 -0.000081
# 6 0.000112 -0.000015 -0.000066 0.021911 -0.000081 0.150437
#
#
# Mechanical properties :
#
#
# Convention : Reuss Voigt Hill
#
# Bulk Modulus (GPa) = 46.17926 48.27459 47.22692
# Shear Modulus (GPa) = 14.00819 20.10921 17.05870
#
# Velocity S-wave (km/s) = 2.77124 3.32032 3.05813
# Velocity P-wave (km/s) = 5.96294 6.41600 6.19361
#
# Compressibility (1/GPa) = 0.02165474
#
# Stress axis : x y z
#
# Youngs Moduli (GPa) = 59.84981 36.68893 42.67356
#
# Poissons Ratio (x) = 0.22715 0.20545
# Poissons Ratio (y) = 0.37054 0.50637
# Poissons Ratio (z) = 0.28815 0.43536
#
# Static dielectric constant tensor:
#      x y z
#    x 1.683010 -0.000010 -0.012380 
#    y -0.000010 1.598190 0.000010 
#    z -0.012380 0.000010 1.681210 
# 
# From -- ./inp_files/149255.got.cif
#   From: 2010.05.17/outbox.cif.g08.bks.cpg/sg12_75_cif.got.tgz:149255.got - 2010.06.03 13:09:07.
