data_PCOD9170076
_publ_section_title
;
Structure prediction by ZEFSAII (Michael W. Deem and Ramdas Pophale) SiO2 
 PCOD9170076
Probable space group: C 2/M
;
_chemical_formula_sum "Si O2"
_cell_formula_units_Z 56
_cell_length_a 14.511005
_cell_length_b 23.131790
_cell_length_c 11.016528
_cell_angle_alpha 90.000000
_cell_angle_beta 126.518318
_cell_angle_gamma 90.000000
_cell_volume 2971.853669
_symmetry_space_group_name_H-M "C 2/M"
_symmetry_group_IT_number 12
_symmetry_cell_setting 'monoclinic'
loop_
_space_group_symop_operation_xyz
x,y,z
-x,y,-z
-x,-y,-z
x,-y,z
1/2+x,1/2+y,z
1/2-x,1/2+y,-z
1/2-x,1/2-y,-z
1/2+x,1/2-y,z
loop_
_atom_site_type_symbol
_atom_site_label
_atom_site_fract_x
_atom_site_fract_y
_atom_site_fract_z
Si Si1 0.819568 0.326889 0.790969
Si Si2 0.124032 0.141477 0.096261
Si Si3 0.133670 0.563446 0.075352
Si Si4 0.380084 0.753716 0.063192
Si Si5 0.728980 0.779480 0.614880
Si Si6 0.346863 0.066876 0.198589
Si Si7 0.970871 0.666883 0.664895
O O1 0.782207 0.389423 0.803798
O O2 0.887634 0.299860 0.958977
O O3 0.726095 0.277631 0.694733
O O4 0.891607 0.338681 0.724590
O O5 0.096482 0.190953 0.973718
O O6 0.171991 0.179503 0.249493
O O7 0.229588 0.099076 0.147015
O O8 0.000000 0.110409 0.000000
O O9 0.153037 0.500000 0.141799
O O10 0.151438 0.563219 0.946085
O O11 0.000000 0.577950 0.000000
O O12 0.250000 0.750000 0.000000
O O13 0.450832 0.779324 0.230574
O O14 0.750000 0.750000 0.500000
O O15 0.614366 0.815868 0.509588
O O16 0.453339 0.110679 0.304969
O O17 0.356858 0.000000 0.251771
#
# Coordination Sequence:
#
# PCOD9170076 Si02
#       7
#     8   8   8   8   8   8   8
#     4  10  17  31  51  81 116 152 185 231 300 357
#     4  11  22  39  59  80 117 158 201 244 296 360
#     4  10  17  29  54  87 118 150 189 244 299 345
#     4  11  18  31  55  85 114 150 186 239 304 355
#     4   9  21  35  56  84 114 156 191 238 303 356
#     4  11  23  37  58  90 119 154 204 248 296 353
#     4  11  19  35  55  82 124 147 190 252 295 356
#
# _framework density 18.843457000000001
#
# number of rings (size 3 to 8) (size 9 to 14) (size 15 to 20)
#    0.000    1.571    4.286    3.000    0.000    1.429 
#    0.000    1.429    0.000    0.857    0.000    1.000 
#    0.000   21.714    0.000    0.000    0.000    0.000 
#
# Total GULP energy -155877.071281 kJ/mol
# GULP energy per Si atom -5567.038260 kJ/mol
# Density = 1.880057 g / cm^3
# Si number density = 18.843457 Si / 1000 Ang^3
#
#
#
# Elastic Constant Matrix: (Units=GPa)
#
#
# Indices 1 2 3 4 5 6 
#
# 1 86.0000 45.5808 31.2498 0.0000 10.8556 0.0000
# 2 45.5808 136.9640 47.4223 0.0000 16.3059 0.0000
# 3 31.2498 47.4223 88.6178 0.0000 23.0533 0.0000
# 4 0.0000 0.0000 0.0000 25.0169 0.0000 -2.6978
# 5 10.8556 16.3059 23.0533 0.0000 29.5726 0.0000
# 6 0.0000 0.0000 0.0000 -2.6978 0.0000 22.5166
#
#
#
# Elastic Compliance Matrix: (Units=1/GPa)
#
#
# Indices 1 2 3 4 5 6 
#
# 1 0.014838 -0.003799 -0.002919 0.000000 -0.001076 0.000000
# 2 -0.003799 0.009988 -0.003682 0.000000 -0.001242 0.000000
# 3 -0.002919 -0.003682 0.016906 0.000000 -0.010077 0.000000
# 4 0.000000 0.000000 0.000000 0.040496 0.000000 0.004852
# 5 -0.001076 -0.001242 -0.010077 0.000000 0.042751 0.000000
# 6 0.000000 0.000000 0.000000 0.004852 0.000000 0.044993
#
#
# Mechanical properties :
#
#
# Convention : Reuss Voigt Hill
#
# Bulk Modulus (GPa) = 47.77654 62.23196 55.00425
# Shear Modulus (GPa) = 25.28436 27.90980 26.59708
#
# Velocity S-wave (km/s) = 3.66705 3.85273 3.76104
# Velocity P-wave (km/s) = 6.58325 7.27247 6.93643
#
# Compressibility (1/GPa) = 0.02093078
#
# Stress axis : x y z
#
# Youngs Moduli (GPa) = 67.39379 100.11683 59.15118
#
# Poissons Ratio (x) = 0.38035 0.17269
# Poissons Ratio (y) = 0.25603 0.21781
# Poissons Ratio (z) = 0.19676 0.36865
#
# Static dielectric constant tensor:
#      x y z
#    x 1.742820 0.000000 0.008640 
#    y 0.000000 1.736470 0.000000 
#    z 0.008640 0.000000 1.783530 
# 
# From -- ./inp_files/148390.got.cif
#   From: 2010.05.17/outbox.cif.g08.bks.cpg/sg12_75_cif.got.tgz:148390.got - 2010.06.03 13:09:07.
