data_PCOD9170622
_publ_section_title
;
Structure prediction by ZEFSAII (Michael W. Deem and Ramdas Pophale) SiO2 
 PCOD9170622
Probable space group: C 2/M
;
_chemical_formula_sum "Si O2"
_cell_formula_units_Z 52
_cell_length_a 8.732656
_cell_length_b 19.315502
_cell_length_c 17.061949
_cell_angle_alpha 90.000000
_cell_angle_beta 130.307281
_cell_angle_gamma 90.000000
_cell_volume 2194.673372
_symmetry_space_group_name_H-M "C 2/M"
_symmetry_group_IT_number 12
_symmetry_cell_setting 'monoclinic'
loop_
_space_group_symop_operation_xyz
x,y,z
-x,y,-z
-x,-y,-z
x,-y,z
1/2+x,1/2+y,z
1/2-x,1/2+y,-z
1/2-x,1/2-y,-z
1/2+x,1/2-y,z
loop_
_atom_site_type_symbol
_atom_site_label
_atom_site_fract_x
_atom_site_fract_y
_atom_site_fract_z
Si Si1 0.702280 0.421152 0.964252
Si Si2 0.497222 0.925139 0.405025
Si Si3 0.107993 0.143097 0.458073
Si Si4 0.681733 0.348132 0.209348
Si Si5 0.058226 0.771556 0.739064
Si Si6 0.363925 0.891461 0.843725
Si Si7 0.372363 0.500000 0.336706
O O1 0.678158 0.500000 0.981745
O O2 0.492253 0.381205 0.900572
O O3 0.768876 0.421204 0.893961
O O4 0.896917 0.389907 0.070826
O O5 0.500000 0.929467 0.500000
O O6 0.660623 0.867072 0.443547
O O7 0.281946 0.905806 0.298881
O O8 0.556962 0.000000 0.390888
O O9 0.000000 0.167743 0.500000
O O10 0.064380 0.197963 0.375579
O O11 0.030722 0.064198 0.412337
O O12 0.865132 0.306664 0.231975
O O13 0.570567 0.294678 0.229721
O O14 0.260541 0.817443 0.805369
O O15 0.284144 0.939739 0.748125
#
# Coordination Sequence:
#
# PCOD9170622 Si02
#       7
#     8   8   8   8   8   8   4
#     4  10  17  32  62  94 119 152 200 253 305 356
#     4  11  23  39  62  90 118 158 200 262 308 345
#     4  11  23  38  59  88 121 160 207 247 300 363
#     4  11  24  40  59  89 126 161 207 247 304 362
#     4  10  24  40  58  87 120 167 204 250 300 362
#     4   9  17  32  60  91 119 153 196 254 301 358
#     4  10  17  33  57  88 122 150 195 243 300 362
#
# _framework density 23.693731
#
# number of rings (size 3 to 8) (size 9 to 14) (size 15 to 20)
#    0.000    1.692    3.846    1.154    2.154    1.846 
#    0.000    0.000    0.000    0.000    0.000    2.154 
#    0.000    0.000    0.000    0.000    0.000    0.000 
#
# Total GULP energy -144848.810885 kJ/mol
# GULP energy per Si atom -5571.108111 kJ/mol
# Density = 2.363980 g / cm^3
# Si number density = 23.693731 Si / 1000 Ang^3
#
#
#
# Elastic Constant Matrix: (Units=GPa)
#
#
# Indices 1 2 3 4 5 6 
#
# 1 47.2067 6.9657 30.9062 0.0000 15.9710 0.0000
# 2 6.9657 60.9398 29.0179 0.0000 4.7733 0.0000
# 3 30.9062 29.0179 116.3663 0.0000 43.2246 0.0000
# 4 0.0000 0.0000 0.0000 7.3540 0.0000 6.4118
# 5 15.9710 4.7733 43.2246 0.0000 34.4544 0.0000
# 6 0.0000 0.0000 0.0000 6.4118 0.0000 34.4438
#
#
#
# Elastic Compliance Matrix: (Units=1/GPa)
#
#
# Indices 1 2 3 4 5 6 
#
# 1 0.026391 -0.000370 -0.004480 0.000000 -0.006562 0.000000
# 2 -0.000370 0.019331 -0.007100 0.000000 0.006400 0.000000
# 3 -0.004480 -0.007100 0.019508 0.000000 -0.021413 0.000000
# 4 0.000000 0.000000 0.000000 0.162328 0.000000 -0.030218
# 5 -0.006562 0.006400 -0.021413 0.000000 0.058043 0.000000
# 6 0.000000 0.000000 0.000000 -0.030218 0.000000 0.034658
#
#
# Mechanical properties :
#
#
# Convention : Reuss Voigt Hill
#
# Bulk Modulus (GPa) = 24.19423 39.81026 32.00224
# Shear Modulus (GPa) = 13.96905 25.75863 19.86384
#
# Velocity S-wave (km/s) = 2.43073 3.30077 2.89858
# Velocity P-wave (km/s) = 4.25575 5.60047 4.97376
#
# Compressibility (1/GPa) = 0.04133217
#
# Stress axis : x y z
#
# Youngs Moduli (GPa) = 37.89193 51.72959 51.26151
#
# Poissons Ratio (x) = 0.01912 0.22963
# Poissons Ratio (y) = 0.01400 0.36395
# Poissons Ratio (z) = 0.16974 0.36727
#
# Static dielectric constant tensor:
#      x y z
#    x 1.943540 0.000000 -0.032940 
#    y 0.000000 1.883520 0.000000 
#    z -0.032940 0.000000 1.875360 
# 
# From -- ./inp_files/258562.got.cif
#   From: 2010.05.17/outbox.cif.g08.bks.cpg/sg12_130_cif.got.tgz:258562.got - 2010.06.03 13:09:07.
