data_PCOD9170502
_publ_section_title
;
Structure prediction by ZEFSAII (Michael W. Deem and Ramdas Pophale) SiO2 
 PCOD9170502
Probable space group: C 2/M
;
_chemical_formula_sum "Si O2"
_cell_formula_units_Z 64
_cell_length_a 27.564362
_cell_length_b 19.498436
_cell_length_c 8.505730
_cell_angle_alpha 90.000000
_cell_angle_beta 125.339447
_cell_angle_gamma 90.000000
_cell_volume 3729.158440
_symmetry_space_group_name_H-M "C 2/M"
_symmetry_group_IT_number 12
_symmetry_cell_setting 'monoclinic'
loop_
_space_group_symop_operation_xyz
x,y,z
-x,y,-z
-x,-y,-z
x,-y,z
1/2+x,1/2+y,z
1/2-x,1/2+y,-z
1/2-x,1/2-y,-z
1/2+x,1/2-y,z
loop_
_atom_site_type_symbol
_atom_site_label
_atom_site_fract_x
_atom_site_fract_y
_atom_site_fract_z
Si Si1 0.243713 0.787356 0.242584
Si Si2 0.819600 0.179840 0.180512
Si Si3 0.812073 0.668619 0.661812
Si Si4 0.434887 0.777693 0.934913
Si Si5 0.411072 0.375423 0.775967
Si Si6 0.207785 0.081224 0.603699
Si Si7 0.055890 0.783060 0.699378
Si Si8 0.978785 0.922038 0.211425
O O1 0.280680 0.733534 0.207587
O O2 0.203213 0.741493 0.282205
O O3 0.287486 0.828570 0.438293
O O4 0.204759 0.828001 0.042657
O O5 0.813684 0.110703 0.268715
O O6 0.884310 0.213213 0.288529
O O7 0.883044 0.667575 0.804753
O O8 0.771603 0.613366 0.676637
O O9 0.421175 0.705901 0.817670
O O10 0.500000 0.799783 0.000000
O O11 0.435846 0.756507 0.120615
O O12 0.342965 0.391742 0.611443
O O13 0.454567 0.403005 0.720691
O O14 0.436486 0.412278 0.979080
O O15 0.209552 0.000000 0.604244
O O16 0.042166 0.862497 0.713385
O O17 0.000000 0.754404 0.500000
O O18 0.975847 0.000000 0.261700
#
# Coordination Sequence:
#
# PCOD9170502 Si02
#       8
#     8   8   8   8   8   8   8   8
#     4   9  18  34  55  79 101 138 174 226 277 327
#     4  10  20  33  51  74 112 141 177 214 279 324
#     4  10  20  35  59  79 102 136 184 230 275 314
#     4  11  20  35  56  81 107 135 182 231 276 317
#     4  10  17  32  51  72  99 141 183 229 257 297
#     4  11  23  36  54  78 109 146 185 220 268 326
#     4  11  22  31  46  75 109 144 174 223 261 314
#     4  10  19  30  45  67 103 149 189 215 245 296
#
# _framework density 17.162050000000001
#
# number of rings (size 3 to 8) (size 9 to 14) (size 15 to 20)
#    0.000    1.750    3.750    4.500    3.500    0.750 
#    0.000    0.625    0.000    0.375    0.000    0.000 
#    0.000    1.500    0.000    0.000    0.000    0.000 
#
# Total GULP energy -178557.763800 kJ/mol
# GULP energy per Si atom -5579.930119 kJ/mol
# Density = 1.712299 g / cm^3
# Si number density = 17.162050 Si / 1000 Ang^3
#
#
#
# Elastic Constant Matrix: (Units=GPa)
#
#
# Indices 1 2 3 4 5 6 
#
# 1 72.3559 9.0069 36.0262 0.0000 24.5744 0.0000
# 2 9.0069 24.7155 22.4861 0.0000 8.9900 0.0000
# 3 36.0262 22.4861 102.1007 0.0000 13.9209 0.0000
# 4 0.0000 0.0000 0.0000 9.7267 0.0000 6.5220
# 5 24.5744 8.9900 13.9209 0.0000 33.3505 0.0000
# 6 0.0000 0.0000 0.0000 6.5220 0.0000 11.2785
#
#
#
# Elastic Compliance Matrix: (Units=1/GPa)
#
#
# Indices 1 2 3 4 5 6 
#
# 1 0.021285 0.003003 -0.006280 0.000000 -0.013872 0.000000
# 2 0.003003 0.054050 -0.011319 0.000000 -0.012058 0.000000
# 3 -0.006280 -0.011319 0.014268 0.000000 0.001723 0.000000
# 4 0.000000 0.000000 0.000000 0.167920 0.000000 -0.097103
# 5 -0.013872 -0.012058 0.001723 0.000000 0.042737 0.000000
# 6 0.000000 0.000000 0.000000 -0.097103 0.000000 0.144816
#
#
# Mechanical properties :
#
#
# Convention : Reuss Voigt Hill
#
# Bulk Modulus (GPa) = 16.55358 37.13450 26.84404
# Shear Modulus (GPa) = 10.11313 19.64799 14.88056
#
# Velocity S-wave (km/s) = 2.43013 3.38724 2.94779
# Velocity P-wave (km/s) = 4.18813 6.08131 5.22124
#
# Compressibility (1/GPa) = 0.06040990
#
# Stress axis : x y z
#
# Youngs Moduli (GPa) = 46.98099 18.50136 70.08576
#
# Poissons Ratio (x) = -0.05556 0.44017
# Poissons Ratio (y) = -0.14108 0.79332
# Poissons Ratio (z) = 0.29506 0.20942
#
# Static dielectric constant tensor:
#      x y z
#    x 1.615290 0.000000 0.003860 
#    y 0.000000 1.548770 0.000000 
#    z 0.003860 0.000000 1.638270 
# 
# From -- ./inp_files/106417.got.cif
#   From: 2010.05.17/outbox.cif.g08.bks.cpg/sg12_54_cif.got.tgz:106417.got - 2010.06.03 13:09:07.
