data_PCOD9170857
_publ_section_title
;
Structure prediction by ZEFSAII (Michael W. Deem and Ramdas Pophale) SiO2 
 PCOD9170857
Probable space group: C 2/M
;
_chemical_formula_sum "Si O2"
_cell_formula_units_Z 64
_cell_length_a 21.832953
_cell_length_b 20.343102
_cell_length_c 11.955950
_cell_angle_alpha 90.000000
_cell_angle_beta 138.025758
_cell_angle_gamma 90.000000
_cell_volume 3551.466360
_symmetry_space_group_name_H-M "C 2/M"
_symmetry_group_IT_number 12
_symmetry_cell_setting 'monoclinic'
loop_
_space_group_symop_operation_xyz
x,y,z
-x,y,-z
-x,-y,-z
x,-y,z
1/2+x,1/2+y,z
1/2-x,1/2+y,-z
1/2-x,1/2-y,-z
1/2+x,1/2-y,z
loop_
_atom_site_type_symbol
_atom_site_label
_atom_site_fract_x
_atom_site_fract_y
_atom_site_fract_z
Si Si1 0.720185 0.428538 0.270353
Si Si2 0.923598 0.275412 0.991643
Si Si3 0.049464 0.700869 0.718251
Si Si4 0.143745 0.076893 0.407263
Si Si5 0.561028 0.377803 0.916101
Si Si6 0.783132 0.822041 0.308134
Si Si7 0.856535 0.321355 0.366702
Si Si8 0.919535 0.851954 0.307331
O O1 0.759752 0.500000 0.299911
O O2 0.708094 0.420801 0.386218
O O3 0.782665 0.372285 0.305932
O O4 0.621114 0.422563 0.078141
O O5 0.824206 0.305270 0.826934
O O6 0.944477 0.305726 0.141627
O O7 0.922667 0.196705 0.016367
O O8 0.000000 0.287223 0.000000
O O9 0.133612 0.678154 0.754648
O O10 0.046313 0.778428 0.680775
O O11 0.957315 0.666474 0.551730
O O12 0.182040 0.126073 0.553122
O O13 0.045362 0.103705 0.233051
O O14 0.135948 0.000000 0.432294
O O15 0.591444 0.385352 0.827752
O O16 0.830297 0.750438 0.377828
O O17 0.824639 0.848040 0.246491
O O18 0.000000 0.877907 0.500000
#
# Coordination Sequence:
#
# PCOD9170857 Si02
#       8
#     8   8   8   8   8   8   8   8
#     4  11  24  38  57  85 119 159 201 243 299 361
#     4  11  23  34  57  96 125 148 195 252 301 352
#     4   9  19  35  56  84 121 151 190 244 309 350
#     4  11  24  41  60  84 125 168 197 238 302 371
#     4  11  21  37  60  86 125 157 197 238 298 362
#     4  11  21  37  61  89 120 156 202 247 298 352
#     4  10  19  37  61  85 111 156 198 252 296 352
#     4  10  17  35  58  89 120 155 194 240 300 356
#
# _framework density 18.020724999999999
#
# number of rings (size 3 to 8) (size 9 to 14) (size 15 to 20)
#    0.000    1.500    5.000    2.250    3.500    3.000 
#    0.000    3.125    0.000    1.125    0.000    0.000 
#    0.000    0.000    0.000    0.000    0.000    0.000 
#
# Total GULP energy -178384.569723 kJ/mol
# GULP energy per Si atom -5574.517804 kJ/mol
# Density = 1.797971 g / cm^3
# Si number density = 18.020725 Si / 1000 Ang^3
#
#
#
# Elastic Constant Matrix: (Units=GPa)
#
#
# Indices 1 2 3 4 5 6 
#
# 1 120.3409 49.6265 50.7584 0.0000 -3.0198 0.0000
# 2 49.6265 67.9847 33.9996 0.0000 -5.3232 0.0000
# 3 50.7584 33.9996 75.0154 0.0000 -0.2106 0.0000
# 4 0.0000 0.0000 0.0000 15.3425 0.0000 -0.4208
# 5 -3.0198 -5.3232 -0.2106 0.0000 30.0451 0.0000
# 6 0.0000 0.0000 0.0000 -0.4208 0.0000 -12.5603
#
#
#
# Elastic Compliance Matrix: (Units=1/GPa)
#
#
# Indices 1 2 3 4 5 6 
#
# 1 0.013790 -0.006972 -0.006171 0.000000 0.000108 0.000000
# 2 -0.006972 0.022880 -0.005643 0.000000 0.003313 0.000000
# 3 -0.006171 -0.005643 0.020060 0.000000 -0.001479 0.000000
# 4 0.000000 0.000000 0.000000 0.065119 0.000000 -0.002182
# 5 0.000108 0.003313 -0.001479 0.000000 0.033871 0.000000
# 6 0.000000 0.000000 0.000000 -0.002182 0.000000 -0.079543
#
#
# Mechanical properties :
#
#
# Convention : Reuss Voigt Hill
#
# Bulk Modulus (GPa) = 52.19770 59.12333 55.66051
# Shear Modulus (GPa) = 41.61978 15.16254 28.39116
#
# Velocity S-wave (km/s) = 4.81099 2.90383 3.97353
# Velocity P-wave (km/s) = 7.73881 6.64249 7.21151
#
# Compressibility (1/GPa) = 0.01915793
#
# Stress axis : x y z
#
# Youngs Moduli (GPa) = 72.51447 43.70590 49.85145
#
# Poissons Ratio (x) = 0.30472 0.30763
# Poissons Ratio (y) = 0.50557 0.28133
# Poissons Ratio (z) = 0.44748 0.24664
#
# Static dielectric constant tensor:
#      x y z
#    x 1.640550 0.000000 -0.003140 
#    y 0.000000 1.616950 0.000000 
#    z -0.003140 0.000000 1.635330 
# 
# From -- ./inp_files/169712.got.cif
#   From: 2010.05.17/outbox.cif.g08.bks.cpg/sg12_85_cif.got.tgz:169712.got - 2010.06.03 13:09:07.
