data_PCOD9170482
_publ_section_title
;
Structure prediction by ZEFSAII (Michael W. Deem and Ramdas Pophale) SiO2 
 PCOD9170482
Probable space group: C 2/M
;
_chemical_formula_sum "Si O2"
_cell_formula_units_Z 56
_cell_length_a 22.814268
_cell_length_b 20.499995
_cell_length_c 9.574530
_cell_angle_alpha 90.000000
_cell_angle_beta 54.416306
_cell_angle_gamma 90.000000
_cell_volume 3641.753835
_symmetry_space_group_name_H-M "C 2/M"
_symmetry_group_IT_number 12
_symmetry_cell_setting 'monoclinic'
loop_
_space_group_symop_operation_xyz
x,y,z
-x,y,-z
-x,-y,-z
x,-y,z
1/2+x,1/2+y,z
1/2-x,1/2+y,-z
1/2-x,1/2-y,-z
1/2+x,1/2-y,z
loop_
_atom_site_type_symbol
_atom_site_label
_atom_site_fract_x
_atom_site_fract_y
_atom_site_fract_z
Si Si1 0.063370 0.426404 0.025228
Si Si2 0.256523 0.818900 0.572440
Si Si3 0.827950 0.215224 0.053588
Si Si4 0.774348 0.424242 0.308373
Si Si5 0.706691 0.328821 0.198330
Si Si6 0.392918 0.224772 0.549164
Si Si7 0.950085 0.701096 0.775901
O O1 0.061152 0.500000 0.087743
O O2 0.053058 0.369670 0.151116
O O3 0.140686 0.418136 0.844000
O O4 0.000000 0.420987 0.000000
O O5 0.250000 0.750000 0.500000
O O6 0.192912 0.820328 0.774922
O O7 0.256386 0.877416 0.463045
O O8 0.331834 0.815873 0.553296
O O9 0.772140 0.276508 0.122145
O O10 0.813608 0.171429 0.936452
O O11 0.906149 0.247603 0.931445
O O12 0.758199 0.500000 0.355861
O O13 0.732188 0.395098 0.233337
O O14 0.641371 0.295994 0.375524
O O15 0.409614 0.199172 0.682242
O O16 0.468142 0.223108 0.364107
#
# Coordination Sequence:
#
# PCOD9170482 Si02
#       7
#     8   8   8   8   8   8   8
#     4  10  20  32  46  66 103 145 175 201 245 306
#     4  11  18  32  50  74 103 134 167 213 259 303
#     4   9  17  28  54  72  97 126 163 217 261 285
#     4  11  21  33  51  73 102 140 174 206 255 314
#     4   9  16  33  49  73  97 128 166 211 257 302
#     4   9  19  29  52  73 103 129 168 213 262 286
#     4  10  17  32  48  78  98 129 172 218 245 310
#
# _framework density 15.377207
#
# number of rings (size 3 to 8) (size 9 to 14) (size 15 to 20)
#    0.000    2.143    4.286    1.714    0.000    0.000 
#    0.000    2.857    0.000    0.000    0.000   10.000 
#    0.000    0.000    0.000    0.000    0.000    0.000 
#
# Total GULP energy -156039.598999 kJ/mol
# GULP energy per Si atom -5572.842821 kJ/mol
# Density = 1.534221 g / cm^3
# Si number density = 15.377207 Si / 1000 Ang^3
#
#
#
# Elastic Constant Matrix: (Units=GPa)
#
#
# Indices 1 2 3 4 5 6 
#
# 1 57.2089 44.6176 41.3363 0.0000 -4.0321 0.0000
# 2 44.6176 104.7760 60.9164 0.0000 0.5831 0.0000
# 3 41.3363 60.9164 112.9759 0.0000 -10.7549 0.0000
# 4 0.0000 0.0000 0.0000 21.3083 0.0000 3.5399
# 5 -4.0321 0.5831 -10.7549 0.0000 17.5598 0.0000
# 6 0.0000 0.0000 0.0000 3.5399 0.0000 18.9414
#
#
#
# Elastic Compliance Matrix: (Units=1/GPa)
#
#
# Indices 1 2 3 4 5 6 
#
# 1 0.028668 -0.009230 -0.005157 0.000000 0.003731 0.000000
# 2 -0.009230 0.017367 -0.006630 0.000000 -0.006757 0.000000
# 3 -0.005157 -0.006630 0.015102 0.000000 0.008286 0.000000
# 4 0.000000 0.000000 0.000000 0.048434 0.000000 -0.009052
# 5 0.003731 -0.006757 0.008286 0.000000 0.063104 0.000000
# 6 0.000000 0.000000 0.000000 -0.009052 0.000000 0.054486
#
#
# Mechanical properties :
#
#
# Convention : Reuss Voigt Hill
#
# Bulk Modulus (GPa) = 52.35123 63.18904 57.77014
# Shear Modulus (GPa) = 18.14461 20.10128 19.12294
#
# Velocity S-wave (km/s) = 3.43879 3.61946 3.53028
# Velocity P-wave (km/s) = 7.06298 7.65828 7.36664
#
# Compressibility (1/GPa) = 0.01910175
#
# Stress axis : x y z
#
# Youngs Moduli (GPa) = 34.88241 57.57942 66.21549
#
# Poissons Ratio (x) = 0.53148 0.34147
# Poissons Ratio (y) = 0.32198 0.43904
# Poissons Ratio (z) = 0.17989 0.38178
#
# Static dielectric constant tensor:
#      x y z
#    x 1.526580 0.000000 0.003420 
#    y 0.000000 1.487170 0.000000 
#    z 0.003420 0.000000 1.533170 
# 
# From -- ./inp_files/98789.got.cif
#   From: 2010.05.17/outbox.cif.g08.bks.cpg/sg12_50_cif.got.tgz:98789.got - 2010.06.03 13:09:07.
