data_PCOD9170893
_publ_section_title
;
Structure prediction by ZEFSAII (Michael W. Deem and Ramdas Pophale) SiO2 
 PCOD9170893
Probable space group: C 2/M
;
_chemical_formula_sum "Si O2"
_cell_formula_units_Z 64
_cell_length_a 23.796811
_cell_length_b 22.474236
_cell_length_c 9.029281
_cell_angle_alpha 90.000000
_cell_angle_beta 52.432412
_cell_angle_gamma 90.000000
_cell_volume 3827.629857
_symmetry_space_group_name_H-M "C 2/M"
_symmetry_group_IT_number 12
_symmetry_cell_setting 'monoclinic'
loop_
_space_group_symop_operation_xyz
x,y,z
-x,y,-z
-x,-y,-z
x,-y,z
1/2+x,1/2+y,z
1/2-x,1/2+y,-z
1/2-x,1/2-y,-z
1/2+x,1/2-y,z
loop_
_atom_site_type_symbol
_atom_site_label
_atom_site_fract_x
_atom_site_fract_y
_atom_site_fract_z
Si Si1 0.609936 0.874454 0.090744
Si Si2 0.264979 0.066988 0.939743
Si Si3 0.806218 0.259285 0.592658
Si Si4 0.705014 0.835971 0.665688
Si Si5 0.678896 0.932404 0.479657
Si Si6 0.474340 0.928899 0.374691
Si Si7 0.418215 0.242983 0.672041
Si Si8 0.293306 0.695100 0.008483
O O1 0.660658 0.920563 0.096399
O O2 0.536560 0.906075 0.170084
O O3 0.592061 0.819239 0.226181
O O4 0.651417 0.850278 0.882920
O O5 0.278637 0.065818 0.741876
O O6 0.223189 0.129443 0.028868
O O7 0.239085 0.000000 0.023116
O O8 0.775213 0.193285 0.621555
O O9 0.822437 0.286932 0.407350
O O10 0.872600 0.260343 0.594640
O O11 0.741785 0.297643 0.772213
O O12 0.713945 0.894167 0.551577
O O13 0.602041 0.906269 0.554982
O O14 0.668950 0.000000 0.547595
O O15 0.500000 0.912401 0.500000
O O16 0.469493 0.000000 0.382677
O O17 0.500000 0.254405 0.500000
O O18 0.375193 0.289459 0.846134
O O19 0.250000 0.750000 0.000000
#
# Coordination Sequence:
#
# PCOD9170893 Si02
#       8
#     8   8   8   8   8   8   8   8
#     4  12  20  31  51  83 109 147 191 229 272 325
#     4  11  20  34  59  82 107 144 198 241 275 328
#     4  10  20  39  56  75 109 146 181 229 285 331
#     4  11  22  34  53  76 108 150 179 228 280 325
#     4  10  21  36  52  77 112 153 191 228 272 335
#     4  10  20  33  49  70 109 157 192 223 264 314
#     4  11  22  36  59  84 110 146 190 237 278 338
#     4  10  17  36  58  81 107 142 188 235 279 324
#
# _framework density 16.720531000000001
#
# number of rings (size 3 to 8) (size 9 to 14) (size 15 to 20)
#    0.000    1.375    6.250    1.500    1.750    1.500 
#    0.000    1.250    0.000    0.375    0.000    0.000 
#    0.000    2.000    0.000    0.000    0.000    0.000 
#
# Total GULP energy -178297.112034 kJ/mol
# GULP energy per Si atom -5571.784751 kJ/mol
# Density = 1.668247 g / cm^3
# Si number density = 16.720531 Si / 1000 Ang^3
#
#
#
# Elastic Constant Matrix: (Units=GPa)
#
#
# Indices 1 2 3 4 5 6 
#
# 1 40.7631 18.9011 30.6736 0.0000 -1.0540 0.0000
# 2 18.9011 99.2792 24.7896 0.0000 -3.8370 0.0000
# 3 30.6736 24.7896 75.3732 0.0000 -2.1265 0.0000
# 4 0.0000 0.0000 0.0000 23.8581 0.0000 -0.5150
# 5 -1.0540 -3.8370 -2.1265 0.0000 19.7011 0.0000
# 6 0.0000 0.0000 0.0000 -0.5150 0.0000 22.1901
#
#
#
# Elastic Compliance Matrix: (Units=1/GPa)
#
#
# Indices 1 2 3 4 5 6 
#
# 1 0.036460 -0.003533 -0.013682 0.000000 -0.000214 0.000000
# 2 -0.003533 0.011377 -0.002254 0.000000 0.001783 0.000000
# 3 -0.013682 -0.002254 0.019603 0.000000 0.000945 0.000000
# 4 0.000000 0.000000 0.000000 0.041935 0.000000 0.000973
# 5 -0.000214 0.001783 0.000945 0.000000 0.051197 0.000000
# 6 0.000000 0.000000 0.000000 0.000973 0.000000 0.045088
#
#
# Mechanical properties :
#
#
# Convention : Reuss Voigt Hill
#
# Bulk Modulus (GPa) = 35.08419 40.46046 37.77232
# Shear Modulus (GPa) = 19.67750 22.55328 21.11539
#
# Velocity S-wave (km/s) = 3.43424 3.67664 3.55750
# Velocity P-wave (km/s) = 6.06247 6.50186 6.28601
#
# Compressibility (1/GPa) = 0.02850287
#
# Stress axis : x y z
#
# Youngs Moduli (GPa) = 27.42735 87.89715 51.01280
#
# Poissons Ratio (x) = 0.31058 0.69793
# Poissons Ratio (y) = 0.09691 0.11496
# Poissons Ratio (z) = 0.37525 0.19808
#
# Static dielectric constant tensor:
#      x y z
#    x 1.571840 0.000000 0.016340 
#    y 0.000000 1.612300 0.000000 
#    z 0.016340 0.000000 1.611540 
# 
# From -- ./inp_files/99650.got.cif
#   From: 2010.05.17/outbox.cif.g08.bks.cpg/sg12_50_cif.got.tgz:99650.got - 2010.06.03 13:09:07.
