data_PCOD9170242
_publ_section_title
;
Structure prediction by ZEFSAII (Michael W. Deem and Ramdas Pophale) SiO2 
 PCOD9170242
Probable space group: C 2/M
;
_chemical_formula_sum "Si O2"
_cell_formula_units_Z 56
_cell_length_a 20.572336
_cell_length_b 20.024468
_cell_length_c 7.945923
_cell_angle_alpha 90.000000
_cell_angle_beta 57.860983
_cell_angle_gamma 90.000000
_cell_volume 2771.719059
_symmetry_space_group_name_H-M "C 2/M"
_symmetry_group_IT_number 12
_symmetry_cell_setting 'monoclinic'
loop_
_space_group_symop_operation_xyz
x,y,z
-x,y,-z
-x,-y,-z
x,-y,z
1/2+x,1/2+y,z
1/2-x,1/2+y,-z
1/2-x,1/2-y,-z
1/2+x,1/2-y,z
loop_
_atom_site_type_symbol
_atom_site_label
_atom_site_fract_x
_atom_site_fract_y
_atom_site_fract_z
Si Si1 0.805827 0.073618 0.504353
Si Si2 0.393819 0.824455 0.981017
Si Si3 0.697318 0.183826 0.547175
Si Si4 0.321802 0.700129 0.918721
Si Si5 0.269010 0.922698 0.015775
Si Si6 0.958061 0.297936 0.377010
Si Si7 0.568208 0.344778 0.528774
O O1 0.757612 0.124467 0.459718
O O2 0.767699 0.073218 0.744568
O O3 0.891797 0.099547 0.415790
O O4 0.803351 0.000000 0.437877
O O5 0.377075 0.747251 0.950655
O O6 0.483974 0.835398 0.827568
O O7 0.356248 0.827012 0.215695
O O8 0.346648 0.879391 0.936539
O O9 0.750000 0.250000 0.500000
O O10 0.631621 0.182578 0.495469
O O11 0.287568 0.627093 0.010809
O O12 0.366267 0.685541 0.684510
O O13 0.250000 0.750000 0.000000
O O14 0.277873 0.000000 0.946559
O O15 0.956668 0.219483 0.331363
O O16 0.000000 0.302502 0.500000
O O17 0.500000 0.367685 0.500000
#
# Coordination Sequence:
#
# PCOD9170242 Si02
#       7
#     8   8   8   8   8   8   8
#     4   9  18  34  53  78 112 147 187 235 273 319
#     4  10  19  33  54  81 110 143 182 231 282 322
#     4  11  22  35  57  85 109 144 189 230 276 331
#     4   9  16  27  50  78 105 140 179 223 275 316
#     4   8  16  29  50  78 109 143 187 231 270 322
#     4  11  21  35  55  83 115 143 182 232 278 326
#     4  10  17  30  52  85 114 138 179 228 276 327
#
# _framework density 20.204067999999999
#
# number of rings (size 3 to 8) (size 9 to 14) (size 15 to 20)
#    0.000    2.286    4.286    1.286    0.000    0.286 
#    0.000    0.714    0.000    7.714    0.000    1.000 
#    0.000    0.000    0.000    0.000    0.000    0.000 
#
# Total GULP energy -155879.174541 kJ/mol
# GULP energy per Si atom -5567.113376 kJ/mol
# Density = 2.015808 g / cm^3
# Si number density = 20.204068 Si / 1000 Ang^3
#
#
#
# Elastic Constant Matrix: (Units=GPa)
#
#
# Indices 1 2 3 4 5 6 
#
# 1 116.1532 63.1491 5.9768 0.0000 -28.4340 0.0000
# 2 63.1491 154.4104 7.3948 0.0000 -7.9512 0.0000
# 3 5.9768 7.3948 46.9384 0.0000 -14.2585 0.0000
# 4 0.0000 0.0000 0.0000 15.4030 0.0000 -0.6390
# 5 -28.4340 -7.9512 -14.2585 0.0000 29.8518 0.0000
# 6 0.0000 0.0000 0.0000 -0.6390 0.0000 24.9457
#
#
#
# Elastic Compliance Matrix: (Units=1/GPa)
#
#
# Indices 1 2 3 4 5 6 
#
# 1 0.014969 -0.005541 0.003333 0.000000 0.014375 0.000000
# 2 -0.005541 0.008632 -0.001824 0.000000 -0.003850 0.000000
# 3 0.003333 -0.001824 0.025715 0.000000 0.014972 0.000000
# 4 0.000000 0.000000 0.000000 0.064991 0.000000 0.001665
# 5 0.014375 -0.003850 0.014972 0.000000 0.053316 0.000000
# 6 0.000000 0.000000 0.000000 0.001665 0.000000 0.040130
#
#
# Mechanical properties :
#
#
# Convention : Reuss Voigt Hill
#
# Bulk Modulus (GPa) = 24.24075 52.28259 38.26167
# Shear Modulus (GPa) = 21.77998 30.10553 25.94276
#
# Velocity S-wave (km/s) = 3.28685 3.86433 3.58723
# Velocity P-wave (km/s) = 5.14087 6.77084 6.01135
#
# Compressibility (1/GPa) = 0.04125285
#
# Stress axis : x y z
#
# Youngs Moduli (GPa) = 66.80295 115.85327 38.88711
#
# Poissons Ratio (x) = 0.64200 -0.12963
# Poissons Ratio (y) = 0.37019 0.07092
# Poissons Ratio (z) = -0.22269 0.21130
#
# Static dielectric constant tensor:
#      x y z
#    x 1.806360 0.000000 0.037060 
#    y 0.000000 1.716830 0.000000 
#    z 0.037060 0.000000 1.568170 
# 
# From -- ./inp_files/89078.got.cif
#   From: 2010.05.17/outbox.cif.g08.bks.cpg/sg12_45_cif.got.tgz:89078.got - 2010.06.03 13:09:07.
