data_PCOD9170776
_publ_section_title
;
Structure prediction by ZEFSAII (Michael W. Deem and Ramdas Pophale) SiO2 
 PCOD9170776
Probable space group: C 2/M
;
_chemical_formula_sum "Si O2"
_cell_formula_units_Z 64
_cell_length_a 16.855000
_cell_length_b 17.926852
_cell_length_c 20.071675
_cell_angle_alpha 90.000000
_cell_angle_beta 150.970256
_cell_angle_gamma 90.000000
_cell_volume 2943.026138
_symmetry_space_group_name_H-M "C 2/M"
_symmetry_group_IT_number 12
_symmetry_cell_setting 'monoclinic'
loop_
_space_group_symop_operation_xyz
x,y,z
-x,y,-z
-x,-y,-z
x,-y,z
1/2+x,1/2+y,z
1/2-x,1/2+y,-z
1/2-x,1/2-y,-z
1/2+x,1/2-y,z
loop_
_atom_site_type_symbol
_atom_site_label
_atom_site_fract_x
_atom_site_fract_y
_atom_site_fract_z
Si Si1 0.516489 0.676492 0.366865
Si Si2 0.110970 0.685280 0.895947
Si Si3 0.986950 0.920288 0.837677
Si Si4 0.372048 0.297473 0.853992
Si Si5 0.399559 0.847855 0.255923
Si Si6 0.265062 0.723033 0.363476
Si Si7 0.217763 0.627227 0.548269
Si Si8 0.263931 0.585698 0.104326
O O1 0.456533 0.760069 0.302928
O O2 0.603453 0.670891 0.503189
O O3 0.661879 0.655012 0.422002
O O4 0.367525 0.621489 0.240149
O O5 0.141710 0.638743 0.851100
O O6 0.921976 0.710268 0.750193
O O7 0.250000 0.750000 0.000000
O O8 0.122090 0.639001 0.972646
O O9 0.968484 0.848727 0.871500
O O10 0.818725 0.923334 0.672089
O O11 0.117682 0.911479 0.874187
O O12 0.015166 0.000000 0.892727
O O13 0.253994 0.351743 0.808545
O O14 0.260401 0.237030 0.733533
O O15 0.500000 0.264023 0.000000
O O16 0.549645 0.897038 0.391712
O O17 0.321781 0.802208 0.434182
O O18 0.219156 0.500000 0.083730
#
# Coordination Sequence:
#
# PCOD9170776 Si02
#       8
#     8   8   8   8   8   8   8   8
#     4  10  17  34  56  80 104 143 183 235 286 322
#     4  12  18  32  57  83 109 148 185 231 281 331
#     4   9  19  36  52  69 111 164 191 216 266 330
#     4  11  23  34  47  83 118 143 185 236 272 329
#     4  11  19  31  55  81 110 145 187 234 276 317
#     4  10  19  32  53  77 109 139 181 235 282 323
#     4   9  16  32  52  81 102 136 190 242 269 309
#     4  10  21  35  56  85 114 145 188 234 282 336
#
# _framework density 21.746323
#
# number of rings (size 3 to 8) (size 9 to 14) (size 15 to 20)
#    0.000    1.750    3.750    3.750    0.000    4.750 
#    0.000    3.125    0.000    0.000    0.000    3.500 
#    0.000    0.000    0.000    0.000    0.000    0.000 
#
# Total GULP energy -178422.295532 kJ/mol
# GULP energy per Si atom -5575.696735 kJ/mol
# Density = 2.169683 g / cm^3
# Si number density = 21.746323 Si / 1000 Ang^3
#
#
#
# Elastic Constant Matrix: (Units=GPa)
#
#
# Indices 1 2 3 4 5 6 
#
# 1 51.1424 -5.0951 8.3573 -0.0012 -14.8368 -0.0003
# 2 -5.0951 61.6843 23.0569 0.0016 -16.5084 0.0007
# 3 8.3573 23.0569 146.0755 -0.0012 -38.6461 -0.0007
# 4 -0.0012 0.0016 -0.0012 12.5063 0.0006 -3.8987
# 5 -14.8368 -16.5084 -38.6461 0.0006 38.8122 -0.0007
# 6 -0.0003 0.0007 -0.0007 -3.8987 -0.0007 9.4135
#
#
#
# Elastic Compliance Matrix: (Units=1/GPa)
#
#
# Indices 1 2 3 4 5 6 
#
# 1 0.023335 0.004736 0.001100 0.000002 0.012030 0.000002
# 2 0.004736 0.019392 -0.000911 -0.000003 0.009152 -0.000002
# 3 0.001100 -0.000911 0.009416 0.000001 0.009409 0.000002
# 4 0.000002 -0.000003 0.000001 0.091814 0.000000 0.038026
# 5 0.012030 0.009152 0.009409 0.000000 0.043625 0.000004
# 6 0.000002 -0.000002 0.000002 0.038026 0.000004 0.121979
#
#
# Mechanical properties :
#
#
# Convention : Reuss Voigt Hill
#
# Bulk Modulus (GPa) = 16.13048 34.61562 25.37305
# Shear Modulus (GPa) = 15.60664 27.65193 21.62928
#
# Velocity S-wave (km/s) = 2.68184 3.56977 3.15718
# Velocity P-wave (km/s) = 4.12594 5.73964 4.99834
#
# Compressibility (1/GPa) = 0.06199445
#
# Stress axis : x y z
#
# Youngs Moduli (GPa) = 42.85344 51.56638 106.20502
#
# Poissons Ratio (x) = -0.24421 -0.11684
# Poissons Ratio (y) = -0.20295 0.09671
# Poissons Ratio (z) = -0.04715 0.04696
#
# Static dielectric constant tensor:
#      x y z
#    x 1.844730 0.000000 0.001550 
#    y 0.000000 1.801010 -0.000010 
#    z 0.001550 -0.000010 1.876860 
# 
# From -- ./inp_files/317833.got.cif
#   From: 2010.05.17/outbox.cif.g08.bks.cpg/sg12_159_cif.got.tgz:317833.got - 2010.06.03 13:09:07.
