data_PCOD9170378
_publ_section_title
;
Structure prediction by ZEFSAII (Michael W. Deem and Ramdas Pophale) SiO2 
 PCOD9170378
Probable space group: C 2/M
;
_chemical_formula_sum "Si O2"
_cell_formula_units_Z 56
_cell_length_a 22.847663
_cell_length_b 31.632587
_cell_length_c 5.416056
_cell_angle_alpha 90.000000
_cell_angle_beta 131.180052
_cell_angle_gamma 90.000000
_cell_volume 2946.112698
_symmetry_space_group_name_H-M "C 2/M"
_symmetry_group_IT_number 12
_symmetry_cell_setting 'monoclinic'
loop_
_space_group_symop_operation_xyz
x,y,z
-x,y,-z
-x,-y,-z
x,-y,z
1/2+x,1/2+y,z
1/2-x,1/2+y,-z
1/2-x,1/2-y,-z
1/2+x,1/2-y,z
loop_
_atom_site_type_symbol
_atom_site_label
_atom_site_fract_x
_atom_site_fract_y
_atom_site_fract_z
Si Si1 0.775641 0.452473 0.524777
Si Si2 0.571050 0.953972 0.387124
Si Si3 0.907887 0.806191 0.232502
Si Si4 0.848415 0.612514 0.112618
Si Si5 0.288278 0.376320 0.874337
Si Si6 0.840800 0.766046 0.535783
Si Si7 0.694074 0.813358 0.280200
O O1 0.753612 0.500000 0.533807
O O2 0.847417 0.454785 0.533175
O O3 0.708232 0.424297 0.212541
O O4 0.811249 0.424665 0.842711
O O5 0.579003 0.911405 0.564978
O O6 0.566095 0.000000 0.504353
O O7 0.500000 0.951717 0.000000
O O8 0.879717 0.777547 0.384989
O O9 0.000000 0.809760 0.500000
O O10 0.865846 0.851492 0.158150
O O11 0.881381 0.787561 0.891241
O O12 0.778334 0.624452 0.103131
O O13 0.866527 0.656639 0.027468
O O14 0.251427 0.348086 0.555158
O O15 0.751415 0.783188 0.281589
O O16 0.839287 0.716656 0.600087
#
# Coordination Sequence:
#
# PCOD9170378 Si02
#       7
#     8   8   8   8   8   8   8
#     4   9  18  32  52  80 109 142 187 239 283 332
#     4   9  18  31  49  74 108 147 191 233 281 342
#     4  11  22  38  59  85 117 151 190 241 290 347
#     4  10  17  31  52  77 108 145 190 236 284 338
#     4   9  19  33  55  83 108 139 193 232 286 334
#     4  10  21  35  59  85 112 146 190 233 294 342
#     4   9  19  32  56  82 107 140 186 243 280 342
#
# _framework density 19.008098
#
# number of rings (size 3 to 8) (size 9 to 14) (size 15 to 20)
#    0.000    2.429    1.429    0.857    2.000    2.857 
#    0.000    2.143    9.429    0.429    0.000    1.000 
#    0.000    0.000    0.000    0.000    0.000    0.000 
#
# Total GULP energy -155986.358490 kJ/mol
# GULP energy per Si atom -5570.941375 kJ/mol
# Density = 1.896484 g / cm^3
# Si number density = 19.008098 Si / 1000 Ang^3
#
#
#
# Elastic Constant Matrix: (Units=GPa)
#
#
# Indices 1 2 3 4 5 6 
#
# 1 57.1493 15.7269 18.1953 0.0000 2.8886 0.0000
# 2 15.7269 145.3492 47.6766 0.0000 6.3464 0.0000
# 3 18.1953 47.6766 68.2271 0.0000 8.0977 0.0000
# 4 0.0000 0.0000 0.0000 38.6625 0.0000 -4.9755
# 5 2.8886 6.3464 8.0977 0.0000 23.6849 0.0000
# 6 0.0000 0.0000 0.0000 -4.9755 0.0000 11.5246
#
#
#
# Elastic Compliance Matrix: (Units=1/GPa)
#
#
# Indices 1 2 3 4 5 6 
#
# 1 0.019159 -0.000511 -0.004681 0.000000 -0.000599 0.000000
# 2 -0.000511 0.008941 -0.006082 0.000000 -0.000254 0.000000
# 3 -0.004681 -0.006082 0.020735 0.000000 -0.004889 0.000000
# 4 0.000000 0.000000 0.000000 0.027386 0.000000 0.011824
# 5 -0.000599 -0.000254 -0.004889 0.000000 0.044034 0.000000
# 6 0.000000 0.000000 0.000000 0.011824 0.000000 0.091875
#
#
# Mechanical properties :
#
#
# Convention : Reuss Voigt Hill
#
# Bulk Modulus (GPa) = 38.04030 48.21367 43.12699
# Shear Modulus (GPa) = 20.53878 27.38285 23.96081
#
# Velocity S-wave (km/s) = 3.29070 3.79963 3.55429
# Velocity P-wave (km/s) = 5.87320 6.68352 6.29142
#
# Compressibility (1/GPa) = 0.02628791
#
# Stress axis : x y z
#
# Youngs Moduli (GPa) = 52.19362 111.84117 48.22698
#
# Poissons Ratio (x) = 0.05720 0.22575
# Poissons Ratio (y) = 0.02669 0.29329
# Poissons Ratio (z) = 0.24432 0.68016
#
# Static dielectric constant tensor:
#      x y z
#    x 1.677740 0.000000 -0.070640 
#    y 0.000000 1.727760 0.000000 
#    z -0.070640 0.000000 1.733870 
# 
# From -- ./inp_files/18158.got.cif
#   From: 2010.05.17/outbox.cif.g08.bks.cpg/sg12_10_cif.got.tgz:18158.got - 2010.06.03 13:09:07.
