data_PCOD9170051
_publ_section_title
;
Structure prediction by ZEFSAII (Michael W. Deem and Ramdas Pophale) SiO2 
 PCOD9170051
Probable space group: C 2/M
;
_chemical_formula_sum "Si O2"
_cell_formula_units_Z 56
_cell_length_a 27.741232
_cell_length_b 17.679564
_cell_length_c 9.438653
_cell_angle_alpha 90.000000
_cell_angle_beta 135.650104
_cell_angle_gamma 90.000000
_cell_volume 3235.998224
_symmetry_space_group_name_H-M "C 2/M"
_symmetry_group_IT_number 12
_symmetry_cell_setting 'monoclinic'
loop_
_space_group_symop_operation_xyz
x,y,z
-x,y,-z
-x,-y,-z
x,-y,z
1/2+x,1/2+y,z
1/2-x,1/2+y,-z
1/2-x,1/2-y,-z
1/2+x,1/2-y,z
loop_
_atom_site_type_symbol
_atom_site_label
_atom_site_fract_x
_atom_site_fract_y
_atom_site_fract_z
Si Si1 0.657571 0.411962 0.155554
Si Si2 0.066526 0.088474 0.228523
Si Si3 0.942601 0.215505 0.593812
Si Si4 0.576864 0.173495 0.184182
Si Si5 0.815913 0.587349 0.398705
Si Si6 0.098683 0.246073 0.931426
Si Si7 0.324009 0.210375 0.168222
O O1 0.636538 0.500000 0.075262
O O2 0.632230 0.400119 0.264416
O O3 0.739052 0.406924 0.301402
O O4 0.625119 0.340744 0.003260
O O5 0.064743 0.129546 0.373833
O O6 0.058120 0.000000 0.232062
O O7 0.000000 0.116404 0.000000
O O8 0.930428 0.260486 0.714957
O O9 0.881839 0.236841 0.361728
O O10 0.019635 0.238890 0.712475
O O11 0.630589 0.116941 0.370359
O O12 0.599234 0.212602 0.084900
O O13 0.500000 0.140309 0.000000
O O14 0.829843 0.500000 0.393845
O O15 0.819907 0.638461 0.264725
O O16 0.145514 0.296051 0.925401
O O17 0.250000 0.250000 0.000000
#
# Coordination Sequence:
#
# PCOD9170051 Si02
#       7
#     8   8   8   8   8   8   8
#     4  10  19  31  54  83 115 149 182 220 273 329
#     4  10  17  29  52  83 116 149 183 223 275 328
#     4  10  19  34  54  81 113 145 186 230 275 325
#     4   9  19  35  60  84 106 139 187 236 280 326
#     4  10  22  40  58  80 113 149 184 230 285 332
#     4  11  19  35  56  85 113 143 187 234 272 331
#     4  11  23  37  55  80 109 152 192 228 273 328
#
# _framework density 17.305325
#
# number of rings (size 3 to 8) (size 9 to 14) (size 15 to 20)
#    0.000    1.857    4.286    0.857    0.000    2.000 
#    0.000    2.143    0.000   12.857    0.000    0.000 
#    0.000    0.000    0.000    0.000    0.000    0.000 
#
# Total GULP energy -155970.059970 kJ/mol
# GULP energy per Si atom -5570.359285 kJ/mol
# Density = 1.726594 g / cm^3
# Si number density = 17.305325 Si / 1000 Ang^3
#
#
#
# Elastic Constant Matrix: (Units=GPa)
#
#
# Indices 1 2 3 4 5 6 
#
# 1 116.4745 35.5675 42.9790 0.0000 6.9074 0.0000
# 2 35.5675 87.4756 46.9464 0.0000 8.8685 0.0000
# 3 42.9790 46.9464 103.4175 0.0000 11.6237 0.0000
# 4 0.0000 0.0000 0.0000 22.4467 0.0000 1.4801
# 5 6.9074 8.8685 11.6237 0.0000 21.4164 0.0000
# 6 0.0000 0.0000 0.0000 1.4801 0.0000 24.5921
#
#
#
# Elastic Compliance Matrix: (Units=1/GPa)
#
#
# Indices 1 2 3 4 5 6 
#
# 1 0.010566 -0.002530 -0.003171 0.000000 -0.000639 0.000000
# 2 -0.002530 0.015867 -0.005863 0.000000 -0.002573 0.000000
# 3 -0.003171 -0.005863 0.014122 0.000000 -0.004214 0.000000
# 4 0.000000 0.000000 0.000000 0.044727 0.000000 -0.002692
# 5 -0.000639 -0.002573 -0.004214 0.000000 0.050252 0.000000
# 6 0.000000 0.000000 0.000000 -0.002692 0.000000 0.040826
#
#
# Mechanical properties :
#
#
# Convention : Reuss Voigt Hill
#
# Bulk Modulus (GPa) = 57.37348 62.03927 59.70638
# Shear Modulus (GPa) = 24.35494 25.81602 25.08548
#
# Velocity S-wave (km/s) = 3.75556 3.86657 3.81147
# Velocity P-wave (km/s) = 7.21327 7.47405 7.34482
#
# Compressibility (1/GPa) = 0.01742965
#
# Stress axis : x y z
#
# Youngs Moduli (GPa) = 94.64316 63.02204 70.80956
#
# Poissons Ratio (x) = 0.15942 0.22453
# Poissons Ratio (y) = 0.23940 0.41513
# Poissons Ratio (z) = 0.30011 0.36947
#
# Static dielectric constant tensor:
#      x y z
#    x 1.617020 0.000000 -0.014660 
#    y 0.000000 1.600420 0.000000 
#    z -0.014660 0.000000 1.608290 
# 
# From -- ./inp_files/106057.got.cif
#   From: 2010.05.17/outbox.cif.g08.bks.cpg/sg12_54_cif.got.tgz:106057.got - 2010.06.03 13:09:07.
