data_PCOD9170706
_publ_section_title
;
Structure prediction by ZEFSAII (Michael W. Deem and Ramdas Pophale) SiO2 
 PCOD9170706
Probable space group: C 2/M
;
_chemical_formula_sum "Si O2"
_cell_formula_units_Z 64
_cell_length_a 24.066384
_cell_length_b 7.412813
_cell_length_c 15.023016
_cell_angle_alpha 90.000000
_cell_angle_beta 65.560145
_cell_angle_gamma 90.000000
_cell_volume 2439.952645
_symmetry_space_group_name_H-M "C 2/M"
_symmetry_group_IT_number 12
_symmetry_cell_setting 'monoclinic'
loop_
_space_group_symop_operation_xyz
x,y,z
-x,y,-z
-x,-y,-z
x,-y,z
1/2+x,1/2+y,z
1/2-x,1/2+y,-z
1/2-x,1/2-y,-z
1/2+x,1/2-y,z
loop_
_atom_site_type_symbol
_atom_site_label
_atom_site_fract_x
_atom_site_fract_y
_atom_site_fract_z
Si Si1 0.360418 0.285102 0.022818
Si Si2 0.133624 0.212391 0.470886
Si Si3 0.897384 0.779529 0.317728
Si Si4 0.959306 0.704802 0.604240
Si Si5 0.099491 0.285899 0.189404
Si Si6 0.733085 0.779486 0.155595
Si Si7 0.765340 0.215690 0.334633
Si Si8 0.547909 0.280730 0.894386
O O1 0.357354 0.500000 0.025451
O O2 0.291527 0.216311 0.059529
O O3 0.388353 0.234692 0.099154
O O4 0.405578 0.239703 0.912312
O O5 0.098301 0.277159 0.582579
O O6 0.107175 0.300048 0.399215
O O7 0.205781 0.242279 0.432621
O O8 0.124091 0.000000 0.468029
O O9 0.830029 0.720766 0.329111
O O10 0.946215 0.718589 0.211280
O O11 0.898263 0.000000 0.317681
O O12 0.981582 0.500000 0.600129
O O13 0.949030 0.789382 0.707815
O O14 0.000000 0.792863 0.500000
O O15 0.099594 0.500000 0.205252
O O16 0.167246 0.214828 0.167614
O O17 0.748126 0.722679 0.246531
O O18 0.731464 0.000000 0.154254
O O19 0.770990 0.000000 0.325642
O O20 0.541654 0.500000 0.895236
O O21 0.500000 0.216018 0.000000
#
# Coordination Sequence:
#
# PCOD9170706 Si02
#       8
#     8   8   8   8   8   8   8   8
#     4  10  19  32  54  82 106 135 177 217 261 316
#     4  11  22  34  53  85 117 138 169 224 284 322
#     4   9  18  32  52  78 109 145 179 219 269 320
#     4  10  22  41  61  77 100 145 195 223 253 318
#     4  10  20  35  54  77 105 136 173 218 268 315
#     4   9  16  30  54  78 101 136 178 215 256 312
#     4  10  17  33  58  77 105 147 186 217 257 325
#     4   9  17  31  52  77 105 139 180 219 258 315
#
# _framework density 26.230017
#
# number of rings (size 3 to 8) (size 9 to 14) (size 15 to 20)
#    0.000    2.250    2.500    1.125    0.000    1.750 
#    0.000    2.500    0.000    1.875    0.000    0.000 
#    0.000    0.000    0.000    0.000    0.000    0.000 
#
# Total GULP energy -178950.174596 kJ/mol
# GULP energy per Si atom -5592.192956 kJ/mol
# Density = 2.617032 g / cm^3
# Si number density = 26.230017 Si / 1000 Ang^3
#
#
#
# Elastic Constant Matrix: (Units=GPa)
#
#
# Indices 1 2 3 4 5 6 
#
# 1 52.6730 3.7618 17.3595 0.0000 -1.3461 0.0000
# 2 3.7618 86.7990 -6.2792 0.0000 4.7473 -0.0002
# 3 17.3595 -6.2792 201.0197 0.0000 -2.3791 0.0000
# 4 0.0000 0.0000 0.0000 8.5492 0.0000 -2.1665
# 5 -1.3461 4.7473 -2.3791 0.0000 47.5416 0.0000
# 6 0.0000 -0.0002 0.0000 -2.1665 0.0000 3.7028
#
#
#
# Elastic Compliance Matrix: (Units=1/GPa)
#
#
# Indices 1 2 3 4 5 6 
#
# 1 0.019639 -0.001007 -0.001721 0.000000 0.000570 0.000000
# 2 -0.001007 0.011660 0.000437 0.000000 -0.001171 0.000001
# 3 -0.001721 0.000437 0.005139 0.000000 0.000165 0.000000
# 4 0.000000 0.000000 0.000000 0.137333 0.000000 0.080354
# 5 0.000570 -0.001171 0.000165 0.000000 0.021176 0.000000
# 6 0.000000 0.000001 0.000000 0.080354 0.000000 0.317078
#
#
# Mechanical properties :
#
#
# Convention : Reuss Voigt Hill
#
# Bulk Modulus (GPa) = 31.38987 41.13065 36.26026
# Shear Modulus (GPa) = 9.48364 33.66870 21.57617
#
# Velocity S-wave (km/s) = 1.90353 3.58661 2.87117
# Velocity P-wave (km/s) = 4.10175 5.73293 4.98452
#
# Compressibility (1/GPa) = 0.03185741
#
# Stress axis : x y z
#
# Youngs Moduli (GPa) = 50.92005 85.76189 194.59664
#
# Poissons Ratio (x) = 0.08635 0.33483
# Poissons Ratio (y) = 0.05127 -0.08510
# Poissons Ratio (z) = 0.08761 -0.03750
#
# Static dielectric constant tensor:
#      x y z
#    x 2.068370 0.000000 -0.046140 
#    y 0.000000 1.995110 0.000000 
#    z -0.046140 0.000000 2.087830 
# 
# From -- ./inp_files/249090.got.cif
#   From: 2010.05.17/outbox.cif.g08.bks.cpg/sg12_125_cif.got.tgz:249090.got - 2010.06.03 13:09:07.
