data_PCOD9170068
_publ_section_title
;
Structure prediction by ZEFSAII (Michael W. Deem and Ramdas Pophale) SiO2 
 PCOD9170068
Probable space group: C 2/M
;
_chemical_formula_sum "Si O2"
_cell_formula_units_Z 42
_cell_length_a 21.717368
_cell_length_b 11.745054
_cell_length_c 9.713171
_cell_angle_alpha 90.000000
_cell_angle_beta 42.779030
_cell_angle_gamma 90.000000
_cell_volume 1682.687523
_symmetry_space_group_name_H-M "C 2/M"
_symmetry_group_IT_number 12
_symmetry_cell_setting 'monoclinic'
loop_
_space_group_symop_operation_xyz
x,y,z
-x,y,-z
-x,-y,-z
x,-y,z
1/2+x,1/2+y,z
1/2-x,1/2+y,-z
1/2-x,1/2-y,-z
1/2+x,1/2-y,z
loop_
_atom_site_type_symbol
_atom_site_label
_atom_site_fract_x
_atom_site_fract_y
_atom_site_fract_z
Si Si1 0.530940 0.801744 0.741457
Si Si2 0.074700 0.877263 0.257002
Si Si3 0.759102 0.126109 0.808761
Si Si4 0.500000 0.000000 0.000000
Si Si5 0.783502 0.630154 0.690474
Si Si6 0.158293 0.121439 0.634777
O O1 0.457049 0.725816 0.785975
O O2 0.609093 0.845819 0.506214
O O3 0.587636 0.721878 0.752239
O O4 0.491450 0.902479 0.894209
O O5 0.166214 0.874639 0.194500
O O6 0.000000 0.879087 0.500000
O O7 0.069904 0.000000 0.189799
O O8 0.735164 0.262454 0.844290
O O9 0.801893 0.119032 0.585104
O O10 0.710253 0.000000 0.903395
O O11 0.772192 0.500000 0.761979
O O12 0.739103 0.631613 0.611005
O O13 0.113463 0.000000 0.734563
#
# Coordination Sequence:
#
# PCOD9170068 Si02
#       6
#     8   8   8   2   8   8
#     4  11  20  36  50  75 113 152 186 217 271 340
#     4  10  17  29  54  81 111 139 171 236 293 345
#     4   9  16  27  45  78 113 139 163 211 294 349
#     4  12  28  40  48  68 120 172 196 208 244 346
#     4  10  18  30  49  82 117 138 173 231 285 336
#     4   9  17  30  54  82 112 130 173 234 291 328
#
# _framework density 24.960070999999999
#
# number of rings (size 3 to 8) (size 9 to 14) (size 15 to 20)
#    0.000    2.095    4.762    2.857    0.000    0.000 
#    3.429    3.333    0.000    0.000    0.000    5.333 
#    0.000    0.000    0.000    0.000    0.000    0.000 
#
# Total GULP energy -116909.297732 kJ/mol
# GULP energy per Si atom -5567.109416 kJ/mol
# Density = 2.490326 g / cm^3
# Si number density = 24.960071 Si / 1000 Ang^3
#
#
#
# Elastic Constant Matrix: (Units=GPa)
#
#
# Indices 1 2 3 4 5 6 
#
# 1 107.9315 62.0237 36.3735 0.0000 10.1905 0.0000
# 2 62.0237 261.4819 41.6350 0.0000 12.5432 0.0000
# 3 36.3735 41.6350 74.1101 0.0000 2.9051 0.0000
# 4 0.0000 0.0000 0.0000 26.0833 0.0000 35.7832
# 5 10.1905 12.5432 2.9051 0.0000 24.2150 0.0000
# 6 0.0000 0.0000 0.0000 35.7832 0.0000 41.2016
#
#
#
# Elastic Compliance Matrix: (Units=1/GPa)
#
#
# Indices 1 2 3 4 5 6 
#
# 1 0.012373 -0.001996 -0.004810 0.000000 -0.003596 0.000000
# 2 -0.001996 0.004611 -0.001557 0.000000 -0.001362 0.000000
# 3 -0.004810 -0.001557 0.016697 0.000000 0.000828 0.000000
# 4 0.000000 0.000000 0.000000 -0.200238 0.000000 0.173904
# 5 -0.003596 -0.001362 0.000828 0.000000 0.043416 0.000000
# 6 0.000000 0.000000 0.000000 0.173904 0.000000 -0.126763
#
#
# Mechanical properties :
#
#
# Convention : Reuss Voigt Hill
#
# Bulk Modulus (GPa) = 58.98651 80.39867 69.69259
# Shear Modulus (GPa) = -21.97557 38.53274 8.27859
#
# Velocity S-wave (km/s) = -2.97042 3.93335 1.82317
# Velocity P-wave (km/s) = 3.45241 7.27387 5.69334
#
# Compressibility (1/GPa) = 0.01695303
#
# Stress axis : x y z
#
# Youngs Moduli (GPa) = 80.82138 216.86306 59.89206
#
# Poissons Ratio (x) = 0.43296 0.28809
# Poissons Ratio (y) = 0.16136 0.09327
# Poissons Ratio (z) = 0.38876 0.33772
#
# Static dielectric constant tensor:
#      x y z
#    x 1.924290 0.000000 -0.066870 
#    y 0.000000 2.147250 0.000000 
#    z -0.066870 0.000000 1.994110 
# 
# From -- ./inp_files/83960.got.cif
#   From: 2010.05.17/outbox.cif.g08.bks.cpg/sg12_42_cif.got.tgz:83960.got - 2010.06.03 13:09:07.
