data_PCOD9170547
_publ_section_title
;
Structure prediction by ZEFSAII (Michael W. Deem and Ramdas Pophale) SiO2 
 PCOD9170547
Probable space group: C 2/M
;
_chemical_formula_sum "Si O2"
_cell_formula_units_Z 26
_cell_length_a 31.351654
_cell_length_b 5.339044
_cell_length_c 12.691823
_cell_angle_alpha 90.000000
_cell_angle_beta 35.620438
_cell_angle_gamma 90.000000
_cell_volume 1237.311375
_symmetry_space_group_name_H-M "C 2/M"
_symmetry_group_IT_number 12
_symmetry_cell_setting 'monoclinic'
loop_
_space_group_symop_operation_xyz
x,y,z
-x,y,-z
-x,-y,-z
x,-y,z
1/2+x,1/2+y,z
1/2-x,1/2+y,-z
1/2-x,1/2-y,-z
1/2+x,1/2-y,z
loop_
_atom_site_type_symbol
_atom_site_label
_atom_site_fract_x
_atom_site_fract_y
_atom_site_fract_z
Si Si1 0.624313 0.000000 0.290474
Si Si2 0.500000 0.500000 0.000000
Si Si3 0.240007 0.500000 0.666495
Si Si4 0.511119 0.500000 0.742127
Si Si5 0.666009 0.500000 0.310398
Si Si6 0.033081 0.500000 0.269630
Si Si7 0.833580 0.000000 0.263246
O O1 0.667630 0.247970 0.238092
O O2 0.599040 0.000000 0.220203
O O3 0.545282 0.000000 0.510630
O O4 0.537721 0.500000 0.807998
O O5 0.579890 0.500000 0.897706
O O6 0.278700 0.500000 0.702306
O O7 0.193403 0.248709 0.742075
O O8 0.296705 0.500000 0.453829
O O9 0.584736 0.500000 0.524373
O O10 0.468085 0.750709 0.797501
#
# Coordination Sequence:
#
# PCOD9170547 Si02
#       7
#     4   2   4   4   4   4   4
#     4   9  17  28  54  78 111 139 185 226 294 327
#     4  12  24  42  56  92 108 168 184 238 266 360
#     4  10  20  39  54  85 110 155 180 246 272 337
#     4  10  21  32  53  76 118 144 188 225 280 328
#     4  10  17  32  54  84 107 145 181 236 273 341
#     4   9  18  33  46  80 112 147 173 239 284 329
#     4  10  23  36  59  76 119 147 198 223 287 325
#
# _framework density 21.013303000000001
#
# number of rings (size 3 to 8) (size 9 to 14) (size 15 to 20)
#    0.000    2.154    1.538    1.846    0.000    7.385 
#    0.000    0.000    0.000    0.000    0.000   21.538 
#    0.000    0.000    0.000    0.000    0.000    0.000 
#
# Total GULP energy -72372.603560 kJ/mol
# GULP energy per Si atom -5567.123351 kJ/mol
# Density = 2.096548 g / cm^3
# Si number density = 21.013303 Si / 1000 Ang^3
#
#
#
# Elastic Constant Matrix: (Units=GPa)
#
#
# Indices 1 2 3 4 5 6 
#
# 1 228.0514 131.4334 10.0720 -0.0011 -3.1904 0.0011
# 2 131.4334 223.6670 19.2225 -0.0024 -3.8050 0.0041
# 3 10.0720 19.2225 36.7634 0.0002 -14.7097 -0.0001
# 4 -0.0011 -0.0024 0.0002 -8.3070 0.0002 -10.0398
# 5 -3.1904 -3.8050 -14.7097 0.0002 45.2309 -0.0004
# 6 0.0011 0.0041 -0.0001 -10.0398 -0.0004 -26.0759
#
#
#
# Elastic Compliance Matrix: (Units=1/GPa)
#
#
# Indices 1 2 3 4 5 6 
#
# 1 0.006635 -0.003923 0.000332 0.000001 0.000246 -0.000001
# 2 -0.003923 0.007009 -0.002834 -0.000005 -0.000609 0.000003
# 3 0.000332 -0.002834 0.032770 0.000005 0.010442 -0.000003
# 4 0.000001 -0.000005 0.000005 -0.225152 0.000003 0.086688
# 5 0.000246 -0.000609 0.010442 0.000003 0.025471 -0.000002
# 6 -0.000001 0.000003 -0.000003 0.086688 -0.000002 -0.071727
#
#
# Mechanical properties :
#
#
# Convention : Reuss Voigt Hill
#
# Bulk Modulus (GPa) = 29.79360 89.99306 59.89333
# Shear Modulus (GPa) = -24.88117 24.01986 -0.43066
#
# Velocity S-wave (km/s) = -3.44476 3.38461 -0.45320
# Velocity P-wave (km/s) = 1.26989 7.62849 5.31889
#
# Compressibility (1/GPa) = 0.03356426
#
# Stress axis : x y z
#
# Youngs Moduli (GPa) = 150.72056 142.66391 30.51586
#
# Poissons Ratio (x) = 0.55969 -0.01013
# Poissons Ratio (y) = 0.59130 0.08647
# Poissons Ratio (z) = -0.05004 0.40427
#
# Static dielectric constant tensor:
#      x y z
#    x 1.673300 0.000000 0.000620 
#    y 0.000000 1.734280 0.000000 
#    z 0.000620 0.000000 1.779780 
# 
# From -- ./inp_files/170957.got.cif
#   From: 2010.05.17/outbox.cif.g08.bks.cpg/sg12_86_cif.got.tgz:170957.got - 2010.06.03 13:09:07.
