data_PCOD9170286
_publ_section_title
;
Structure prediction by ZEFSAII (Michael W. Deem and Ramdas Pophale) SiO2 
 PCOD9170286
Probable space group: C 2/M
;
_chemical_formula_sum "Si O2"
_cell_formula_units_Z 44
_cell_length_a 9.072758
_cell_length_b 28.736410
_cell_length_c 7.760677
_cell_angle_alpha 90.000000
_cell_angle_beta 121.779703
_cell_angle_gamma 90.000000
_cell_volume 1720.009694
_symmetry_space_group_name_H-M "C 2/M"
_symmetry_group_IT_number 12
_symmetry_cell_setting 'monoclinic'
loop_
_space_group_symop_operation_xyz
x,y,z
-x,y,-z
-x,-y,-z
x,-y,z
1/2+x,1/2+y,z
1/2-x,1/2+y,-z
1/2-x,1/2-y,-z
1/2+x,1/2-y,z
loop_
_atom_site_type_symbol
_atom_site_label
_atom_site_fract_x
_atom_site_fract_y
_atom_site_fract_z
Si Si1 0.000000 0.417986 0.500000
Si Si2 0.609901 0.719127 0.244418
Si Si3 0.318743 0.150171 0.163706
Si Si4 0.345783 0.500000 0.162542
Si Si5 0.222226 0.808629 0.761243
Si Si6 0.759062 0.000000 0.708853
Si Si7 0.789859 0.404979 0.849478
O O1 0.969525 0.382480 0.325728
O O2 0.839767 0.453465 0.413814
O O3 0.743588 0.678253 0.277646
O O4 0.698478 0.769409 0.310168
O O5 0.468920 0.706172 0.298713
O O6 0.500000 0.720572 0.000000
O O7 0.208643 0.111955 0.986674
O O8 0.333712 0.186499 0.012306
O O9 0.547196 0.500000 0.241819
O O10 0.253664 0.500000 0.915978
O O11 0.285267 0.454932 0.229922
O O12 0.232277 0.861131 0.700060
O O13 0.000000 0.406883 0.000000
#
# Coordination Sequence:
#
# PCOD9170286 Si02
#       7
#     4   8   8   4   8   4   8
#     4  11  20  38  54  88 122 160 190 233 314 362
#     4  10  17  30  54  87 116 144 201 242 293 332
#     4   9  20  30  55  82 113 158 190 233 289 358
#     4  11  21  38  59  94 113 146 209 250 293 338
#     4   9  20  31  57  90 115 152 194 255 292 341
#     4  10  22  34  63  84 119 150 198 255 293 352
#     4  10  21  34  56  89 119 149 193 254 294 340
#
# _framework density 25.581253
#
# number of rings (size 3 to 8) (size 9 to 14) (size 15 to 20)
#    1.091    1.091    1.818    3.000    5.091    0.000 
#    0.000    0.000    0.000   12.000    0.000    0.000 
#    0.000    0.000    0.000    0.000    0.000    0.000 
#
# Total GULP energy -122797.869939 kJ/mol
# GULP energy per Si atom -5581.721361 kJ/mol
# Density = 2.552303 g / cm^3
# Si number density = 25.581253 Si / 1000 Ang^3
#
#
#
# Elastic Constant Matrix: (Units=GPa)
#
#
# Indices 1 2 3 4 5 6 
#
# 1 130.4787 102.7755 34.0475 0.0000 13.1917 0.0000
# 2 102.7755 242.3770 52.5578 0.0000 24.0035 0.0000
# 3 34.0475 52.5578 80.6715 0.0000 -3.2979 0.0000
# 4 0.0000 0.0000 0.0000 33.5883 0.0000 11.5795
# 5 13.1917 24.0035 -3.2979 0.0000 40.6347 0.0000
# 6 0.0000 0.0000 0.0000 11.5795 0.0000 -1.9506
#
#
#
# Elastic Compliance Matrix: (Units=1/GPa)
#
#
# Indices 1 2 3 4 5 6 
#
# 1 0.011853 -0.004411 -0.002187 0.000000 -0.001420 0.000000
# 2 -0.004411 0.006871 -0.002731 0.000000 -0.002848 0.000000
# 3 -0.002187 -0.002731 0.015243 0.000000 0.003560 0.000000
# 4 0.000000 0.000000 0.000000 0.009772 0.000000 0.058013
# 5 -0.001420 -0.002848 0.003560 0.000000 0.027042 0.000000
# 6 0.000000 0.000000 0.000000 0.058013 0.000000 -0.168277
#
#
# Mechanical properties :
#
#
# Convention : Reuss Voigt Hill
#
# Bulk Modulus (GPa) = 65.31887 92.47653 78.89770
# Shear Modulus (GPa) = -67.81020 32.06424 -17.87298
#
# Velocity S-wave (km/s) = -5.15416 3.54422 -2.64611
# Velocity P-wave (km/s) = 3.13546 7.27855 4.64468
#
# Compressibility (1/GPa) = 0.01530951
#
# Stress axis : x y z
#
# Youngs Moduli (GPa) = 84.36810 145.54915 65.60175
#
# Poissons Ratio (x) = 0.64205 0.14344
# Poissons Ratio (y) = 0.37217 0.17915
# Poissons Ratio (z) = 0.18448 0.39747
#
# Static dielectric constant tensor:
#      x y z
#    x 2.069100 0.000000 -0.036250 
#    y 0.000000 2.016990 0.000000 
#    z -0.036250 0.000000 2.121040 
# 
# From -- ./inp_files/125446.got.cif
#   From: 2010.05.17/outbox.cif.g08.bks.cpg/sg12_63_cif.got.tgz:125446.got - 2010.06.03 13:09:07.
