data_PCOD9170459
_publ_section_title
;
Structure prediction by ZEFSAII (Michael W. Deem and Ramdas Pophale) SiO2 
 PCOD9170459
Probable space group: C 2/M
;
_chemical_formula_sum "Si O2"
_cell_formula_units_Z 64
_cell_length_a 18.145806
_cell_length_b 19.220644
_cell_length_c 21.693023
_cell_angle_alpha 90.000000
_cell_angle_beta 159.363723
_cell_angle_gamma 90.000000
_cell_volume 2666.504852
_symmetry_space_group_name_H-M "C 2/M"
_symmetry_group_IT_number 12
_symmetry_cell_setting 'monoclinic'
loop_
_space_group_symop_operation_xyz
x,y,z
-x,y,-z
-x,-y,-z
x,-y,z
1/2+x,1/2+y,z
1/2-x,1/2+y,-z
1/2-x,1/2-y,-z
1/2+x,1/2-y,z
loop_
_atom_site_type_symbol
_atom_site_label
_atom_site_fract_x
_atom_site_fract_y
_atom_site_fract_z
Si Si1 0.009231 0.076845 0.173625
Si Si2 0.288550 0.291640 0.608787
Si Si3 0.036721 0.920842 0.626470
Si Si4 0.354351 0.148614 0.628621
Si Si5 0.187153 0.423461 0.032554
Si Si6 0.370155 0.819720 0.834569
Si Si7 0.371284 0.184785 0.342512
Si Si8 0.279517 0.919873 0.164304
O O1 0.138519 0.143636 0.293737
O O2 0.109867 0.000000 0.260254
O O3 0.815338 0.077950 0.069753
O O4 0.924572 0.083118 0.038256
O O5 0.419845 0.220788 0.712570
O O6 0.285978 0.321986 0.537812
O O7 0.050031 0.275320 0.442098
O O8 0.170827 0.869042 0.689758
O O9 0.798744 0.897025 0.449798
O O10 0.047595 0.000000 0.613162
O O11 0.152626 0.919138 0.784336
O O12 0.535280 0.106370 0.736172
O O13 0.083528 0.500000 0.956906
O O14 0.026061 0.360690 0.912000
O O15 0.287228 0.742746 0.756127
O O16 0.500000 0.814318 0.000000
O O17 0.500000 0.152594 0.500000
O O18 0.277437 0.129579 0.221777
O O19 0.315212 0.000000 0.209752
#
# Coordination Sequence:
#
# PCOD9170459 Si02
#       8
#     8   8   8   8   8   8   8   8
#     4  10  21  40  66  98 134 170 213 271 331 390
#     4  10  21  37  62  94 131 169 219 264 318 385
#     4  10  17  31  59  94 132 177 217 258 310 372
#     4  10  19  34  61  93 133 170 213 268 317 376
#     4   9  18  33  60  99 135 172 218 256 309 389
#     4  10  21  37  62  90 134 176 218 260 317 381
#     4  11  25  44  65  92 127 168 217 270 333 401
#     4  10  24  43  65  94 125 162 217 278 335 391
#
# _framework density 24.001456999999998
#
# number of rings (size 3 to 8) (size 9 to 14) (size 15 to 20)
#    0.000    2.000    2.500    0.750    0.000    6.250 
#    0.000    0.000    0.000    2.625    0.000    0.000 
#    0.000    0.000    0.000    0.000    0.000    0.000 
#
# Total GULP energy -179042.996748 kJ/mol
# GULP energy per Si atom -5595.093648 kJ/mol
# Density = 2.394683 g / cm^3
# Si number density = 24.001457 Si / 1000 Ang^3
#
#
#
# Elastic Constant Matrix: (Units=GPa)
#
#
# Indices 1 2 3 4 5 6 
#
# 1 72.6591 41.8219 23.9948 0.0193 6.1669 -0.0367
# 2 41.8219 195.0515 58.4349 -0.0170 1.0324 -0.0184
# 3 23.9948 58.4349 57.1774 -0.1605 -11.7679 -0.0300
# 4 0.0193 -0.0170 -0.1605 39.1200 -0.0311 5.6825
# 5 6.1669 1.0324 -11.7679 -0.0311 39.0176 0.0161
# 6 -0.0367 -0.0184 -0.0300 5.6825 0.0161 21.9716
#
#
#
# Elastic Compliance Matrix: (Units=1/GPa)
#
#
# Indices 1 2 3 4 5 6 
#
# 1 0.017284 -0.001764 -0.006400 -0.000044 -0.004616 0.000033
# 2 -0.001764 0.007833 -0.007730 -0.000030 -0.002260 0.000002
# 3 -0.006400 -0.007730 0.030201 0.000135 0.010325 -0.000018
# 4 -0.000044 -0.000030 0.000135 0.026561 0.000072 -0.006869
# 5 -0.004616 -0.002260 0.010325 0.000072 0.029533 -0.000036
# 6 0.000033 0.000002 -0.000018 -0.006869 -0.000036 0.047290
#
#
# Mechanical properties :
#
#
# Convention : Reuss Voigt Hill
#
# Bulk Modulus (GPa) = 42.50179 63.71011 53.10595
# Shear Modulus (GPa) = 25.21012 33.39759 29.30386
#
# Velocity S-wave (km/s) = 3.24444 3.73430 3.49796
# Velocity P-wave (km/s) = 5.63752 6.72274 6.20391
#
# Compressibility (1/GPa) = 0.02352842
#
# Stress axis : x y z
#
# Youngs Moduli (GPa) = 57.85807 127.66732 33.11156
#
# Poissons Ratio (x) = 0.22520 0.21193
# Poissons Ratio (y) = 0.10206 0.25596
# Poissons Ratio (z) = 0.37032 0.98688
#
# Static dielectric constant tensor:
#      x y z
#    x 1.925240 -0.000010 -0.019800 
#    y -0.000010 1.894330 -0.000040 
#    z -0.019800 -0.000040 1.946100 
# 
# From -- ./inp_files/347908.got.cif
#   From: 2010.05.17/outbox.cif.g08.bks.cpg/sg12_174_cif.got.tgz:347908.got - 2010.06.03 13:09:07.
