data_PCOD9170501
_publ_section_title
;
Structure prediction by ZEFSAII (Michael W. Deem and Ramdas Pophale) SiO2 
 PCOD9170501
Probable space group: C 2/M
;
_chemical_formula_sum "Si O2"
_cell_formula_units_Z 56
_cell_length_a 8.314909
_cell_length_b 26.521560
_cell_length_c 14.182388
_cell_angle_alpha 90.000000
_cell_angle_beta 69.237500
_cell_angle_gamma 90.000000
_cell_volume 2924.451542
_symmetry_space_group_name_H-M "C 2/M"
_symmetry_group_IT_number 12
_symmetry_cell_setting 'monoclinic'
loop_
_space_group_symop_operation_xyz
x,y,z
-x,y,-z
-x,-y,-z
x,-y,z
1/2+x,1/2+y,z
1/2-x,1/2+y,-z
1/2-x,1/2-y,-z
1/2+x,1/2-y,z
loop_
_atom_site_type_symbol
_atom_site_label
_atom_site_fract_x
_atom_site_fract_y
_atom_site_fract_z
Si Si1 0.257186 0.632184 0.135713
Si Si2 0.188101 0.404706 0.942803
Si Si3 0.971415 0.147209 0.660535
Si Si4 0.114174 0.662773 0.777150
Si Si5 0.380134 0.720185 0.224832
Si Si6 0.980249 0.942858 0.214112
Si Si7 0.199253 0.701989 0.447327
O O1 0.342083 0.686009 0.142591
O O2 0.355616 0.588437 0.171001
O O3 0.062885 0.636319 0.214692
O O4 0.251038 0.620226 0.026816
O O5 0.161885 0.362942 0.866984
O O6 0.333493 0.441455 0.874267
O O7 0.000000 0.427791 0.000000
O O8 0.979665 0.188746 0.744364
O O9 0.001922 0.091981 0.696973
O O10 0.142596 0.162880 0.568250
O O11 0.772996 0.153135 0.672709
O O12 0.078734 0.721924 0.798236
O O13 0.221672 0.717125 0.332292
O O14 0.925503 0.000000 0.242221
O O15 0.250000 0.750000 0.500000
O O16 0.000000 0.687010 0.500000
#
# Coordination Sequence:
#
# PCOD9170501 Si02
#       7
#     8   8   8   8   8   8   8
#     4  10  20  33  50  75 107 143 184 228 258 313
#     4   9  20  34  50  78 108 142 184 226 258 311
#     4   8  19  33  50  79 106 142 172 222 260 324
#     4  10  17  32  51  71 112 147 178 212 272 315
#     4   9  19  31  51  76 107 147 171 216 260 329
#     4  10  20  37  57  75 103 142 184 229 272 309
#     4  10  20  33  53  82 110 137 174 215 265 323
#
# _framework density 19.148890999999999
#
# number of rings (size 3 to 8) (size 9 to 14) (size 15 to 20)
#    0.857    1.714    0.000    2.143    2.000    2.000 
#    0.000   12.857    0.000    0.429    0.000    0.000 
#    0.000    6.286    0.000    0.000    0.000    0.000 
#
# Total GULP energy -155928.362229 kJ/mol
# GULP energy per Si atom -5568.870080 kJ/mol
# Density = 1.910531 g / cm^3
# Si number density = 19.148891 Si / 1000 Ang^3
#
#
#
# Elastic Constant Matrix: (Units=GPa)
#
#
# Indices 1 2 3 4 5 6 
#
# 1 76.1271 39.3527 13.5351 0.0000 -34.0093 0.0000
# 2 39.3527 128.7031 22.9761 0.0000 -7.7671 0.0000
# 3 13.5351 22.9761 43.1269 0.0000 -13.8669 0.0000
# 4 0.0000 0.0000 0.0000 9.2891 0.0000 -7.8051
# 5 -34.0093 -7.7671 -13.8669 0.0000 36.2089 0.0000
# 6 0.0000 0.0000 0.0000 -7.8051 0.0000 4.5179
#
#
#
# Elastic Compliance Matrix: (Units=1/GPa)
#
#
# Indices 1 2 3 4 5 6 
#
# 1 0.028169 -0.007689 0.003686 0.000000 0.026220 0.000000
# 2 -0.007689 0.010685 -0.005548 0.000000 -0.007054 0.000000
# 3 0.003686 -0.005548 0.029328 0.000000 0.013504 0.000000
# 4 0.000000 0.000000 0.000000 -0.238377 0.000000 -0.411818
# 5 0.026220 -0.007054 0.013504 0.000000 0.055903 0.000000
# 6 0.000000 0.000000 0.000000 -0.411818 0.000000 -0.490114
#
#
# Mechanical properties :
#
#
# Convention : Reuss Voigt Hill
#
# Bulk Modulus (GPa) = 20.37417 44.40944 32.39180
# Shear Modulus (GPa) = -8.78821 21.47605 6.34392
#
# Velocity S-wave (km/s) = -2.14461 3.35256 1.82212
# Velocity P-wave (km/s) = 2.12849 6.18290 4.62378
#
# Compressibility (1/GPa) = 0.04908176
#
# Stress axis : x y z
#
# Youngs Moduli (GPa) = 35.50050 93.58551 34.09689
#
# Poissons Ratio (x) = 0.71955 -0.12569
# Poissons Ratio (y) = 0.27295 0.18916
# Poissons Ratio (z) = -0.13086 0.51920
#
# Static dielectric constant tensor:
#      x y z
#    x 1.749980 0.000000 -0.017220 
#    y 0.000000 1.618310 0.000000 
#    z -0.017220 0.000000 1.721500 
# 
# From -- ./inp_files/199308.got.cif
#   From: 2010.05.17/outbox.cif.g08.bks.cpg/sg12_100_cif.got.tgz:199308.got - 2010.06.03 13:09:07.
