data_PCOD9170847
_publ_section_title
;
Structure prediction by ZEFSAII (Michael W. Deem and Ramdas Pophale) SiO2 
 PCOD9170847
Probable space group: C 2/M
;
_chemical_formula_sum "Si O2"
_cell_formula_units_Z 44
_cell_length_a 13.800520
_cell_length_b 13.643784
_cell_length_c 21.877339
_cell_angle_alpha 90.000000
_cell_angle_beta 150.293055
_cell_angle_gamma 90.000000
_cell_volume 2041.382993
_symmetry_space_group_name_H-M "C 2/M"
_symmetry_group_IT_number 12
_symmetry_cell_setting 'monoclinic'
loop_
_space_group_symop_operation_xyz
x,y,z
-x,y,-z
-x,-y,-z
x,-y,z
1/2+x,1/2+y,z
1/2-x,1/2+y,-z
1/2-x,1/2-y,-z
1/2+x,1/2-y,z
loop_
_atom_site_type_symbol
_atom_site_label
_atom_site_fract_x
_atom_site_fract_y
_atom_site_fract_z
Si Si1 0.418950 0.718581 0.331178
Si Si2 0.132113 0.890075 0.130624
Si Si3 0.296947 0.639404 0.043359
Si Si4 0.889524 0.606551 0.763563
Si Si5 0.586354 0.686244 0.297158
Si Si6 0.000000 0.320628 0.500000
O O1 0.291230 0.808216 0.232948
O O2 0.272896 0.635237 0.275433
O O3 0.563639 0.686401 0.357246
O O4 0.513335 0.757720 0.445341
O O5 0.976546 0.893773 0.099966
O O6 0.213596 0.000000 0.164738
O O7 0.000000 0.862356 0.000000
O O8 0.388723 0.638913 0.160972
O O9 0.250000 0.750000 0.000000
O O10 0.092387 0.595765 0.911191
O O11 0.847478 0.500000 0.711172
O O12 0.902238 0.701786 0.725132
O O13 0.783924 0.632423 0.381594
#
# Coordination Sequence:
#
# PCOD9170847 Si02
#       6
#     8   8   8   8   8   4
#     4  11  22  38  64  90 127 158 206 254 313 363
#     4  11  21  34  59  90 119 158 204 248 303 369
#     4  10  17  35  55  85 122 158 189 248 308 360
#     4  10  21  38  62  94 128 162 202 251 311 375
#     4  10  21  37  65  86 119 164 210 251 304 362
#     4  10  20  42  62  88 116 170 206 252 302 362
#
# _framework density 21.554015
#
# number of rings (size 3 to 8) (size 9 to 14) (size 15 to 20)
#    0.000    1.636    5.455    3.273    0.000    2.182 
#    0.000   10.455    0.000    4.364    0.000    0.000 
#    0.000    0.000    0.000    0.000    0.000    0.000 
#
# Total GULP energy -122575.963885 kJ/mol
# GULP energy per Si atom -5571.634722 kJ/mol
# Density = 2.150496 g / cm^3
# Si number density = 21.554015 Si / 1000 Ang^3
#
#
#
# Elastic Constant Matrix: (Units=GPa)
#
#
# Indices 1 2 3 4 5 6 
#
# 1 115.4563 -21.5355 9.5671 0.0008 -5.8187 0.0021
# 2 -21.5355 72.8209 -6.0054 -0.0002 2.0621 -0.0021
# 3 9.5671 -6.0054 78.1264 -0.0016 -4.0484 -0.0106
# 4 0.0008 -0.0002 -0.0016 181.0940 0.0013 584.3865
# 5 -5.8187 2.0621 -4.0484 0.0013 46.1032 0.0027
# 6 0.0021 -0.0021 -0.0106 584.3865 0.0027 1722.8526
#
#
#
# Elastic Compliance Matrix: (Units=1/GPa)
#
#
# Indices 1 2 3 4 5 6 
#
# 1 0.009277 0.002643 -0.000882 0.000000 0.000975 0.000000
# 2 0.002643 0.014586 0.000785 0.000001 -0.000250 0.000000
# 3 -0.000882 0.000785 0.013020 0.000002 0.000997 0.000000
# 4 0.000000 0.000001 0.000002 -0.058383 0.000001 0.019803
# 5 0.000975 -0.000250 0.000997 0.000001 0.021912 0.000000
# 6 0.000000 0.000000 0.000000 0.019803 0.000000 -0.006137
#
#
# Mechanical properties :
#
#
# Convention : Reuss Voigt Hill
#
# Bulk Modulus (GPa) = 23.82507 25.60622 24.71564
# Shear Modulus (GPa) = 1575.05322 408.96845 992.01084
#
# Velocity S-wave (km/s) = 27.06166 13.78960 21.47657
# Velocity P-wave (km/s) = 31.42487 16.29243 25.02964
#
# Compressibility (1/GPa) = 0.04197260
#
# Stress axis : x y z
#
# Youngs Moduli (GPa) = 107.79906 68.56018 76.80624
#
# Poissons Ratio (x) = -0.18120 0.06776
# Poissons Ratio (y) = -0.28491 -0.06026
# Poissons Ratio (z) = 0.09511 -0.05379
#
# Static dielectric constant tensor:
#      x y z
#    x 1.780100 0.000000 -0.004320 
#    y 0.000000 1.839730 0.000000 
#    z -0.004320 0.000000 1.860770 
# 
# From -- ./inp_files/142627.got.cif
#   From: 2010.05.17/outbox.cif.g08.bks.cpg/sg12_72_cif.got.tgz:142627.got - 2010.06.03 13:09:07.
