data_PCOD9170174
_publ_section_title
;
Structure prediction by ZEFSAII (Michael W. Deem and Ramdas Pophale) SiO2 
 PCOD9170174
Probable space group: C 2/M
;
_chemical_formula_sum "Si O2"
_cell_formula_units_Z 56
_cell_length_a 23.516329
_cell_length_b 7.836015
_cell_length_c 20.981409
_cell_angle_alpha 90.000000
_cell_angle_beta 125.607828
_cell_angle_gamma 90.000000
_cell_volume 3143.412077
_symmetry_space_group_name_H-M "C 2/M"
_symmetry_group_IT_number 12
_symmetry_cell_setting 'monoclinic'
loop_
_space_group_symop_operation_xyz
x,y,z
-x,y,-z
-x,-y,-z
x,-y,z
1/2+x,1/2+y,z
1/2-x,1/2+y,-z
1/2-x,1/2-y,-z
1/2+x,1/2-y,z
loop_
_atom_site_type_symbol
_atom_site_label
_atom_site_fract_x
_atom_site_fract_y
_atom_site_fract_z
Si Si1 0.465836 0.803748 0.179885
Si Si2 0.517108 0.795231 0.663616
Si Si3 0.190327 0.201639 0.911150
Si Si4 0.507986 0.500000 0.898356
Si Si5 0.225984 0.304839 0.162283
Si Si6 0.116647 0.000000 0.081346
Si Si7 0.068496 0.202768 0.506805
Si Si8 0.345647 0.200368 0.324365
O O1 0.485088 0.744270 0.264212
O O2 0.381395 0.798664 0.123174
O O3 0.492326 0.668437 0.145710
O O4 0.489082 0.000000 0.185181
O O5 0.449994 0.743561 0.577999
O O6 0.587853 0.731537 0.673945
O O7 0.521511 0.000000 0.665574
O O8 0.221598 0.237007 0.861918
O O9 0.175162 0.000000 0.905543
O O10 0.250000 0.250000 0.000000
O O11 0.442878 0.500000 0.903749
O O12 0.577776 0.500000 0.987703
O O13 0.201487 0.500000 0.138214
O O14 0.164735 0.167127 0.120255
O O15 0.274614 0.288703 0.256230
O O16 0.133368 0.276744 0.588129
O O17 0.000000 0.270497 0.500000
O O18 0.071526 0.000000 0.516144
O O19 0.338012 0.000000 0.305510
#
# Coordination Sequence:
#
# PCOD9170174 Si02
#       8
#     8   8   8   4   8   4   8   8
#     4  11  22  37  59  87 118 152 192 241 292 348
#     4   9  18  30  48  77 116 157 190 228 283 347
#     4  11  22  33  53  84 119 151 185 232 292 357
#     4  11  26  46  64  84 111 154 205 247 288 347
#     4  11  23  37  58  87 117 152 194 240 292 350
#     4  11  26  46  64  82 113 154 203 249 290 339
#     4   9  17  26  42  71 114 159 193 226 270 338
#     4  10  17  30  50  76 118 158 190 229 281 348
#
# _framework density 17.815035999999999
#
# number of rings (size 3 to 8) (size 9 to 14) (size 15 to 20)
#    0.000    1.714    2.857    2.143    3.000    4.571 
#    0.000    1.429    0.000    0.000    0.000    1.000 
#    0.000    0.000    0.000    0.000    0.000    0.000 
#
# Total GULP energy -156287.507476 kJ/mol
# GULP energy per Si atom -5581.696696 kJ/mol
# Density = 1.777449 g / cm^3
# Si number density = 17.815036 Si / 1000 Ang^3
#
#
#
# Elastic Constant Matrix: (Units=GPa)
#
#
# Indices 1 2 3 4 5 6 
#
# 1 36.2317 25.6563 6.1724 0.0000 -10.8675 0.0000
# 2 25.6563 73.5470 12.0218 0.0000 -7.5457 0.0000
# 3 6.1724 12.0218 86.1743 0.0000 -21.3980 0.0000
# 4 0.0000 0.0000 0.0000 24.4035 0.0000 -3.6511
# 5 -10.8675 -7.5457 -21.3980 0.0000 16.3328 0.0000
# 6 0.0000 0.0000 0.0000 -3.6511 0.0000 20.0488
#
#
#
# Elastic Compliance Matrix: (Units=1/GPa)
#
#
# Indices 1 2 3 4 5 6 
#
# 1 0.046251 -0.013834 0.006924 0.000000 0.033455 0.000000
# 2 -0.013834 0.018427 -0.002596 0.000000 -0.004093 0.000000
# 3 0.006924 -0.002596 0.018256 0.000000 0.027325 0.000000
# 4 0.000000 0.000000 0.000000 0.042126 0.000000 0.007672
# 5 0.033455 -0.004093 0.027325 0.000000 0.117395 0.000000
# 6 0.000000 0.000000 0.000000 0.007672 0.000000 0.051275
#
#
# Mechanical properties :
#
#
# Convention : Reuss Voigt Hill
#
# Bulk Modulus (GPa) = 15.64392 31.51711 23.58052
# Shear Modulus (GPa) = 14.96789 22.29718 18.63254
#
# Velocity S-wave (km/s) = 2.90174 3.54162 3.23753
# Velocity P-wave (km/s) = 4.47517 5.86974 5.21924
#
# Compressibility (1/GPa) = 0.06392260
#
# Stress axis : x y z
#
# Youngs Moduli (GPa) = 21.62114 54.26816 54.77744
#
# Poissons Ratio (x) = 0.75073 -0.37929
# Poissons Ratio (y) = 0.29910 0.14220
# Poissons Ratio (z) = -0.14971 0.14088
#
# Static dielectric constant tensor:
#      x y z
#    x 1.582110 0.000000 -0.020050 
#    y 0.000000 1.631560 0.000000 
#    z -0.020050 0.000000 1.653710 
# 
# From -- ./inp_files/323840.got.cif
#   From: 2010.05.17/outbox.cif.g08.bks.cpg/sg12_162_cif.got.tgz:323840.got - 2010.06.03 13:09:07.
