data_PCOD9170936
_publ_section_title
;
Structure prediction by ZEFSAII (Michael W. Deem and Ramdas Pophale) SiO2 
 PCOD9170936
Probable space group: C 2/M
;
_chemical_formula_sum "Si O2"
_cell_formula_units_Z 52
_cell_length_a 8.199039
_cell_length_b 25.296842
_cell_length_c 9.679122
_cell_angle_alpha 90.000000
_cell_angle_beta 76.807582
_cell_angle_gamma 90.000000
_cell_volume 1954.563814
_symmetry_space_group_name_H-M "C 2/M"
_symmetry_group_IT_number 12
_symmetry_cell_setting 'monoclinic'
loop_
_space_group_symop_operation_xyz
x,y,z
-x,y,-z
-x,-y,-z
x,-y,z
1/2+x,1/2+y,z
1/2-x,1/2+y,-z
1/2-x,1/2-y,-z
1/2+x,1/2-y,z
loop_
_atom_site_type_symbol
_atom_site_label
_atom_site_fract_x
_atom_site_fract_y
_atom_site_fract_z
Si Si1 0.331195 0.617186 0.945012
Si Si2 0.527197 0.000000 0.266604
Si Si3 0.463724 0.886732 0.660443
Si Si4 0.748587 0.500000 0.088595
Si Si5 0.608071 0.500000 0.676484
Si Si6 0.642319 0.806546 0.817764
Si Si7 0.399796 0.614539 0.332359
Si Si8 0.995825 0.773044 0.648750
O O1 0.255632 0.558300 0.984784
O O2 0.204274 0.667207 0.951417
O O3 0.421986 0.612191 0.777511
O O4 0.500000 0.627695 0.000000
O O5 0.474011 0.053590 0.348682
O O6 0.416565 0.000000 0.148792
O O7 0.730694 0.000000 0.250715
O O8 0.500000 0.867532 0.500000
O O9 0.556823 0.854879 0.757862
O O10 0.266065 0.883831 0.730247
O O11 0.567762 0.500000 0.204793
O O12 0.619492 0.556399 0.595549
O O13 0.807071 0.789720 0.705595
O O14 0.533056 0.755997 0.788701
O O15 0.397928 0.673136 0.395266
O O16 0.000000 0.743602 0.500000
#
# Coordination Sequence:
#
# PCOD9170936 Si02
#       8
#     8   4   8   4   4   8   8   8
#     4  10  21  39  63  86 112 154 198 245 305 348
#     4  10  19  33  57  87 122 161 196 239 301 359
#     4  11  20  35  57  84 120 159 190 235 294 355
#     4  10  17  37  63  87 120 157 196 253 305 349
#     4   8  18  34  57  83 122 158 192 244 299 343
#     4  11  22  36  57  82 114 150 198 244 290 351
#     4   9  20  37  57  82 120 152 191 246 284 344
#     4  11  21  36  56  85 115 154 196 237 293 353
#
# _framework density 26.604403000000001
#
# number of rings (size 3 to 8) (size 9 to 14) (size 15 to 20)
#    0.000    1.846    1.538    3.231    0.000    0.000 
#    0.000    4.231    0.000    2.769    0.000    0.000 
#    0.000    0.000    0.000    0.000    0.000    0.000 
#
# Total GULP energy -144841.840778 kJ/mol
# GULP energy per Si atom -5570.840030 kJ/mol
# Density = 2.654385 g / cm^3
# Si number density = 26.604403 Si / 1000 Ang^3
#
#
#
# Elastic Constant Matrix: (Units=GPa)
#
#
# Indices 1 2 3 4 5 6 
#
# 1 113.9872 17.6521 25.3061 0.0000 20.8329 0.0000
# 2 17.6521 187.2699 39.3490 0.0000 19.1841 0.0000
# 3 25.3061 39.3490 79.5239 0.0000 22.6106 0.0000
# 4 0.0000 0.0000 0.0000 26.1559 0.0000 20.6492
# 5 20.8329 19.1841 22.6106 0.0000 45.0721 0.0000
# 6 0.0000 0.0000 0.0000 20.6492 0.0000 5.1819
#
#
#
# Elastic Compliance Matrix: (Units=1/GPa)
#
#
# Indices 1 2 3 4 5 6 
#
# 1 0.009892 -0.000137 -0.002095 0.000000 -0.003463 0.000000
# 2 -0.000137 0.006021 -0.002595 0.000000 -0.001197 0.000000
# 3 -0.002095 -0.002595 0.016255 0.000000 -0.006081 0.000000
# 4 0.000000 0.000000 0.000000 -0.017816 0.000000 0.070996
# 5 -0.003463 -0.001197 -0.006081 0.000000 0.027347 0.000000
# 6 0.000000 0.000000 0.000000 0.070996 0.000000 -0.089929
#
#
# Mechanical properties :
#
#
# Convention : Reuss Voigt Hill
#
# Bulk Modulus (GPa) = 44.42048 60.59948 52.50998
# Shear Modulus (GPa) = -160.92308 35.18024 -62.87142
#
# Velocity S-wave (km/s) = -7.78580 3.64035 -4.86655
# Velocity P-wave (km/s) = 8.00575 6.36373 3.43475
#
# Compressibility (1/GPa) = 0.02251214
#
# Stress axis : x y z
#
# Youngs Moduli (GPa) = 101.08928 166.09250 61.52076
#
# Poissons Ratio (x) = 0.02283 0.12891
# Poissons Ratio (y) = 0.01389 0.15964
# Poissons Ratio (z) = 0.21182 0.43100
#
# Static dielectric constant tensor:
#      x y z
#    x 2.085800 0.000000 0.018490 
#    y 0.000000 2.184240 0.000000 
#    z 0.018490 0.000000 2.209020 
# 
# From -- ./inp_files/123810.got.cif
#   From: 2010.05.17/outbox.cif.g08.bks.cpg/sg12_62_cif.got.tgz:123810.got - 2010.06.03 13:09:07.
