data_PCOD9170640
_publ_section_title
;
Structure prediction by ZEFSAII (Michael W. Deem and Ramdas Pophale) SiO2 
 PCOD9170640
Probable space group: C 2/M
;
_chemical_formula_sum "Si O2"
_cell_formula_units_Z 44
_cell_length_a 29.689042
_cell_length_b 16.672981
_cell_length_c 9.645252
_cell_angle_alpha 90.000000
_cell_angle_beta 30.686168
_cell_angle_gamma 90.000000
_cell_volume 2436.568622
_symmetry_space_group_name_H-M "C 2/M"
_symmetry_group_IT_number 12
_symmetry_cell_setting 'monoclinic'
loop_
_space_group_symop_operation_xyz
x,y,z
-x,y,-z
-x,-y,-z
x,-y,z
1/2+x,1/2+y,z
1/2-x,1/2+y,-z
1/2-x,1/2-y,-z
1/2+x,1/2-y,z
loop_
_atom_site_type_symbol
_atom_site_label
_atom_site_fract_x
_atom_site_fract_y
_atom_site_fract_z
Si Si1 0.641280 0.407182 0.564549
Si Si2 0.356508 0.406233 0.122218
Si Si3 0.042012 0.165035 0.580526
Si Si4 0.500000 0.812310 0.500000
Si Si5 0.783556 0.834737 0.055259
Si Si6 0.309234 0.144482 0.965402
O O1 0.608176 0.500000 0.645519
O O2 0.645806 0.380335 0.711600
O O3 0.580980 0.348565 0.631016
O O4 0.738571 0.404665 0.239946
O O5 0.339239 0.500000 0.165496
O O6 0.288599 0.364453 0.197957
O O7 0.454758 0.388142 0.806409
O O8 0.012864 0.252000 0.598076
O O9 0.124435 0.141080 0.264799
O O10 0.589768 0.862389 0.257012
O O11 0.707995 0.867445 0.153298
O O12 0.783457 0.738308 0.056124
#
# Coordination Sequence:
#
# PCOD9170640 Si02
#       6
#     8   8   8   4   8   8
#     4  10  22  34  49  75 111 141 165 205 251 303
#     4  11  20  31  49  78 111 139 164 199 252 313
#     4  10  17  33  50  76 106 133 168 199 252 300
#     4  10  18  36  58  76  96 132 172 230 248 288
#     4   9  18  32  51  74  99 136 169 213 249 296
#     4   9  18  35  53  71 100 130 176 216 251 295
#
# _framework density 18.058184000000001
#
# number of rings (size 3 to 8) (size 9 to 14) (size 15 to 20)
#    0.000    2.182    3.636    2.182    0.000    6.545 
#    0.000    0.455    0.000    0.000    0.000    2.545 
#    0.000    0.000    0.000    0.000    0.000    0.000 
#
# Total GULP energy -122547.332620 kJ/mol
# GULP energy per Si atom -5570.333301 kJ/mol
# Density = 1.801708 g / cm^3
# Si number density = 18.058184 Si / 1000 Ang^3
#
#
#
# Elastic Constant Matrix: (Units=GPa)
#
#
# Indices 1 2 3 4 5 6 
#
# 1 142.5466 36.0204 32.5603 0.0000 5.2519 0.0000
# 2 36.0204 22.0164 12.7426 0.0000 11.9246 0.0000
# 3 32.5603 12.7426 28.9084 0.0000 -7.2342 0.0000
# 4 0.0000 0.0000 0.0000 24.4115 0.0000 -1.0851
# 5 5.2519 11.9246 -7.2342 0.0000 38.4944 0.0000
# 6 0.0000 0.0000 0.0000 -1.0851 0.0000 15.0478
#
#
#
# Elastic Compliance Matrix: (Units=1/GPa)
#
#
# Indices 1 2 3 4 5 6 
#
# 1 0.013272 -0.021066 -0.004704 0.000000 0.003831 0.000000
# 2 -0.021066 0.131737 -0.045998 0.000000 -0.046579 0.000000
# 3 -0.004704 -0.045998 0.067045 0.000000 0.027490 0.000000
# 4 0.000000 0.000000 0.000000 0.041096 0.000000 0.002963
# 5 0.003831 -0.046579 0.027490 0.000000 0.045051 0.000000
# 6 0.000000 0.000000 0.000000 0.002963 0.000000 0.066669
#
#
# Mechanical properties :
#
#
# Convention : Reuss Voigt Hill
#
# Bulk Modulus (GPa) = 14.59458 39.56867 27.08162
# Shear Modulus (GPa) = 9.41187 23.06727 16.23957
#
# Velocity S-wave (km/s) = 2.28545 3.57793 3.00207
# Velocity P-wave (km/s) = 3.88122 6.24725 5.20058
#
# Compressibility (1/GPa) = 0.06851859
#
# Stress axis : x y z
#
# Youngs Moduli (GPa) = 75.34774 7.59087 14.91538
#
# Poissons Ratio (x) = 0.15991 0.07016
# Poissons Ratio (y) = 1.58728 0.68607
# Poissons Ratio (z) = 0.35443 0.34916
#
# Static dielectric constant tensor:
#      x y z
#    x 1.676600 0.000000 -0.002040 
#    y 0.000000 1.619070 0.000000 
#    z -0.002040 0.000000 1.635610 
# 
# From -- ./inp_files/76492.got.cif
#   From: 2010.05.17/outbox.cif.g08.bks.cpg/sg12_39_cif.got.tgz:76492.got - 2010.06.03 13:09:07.
