data_PCOD9170314
_publ_section_title
;
Structure prediction by ZEFSAII (Michael W. Deem and Ramdas Pophale) SiO2 
 PCOD9170314
Probable space group: C 2/M
;
_chemical_formula_sum "Si O2"
_cell_formula_units_Z 44
_cell_length_a 27.594969
_cell_length_b 7.794323
_cell_length_c 12.024311
_cell_angle_alpha 90.000000
_cell_angle_beta 50.561889
_cell_angle_gamma 90.000000
_cell_volume 1997.380682
_symmetry_space_group_name_H-M "C 2/M"
_symmetry_group_IT_number 12
_symmetry_cell_setting 'monoclinic'
loop_
_space_group_symop_operation_xyz
x,y,z
-x,y,-z
-x,-y,-z
x,-y,z
1/2+x,1/2+y,z
1/2-x,1/2+y,-z
1/2-x,1/2-y,-z
1/2+x,1/2-y,z
loop_
_atom_site_type_symbol
_atom_site_label
_atom_site_fract_x
_atom_site_fract_y
_atom_site_fract_z
Si Si1 0.000000 0.251508 0.500000
Si Si2 0.707873 0.292143 0.246147
Si Si3 0.087738 0.211107 0.561652
Si Si4 0.377702 0.305982 0.823620
Si Si5 0.560086 0.699843 0.850541
Si Si6 0.653450 0.801507 0.899489
O O1 0.041216 0.309043 0.545817
O O2 0.059525 0.182410 0.341754
O O3 0.710618 0.500000 0.230367
O O4 0.658133 0.257097 0.416321
O O5 0.676194 0.228612 0.177610
O O6 0.777338 0.231620 0.172758
O O7 0.076380 0.265343 0.704438
O O8 0.076796 0.000000 0.564521
O O9 0.360270 0.500000 0.879052
O O10 0.384923 0.210763 0.929212
O O11 0.544848 0.500000 0.852943
O O12 0.617520 0.711692 0.852028
O O13 0.500000 0.779951 0.000000
O O14 0.660052 0.000000 0.858021
#
# Coordination Sequence:
#
# PCOD9170314 Si02
#       6
#     4   8   8   8   8   8
#     4  10  17  30  57  86 103 124 165 220 269 302
#     4   8  17  32  51  77 106 137 173 215 260 305
#     4   9  16  29  51  78 105 130 166 216 263 305
#     4  10  18  32  56  82 106 134 174 218 258 302
#     4  10  21  36  55  79 103 131 173 220 260 305
#     4  11  22  35  51  74 108 145 175 207 255 310
#
# _framework density 22.028851
#
# number of rings (size 3 to 8) (size 9 to 14) (size 15 to 20)
#    0.000    2.364    0.000    4.909    0.000    2.545 
#    0.000    1.364    0.000    5.455    0.000    0.000 
#    0.000    0.000    0.000    0.000    0.000    0.000 
#
# Total GULP energy -122547.748387 kJ/mol
# GULP energy per Si atom -5570.352199 kJ/mol
# Density = 2.197871 g / cm^3
# Si number density = 22.028851 Si / 1000 Ang^3
#
#
#
# Elastic Constant Matrix: (Units=GPa)
#
#
# Indices 1 2 3 4 5 6 
#
# 1 111.6053 -2.5951 68.0579 0.0000 11.6573 0.0000
# 2 -2.5951 33.2383 10.5130 0.0000 -0.5597 0.0000
# 3 68.0579 10.5130 123.5424 0.0000 27.0288 0.0000
# 4 0.0000 0.0000 0.0000 -15.0836 0.0000 -2.4182
# 5 11.6573 -0.5597 27.0288 0.0000 44.2298 0.0000
# 6 0.0000 0.0000 0.0000 -2.4182 0.0000 -11.1372
#
#
#
# Elastic Compliance Matrix: (Units=1/GPa)
#
#
# Indices 1 2 3 4 5 6 
#
# 1 0.013981 0.003754 -0.008341 0.000000 0.001460 0.000000
# 2 0.003754 0.032131 -0.005396 0.000000 0.002715 0.000000
# 3 -0.008341 -0.005396 0.014640 0.000000 -0.006816 0.000000
# 4 0.000000 0.000000 0.000000 -0.068688 0.000000 0.014914
# 5 0.001460 0.002715 -0.006816 0.000000 0.026424 0.000000
# 6 0.000000 0.000000 0.000000 0.014914 0.000000 -0.093028
#
#
# Mechanical properties :
#
#
# Convention : Reuss Voigt Hill
#
# Bulk Modulus (GPa) = 24.51793 46.70417 35.61105
# Shear Modulus (GPa) = -122.01886 16.42916 -52.79485
#
# Velocity S-wave (km/s) = -7.45055 2.73390 -4.90084
# Velocity P-wave (km/s) = 7.92844 5.58686 3.97789
#
# Compressibility (1/GPa) = 0.04078647
#
# Stress axis : x y z
#
# Youngs Moduli (GPa) = 71.52353 31.12217 68.30671
#
# Poissons Ratio (x) = -0.11684 0.56975
# Poissons Ratio (y) = -0.26853 0.36862
# Poissons Ratio (z) = 0.59658 0.16795
#
# Static dielectric constant tensor:
#      x y z
#    x 1.782860 0.000000 -0.017250 
#    y 0.000000 1.839540 0.000000 
#    z -0.017250 0.000000 1.788980 
# 
# From -- ./inp_files/172819.got.cif
#   From: 2010.05.17/outbox.cif.g08.bks.cpg/sg12_87_cif.got.tgz:172819.got - 2010.06.03 13:09:07.
