data_PCOD9170720
_publ_section_title
;
Structure prediction by ZEFSAII (Michael W. Deem and Ramdas Pophale) SiO2 
 PCOD9170720
Probable space group: C 2/M
;
_chemical_formula_sum "Si O2"
_cell_formula_units_Z 64
_cell_length_a 15.741554
_cell_length_b 17.413480
_cell_length_c 15.205162
_cell_angle_alpha 90.000000
_cell_angle_beta 130.658688
_cell_angle_gamma 90.000000
_cell_volume 3161.837451
_symmetry_space_group_name_H-M "C 2/M"
_symmetry_group_IT_number 12
_symmetry_cell_setting 'monoclinic'
loop_
_space_group_symop_operation_xyz
x,y,z
-x,y,-z
-x,-y,-z
x,-y,z
1/2+x,1/2+y,z
1/2-x,1/2+y,-z
1/2-x,1/2-y,-z
1/2+x,1/2-y,z
loop_
_atom_site_type_symbol
_atom_site_label
_atom_site_fract_x
_atom_site_fract_y
_atom_site_fract_z
Si Si1 0.009884 0.186034 0.268063
Si Si2 0.311532 0.089266 0.844383
Si Si3 0.774963 0.160559 0.036654
Si Si4 0.367776 0.173208 0.394742
Si Si5 0.756012 0.842917 0.516884
Si Si6 0.418329 0.851832 0.743851
Si Si7 0.639924 0.910685 0.794030
Si Si8 0.602390 0.665685 0.629657
O O1 0.115776 0.137548 0.373948
O O2 0.056527 0.260694 0.249324
O O3 0.907080 0.150034 0.145272
O O4 0.949946 0.206922 0.319576
O O5 0.296974 0.134272 0.926539
O O6 0.397540 0.122816 0.830107
O O7 0.188689 0.101590 0.717480
O O8 0.334829 0.000000 0.876105
O O9 0.750000 0.250000 0.000000
O O10 0.735962 0.112482 0.927088
O O11 0.500000 0.172355 0.500000
O O12 0.311478 0.135629 0.441101
O O13 0.343937 0.134530 0.285957
O O14 0.333241 0.263125 0.371341
O O15 0.750000 0.750000 0.500000
O O16 0.690753 0.874318 0.388202
O O17 0.524816 0.889225 0.766982
O O18 0.639623 0.000000 0.774367
O O19 0.500000 0.639808 0.500000
#
# Coordination Sequence:
#
# PCOD9170720 Si02
#       8
#     8   8   8   8   8   8   8   8
#     4  10  19  35  61  90 120 158 212 265 310 353
#     4  11  24  38  58  92 131 167 202 254 322 385
#     4  11  23  44  64  85 120 166 224 264 304 373
#     4  11  19  38  62  92 125 159 213 266 309 370
#     4  10  19  33  61  96 125 155 205 265 316 358
#     4  11  19  39  59  96 133 161 203 256 320 381
#     4  12  24  40  63  90 126 170 207 258 321 379
#     4  10  17  33  59  87 120 164 216 256 299 366
#
# _framework density 20.241395000000001
#
# number of rings (size 3 to 8) (size 9 to 14) (size 15 to 20)
#    0.000    1.250    3.750    6.000    0.000    1.000 
#    0.000    3.125    0.000    6.750    0.000    0.000 
#    0.000    0.000    0.000    0.000    0.000    0.000 
#
# Total GULP energy -178616.504634 kJ/mol
# GULP energy per Si atom -5581.765770 kJ/mol
# Density = 2.019532 g / cm^3
# Si number density = 20.241395 Si / 1000 Ang^3
#
#
#
# Elastic Constant Matrix: (Units=GPa)
#
#
# Indices 1 2 3 4 5 6 
#
# 1 116.9117 27.9688 38.9667 0.0000 -23.5355 0.0000
# 2 27.9688 29.9665 10.0085 0.0000 -4.9553 0.0000
# 3 38.9667 10.0085 125.8474 0.0000 -3.3826 0.0000
# 4 0.0000 0.0000 0.0000 5.4727 0.0000 3.7358
# 5 -23.5355 -4.9553 -3.3826 0.0000 40.6686 0.0000
# 6 0.0000 0.0000 0.0000 3.7358 0.0000 12.1747
#
#
#
# Elastic Compliance Matrix: (Units=1/GPa)
#
#
# Indices 1 2 3 4 5 6 
#
# 1 0.013323 -0.010365 -0.003135 0.000000 0.006187 0.000000
# 2 -0.010365 0.042993 -0.000231 0.000000 -0.000779 0.000000
# 3 -0.003135 -0.000231 0.008906 0.000000 -0.001102 0.000000
# 4 0.000000 0.000000 0.000000 0.231142 0.000000 -0.070926
# 5 0.006187 -0.000779 -0.001102 0.000000 0.027983 0.000000
# 6 0.000000 0.000000 0.000000 -0.070926 0.000000 0.103901
#
#
# Mechanical properties :
#
#
# Convention : Reuss Voigt Hill
#
# Bulk Modulus (GPa) = 26.48265 47.40151 36.94208
# Shear Modulus (GPa) = 10.67702 24.71533 17.69617
#
# Velocity S-wave (km/s) = 2.29919 3.49811 2.95999
# Velocity P-wave (km/s) = 4.49001 6.30751 5.47471
#
# Compressibility (1/GPa) = 0.03776057
#
# Stress axis : x y z
#
# Youngs Moduli (GPa) = 75.05595 23.25964 112.29014
#
# Poissons Ratio (x) = 0.24109 0.35200
# Poissons Ratio (y) = 0.77797 0.02591
# Poissons Ratio (z) = 0.23528 0.00537
#
# Static dielectric constant tensor:
#      x y z
#    x 1.742880 0.000000 0.015090 
#    y 0.000000 1.730400 0.000000 
#    z 0.015090 0.000000 1.755600 
# 
# From -- ./inp_files/216828.got.cif
#   From: 2010.05.17/outbox.cif.g08.bks.cpg/sg12_109_cif.got.tgz:216828.got - 2010.06.03 13:09:07.
