data_PCOD9170479
_publ_section_title
;
Structure prediction by ZEFSAII (Michael W. Deem and Ramdas Pophale) SiO2 
 PCOD9170479
Probable space group: C 2/M
;
_chemical_formula_sum "Si O2"
_cell_formula_units_Z 60
_cell_length_a 18.621574
_cell_length_b 22.830688
_cell_length_c 17.525931
_cell_angle_alpha 90.000000
_cell_angle_beta 25.107136
_cell_angle_gamma 90.000000
_cell_volume 3161.564220
_symmetry_space_group_name_H-M "C 2/M"
_symmetry_group_IT_number 12
_symmetry_cell_setting 'monoclinic'
loop_
_space_group_symop_operation_xyz
x,y,z
-x,y,-z
-x,-y,-z
x,-y,z
1/2+x,1/2+y,z
1/2-x,1/2+y,-z
1/2-x,1/2-y,-z
1/2+x,1/2-y,z
loop_
_atom_site_type_symbol
_atom_site_label
_atom_site_fract_x
_atom_site_fract_y
_atom_site_fract_z
Si Si1 0.905618 0.722989 0.267077
Si Si2 0.747407 0.745944 0.135847
Si Si3 0.500000 0.771681 0.500000
Si Si4 0.057831 0.931502 0.863688
Si Si5 0.908452 0.068157 0.844503
Si Si6 0.922164 0.386135 0.496420
Si Si7 0.435263 0.319742 0.360762
Si Si8 0.877084 0.358886 0.833187
O O1 0.716043 0.698810 0.436195
O O2 0.893078 0.785310 0.322902
O O3 0.985868 0.678182 0.251871
O O4 0.055684 0.728532 0.060426
O O5 0.660405 0.743779 0.303035
O O6 0.616859 0.705642 0.213146
O O7 0.730440 0.810000 0.111216
O O8 0.429349 0.816285 0.503759
O O9 0.232406 0.904327 0.670297
O O10 0.933560 0.927377 0.912109
O O11 0.090557 0.000000 0.845757
O O12 0.000000 0.904931 0.000000
O O13 0.042852 0.111331 0.675103
O O14 0.917818 0.000000 0.814055
O O15 0.729127 0.100207 0.008359
O O16 0.000000 0.411562 0.500000
O O17 0.033027 0.398743 0.316596
#
# Coordination Sequence:
#
# PCOD9170479 Si02
#       8
#     8   8   4   8   8   8   8   8
#     4  10  18  30  56  76  96 135 171 214 259 323
#     4  10  17  35  52  74 108 130 163 220 255 317
#     4   8  20  32  49  78 101 130 162 214 276 304
#     4  10  21  32  42  61  92 137 187 224 249 282
#     4  11  21  33  49  72 106 140 176 221 258 297
#     4   9  18  31  46  64  94 134 170 219 250 304
#     4  10  19  32  53  79  99 136 173 211 267 311
#     4  10  17  32  48  72  98 130 173 207 261 300
#
# _framework density 18.977948000000001
#
# number of rings (size 3 to 8) (size 9 to 14) (size 15 to 20)
#    0.400    1.733    2.667    2.400    0.000    1.867 
#    0.000    1.333    0.000    0.000    0.000    0.467 
#    0.000    1.067    0.000    0.000    0.000    0.000 
#
# Total GULP energy -167106.133384 kJ/mol
# GULP energy per Si atom -5570.204446 kJ/mol
# Density = 1.893475 g / cm^3
# Si number density = 18.977948 Si / 1000 Ang^3
#
#
#
# Elastic Constant Matrix: (Units=GPa)
#
#
# Indices 1 2 3 4 5 6 
#
# 1 6.4239 7.5546 4.2612 -0.0057 0.4902 -0.0034
# 2 7.5546 94.7476 39.6757 -0.0214 -8.8250 0.0026
# 3 4.2612 39.6757 147.6093 -0.0360 1.9266 -0.0036
# 4 -0.0057 -0.0214 -0.0360 -4.9699 0.0058 2.9509
# 5 0.4902 -8.8250 1.9266 0.0058 21.6451 0.0013
# 6 -0.0034 0.0026 -0.0036 2.9509 0.0013 12.5365
#
#
#
# Elastic Compliance Matrix: (Units=1/GPa)
#
#
# Indices 1 2 3 4 5 6 
#
# 1 0.173961 -0.014337 -0.001042 -0.000096 -0.009692 0.000074
# 2 -0.014337 0.013674 -0.003343 -0.000014 0.006197 -0.000005
# 3 -0.001042 -0.003343 0.007730 -0.000036 -0.002027 0.000011
# 4 -0.000096 -0.000014 -0.000036 -0.176537 0.000045 0.041554
# 5 -0.009692 0.006197 -0.002027 0.000045 0.049127 -0.000020
# 6 0.000074 -0.000005 0.000011 0.041554 -0.000020 0.069986
#
#
# Mechanical properties :
#
#
# Convention : Reuss Voigt Hill
#
# Bulk Modulus (GPa) = 6.33224 39.08488 22.70856
# Shear Modulus (GPa) = 21.92751 18.99495 20.46123
#
# Velocity S-wave (km/s) = 3.40284 3.16713 3.28709
# Velocity P-wave (km/s) = 4.33393 5.83214 5.13794
#
# Compressibility (1/GPa) = 0.15792208
#
# Stress axis : x y z
#
# Youngs Moduli (GPa) = 5.74842 73.12913 129.37274
#
# Poissons Ratio (x) = 1.04846 0.13478
# Poissons Ratio (y) = 0.08242 0.43243
# Poissons Ratio (z) = 0.00599 0.24444
#
# Static dielectric constant tensor:
#      x y z
#    x 1.738330 0.000000 0.010740 
#    y 0.000000 1.669950 0.000030 
#    z 0.010740 0.000030 1.746720 
# 
# From -- ./inp_files/326270.got.cif
#   From: 2010.05.17/outbox.cif.g08.bks.cpg/sg12_164_cif.got.tgz:326270.got - 2010.06.03 13:09:07.
