data_PCOD9170355
_publ_section_title
;
Structure prediction by ZEFSAII (Michael W. Deem and Ramdas Pophale) SiO2 
 PCOD9170355
Probable space group: C 2/M
;
_chemical_formula_sum "Si O2"
_cell_formula_units_Z 56
_cell_length_a 19.202253
_cell_length_b 25.683110
_cell_length_c 9.117585
_cell_angle_alpha 90.000000
_cell_angle_beta 136.888989
_cell_angle_gamma 90.000000
_cell_volume 3073.006958
_symmetry_space_group_name_H-M "C 2/M"
_symmetry_group_IT_number 12
_symmetry_cell_setting 'monoclinic'
loop_
_space_group_symop_operation_xyz
x,y,z
-x,y,-z
-x,-y,-z
x,-y,z
1/2+x,1/2+y,z
1/2-x,1/2+y,-z
1/2-x,1/2-y,-z
1/2+x,1/2-y,z
loop_
_atom_site_type_symbol
_atom_site_label
_atom_site_fract_x
_atom_site_fract_y
_atom_site_fract_z
Si Si1 0.307748 0.867049 0.204498
Si Si2 0.320573 0.939933 0.976890
Si Si3 0.190619 0.784682 0.179763
Si Si4 0.877106 0.273896 0.654281
Si Si5 0.620363 0.884862 0.217601
Si Si6 0.936282 0.442432 0.593039
Si Si7 0.066919 0.272253 0.743220
O O1 0.266604 0.908066 0.023075
O O2 0.225442 0.842756 0.189080
O O3 0.393911 0.897407 0.426590
O O4 0.365939 0.820371 0.210569
O O5 0.442280 0.940469 0.201252
O O6 0.289014 0.000000 0.913032
O O7 0.318141 0.906465 0.825226
O O8 0.121003 0.769041 0.213258
O O9 0.296554 0.759419 0.402698
O O10 0.142877 0.763440 0.955464
O O11 0.841670 0.328807 0.669733
O O12 0.982378 0.286077 0.735359
O O13 0.616400 0.929940 0.333286
O O14 0.500000 0.876548 0.000000
O O15 0.909235 0.500000 0.496285
O O16 0.000000 0.252598 0.500000
#
# Coordination Sequence:
#
# PCOD9170355 Si02
#       7
#     8   8   8   8   8   8   8
#     4  12  21  34  51  77 108 143 187 219 268 314
#     4  10  20  30  48  75 107 145 183 218 258 321
#     4  11  24  36  53  81 106 148 190 227 268 327
#     4  11  22  38  55  76 112 151 184 226 268 325
#     4  10  17  31  50  71 101 147 184 209 257 315
#     4  10  19  31  48  72 106 146 184 217 257 320
#     4  12  22  37  57  77 110 149 186 228 276 322
#
# _framework density 18.223192999999998
#
# number of rings (size 3 to 8) (size 9 to 14) (size 15 to 20)
#    0.000    1.143    2.857    6.429    0.000    2.857 
#    0.000    0.000    0.000    0.000    0.000    0.000 
#    0.000   11.429    0.000    0.143    0.000    0.000 
#
# Total GULP energy -156066.751997 kJ/mol
# GULP energy per Si atom -5573.812571 kJ/mol
# Density = 1.818172 g / cm^3
# Si number density = 18.223193 Si / 1000 Ang^3
#
#
#
# Elastic Constant Matrix: (Units=GPa)
#
#
# Indices 1 2 3 4 5 6 
#
# 1 61.7979 35.6360 11.2333 0.0000 -24.4401 0.0000
# 2 35.6360 85.1664 32.7298 0.0000 -10.2656 0.0000
# 3 11.2333 32.7298 77.3302 0.0000 -12.2286 0.0000
# 4 0.0000 0.0000 0.0000 19.3798 0.0000 -2.9703
# 5 -24.4401 -10.2656 -12.2286 0.0000 26.9536 0.0000
# 6 0.0000 0.0000 0.0000 -2.9703 0.0000 15.4165
#
#
#
# Elastic Compliance Matrix: (Units=1/GPa)
#
#
# Indices 1 2 3 4 5 6 
#
# 1 0.033539 -0.012537 0.004835 0.000000 0.027830 0.000000
# 2 -0.012537 0.018916 -0.007372 0.000000 -0.007508 0.000000
# 3 0.004835 -0.007372 0.016804 0.000000 0.009201 0.000000
# 4 0.000000 0.000000 0.000000 0.053170 0.000000 0.010244
# 5 0.027830 -0.007508 0.009201 0.000000 0.063650 0.000000
# 6 0.000000 0.000000 0.000000 0.010244 0.000000 0.066839
#
#
# Mechanical properties :
#
#
# Convention : Reuss Voigt Hill
#
# Bulk Modulus (GPa) = 25.56862 42.61031 34.08946
# Shear Modulus (GPa) = 16.88601 21.99636 19.44118
#
# Velocity S-wave (km/s) = 3.04735 3.47804 3.26979
# Velocity P-wave (km/s) = 5.14228 6.28985 5.74479
#
# Compressibility (1/GPa) = 0.03911044
#
# Stress axis : x y z
#
# Youngs Moduli (GPa) = 29.81631 52.86592 59.50837
#
# Poissons Ratio (x) = 0.66279 -0.28774
# Poissons Ratio (y) = 0.37381 0.43871
# Poissons Ratio (z) = -0.14417 0.38974
#
# Static dielectric constant tensor:
#      x y z
#    x 1.664150 0.000000 -0.041940 
#    y 0.000000 1.637590 0.000000 
#    z -0.041940 0.000000 1.708690 
# 
# From -- ./inp_files/90994.got.cif
#   From: 2010.05.17/outbox.cif.g08.bks.cpg/sg12_46_cif.got.tgz:90994.got - 2010.06.03 13:09:07.
