data_PCOD9170702
_publ_section_title
;
Structure prediction by ZEFSAII (Michael W. Deem and Ramdas Pophale) SiO2 
 PCOD9170702
Probable space group: C 2/M
;
_chemical_formula_sum "Si O2"
_cell_formula_units_Z 40
_cell_length_a 29.298781
_cell_length_b 9.863300
_cell_length_c 13.353504
_cell_angle_alpha 90.000000
_cell_angle_beta 147.561997
_cell_angle_gamma 90.000000
_cell_volume 2069.879372
_symmetry_space_group_name_H-M "C 2/M"
_symmetry_group_IT_number 12
_symmetry_cell_setting 'monoclinic'
loop_
_space_group_symop_operation_xyz
x,y,z
-x,y,-z
-x,-y,-z
x,-y,z
1/2+x,1/2+y,z
1/2-x,1/2+y,-z
1/2-x,1/2-y,-z
1/2+x,1/2-y,z
loop_
_atom_site_type_symbol
_atom_site_label
_atom_site_fract_x
_atom_site_fract_y
_atom_site_fract_z
Si Si1 0.273869 0.000000 0.396988
Si Si2 0.262827 0.500000 0.905387
Si Si3 0.596519 0.722749 0.858399
Si Si4 0.217672 0.000000 0.709532
Si Si5 0.312815 0.221664 0.768031
Si Si6 0.971404 0.000000 0.563387
Si Si7 0.363368 0.000000 0.149343
Si Si8 0.599783 0.000000 0.205970
O O1 0.269510 0.000000 0.268600
O O2 0.223576 0.135530 0.335940
O O3 0.366811 0.000000 0.618378
O O4 0.323729 0.631143 0.032963
O O5 0.184283 0.500000 0.834005
O O6 0.514464 0.630487 0.693708
O O7 0.620652 0.752527 0.018055
O O8 0.587505 0.861235 0.780580
O O9 0.237328 0.868410 0.677940
O O10 0.127963 0.000000 0.598272
O O11 0.289383 0.000000 0.927977
O O12 0.358461 0.130510 0.770243
O O13 0.000000 0.000000 0.500000
O O14 0.500000 0.000000 0.000000
#
# Coordination Sequence:
#
# PCOD9170702 Si02
#       8
#     4   4   8   4   8   4   4   4
#     4  10  20  36  58  83 110 142 185 228 270 332
#     4   9  17  30  54  82 107 147 190 221 265 328
#     4   9  19  34  54  80 112 145 183 228 267 315
#     4   9  19  35  58  80 111 153 188 219 265 322
#     4   9  20  40  60  80 107 146 188 222 268 334
#     4  11  22  35  52  83 121 152 181 223 271 315
#     4  10  17  33  57  80 108 150 191 223 260 319
#     4  11  23  39  59  84 111 138 174 232 291 330
#
# _framework density 19.324798000000001
#
# number of rings (size 3 to 8) (size 9 to 14) (size 15 to 20)
#    0.000    2.400    0.000    3.600    0.000    4.800 
#    0.000    2.000    0.000    0.000    0.000    0.000 
#    0.000    0.000    0.000    0.000    0.000    0.000 
#
# Total GULP energy -111653.275031 kJ/mol
# GULP energy per Si atom -5582.663752 kJ/mol
# Density = 1.928081 g / cm^3
# Si number density = 19.324798 Si / 1000 Ang^3
#
#
#
# Elastic Constant Matrix: (Units=GPa)
#
#
# Indices 1 2 3 4 5 6 
#
# 1 48.7544 29.2811 20.5977 0.0000 9.9261 0.0000
# 2 29.2811 146.3351 27.5928 0.0000 5.0659 0.0000
# 3 20.5977 27.5928 54.5227 0.0000 10.3745 0.0000
# 4 0.0000 0.0000 0.0000 24.2483 0.0000 -19.4118
# 5 9.9261 5.0659 10.3745 0.0000 20.9981 0.0000
# 6 0.0000 0.0000 0.0000 -19.4118 0.0000 33.5171
#
#
#
# Elastic Compliance Matrix: (Units=1/GPa)
#
#
# Indices 1 2 3 4 5 6 
#
# 1 0.027493 -0.003929 -0.006739 0.000000 -0.008719 0.000000
# 2 -0.003929 0.008116 -0.002874 0.000000 0.001319 0.000000
# 3 -0.006739 -0.002874 0.023845 0.000000 -0.007902 0.000000
# 4 0.000000 0.000000 0.000000 0.076889 0.000000 0.044531
# 5 -0.008719 0.001319 -0.007902 0.000000 0.055331 0.000000
# 6 0.000000 0.000000 0.000000 0.044531 0.000000 0.055626
#
#
# Mechanical properties :
#
#
# Convention : Reuss Voigt Hill
#
# Bulk Modulus (GPa) = 30.89281 44.95060 37.92171
# Shear Modulus (GPa) = 17.53320 27.22875 22.38098
#
# Velocity S-wave (km/s) = 3.01539 3.75774 3.40685
# Velocity P-wave (km/s) = 5.30512 6.49143 5.92802
#
# Compressibility (1/GPa) = 0.03236999
#
# Stress axis : x y z
#
# Youngs Moduli (GPa) = 36.37335 123.21312 41.93751
#
# Poissons Ratio (x) = 0.48406 0.28262
# Poissons Ratio (y) = 0.14290 0.12054
# Poissons Ratio (z) = 0.24512 0.35414
#
# Static dielectric constant tensor:
#      x y z
#    x 1.652960 0.000000 -0.031680 
#    y 0.000000 1.703160 0.000000 
#    z -0.031680 0.000000 1.655170 
# 
# From -- ./inp_files/250286.got.cif
#   From: 2010.05.17/outbox.cif.g08.bks.cpg/sg12_126_cif.got.tgz:250286.got - 2010.06.03 13:09:07.
