data_PCOD9170491
_publ_section_title
;
Structure prediction by ZEFSAII (Michael W. Deem and Ramdas Pophale) SiO2 
 PCOD9170491
Probable space group: C 2/M
;
_chemical_formula_sum "Si O2"
_cell_formula_units_Z 56
_cell_length_a 14.930721
_cell_length_b 24.782035
_cell_length_c 8.747431
_cell_angle_alpha 90.000000
_cell_angle_beta 112.428811
_cell_angle_gamma 90.000000
_cell_volume 2991.828782
_symmetry_space_group_name_H-M "C 2/M"
_symmetry_group_IT_number 12
_symmetry_cell_setting 'monoclinic'
loop_
_space_group_symop_operation_xyz
x,y,z
-x,y,-z
-x,-y,-z
x,-y,z
1/2+x,1/2+y,z
1/2-x,1/2+y,-z
1/2-x,1/2-y,-z
1/2+x,1/2-y,z
loop_
_atom_site_type_symbol
_atom_site_label
_atom_site_fract_x
_atom_site_fract_y
_atom_site_fract_z
Si Si1 0.387226 0.936959 0.882573
Si Si2 0.732373 0.848846 0.009336
Si Si3 0.055591 0.808570 0.389482
Si Si4 0.289828 0.343185 0.731170
Si Si5 0.228667 0.778476 0.697946
Si Si6 0.967610 0.709662 0.158735
Si Si7 0.130959 0.359596 0.393159
O O1 0.372638 0.915472 0.700944
O O2 0.366432 0.000000 0.885493
O O3 0.500000 0.927652 0.000000
O O4 0.319128 0.899268 0.942322
O O5 0.793711 0.866336 0.903046
O O6 0.643366 0.808816 0.906524
O O7 0.793576 0.812491 0.165640
O O8 0.119168 0.848252 0.324047
O O9 0.135825 0.771915 0.530225
O O10 0.000000 0.833286 0.500000
O O11 0.993754 0.768193 0.243635
O O12 0.279567 0.278587 0.750574
O O13 0.189718 0.363077 0.588290
O O14 0.302338 0.818038 0.659439
O O15 0.026312 0.667549 0.304445
O O16 0.000000 0.706055 0.000000
#
# Coordination Sequence:
#
# PCOD9170491 Si02
#       7
#     8   8   8   8   8   8   8
#     4  10  19  35  54  73 103 140 179 220 257 305
#     4  11  21  32  53  78 104 143 181 214 254 311
#     4  11  22  33  47  69 103 144 178 215 256 307
#     4  11  20  32  50  72 103 135 174 224 254 304
#     4  10  18  34  48  71 107 138 175 213 253 309
#     4  12  18  31  48  74 101 139 188 209 239 304
#     4  10  17  32  50  71 105 134 182 210 248 305
#
# _framework density 18.717649000000002
#
# number of rings (size 3 to 8) (size 9 to 14) (size 15 to 20)
#    0.000    1.286    7.143    2.143    0.000    1.143 
#    0.000    0.714    0.000    1.714    0.000    0.000 
#    0.000   67.429    0.000    0.000    0.000    5.714 
#
# Total GULP energy -156199.816237 kJ/mol
# GULP energy per Si atom -5578.564866 kJ/mol
# Density = 1.867505 g / cm^3
# Si number density = 18.717649 Si / 1000 Ang^3
#
#
#
# Elastic Constant Matrix: (Units=GPa)
#
#
# Indices 1 2 3 4 5 6 
#
# 1 74.3825 16.0670 21.9662 0.0000 -17.6301 0.0000
# 2 16.0670 67.8733 31.7660 0.0000 4.5716 0.0000
# 3 21.9662 31.7660 83.7138 0.0000 -15.6565 0.0000
# 4 0.0000 0.0000 0.0000 12.7708 0.0000 5.5268
# 5 -17.6301 4.5716 -15.6565 0.0000 33.8152 0.0000
# 6 0.0000 0.0000 0.0000 5.5268 0.0000 11.8836
#
#
#
# Elastic Compliance Matrix: (Units=1/GPa)
#
#
# Indices 1 2 3 4 5 6 
#
# 1 0.016726 -0.003949 -0.001270 0.000000 0.008666 0.000000
# 2 -0.003949 0.020074 -0.008182 0.000000 -0.008561 0.000000
# 3 -0.001270 -0.008182 0.016933 0.000000 0.008284 0.000000
# 4 0.000000 0.000000 0.000000 0.098036 0.000000 -0.045594
# 5 0.008666 -0.008561 0.008284 0.000000 0.039084 0.000000
# 6 0.000000 0.000000 0.000000 -0.045594 0.000000 0.105354
#
#
# Mechanical properties :
#
#
# Convention : Reuss Voigt Hill
#
# Bulk Modulus (GPa) = 37.13129 40.61867 38.87498
# Shear Modulus (GPa) = 15.06088 22.10529 18.58308
#
# Velocity S-wave (km/s) = 2.83969 3.44028 3.15431
# Velocity P-wave (km/s) = 5.53466 6.12605 5.83785
#
# Compressibility (1/GPa) = 0.02693146
#
# Stress axis : x y z
#
# Youngs Moduli (GPa) = 59.78691 49.81509 59.05704
#
# Poissons Ratio (x) = 0.19672 0.07498
# Poissons Ratio (y) = 0.23610 0.48322
# Poissons Ratio (z) = 0.07590 0.40760
#
# Static dielectric constant tensor:
#      x y z
#    x 1.738240 0.000000 -0.029910 
#    y 0.000000 1.596080 0.000000 
#    z -0.029910 0.000000 1.752900 
# 
# From -- ./inp_files/66484.got.cif
#   From: 2010.05.17/outbox.cif.g08.bks.cpg/sg12_34_cif.got.tgz:66484.got - 2010.06.03 13:09:07.
