data_PCOD9170018
_publ_section_title
;
Structure prediction by ZEFSAII (Michael W. Deem and Ramdas Pophale) SiO2 
 PCOD9170018
Probable space group: C 2/M
;
_chemical_formula_sum "Si O2"
_cell_formula_units_Z 56
_cell_length_a 24.247302
_cell_length_b 16.141899
_cell_length_c 13.042490
_cell_angle_alpha 90.000000
_cell_angle_beta 140.612214
_cell_angle_gamma 90.000000
_cell_volume 3239.330069
_symmetry_space_group_name_H-M "C 2/M"
_symmetry_group_IT_number 12
_symmetry_cell_setting 'monoclinic'
loop_
_space_group_symop_operation_xyz
x,y,z
-x,y,-z
-x,-y,-z
x,-y,z
1/2+x,1/2+y,z
1/2-x,1/2+y,-z
1/2-x,1/2-y,-z
1/2+x,1/2-y,z
loop_
_atom_site_type_symbol
_atom_site_label
_atom_site_fract_x
_atom_site_fract_y
_atom_site_fract_z
Si Si1 0.396098 0.634922 0.656583
Si Si2 0.593737 0.403927 0.902605
Si Si3 0.901146 0.599989 0.843554
Si Si4 0.233700 0.095684 0.709696
Si Si5 0.186739 0.099532 0.242217
Si Si6 0.324896 0.196698 0.548788
Si Si7 0.903597 0.101791 0.322483
O O1 0.490189 0.599413 0.769111
O O2 0.322564 0.597716 0.476112
O O3 0.370556 0.618542 0.738087
O O4 0.394723 0.732444 0.627133
O O5 0.620297 0.500000 0.936107
O O6 0.612314 0.368815 0.816493
O O7 0.639722 0.370942 0.070999
O O8 0.900734 0.500000 0.846532
O O9 0.828691 0.631773 0.820714
O O10 0.865668 0.630782 0.684113
O O11 0.000000 0.628869 0.000000
O O12 0.171324 0.131509 0.707574
O O13 0.248215 0.000000 0.758634
O O14 0.276063 0.149189 0.388351
O O15 0.199488 0.000000 0.258381
O O16 0.250000 0.250000 0.500000
O O17 0.000000 0.125430 0.500000
O O18 0.903415 0.000000 0.323081
#
# Coordination Sequence:
#
# PCOD9170018 Si02
#       7
#     8   8   8   8   8   8   8
#     4  11  19  29  46  75 101 137 160 196 252 303
#     4  10  19  30  48  78 105 131 164 197 245 309
#     4  10  20  34  52  74  98 130 174 214 247 287
#     4  10  17  29  51  74 102 131 165 208 248 295
#     4  10  19  31  47  69 103 136 165 202 247 303
#     4  10  20  31  47  72  98 134 162 202 253 299
#     4   9  16  27  47  75 103 133 166 203 247 296
#
# _framework density 17.287524999999999
#
# number of rings (size 3 to 8) (size 9 to 14) (size 15 to 20)
#    0.000    2.000    4.286    2.143    0.000    3.429 
#    0.000    0.000    0.000    0.857    3.714    0.000 
#    0.000    6.857    0.000    0.000    0.000    0.000 
#
# Total GULP energy -155917.944896 kJ/mol
# GULP energy per Si atom -5568.498032 kJ/mol
# Density = 1.724818 g / cm^3
# Si number density = 17.287525 Si / 1000 Ang^3
#
#
#
# Elastic Constant Matrix: (Units=GPa)
#
#
# Indices 1 2 3 4 5 6 
#
# 1 100.0389 11.1246 66.6552 0.0000 -6.4960 0.0000
# 2 11.1246 26.3042 12.9759 0.0000 -0.1244 0.0000
# 3 66.6552 12.9759 126.4353 0.0000 -3.5548 0.0000
# 4 0.0000 0.0000 0.0000 -4.0835 0.0000 7.7197
# 5 -6.4960 -0.1244 -3.5548 0.0000 26.8001 0.0000
# 6 0.0000 0.0000 0.0000 7.7197 0.0000 4.9936
#
#
#
# Elastic Compliance Matrix: (Units=1/GPa)
#
#
# Indices 1 2 3 4 5 6 
#
# 1 0.015785 -0.002734 -0.007964 0.000000 0.002757 0.000000
# 2 -0.002734 0.040521 -0.002741 0.000000 -0.000838 0.000000
# 3 -0.007964 -0.002741 0.012380 0.000000 -0.000301 0.000000
# 4 0.000000 0.000000 0.000000 -0.062432 0.000000 0.096514
# 5 0.002757 -0.000838 -0.000301 0.000000 0.037938 0.000000
# 6 0.000000 0.000000 0.000000 0.096514 0.000000 0.051054
#
#
# Mechanical properties :
#
#
# Convention : Reuss Voigt Hill
#
# Bulk Modulus (GPa) = 23.91809 48.25443 36.08626
# Shear Modulus (GPa) = 36.74836 16.34355 26.54596
#
# Velocity S-wave (km/s) = 4.61555 3.07806 3.92287
# Velocity P-wave (km/s) = 6.50153 6.37229 6.43724
#
# Compressibility (1/GPa) = 0.04180936
#
# Stress axis : x y z
#
# Youngs Moduli (GPa) = 63.34966 24.67845 80.77293
#
# Poissons Ratio (x) = 0.06748 0.64325
# Poissons Ratio (y) = 0.17322 0.22137
# Poissons Ratio (z) = 0.50450 0.06764
#
# Static dielectric constant tensor:
#      x y z
#    x 1.620490 0.000000 0.001080 
#    y 0.000000 1.645230 0.000000 
#    z 0.001080 0.000000 1.590960 
# 
# From -- ./inp_files/177162.got.cif
#   From: 2010.05.17/outbox.cif.g08.bks.cpg/sg12_89_cif.got.tgz:177162.got - 2010.06.03 13:09:07.
