data_PCOD9170733
_publ_section_title
;
Structure prediction by ZEFSAII (Michael W. Deem and Ramdas Pophale) SiO2 
 PCOD9170733
Probable space group: C 2/M
;
_chemical_formula_sum "Si O2"
_cell_formula_units_Z 58
_cell_length_a 8.176844
_cell_length_b 22.719843
_cell_length_c 18.470142
_cell_angle_alpha 90.000000
_cell_angle_beta 47.171521
_cell_angle_gamma 90.000000
_cell_volume 2516.503125
_symmetry_space_group_name_H-M "C 2/M"
_symmetry_group_IT_number 12
_symmetry_cell_setting 'monoclinic'
loop_
_space_group_symop_operation_xyz
x,y,z
-x,y,-z
-x,-y,-z
x,-y,z
1/2+x,1/2+y,z
1/2-x,1/2+y,-z
1/2-x,1/2-y,-z
1/2+x,1/2-y,z
loop_
_atom_site_type_symbol
_atom_site_label
_atom_site_fract_x
_atom_site_fract_y
_atom_site_fract_z
Si Si1 0.236545 0.934225 0.359511
Si Si2 0.500627 0.936682 0.413190
Si Si3 0.817453 0.395504 0.862245
Si Si4 0.500000 0.500000 0.000000
Si Si5 0.033531 0.183799 0.364227
Si Si6 0.485515 0.687443 0.871042
Si Si7 0.105722 0.686546 0.875855
Si Si8 0.679050 0.191592 0.361405
O O1 0.277182 0.939456 0.433116
O O2 0.477888 0.918734 0.249592
O O3 0.094271 0.876382 0.385448
O O4 0.167523 0.000000 0.353757
O O5 0.500000 0.937902 0.500000
O O6 0.583779 0.871671 0.368273
O O7 0.618009 0.000000 0.357041
O O8 0.691528 0.449472 0.934402
O O9 0.631365 0.359818 0.871672
O O10 0.922037 0.355753 0.894733
O O11 0.205509 0.185830 0.244751
O O12 0.054536 0.246168 0.397722
O O13 0.787193 0.180968 0.406610
O O14 0.244190 0.671916 0.907946
O O15 0.502124 0.748206 0.910147
O O16 0.630248 0.701154 0.755836
#
# Coordination Sequence:
#
# PCOD9170733 Si02
#       8
#     8   8   8   2   8   8   8   8
#     4  10  19  37  61  80 113 160 196 234 294 354
#     4  10  21  36  56  84 117 155 198 243 289 349
#     4  11  21  40  61  86 123 155 200 240 296 361
#     4  12  28  44  62  88 122 170 194 244 300 356
#     4   9  19  30  56  89 116 152 197 246 292 345
#     4  10  17  33  63  94 115 152 201 243 303 350
#     4   9  18  32  61  96 118 149 199 254 289 355
#     4  10  18  33  54  87 121 148 197 247 291 350
#
# _framework density 23.047854999999998
#
# number of rings (size 3 to 8) (size 9 to 14) (size 15 to 20)
#    0.000    2.069    3.448    0.828    3.862    0.552 
#    0.000    6.207    0.000    2.483    0.000    0.000 
#    0.000    0.000    0.000    0.000    0.000    0.000 
#
# Total GULP energy -161466.705698 kJ/mol
# GULP energy per Si atom -5567.817438 kJ/mol
# Density = 2.299540 g / cm^3
# Si number density = 23.047855 Si / 1000 Ang^3
#
#
#
# Elastic Constant Matrix: (Units=GPa)
#
#
# Indices 1 2 3 4 5 6 
#
# 1 154.8161 104.7366 16.1270 0.0000 15.6449 0.0000
# 2 104.7366 238.8992 22.0042 0.0000 -2.6665 0.0000
# 3 16.1270 22.0042 60.4769 0.0000 5.5008 0.0000
# 4 0.0000 0.0000 0.0000 24.8623 0.0000 -15.5546
# 5 15.6449 -2.6665 5.5008 0.0000 34.1810 0.0000
# 6 0.0000 0.0000 0.0000 -15.5546 0.0000 14.0215
#
#
#
# Elastic Compliance Matrix: (Units=1/GPa)
#
#
# Indices 1 2 3 4 5 6 
#
# 1 0.009961 -0.004362 -0.000633 0.000000 -0.004798 0.000000
# 2 -0.004362 0.006254 -0.001358 0.000000 0.002703 0.000000
# 3 -0.000633 -0.001358 0.017437 0.000000 -0.002622 0.000000
# 4 0.000000 0.000000 0.000000 0.131460 0.000000 0.145834
# 5 -0.004798 0.002703 -0.002622 0.000000 0.032085 0.000000
# 6 0.000000 0.000000 0.000000 0.145834 0.000000 0.233099
#
#
# Mechanical properties :
#
#
# Convention : Reuss Voigt Hill
#
# Bulk Modulus (GPa) = 47.74306 82.21421 64.97864
# Shear Modulus (GPa) = 11.11152 35.36790 23.23971
#
# Velocity S-wave (km/s) = 2.19807 3.92157 3.17886
# Velocity P-wave (km/s) = 5.21553 7.50023 6.45969
#
# Compressibility (1/GPa) = 0.02094545
#
# Stress axis : x y z
#
# Youngs Moduli (GPa) = 100.38807 159.90599 57.35080
#
# Poissons Ratio (x) = 0.69758 0.03628
# Poissons Ratio (y) = 0.43794 0.07788
# Poissons Ratio (z) = 0.06351 0.21714
#
# Static dielectric constant tensor:
#      x y z
#    x 1.937160 0.000000 -0.024340 
#    y 0.000000 1.862150 0.000000 
#    z -0.024340 0.000000 1.943810 
# 
# From -- ./inp_files/301105.got.cif
#   From: 2010.05.17/outbox.cif.g08.bks.cpg/sg12_151_cif.got.tgz:301105.got - 2010.06.03 13:09:07.
