data_PCOD9170769
_publ_section_title
;
Structure prediction by ZEFSAII (Michael W. Deem and Ramdas Pophale) SiO2 
 PCOD9170769
Probable space group: C 2/M
;
_chemical_formula_sum "Si O2"
_cell_formula_units_Z 52
_cell_length_a 12.109674
_cell_length_b 19.252066
_cell_length_c 12.720372
_cell_angle_alpha 90.000000
_cell_angle_beta 67.765253
_cell_angle_gamma 90.000000
_cell_volume 2745.063005
_symmetry_space_group_name_H-M "C 2/M"
_symmetry_group_IT_number 12
_symmetry_cell_setting 'monoclinic'
loop_
_space_group_symop_operation_xyz
x,y,z
-x,y,-z
-x,-y,-z
x,-y,z
1/2+x,1/2+y,z
1/2-x,1/2+y,-z
1/2-x,1/2-y,-z
1/2+x,1/2-y,z
loop_
_atom_site_type_symbol
_atom_site_label
_atom_site_fract_x
_atom_site_fract_y
_atom_site_fract_z
Si Si1 0.358120 0.000000 0.299301
Si Si2 0.424306 0.727071 0.129855
Si Si3 0.043554 0.210841 0.294531
Si Si4 0.193367 0.847322 0.556337
Si Si5 0.117937 0.500000 0.306509
Si Si6 0.784603 0.000000 0.443011
Si Si7 0.693992 0.155404 0.258045
Si Si8 0.285376 0.851837 0.290001
O O1 0.480244 0.000000 0.322251
O O2 0.254342 0.000000 0.423056
O O3 0.338494 0.072259 0.246949
O O4 0.505552 0.691781 0.189814
O O5 0.309255 0.679011 0.150532
O O6 0.368931 0.794755 0.206069
O O7 0.500000 0.742443 0.000000
O O8 0.088056 0.290494 0.276329
O O9 0.152668 0.164003 0.295085
O O10 0.924272 0.199429 0.405610
O O11 0.270310 0.831223 0.632286
O O12 0.270318 0.844188 0.422282
O O13 0.151018 0.926790 0.594301
O O14 0.167221 0.500000 0.409510
O O15 0.165533 0.574818 0.250199
#
# Coordination Sequence:
#
# PCOD9170769 Si02
#       8
#     4   8   8   8   4   4   8   8
#     4  10  19  33  51  80 115 140 172 214 261 315
#     4  10  22  40  57  75 102 138 183 229 266 308
#     4  10  20  34  54  79 108 143 174 218 270 310
#     4   9  18  33  52  81 115 143 176 214 254 308
#     4  10  17  34  55  75 107 143 176 213 262 309
#     4   8  17  31  50  77 111 149 181 205 243 312
#     4   9  20  34  56  84 108 139 179 216 259 319
#     4  10  21  34  54  83 111 143 178 212 260 321
#
# _framework density 18.943097999999999
#
# number of rings (size 3 to 8) (size 9 to 14) (size 15 to 20)
#    0.000    2.462    0.000    1.615    0.000    9.846 
#    0.000   13.077    0.000    1.846    0.000    0.000 
#    0.000    0.000    0.000    0.000    0.000    0.000 
#
# Total GULP energy -144895.793326 kJ/mol
# GULP energy per Si atom -5572.915128 kJ/mol
# Density = 1.889998 g / cm^3
# Si number density = 18.943098 Si / 1000 Ang^3
#
#
#
# Elastic Constant Matrix: (Units=GPa)
#
#
# Indices 1 2 3 4 5 6 
#
# 1 72.6689 39.7442 12.0622 0.0000 -9.6879 0.0000
# 2 39.7442 128.0681 19.9065 0.0000 -17.1649 0.0000
# 3 12.0622 19.9065 79.4058 0.0000 -19.8621 0.0000
# 4 0.0000 0.0000 0.0000 10.1846 0.0000 1.6288
# 5 -9.6879 -17.1649 -19.8621 0.0000 13.6996 0.0000
# 6 0.0000 0.0000 0.0000 1.6288 0.0000 18.9848
#
#
#
# Elastic Compliance Matrix: (Units=1/GPa)
#
#
# Indices 1 2 3 4 5 6 
#
# 1 0.017048 -0.004406 0.000235 0.000000 0.006876 0.000000
# 2 -0.004406 0.010566 0.000867 0.000000 0.011380 0.000000
# 3 0.000235 0.000867 0.019854 0.000000 0.030037 0.000000
# 4 0.000000 0.000000 0.000000 0.099553 0.000000 -0.008541
# 5 0.006876 0.011380 0.030037 0.000000 0.135665 0.000000
# 6 0.000000 0.000000 0.000000 -0.008541 0.000000 0.053406
#
#
# Mechanical properties :
#
#
# Convention : Reuss Voigt Hill
#
# Bulk Modulus (GPa) = 24.47354 47.06319 35.76837
# Shear Modulus (GPa) = 14.03232 22.46915 18.25073
#
# Velocity S-wave (km/s) = 2.72465 3.44777 3.10732
# Velocity P-wave (km/s) = 4.77973 6.38341 5.63887
#
# Compressibility (1/GPa) = 0.04086046
#
# Stress axis : x y z
#
# Youngs Moduli (GPa) = 58.65684 94.64251 50.36823
#
# Poissons Ratio (x) = 0.41695 -0.01182
# Poissons Ratio (y) = 0.25842 -0.04367
# Poissons Ratio (z) = -0.01377 -0.08205
#
# Static dielectric constant tensor:
#      x y z
#    x 1.679390 0.000000 0.012010 
#    y 0.000000 1.738370 0.000000 
#    z 0.012010 0.000000 1.637540 
# 
# From -- ./inp_files/133118.got.cif
#   From: 2010.05.17/outbox.cif.g08.bks.cpg/sg12_67_cif.got.tgz:133118.got - 2010.06.03 13:09:07.
