data_PCOD9170824
_publ_section_title
;
Structure prediction by ZEFSAII (Michael W. Deem and Ramdas Pophale) SiO2 
 PCOD9170824
Probable space group: C 2/M
;
_chemical_formula_sum "Si O2"
_cell_formula_units_Z 52
_cell_length_a 16.662123
_cell_length_b 20.802802
_cell_length_c 8.602926
_cell_angle_alpha 90.000000
_cell_angle_beta 129.338206
_cell_angle_gamma 90.000000
_cell_volume 2306.282258
_symmetry_space_group_name_H-M "C 2/M"
_symmetry_group_IT_number 12
_symmetry_cell_setting 'monoclinic'
loop_
_space_group_symop_operation_xyz
x,y,z
-x,y,-z
-x,-y,-z
x,-y,z
1/2+x,1/2+y,z
1/2-x,1/2+y,-z
1/2-x,1/2-y,-z
1/2+x,1/2-y,z
loop_
_atom_site_type_symbol
_atom_site_label
_atom_site_fract_x
_atom_site_fract_y
_atom_site_fract_z
Si Si1 0.312077 0.708007 0.366193
Si Si2 0.515291 0.925776 0.333152
Si Si3 0.784754 0.342883 0.443769
Si Si4 0.216381 0.000000 0.637779
Si Si5 0.201042 0.390865 0.031798
Si Si6 0.458616 0.399852 0.618873
Si Si7 0.653616 0.425663 0.073637
O O1 0.236594 0.688017 0.415603
O O2 0.320311 0.784381 0.375801
O O3 0.262272 0.673624 0.155532
O O4 0.419048 0.672362 0.541360
O O5 0.500000 0.925214 0.500000
O O6 0.626900 0.896349 0.434605
O O7 0.510202 0.000000 0.274593
O O8 0.421251 0.885647 0.144260
O O9 0.683960 0.375246 0.243010
O O10 0.278140 0.056602 0.809878
O O11 0.139620 0.055651 0.470675
O O12 0.255023 0.418434 0.942655
O O13 0.500000 0.422999 0.500000
O O14 0.547719 0.408922 0.854175
O O15 0.650816 0.500000 0.120936
#
# Coordination Sequence:
#
# PCOD9170824 Si02
#       7
#     8   8   8   4   8   8   8
#     4  10  26  46  62  90 131 181 212 265 317 388
#     4  11  22  41  67  99 130 168 212 276 326 380
#     4  11  26  46  61  88 141 173 214 263 326 381
#     4  10  17  34  61  98 131 157 191 265 316 380
#     4  11  20  39  69  95 126 166 217 261 322 385
#     4  11  19  37  67  96 124 162 214 260 319 376
#     4  12  21  39  67 101 127 163 206 274 327 378
#
# _framework density 22.547108999999999
#
# number of rings (size 3 to 8) (size 9 to 14) (size 15 to 20)
#    0.000    1.077    6.923    0.692    0.000    3.692 
#   11.077    4.615    0.000    0.000    0.000    0.000 
#    0.000    0.000    0.000    0.000    0.000    0.000 
#
# Total GULP energy -144965.146700 kJ/mol
# GULP energy per Si atom -5575.582565 kJ/mol
# Density = 2.249579 g / cm^3
# Si number density = 22.547109 Si / 1000 Ang^3
#
#
#
# Elastic Constant Matrix: (Units=GPa)
#
#
# Indices 1 2 3 4 5 6 
#
# 1 30.1974 -12.4055 5.3977 0.0000 -3.7019 0.0000
# 2 -12.4055 83.5275 12.0285 0.0000 -9.4284 0.0000
# 3 5.3977 12.0285 105.0484 0.0000 19.5943 0.0000
# 4 0.0000 0.0000 0.0000 15.5848 0.0000 -4.1787
# 5 -3.7019 -9.4284 19.5943 0.0000 27.6355 0.0000
# 6 0.0000 0.0000 0.0000 -4.1787 0.0000 2.9800
#
#
#
# Elastic Compliance Matrix: (Units=1/GPa)
#
#
# Indices 1 2 3 4 5 6 
#
# 1 0.038568 0.007725 -0.004980 0.000000 0.011333 0.000000
# 2 0.007725 0.014624 -0.003682 0.000000 0.008635 0.000000
# 3 -0.004980 -0.003682 0.012164 0.000000 -0.010548 0.000000
# 4 0.000000 0.000000 0.000000 0.102827 0.000000 0.144191
# 5 0.011333 0.008635 -0.010548 0.000000 0.048128 0.000000
# 6 0.000000 0.000000 0.000000 0.144191 0.000000 0.537768
#
#
# Mechanical properties :
#
#
# Convention : Reuss Voigt Hill
#
# Bulk Modulus (GPa) = 15.75256 25.42385 20.58820
# Shear Modulus (GPa) = 6.43405 23.49023 14.96214
#
# Velocity S-wave (km/s) = 1.69109 3.23124 2.57883
# Velocity P-wave (km/s) = 3.28858 5.02211 4.24478
#
# Compressibility (1/GPa) = 0.06348173
#
# Stress axis : x y z
#
# Youngs Moduli (GPa) = 25.92806 68.37957 82.20686
#
# Poissons Ratio (x) = -0.52820 0.40940
# Poissons Ratio (y) = -0.20028 0.30269
# Poissons Ratio (z) = 0.12912 0.25178
#
# Static dielectric constant tensor:
#      x y z
#    x 1.923810 0.000000 -0.062010 
#    y 0.000000 1.835010 0.000000 
#    z -0.062010 0.000000 1.820220 
# 
# From -- ./inp_files/78081.got.cif
#   From: 2010.05.17/outbox.cif.g08.bks.cpg/sg12_40_cif.got.tgz:78081.got - 2010.06.03 13:09:07.
