data_PCOD9170724
_publ_section_title
;
Structure prediction by ZEFSAII (Michael W. Deem and Ramdas Pophale) SiO2 
 PCOD9170724
Probable space group: C 2/M
;
_chemical_formula_sum "Si O2"
_cell_formula_units_Z 52
_cell_length_a 18.907482
_cell_length_b 14.164785
_cell_length_c 17.012820
_cell_angle_alpha 90.000000
_cell_angle_beta 32.193922
_cell_angle_gamma 90.000000
_cell_volume 2427.578084
_symmetry_space_group_name_H-M "C 2/M"
_symmetry_group_IT_number 12
_symmetry_cell_setting 'monoclinic'
loop_
_space_group_symop_operation_xyz
x,y,z
-x,y,-z
-x,-y,-z
x,-y,z
1/2+x,1/2+y,z
1/2-x,1/2+y,-z
1/2-x,1/2-y,-z
1/2+x,1/2-y,z
loop_
_atom_site_type_symbol
_atom_site_label
_atom_site_fract_x
_atom_site_fract_y
_atom_site_fract_z
Si Si1 0.255218 0.295523 0.791872
Si Si2 0.838701 0.500000 0.139419
Si Si3 0.323012 0.312211 0.549039
Si Si4 0.694305 0.174457 0.113608
Si Si5 0.000000 0.829631 0.000000
Si Si6 0.572440 0.798906 0.688439
Si Si7 0.979746 0.101657 0.852816
Si Si8 0.401772 0.500000 0.517809
O O1 0.213396 0.403091 0.851758
O O2 0.318868 0.292471 0.645624
O O3 0.336257 0.237281 0.780181
O O4 0.118918 0.238330 0.912776
O O5 0.748456 0.500000 0.304242
O O6 0.000000 0.500000 0.000000
O O7 0.362109 0.225171 0.457123
O O8 0.177512 0.338258 0.651583
O O9 0.416293 0.404117 0.455702
O O10 0.557431 0.138987 0.205366
O O11 0.750000 0.250000 0.000000
O O12 0.818790 0.106695 0.009716
O O13 0.966686 0.888753 0.108547
O O14 0.529153 0.695434 0.762086
O O15 0.019437 0.000000 0.782313
O O16 0.500000 0.500000 0.500000
#
# Coordination Sequence:
#
# PCOD9170724 Si02
#       8
#     8   4   8   8   4   8   8   4
#     4  10  19  35  57  83 116 153 192 248 295 367
#     4  10  20  32  56  92 114 155 201 242 304 365
#     4  10  22  38  59  86 115 164 196 238 300 365
#     4   9  21  37  55  83 115 146 192 242 305 355
#     4  10  17  33  60  78 114 140 194 243 293 346
#     4  10  21  39  59  82 120 154 202 242 298 365
#     4  10  20  36  58  86 110 150 194 254 300 350
#     4  10  24  38  58  92 130 151 204 252 300 373
#
# _framework density 21.420524
#
# number of rings (size 3 to 8) (size 9 to 14) (size 15 to 20)
#    0.000    2.154    2.308    0.231    5.385    0.000 
#    6.923    0.000    0.000    0.000    0.000    2.154 
#    0.000    0.000    0.000    0.000    0.000    0.000 
#
# Total GULP energy -144959.265440 kJ/mol
# GULP energy per Si atom -5575.356363 kJ/mol
# Density = 2.137177 g / cm^3
# Si number density = 21.420524 Si / 1000 Ang^3
#
#
#
# Elastic Constant Matrix: (Units=GPa)
#
#
# Indices 1 2 3 4 5 6 
#
# 1 102.4260 12.7411 15.5297 0.0000 -2.5930 0.0000
# 2 12.7411 76.1896 -9.2074 0.0000 2.6281 0.0000
# 3 15.5297 -9.2074 40.9679 -0.0001 5.1248 0.0001
# 4 0.0000 0.0000 -0.0001 17.3216 0.0001 3.1200
# 5 -2.5930 2.6281 5.1248 0.0001 44.1763 0.0000
# 6 0.0000 0.0000 0.0001 3.1200 0.0000 13.0527
#
#
#
# Elastic Compliance Matrix: (Units=1/GPa)
#
#
# Indices 1 2 3 4 5 6 
#
# 1 0.010832 -0.002440 -0.004822 0.000000 0.001340 0.000000
# 2 -0.002440 0.014101 0.004279 0.000000 -0.001479 0.000000
# 3 -0.004822 0.004279 0.027668 0.000000 -0.003747 0.000000
# 4 0.000000 0.000000 0.000000 0.060329 0.000000 -0.014421
# 5 0.001340 -0.001479 -0.003747 0.000000 0.023238 0.000000
# 6 0.000000 0.000000 0.000000 -0.014421 0.000000 0.080059
#
#
# Mechanical properties :
#
#
# Convention : Reuss Voigt Hill
#
# Bulk Modulus (GPa) = 21.44334 28.63449 25.03891
# Shear Modulus (GPa) = 21.03149 28.27811 24.65480
#
# Velocity S-wave (km/s) = 3.13683 3.63732 3.39630
# Velocity P-wave (km/s) = 4.81165 5.57108 5.20523
#
# Compressibility (1/GPa) = 0.04663453
#
# Stress axis : x y z
#
# Youngs Moduli (GPa) = 92.32094 70.91494 36.14305
#
# Poissons Ratio (x) = 0.17306 0.17429
# Poissons Ratio (y) = 0.22530 -0.15467
# Poissons Ratio (z) = 0.44519 -0.30347
#
# Static dielectric constant tensor:
#      x y z
#    x 1.805730 0.000000 0.003080 
#    y 0.000000 1.770030 0.000000 
#    z 0.003080 0.000000 1.873060 
# 
# From -- ./inp_files/284284.got.cif
#   From: 2010.05.17/outbox.cif.g08.bks.cpg/sg12_143_cif.got.tgz:284284.got - 2010.06.03 13:09:07.
