data_PCOD9170232
_publ_section_title
;
Structure prediction by ZEFSAII (Michael W. Deem and Ramdas Pophale) SiO2 
 PCOD9170232
Probable space group: C 2/M
;
_chemical_formula_sum "Si O2"
_cell_formula_units_Z 40
_cell_length_a 26.287390
_cell_length_b 8.541010
_cell_length_c 14.673656
_cell_angle_alpha 90.000000
_cell_angle_beta 44.053083
_cell_angle_gamma 90.000000
_cell_volume 2290.775753
_symmetry_space_group_name_H-M "C 2/M"
_symmetry_group_IT_number 12
_symmetry_cell_setting 'monoclinic'
loop_
_space_group_symop_operation_xyz
x,y,z
-x,y,-z
-x,-y,-z
x,-y,z
1/2+x,1/2+y,z
1/2-x,1/2+y,-z
1/2-x,1/2-y,-z
1/2+x,1/2-y,z
loop_
_atom_site_type_symbol
_atom_site_label
_atom_site_fract_x
_atom_site_fract_y
_atom_site_fract_z
Si Si1 0.465437 0.309464 0.140614
Si Si2 0.318470 0.186529 0.852481
Si Si3 0.703240 0.688540 0.644433
Si Si4 0.095677 0.188110 0.099749
Si Si5 0.267396 0.186698 0.194688
O O1 0.465874 0.500000 0.138581
O O2 0.381553 0.260287 0.256469
O O3 0.519265 0.262007 0.152928
O O4 0.500000 0.257002 0.000000
O O5 0.387556 0.243477 0.822086
O O6 0.302452 0.254991 0.773536
O O7 0.316050 0.000000 0.852898
O O8 0.250000 0.250000 0.000000
O O9 0.704995 0.500000 0.645051
O O10 0.750000 0.750000 0.500000
O O11 0.732608 0.754284 0.702226
O O12 0.098768 0.000000 0.100274
O O13 0.160487 0.243594 0.948274
O O14 0.271302 0.000000 0.185328
#
# Coordination Sequence:
#
# PCOD9170232 Si02
#       5
#     8   8   8   8   8
#     4   9  17  32  55  79 105 141 177 215 263 317
#     4  10  18  29  46  73 106 139 172 216 267 314
#     4  11  22  38  56  78 108 143 181 217 263 317
#     4  10  17  30  52  78 106 138 175 218 264 313
#     4  11  20  32  50  76 106 140 178 219 264 312
#
# _framework density 17.461334000000001
#
# number of rings (size 3 to 8) (size 9 to 14) (size 15 to 20)
#    0.000    1.800    2.000    7.200    0.000    0.000 
#    0.000    5.000    0.000    1.200    0.000    8.400 
#    0.000    0.000    0.000    0.000    0.000    0.000 
#
# Total GULP energy -111593.850256 kJ/mol
# GULP energy per Si atom -5579.692513 kJ/mol
# Density = 1.742159 g / cm^3
# Si number density = 17.461334 Si / 1000 Ang^3
#
#
#
# Elastic Constant Matrix: (Units=GPa)
#
#
# Indices 1 2 3 4 5 6 
#
# 1 188.7409 46.8028 74.3196 0.0000 30.6048 0.0000
# 2 46.8028 99.7262 26.1304 -0.0001 11.4542 0.0001
# 3 74.3196 26.1304 89.4080 0.0000 10.6064 0.0000
# 4 0.0000 -0.0001 0.0000 22.0195 0.0000 7.3141
# 5 30.6048 11.4542 10.6064 0.0000 26.4130 0.0000
# 6 0.0000 0.0001 0.0000 7.3141 0.0000 27.0076
#
#
#
# Elastic Compliance Matrix: (Units=1/GPa)
#
#
# Indices 1 2 3 4 5 6 
#
# 1 0.009567 -0.001912 -0.006486 0.000000 -0.007652 0.000000
# 2 -0.001912 0.011578 -0.001535 0.000000 -0.002190 0.000000
# 3 -0.006486 -0.001535 0.016857 0.000000 0.001412 0.000000
# 4 0.000000 0.000000 0.000000 0.049903 0.000000 -0.013515
# 5 -0.007652 -0.002190 0.001412 0.000000 0.047109 0.000000
# 6 0.000000 0.000000 0.000000 -0.013515 0.000000 0.040687
#
#
# Mechanical properties :
#
#
# Convention : Reuss Voigt Hill
#
# Bulk Modulus (GPa) = 55.13577 74.70897 64.92237
# Shear Modulus (GPa) = 24.80000 30.46285 27.63143
#
# Velocity S-wave (km/s) = 3.77275 4.18136 3.98230
# Velocity P-wave (km/s) = 7.11496 8.13572 7.64240
#
# Compressibility (1/GPa) = 0.01813704
#
# Stress axis : x y z
#
# Youngs Moduli (GPa) = 104.52532 86.36834 59.32123
#
# Poissons Ratio (x) = 0.16510 0.38476
# Poissons Ratio (y) = 0.19981 0.09107
# Poissons Ratio (z) = 0.67796 0.13259
#
# Static dielectric constant tensor:
#      x y z
#    x 1.641050 0.000000 0.017520 
#    y 0.000000 1.591000 0.000000 
#    z 0.017520 0.000000 1.543180 
# 
# From -- ./inp_files/179658.got.cif
#   From: 2010.05.17/outbox.cif.g08.bks.cpg/sg12_90_cif.got.tgz:179658.got - 2010.06.03 13:09:07.
