data_PCOD9170210
_publ_section_title
;
Structure prediction by ZEFSAII (Michael W. Deem and Ramdas Pophale) SiO2 
 PCOD9170210
Probable space group: C 2/M
;
_chemical_formula_sum "Si O2"
_cell_formula_units_Z 60
_cell_length_a 25.315732
_cell_length_b 16.250095
_cell_length_c 12.487808
_cell_angle_alpha 90.000000
_cell_angle_beta 31.323373
_cell_angle_gamma 90.000000
_cell_volume 2670.701717
_symmetry_space_group_name_H-M "C 2/M"
_symmetry_group_IT_number 12
_symmetry_cell_setting 'monoclinic'
loop_
_space_group_symop_operation_xyz
x,y,z
-x,y,-z
-x,-y,-z
x,-y,z
1/2+x,1/2+y,z
1/2-x,1/2+y,-z
1/2-x,1/2-y,-z
1/2+x,1/2-y,z
loop_
_atom_site_type_symbol
_atom_site_label
_atom_site_fract_x
_atom_site_fract_y
_atom_site_fract_z
Si Si1 0.383835 0.348895 0.681790
Si Si2 0.077333 0.410565 0.986534
Si Si3 0.637736 0.000000 0.679575
Si Si4 0.079012 0.094644 0.613090
Si Si5 0.145438 0.903976 0.028909
Si Si6 0.651310 0.170305 0.308525
Si Si7 0.738412 0.839236 0.569068
Si Si8 0.948866 0.404822 0.726604
O O1 0.500000 0.320947 0.500000
O O2 0.388163 0.403729 0.568787
O O3 0.351315 0.391284 0.847522
O O4 0.326851 0.264941 0.754461
O O5 0.121624 0.500000 0.855554
O O6 0.101197 0.405097 0.069939
O O7 0.958959 0.428548 0.178756
O O8 0.139590 0.341999 0.818922
O O9 0.720683 0.077838 0.530103
O O10 0.161234 0.144825 0.534996
O O11 0.964066 0.129161 0.818293
O O12 0.078811 0.000000 0.648600
O O13 0.146213 0.000000 0.005041
O O14 0.249038 0.865071 0.808916
O O15 0.622657 0.125444 0.245460
O O16 0.548986 0.152303 0.552636
O O17 0.750000 0.750000 0.500000
O O18 0.980001 0.500000 0.654210
#
# Coordination Sequence:
#
# PCOD9170210 Si02
#       8
#     8   8   4   8   8   8   8   8
#     4  10  20  35  49  79 125 172 210 255 303 340
#     4   6  14  27  46  80 119 150 193 251 307 371
#     4   6  14  28  48  87 129 141 192 248 325 384
#     4  10  19  35  56  83 123 161 203 251 303 381
#     4  10  21  33  50  78 121 173 217 246 289 357
#     4  11  20  31  48  82 124 166 216 265 293 339
#     4   9  16  31  57  92 121 150 199 262 328 382
#     4  10  17  30  51  77 118 169 214 257 302 349
#
# _framework density 22.466006
#
# number of rings (size 3 to 8) (size 9 to 14) (size 15 to 20)
#    1.200    1.333    2.000    2.400    1.867    1.600 
#    2.400    0.000    0.000    0.000    5.200    4.667 
#    8.000   12.267    0.000    0.000    0.000    0.000 
#
# Total GULP energy -167087.094284 kJ/mol
# GULP energy per Si atom -5569.569809 kJ/mol
# Density = 2.241487 g / cm^3
# Si number density = 22.466006 Si / 1000 Ang^3
#
#
#
# Elastic Constant Matrix: (Units=GPa)
#
#
# Indices 1 2 3 4 5 6 
#
# 1 58.8282 42.1137 38.8067 0.0000 -16.5543 0.0000
# 2 42.1137 102.7829 26.5595 0.0000 -6.9593 0.0000
# 3 38.8067 26.5595 70.9212 0.0000 -27.4800 0.0000
# 4 0.0000 0.0000 0.0000 20.0381 0.0000 9.9112
# 5 -16.5543 -6.9593 -27.4800 0.0000 42.4892 0.0000
# 6 0.0000 0.0000 0.0000 9.9112 0.0000 19.9009
#
#
#
# Elastic Compliance Matrix: (Units=1/GPa)
#
#
# Indices 1 2 3 4 5 6 
#
# 1 0.034245 -0.010271 -0.013843 0.000000 0.002707 0.000000
# 2 -0.010271 0.013893 -0.000336 0.000000 -0.001943 0.000000
# 3 -0.013843 -0.000336 0.026273 0.000000 0.011544 0.000000
# 4 0.000000 0.000000 0.000000 0.066216 0.000000 -0.032978
# 5 0.002707 -0.001943 0.011544 0.000000 0.031738 0.000000
# 6 0.000000 0.000000 0.000000 -0.032978 0.000000 0.066673
#
#
# Mechanical properties :
#
#
# Convention : Reuss Voigt Hill
#
# Bulk Modulus (GPa) = 39.19699 49.72135 44.45917
# Shear Modulus (GPa) = 16.86683 24.82247 20.84465
#
# Velocity S-wave (km/s) = 2.74299 3.32760 3.04934
# Velocity P-wave (km/s) = 5.24568 6.07813 5.67718
#
# Compressibility (1/GPa) = 0.02551217
#
# Stress axis : x y z
#
# Youngs Moduli (GPa) = 29.20172 71.98004 38.06146
#
# Poissons Ratio (x) = 0.73930 0.52687
# Poissons Ratio (y) = 0.29993 0.01278
# Poissons Ratio (z) = 0.40423 0.02416
#
# Static dielectric constant tensor:
#      x y z
#    x 1.898050 0.000000 0.029040 
#    y 0.000000 1.843060 0.000000 
#    z 0.029040 0.000000 1.873010 
# 
# From -- ./inp_files/246709.got.cif
#   From: 2010.05.17/outbox.cif.g08.bks.cpg/sg12_124_cif.got.tgz:246709.got - 2010.06.03 13:09:07.
