data_PCOD9170425
_publ_section_title
;
Structure prediction by ZEFSAII (Michael W. Deem and Ramdas Pophale) SiO2 
 PCOD9170425
Probable space group: C 2/M
;
_chemical_formula_sum "Si O2"
_cell_formula_units_Z 52
_cell_length_a 19.265998
_cell_length_b 20.586073
_cell_length_c 13.172838
_cell_angle_alpha 90.000000
_cell_angle_beta 152.670172
_cell_angle_gamma 90.000000
_cell_volume 2398.629179
_symmetry_space_group_name_H-M "C 2/M"
_symmetry_group_IT_number 12
_symmetry_cell_setting 'monoclinic'
loop_
_space_group_symop_operation_xyz
x,y,z
-x,y,-z
-x,-y,-z
x,-y,z
1/2+x,1/2+y,z
1/2-x,1/2+y,-z
1/2-x,1/2-y,-z
1/2+x,1/2-y,z
loop_
_atom_site_type_symbol
_atom_site_label
_atom_site_fract_x
_atom_site_fract_y
_atom_site_fract_z
Si Si1 0.219448 0.925468 0.301823
Si Si2 0.172617 0.927512 0.003845
Si Si3 0.000000 0.868369 0.500000
Si Si4 0.025232 0.628453 0.652962
Si Si5 0.577011 0.268818 0.777237
Si Si6 0.337871 0.318383 0.606539
Si Si7 0.342931 0.428155 0.469158
O O1 0.168879 0.913720 0.119606
O O2 0.402124 0.918847 0.541983
O O3 0.162655 0.866434 0.298044
O O4 0.175242 0.000000 0.273466
O O5 0.297337 0.886365 0.105532
O O6 0.238068 0.000000 0.084658
O O7 0.008978 0.930122 0.739184
O O8 0.948786 0.820022 0.345272
O O9 0.874781 0.912534 0.392670
O O10 0.990456 0.701510 0.642515
O O11 0.000000 0.624279 0.500000
O O12 0.506169 0.298211 0.787542
O O13 0.750000 0.250000 0.000000
O O14 0.250000 0.250000 0.500000
O O15 0.269551 0.365937 0.429229
O O16 0.274881 0.500000 0.394565
#
# Coordination Sequence:
#
# PCOD9170425 Si02
#       7
#     8   8   4   8   8   8   8
#     4  10  20  35  58  86 123 161 195 246 310 365
#     4   9  19  34  56  90 120 151 199 250 299 363
#     4  10  21  38  60  90 119 154 204 254 299 352
#     4  10  17  31  55  84 119 157 197 242 302 357
#     4  11  22  38  61  90 122 159 204 253 302 357
#     4  11  22  38  56  89 123 159 203 247 306 369
#     4  10  21  38  60  84 116 156 202 250 302 357
#
# _framework density 21.679048999999999
#
# number of rings (size 3 to 8) (size 9 to 14) (size 15 to 20)
#    0.000    1.846    2.308    3.000    0.000    2.462 
#    0.000    5.385    0.000    0.000    0.000    1.077 
#    0.000    0.000    0.000    0.000    0.000    0.000 
#
# Total GULP energy -145007.078284 kJ/mol
# GULP energy per Si atom -5577.195319 kJ/mol
# Density = 2.162971 g / cm^3
# Si number density = 21.679049 Si / 1000 Ang^3
#
#
#
# Elastic Constant Matrix: (Units=GPa)
#
#
# Indices 1 2 3 4 5 6 
#
# 1 104.3880 71.0162 20.5366 0.0000 4.3529 0.0000
# 2 71.0162 184.2110 18.2318 0.0000 5.0782 0.0000
# 3 20.5366 18.2318 46.5102 0.0000 12.2251 0.0000
# 4 0.0000 0.0000 0.0000 20.9010 0.0000 5.3232
# 5 4.3529 5.0782 12.2251 0.0000 22.7879 0.0000
# 6 0.0000 0.0000 0.0000 5.3232 0.0000 44.4325
#
#
#
# Elastic Compliance Matrix: (Units=1/GPa)
#
#
# Indices 1 2 3 4 5 6 
#
# 1 0.013725 -0.004882 -0.004358 0.000000 0.000804 0.000000
# 2 -0.004882 0.007384 -0.000642 0.000000 -0.000369 0.000000
# 3 -0.004358 -0.000642 0.027265 0.000000 -0.013651 0.000000
# 4 0.000000 0.000000 0.000000 0.049350 0.000000 -0.005912
# 5 0.000804 -0.000369 -0.013651 0.000000 0.051135 0.000000
# 6 0.000000 0.000000 0.000000 -0.005912 0.000000 0.023214
#
#
# Mechanical properties :
#
#
# Convention : Reuss Voigt Hill
#
# Bulk Modulus (GPa) = 34.95274 61.63094 48.29184
# Shear Modulus (GPa) = 24.82938 32.64590 28.73764
#
# Velocity S-wave (km/s) = 3.38792 3.88477 3.64482
# Velocity P-wave (km/s) = 5.60909 6.97226 6.32749
#
# Compressibility (1/GPa) = 0.02861006
#
# Stress axis : x y z
#
# Youngs Moduli (GPa) = 72.86149 135.42189 36.67733
#
# Poissons Ratio (x) = 0.66112 0.15983
# Poissons Ratio (y) = 0.35571 0.02355
# Poissons Ratio (z) = 0.31752 0.08696
#
# Static dielectric constant tensor:
#      x y z
#    x 1.849390 0.000000 0.034910 
#    y 0.000000 1.899960 0.000000 
#    z 0.034910 0.000000 1.822890 
# 
# From -- ./inp_files/235071.got.cif
#   From: 2010.05.17/outbox.cif.g08.bks.cpg/sg12_118_cif.got.tgz:235071.got - 2010.06.03 13:09:07.
