data_PCOD9170364
_publ_section_title
;
Structure prediction by ZEFSAII (Michael W. Deem and Ramdas Pophale) SiO2 
 PCOD9170364
Probable space group: C 2/M
;
_chemical_formula_sum "Si O2"
_cell_formula_units_Z 56
_cell_length_a 17.346931
_cell_length_b 24.604999
_cell_length_c 9.750791
_cell_angle_alpha 90.000000
_cell_angle_beta 137.858195
_cell_angle_gamma 90.000000
_cell_volume 2792.463704
_symmetry_space_group_name_H-M "C 2/M"
_symmetry_group_IT_number 12
_symmetry_cell_setting 'monoclinic'
loop_
_space_group_symop_operation_xyz
x,y,z
-x,y,-z
-x,-y,-z
x,-y,z
1/2+x,1/2+y,z
1/2-x,1/2+y,-z
1/2-x,1/2-y,-z
1/2+x,1/2-y,z
loop_
_atom_site_type_symbol
_atom_site_label
_atom_site_fract_x
_atom_site_fract_y
_atom_site_fract_z
Si Si1 0.913154 0.605514 0.782233
Si Si2 0.960381 0.560893 0.291623
Si Si3 0.221052 0.341147 0.962422
Si Si4 0.199736 0.157268 0.644151
Si Si5 0.002051 0.286302 0.768018
Si Si6 0.227598 0.285885 0.687359
Si Si7 0.069398 0.172400 0.218489
O O1 0.796045 0.617491 0.707105
O O2 0.968140 0.664137 0.820217
O O3 0.929958 0.575512 0.659824
O O4 0.000000 0.576262 0.000000
O O5 0.920946 0.500000 0.206258
O O6 0.858843 0.605055 0.144834
O O7 0.000000 0.562899 0.500000
O O8 0.260806 0.319225 0.867810
O O9 0.129492 0.294636 0.883485
O O10 0.310210 0.349351 0.204635
O O11 0.242377 0.220645 0.692839
O O12 0.091210 0.149150 0.399776
O O13 0.908353 0.291030 0.522805
O O14 0.989768 0.230104 0.829951
O O15 0.302789 0.313898 0.668158
O O16 0.000000 0.145706 0.000000
#
# Coordination Sequence:
#
# PCOD9170364 Si02
#       7
#     8   8   8   8   8   8   8
#     4  11  17  32  53  76 106 144 176 218 265 324
#     4  10  22  36  54  82 115 141 174 219 275 342
#     4  11  21  34  54  78 109 149 176 224 274 330
#     4  11  20  32  47  74 104 140 191 221 254 318
#     4  10  17  31  51  72 103 143 182 218 260 323
#     4  11  20  31  50  76 103 147 192 221 254 324
#     4  11  21  32  48  67 103 144 191 228 259 298
#
# _framework density 20.053975000000001
#
# number of rings (size 3 to 8) (size 9 to 14) (size 15 to 20)
#    0.000    1.286    5.714    4.714    0.000    0.286 
#    0.000    2.143    0.000    0.000    0.000    0.000 
#    0.000    6.286    0.000    0.000    0.000    0.000 
#
# Total GULP energy -156070.375647 kJ/mol
# GULP energy per Si atom -5573.941987 kJ/mol
# Density = 2.000833 g / cm^3
# Si number density = 20.053975 Si / 1000 Ang^3
#
#
#
# Elastic Constant Matrix: (Units=GPa)
#
#
# Indices 1 2 3 4 5 6 
#
# 1 63.1923 13.6580 20.9791 0.0000 -20.2817 0.0000
# 2 13.6580 50.9777 22.8334 0.0000 -9.5710 0.0000
# 3 20.9791 22.8334 139.2161 0.0000 -27.5820 0.0000
# 4 0.0000 0.0000 0.0000 8.9208 0.0000 2.5021
# 5 -20.2817 -9.5710 -27.5820 0.0000 33.2550 0.0000
# 6 0.0000 0.0000 0.0000 2.5021 0.0000 7.2581
#
#
#
# Elastic Compliance Matrix: (Units=1/GPa)
#
#
# Indices 1 2 3 4 5 6 
#
# 1 0.020191 -0.003177 -0.000315 0.000000 0.011139 0.000000
# 2 -0.003177 0.022091 -0.002715 0.000000 0.002168 0.000000
# 3 -0.000315 -0.002715 0.008954 0.000000 0.006454 0.000000
# 4 0.000000 0.000000 0.000000 0.124096 0.000000 -0.042779
# 5 0.011139 0.002168 0.006454 0.000000 0.042841 0.000000
# 6 0.000000 0.000000 0.000000 -0.042779 0.000000 0.152524
#
#
# Mechanical properties :
#
#
# Convention : Reuss Voigt Hill
#
# Bulk Modulus (GPa) = 25.75828 40.92523 33.34176
# Shear Modulus (GPa) = 12.62464 22.94782 17.78623
#
# Velocity S-wave (km/s) = 2.51177 3.38642 2.98135
# Velocity P-wave (km/s) = 4.61350 5.97849 5.33979
#
# Compressibility (1/GPa) = 0.03882246
#
# Stress axis : x y z
#
# Youngs Moduli (GPa) = 49.52722 45.26772 111.67736
#
# Poissons Ratio (x) = 0.14383 0.03515
# Poissons Ratio (y) = 0.15736 0.30318
# Poissons Ratio (z) = 0.01559 0.12289
#
# Static dielectric constant tensor:
#      x y z
#    x 1.731580 0.000000 -0.028360 
#    y 0.000000 1.697470 0.000000 
#    z -0.028360 0.000000 1.865360 
# 
# From -- ./inp_files/79155.got.cif
#   From: 2010.05.17/outbox.cif.g08.bks.cpg/sg12_40_cif.got.tgz:79155.got - 2010.06.03 13:09:07.
