data_PCOD9170338
_publ_section_title
;
Structure prediction by ZEFSAII (Michael W. Deem and Ramdas Pophale) SiO2 
 PCOD9170338
Probable space group: C 2/M
;
_chemical_formula_sum "Si O2"
_cell_formula_units_Z 64
_cell_length_a 19.627045
_cell_length_b 26.631092
_cell_length_c 7.841766
_cell_angle_alpha 90.000000
_cell_angle_beta 88.423968
_cell_angle_gamma 90.000000
_cell_volume 4097.259308
_symmetry_space_group_name_H-M "C 2/M"
_symmetry_group_IT_number 12
_symmetry_cell_setting 'monoclinic'
loop_
_space_group_symop_operation_xyz
x,y,z
-x,y,-z
-x,-y,-z
x,-y,z
1/2+x,1/2+y,z
1/2-x,1/2+y,-z
1/2-x,1/2-y,-z
1/2+x,1/2-y,z
loop_
_atom_site_type_symbol
_atom_site_label
_atom_site_fract_x
_atom_site_fract_y
_atom_site_fract_z
Si Si1 0.573880 0.801659 0.045294
Si Si2 0.948898 0.135855 0.869735
Si Si3 0.281901 0.168338 0.922279
Si Si4 0.262835 0.277124 0.743510
Si Si5 0.878879 0.241783 0.294270
Si Si6 0.415516 0.724279 0.643661
Si Si7 0.150397 0.871500 0.820793
Si Si8 0.462676 0.441095 0.320232
O O1 0.637028 0.839641 0.071395
O O2 0.569994 0.765645 0.211676
O O3 0.500000 0.822682 0.000000
O O4 0.596410 0.767670 0.881546
O O5 0.945727 0.172095 0.708153
O O6 0.984206 0.084416 0.813029
O O7 0.881750 0.127018 0.985997
O O8 0.000000 0.162151 0.000000
O O9 0.274028 0.222377 0.828911
O O10 0.232328 0.128398 0.835256
O O11 0.251728 0.181626 0.110364
O O12 0.191591 0.270306 0.651260
O O13 0.333834 0.287818 0.649083
O O14 0.928954 0.242510 0.451430
O O15 0.865763 0.183768 0.251269
O O16 0.108141 0.911077 0.709551
O O17 0.500000 0.434894 0.500000
O O18 0.452217 0.500000 0.291851
#
# Coordination Sequence:
#
# PCOD9170338 Si02
#       8
#     8   8   8   8   8   8   8   8
#     4  10  20  31  40  60  91 121 151 194 230 264
#     4  10  19  29  44  61  84 110 149 185 223 261
#     4   8  14  28  46  59  82 115 149 189 227 261
#     4   8  14  26  40  60  84 110 144 192 229 258
#     4  10  19  27  42  64  83 115 155 189 230 260
#     4  11  17  27  43  60  85 115 153 192 223 262
#     4  10  17  31  48  63  84 111 153 189 216 270
#     4  10  22  36  47  66  94 119 145 183 229 274
#
# _framework density 15.620196999999999
#
# number of rings (size 3 to 8) (size 9 to 14) (size 15 to 20)
#    0.000    2.375    2.500    3.000    1.750    2.750 
#    0.000    0.000    0.000    0.000    0.000    0.000 
#    0.000    0.500    0.000    0.000    0.000    3.750 
#
# Total GULP energy -178137.523020 kJ/mol
# GULP energy per Si atom -5566.797594 kJ/mol
# Density = 1.558464 g / cm^3
# Si number density = 15.620197 Si / 1000 Ang^3
#
#
#
# Elastic Constant Matrix: (Units=GPa)
#
#
# Indices 1 2 3 4 5 6 
#
# 1 102.7820 33.3389 19.7102 0.0000 27.3597 0.0000
# 2 33.3389 49.6713 18.6191 0.0000 11.9614 0.0000
# 3 19.7102 18.6191 78.0530 0.0000 16.4966 0.0000
# 4 0.0000 0.0000 0.0000 15.7124 0.0000 5.2025
# 5 27.3597 11.9614 16.4966 0.0000 24.3629 0.0000
# 6 0.0000 0.0000 0.0000 5.2025 0.0000 16.8082
#
#
#
# Elastic Compliance Matrix: (Units=1/GPa)
#
#
# Indices 1 2 3 4 5 6 
#
# 1 0.015921 -0.007450 0.000890 0.000000 -0.014825 0.000000
# 2 -0.007450 0.027214 -0.004149 0.000000 -0.002186 0.000000
# 3 0.000890 -0.004149 0.015588 0.000000 -0.009518 0.000000
# 4 0.000000 0.000000 0.000000 0.070911 0.000000 -0.021948
# 5 -0.014825 -0.002186 -0.009518 0.000000 0.065212 0.000000
# 6 0.000000 0.000000 0.000000 -0.021948 0.000000 0.066288
#
#
# Mechanical properties :
#
#
# Convention : Reuss Voigt Hill
#
# Bulk Modulus (GPa) = 26.80486 41.53807 34.17147
# Shear Modulus (GPa) = 16.94986 21.96591 19.45788
#
# Velocity S-wave (km/s) = 3.29770 3.75407 3.53326
# Velocity P-wave (km/s) = 5.63004 6.74099 6.21041
#
# Compressibility (1/GPa) = 0.03730666
#
# Stress axis : x y z
#
# Youngs Moduli (GPa) = 62.80859 36.74572 64.15077
#
# Poissons Ratio (x) = 0.27375 -0.05708
# Poissons Ratio (y) = 0.46791 0.26613
# Poissons Ratio (z) = -0.05589 0.15244
#
# Static dielectric constant tensor:
#      x y z
#    x 1.622910 0.000000 0.002280 
#    y 0.000000 1.467310 0.000000 
#    z 0.002280 0.000000 1.603700 
# 
# From -- ./inp_files/90187.got.cif
#   From: 2010.05.17/outbox.cif.g08.bks.cpg/sg12_46_cif.got.tgz:90187.got - 2010.06.03 13:09:07.
