data_PCOD9170512
_publ_section_title
;
Structure prediction by ZEFSAII (Michael W. Deem and Ramdas Pophale) SiO2 
 PCOD9170512
Probable space group: C 2/M
;
_chemical_formula_sum "Si O2"
_cell_formula_units_Z 52
_cell_length_a 24.904423
_cell_length_b 13.846004
_cell_length_c 18.380216
_cell_angle_alpha 90.000000
_cell_angle_beta 24.555208
_cell_angle_gamma 90.000000
_cell_volume 2633.877565
_symmetry_space_group_name_H-M "C 2/M"
_symmetry_group_IT_number 12
_symmetry_cell_setting 'monoclinic'
loop_
_space_group_symop_operation_xyz
x,y,z
-x,y,-z
-x,-y,-z
x,-y,z
1/2+x,1/2+y,z
1/2-x,1/2+y,-z
1/2-x,1/2-y,-z
1/2+x,1/2-y,z
loop_
_atom_site_type_symbol
_atom_site_label
_atom_site_fract_x
_atom_site_fract_y
_atom_site_fract_z
Si Si1 0.587643 0.892834 0.544573
Si Si2 0.727374 0.792157 0.669303
Si Si3 0.500000 0.822602 0.500000
Si Si4 0.373628 0.785232 0.893042
Si Si5 0.930893 0.892284 0.321213
Si Si6 0.503578 0.341360 0.915632
Si Si7 0.265444 0.221801 0.176731
O O1 0.692559 0.809014 0.428519
O O2 0.543259 0.883804 0.515732
O O3 0.461134 0.864523 0.746182
O O4 0.634986 0.000000 0.502652
O O5 0.583101 0.759528 0.826883
O O6 0.735121 0.828861 0.743412
O O7 0.798085 0.859737 0.523842
O O8 0.622277 0.754919 0.332282
O O9 0.465057 0.690391 0.787857
O O10 0.250000 0.750000 0.000000
O O11 0.329213 0.823163 0.026767
O O12 0.929797 0.891540 0.234768
O O13 0.966352 0.000000 0.302062
O O14 0.500000 0.387348 0.000000
O O15 0.355954 0.315982 0.078647
#
# Coordination Sequence:
#
# PCOD9170512 Si02
#       7
#     8   8   4   8   8   8   8
#     4  10  20  32  52  79 106 139 176 219 272 323
#     4   9  19  36  56  78 112 143 177 222 269 324
#     4  10  17  32  52  76 107 134 175 228 270 320
#     4  10  19  36  53  75 108 143 178 225 270 318
#     4  10  21  35  55  83 110 144 183 222 271 325
#     4   9  18  35  56  80 108 142 177 221 275 326
#     4   9  18  33  57  78 103 145 183 219 271 318
#
# _framework density 19.742756
#
# number of rings (size 3 to 8) (size 9 to 14) (size 15 to 20)
#    0.000    2.462    1.538    0.692    0.000    1.538 
#    0.000   13.846    0.000    5.077    0.000    0.000 
#    0.000    0.000    0.000    0.000    0.000    0.000 
#
# Total GULP energy -144877.305709 kJ/mol
# GULP energy per Si atom -5572.204066 kJ/mol
# Density = 1.969782 g / cm^3
# Si number density = 19.742756 Si / 1000 Ang^3
#
#
#
# Elastic Constant Matrix: (Units=GPa)
#
#
# Indices 1 2 3 4 5 6 
#
# 1 50.5894 14.0213 24.3087 0.0000 12.7039 0.0000
# 2 14.0213 43.3677 13.9179 0.0000 14.4085 0.0000
# 3 24.3087 13.9179 114.4327 0.0000 21.7679 0.0000
# 4 0.0000 0.0000 0.0000 -2.1830 0.0000 -4.3117
# 5 12.7039 14.4085 21.7679 0.0000 50.3955 0.0000
# 6 0.0000 0.0000 0.0000 -4.3117 0.0000 2.5518
#
#
#
# Elastic Compliance Matrix: (Units=1/GPa)
#
#
# Indices 1 2 3 4 5 6 
#
# 1 0.023858 -0.005557 -0.003868 0.000000 -0.002755 0.000000
# 2 -0.005557 0.027144 -0.000993 0.000000 -0.005931 0.000000
# 3 -0.003868 -0.000993 0.010287 0.000000 -0.003184 0.000000
# 4 0.000000 0.000000 0.000000 -0.105613 0.000000 -0.178454
# 5 -0.002755 -0.005931 -0.003184 0.000000 0.023609 0.000000
# 6 0.000000 0.000000 0.000000 -0.178454 0.000000 0.090350
#
#
# Mechanical properties :
#
#
# Convention : Reuss Voigt Hill
#
# Bulk Modulus (GPa) = 24.71982 34.76507 29.74244
# Shear Modulus (GPa) = 48.09771 20.56231 34.33001
#
# Velocity S-wave (km/s) = 4.94116 3.23075 4.17450
# Velocity P-wave (km/s) = 6.71577 5.61820 6.19136
#
# Compressibility (1/GPa) = 0.04045337
#
# Stress axis : x y z
#
# Youngs Moduli (GPa) = 41.91550 36.83997 97.21041
#
# Poissons Ratio (x) = 0.20471 0.37603
# Poissons Ratio (y) = 0.23292 0.09650
# Poissons Ratio (z) = 0.16214 0.03657
#
# Static dielectric constant tensor:
#      x y z
#    x 1.733560 0.000000 0.028990 
#    y 0.000000 1.642130 0.000000 
#    z 0.028990 0.000000 1.724940 
# 
# From -- ./inp_files/289751.got.cif
#   From: 2010.05.17/outbox.cif.g08.bks.cpg/sg12_145_cif.got.tgz:289751.got - 2010.06.03 13:09:07.
