data_PCOD9170948
_publ_section_title
;
Structure prediction by ZEFSAII (Michael W. Deem and Ramdas Pophale) SiO2 
 PCOD9170948
Probable space group: C 2/M
;
_chemical_formula_sum "Si O2"
_cell_formula_units_Z 40
_cell_length_a 17.906071
_cell_length_b 14.023850
_cell_length_c 18.797469
_cell_angle_alpha 90.000000
_cell_angle_beta 23.517354
_cell_angle_gamma 90.000000
_cell_volume 1883.514716
_symmetry_space_group_name_H-M "C 2/M"
_symmetry_group_IT_number 12
_symmetry_cell_setting 'monoclinic'
loop_
_space_group_symop_operation_xyz
x,y,z
-x,y,-z
-x,-y,-z
x,-y,z
1/2+x,1/2+y,z
1/2-x,1/2+y,-z
1/2-x,1/2-y,-z
1/2+x,1/2-y,z
loop_
_atom_site_type_symbol
_atom_site_label
_atom_site_fract_x
_atom_site_fract_y
_atom_site_fract_z
Si Si1 0.303859 0.642313 0.971935
Si Si2 0.154299 0.214122 0.472419
Si Si3 0.396193 0.106870 0.381063
Si Si4 0.292475 0.607360 0.822750
Si Si5 0.477289 0.729069 0.097936
O O1 0.359340 0.601700 0.847188
O O2 0.457806 0.654446 0.898266
O O3 0.250000 0.750000 0.000000
O O4 0.113353 0.600334 0.168926
O O5 0.285250 0.151249 0.410832
O O6 0.118372 0.314360 0.544313
O O7 0.272714 0.235456 0.298726
O O8 0.961749 0.157220 0.633365
O O9 0.329581 0.000000 0.456677
O O10 0.250008 0.500000 0.835622
O O11 0.115169 0.678392 0.977454
O O12 0.500000 0.686835 0.000000
#
# Coordination Sequence:
#
# PCOD9170948 Si02
#       5
#     8   8   8   8   8
#     4  10  17  38  61  87 119 160 200 249 299 347
#     4  11  21  38  62  91 125 155 204 249 309 358
#     4  11  20  35  65  95 121 153 200 262 308 352
#     4  11  22  39  65  96 122 156 206 254 302 361
#     4  11  24  41  60  86 127 170 199 247 305 364
#
# _framework density 21.236892999999998
#
# number of rings (size 3 to 8) (size 9 to 14) (size 15 to 20)
#    0.000    1.200    8.000    2.400    0.000    2.000 
#    0.000    2.000    0.000    6.600    0.000    0.000 
#    0.000    0.000    0.000    0.000    0.000    0.000 
#
# Total GULP energy -111701.485371 kJ/mol
# GULP energy per Si atom -5585.074269 kJ/mol
# Density = 2.118856 g / cm^3
# Si number density = 21.236893 Si / 1000 Ang^3
#
#
#
# Elastic Constant Matrix: (Units=GPa)
#
#
# Indices 1 2 3 4 5 6 
#
# 1 59.8727 -10.9057 8.0785 0.0006 9.3197 0.0000
# 2 -10.9057 95.6977 1.9572 -0.0092 -11.0395 0.0027
# 3 8.0785 1.9572 140.7647 -0.0074 7.8861 0.0032
# 4 0.0006 -0.0092 -0.0074 8.5353 0.0035 -10.0182
# 5 9.3197 -11.0395 7.8861 0.0035 16.4910 0.0001
# 6 0.0000 0.0027 0.0032 -10.0182 0.0001 4.1088
#
#
#
# Elastic Compliance Matrix: (Units=1/GPa)
#
#
# Indices 1 2 3 4 5 6 
#
# 1 0.018436 0.001019 -0.000541 -0.000002 -0.009478 -0.000004
# 2 0.001019 0.011430 -0.000631 0.000000 0.007377 -0.000008
# 3 -0.000541 -0.000631 0.007347 -0.000001 -0.003630 -0.000007
# 4 -0.000002 0.000000 -0.000001 -0.062926 0.000015 -0.153430
# 5 -0.009478 0.007377 -0.003630 0.000015 0.072670 0.000034
# 6 -0.000004 -0.000008 -0.000007 -0.153430 0.000034 -0.130719
#
#
# Mechanical properties :
#
#
# Convention : Reuss Voigt Hill
#
# Bulk Modulus (GPa) = 27.09559 32.73278 29.91419
# Shear Modulus (GPa) = -70.27008 25.64069 -22.31469
#
# Velocity S-wave (km/s) = -5.75852 3.47849 -3.24505
# Velocity P-wave (km/s) = 5.60603 5.61959 0.27586
#
# Compressibility (1/GPa) = 0.03690638
#
# Stress axis : x y z
#
# Youngs Moduli (GPa) = 54.24163 87.49240 136.10567
#
# Poissons Ratio (x) = -0.08912 0.07366
# Poissons Ratio (y) = -0.05525 0.08584
# Poissons Ratio (z) = 0.02936 0.05518
#
# Static dielectric constant tensor:
#      x y z
#    x 1.810880 0.000000 -0.015190 
#    y 0.000000 1.773980 0.000010 
#    z -0.015190 0.000010 1.778970 
# 
# From -- ./inp_files/322060.got.cif
#   From: 2010.05.17/outbox.cif.g08.bks.cpg/sg12_162_cif.got.tgz:322060.got - 2010.06.03 13:09:07.
