data_PCOD9170300
_publ_section_title
;
Structure prediction by ZEFSAII (Michael W. Deem and Ramdas Pophale) SiO2 
 PCOD9170300
Probable space group: C 2/M
;
_chemical_formula_sum "Si O2"
_cell_formula_units_Z 64
_cell_length_a 15.240764
_cell_length_b 22.465745
_cell_length_c 10.673060
_cell_angle_alpha 90.000000
_cell_angle_beta 66.122190
_cell_angle_gamma 90.000000
_cell_volume 3341.626126
_symmetry_space_group_name_H-M "C 2/M"
_symmetry_group_IT_number 12
_symmetry_cell_setting 'monoclinic'
loop_
_space_group_symop_operation_xyz
x,y,z
-x,y,-z
-x,-y,-z
x,-y,z
1/2+x,1/2+y,z
1/2-x,1/2+y,-z
1/2-x,1/2-y,-z
1/2+x,1/2-y,z
loop_
_atom_site_type_symbol
_atom_site_label
_atom_site_fract_x
_atom_site_fract_y
_atom_site_fract_z
Si Si1 0.062641 0.883774 0.086727
Si Si2 0.624726 0.215657 0.328122
Si Si3 0.109189 0.343274 0.888267
Si Si4 0.612515 0.645473 0.413241
Si Si5 0.412806 0.806326 0.375563
Si Si6 0.183905 0.789581 0.893764
Si Si7 0.775243 0.068551 0.851050
Si Si8 0.887949 0.832641 0.321696
O O1 0.149859 0.925941 0.076248
O O2 0.984167 0.869980 0.237926
O O3 0.117966 0.821263 0.032905
O O4 0.000000 0.900137 0.000000
O O5 0.619592 0.286994 0.356149
O O6 0.643122 0.189694 0.458852
O O7 0.524901 0.187498 0.343500
O O8 0.701773 0.208283 0.172819
O O9 0.113368 0.344129 0.732581
O O10 0.149205 0.277623 0.897732
O O11 0.179035 0.391797 0.910526
O O12 0.000000 0.348213 0.000000
O O13 0.500000 0.634274 0.500000
O O14 0.663999 0.599109 0.295051
O O15 0.659021 0.643850 0.524752
O O16 0.406487 0.736859 0.339874
O O17 0.164344 0.828752 0.780074
O O18 0.752584 0.000000 0.841992
#
# Coordination Sequence:
#
# PCOD9170300 Si02
#       8
#     8   8   8   8   8   8   8   8
#     4  10  21  40  59  87 115 145 180 242 295 353
#     4  10  17  30  55  91 119 154 179 226 287 356
#     4  11  24  38  57  86 120 158 193 237 282 341
#     4  11  18  35  58  82 120 149 180 236 287 341
#     4   9  18  31  50  84 127 151 178 218 285 354
#     4  10  20  31  60  90 118 147 185 230 293 352
#     4  12  27  42  59  82 108 156 208 237 282 338
#     4   9  17  32  53  83 123 144 172 217 295 349
#
# _framework density 19.152352
#
# number of rings (size 3 to 8) (size 9 to 14) (size 15 to 20)
#    0.000    1.750    5.000    1.875    3.500    2.750 
#    0.000    0.000    0.000    0.000    0.000    1.750 
#    0.000    0.000    0.000    0.000    0.000    0.000 
#
# Total GULP energy -178348.865027 kJ/mol
# GULP energy per Si atom -5573.402032 kJ/mol
# Density = 1.910876 g / cm^3
# Si number density = 19.152352 Si / 1000 Ang^3
#
#
#
# Elastic Constant Matrix: (Units=GPa)
#
#
# Indices 1 2 3 4 5 6 
#
# 1 63.1472 35.3502 32.6266 0.0000 -13.6828 0.0000
# 2 35.3502 66.2907 14.8117 0.0000 -0.3643 0.0000
# 3 32.6266 14.8117 66.3786 0.0000 3.1617 0.0000
# 4 0.0000 0.0000 0.0000 6.4748 0.0000 1.3303
# 5 -13.6828 -0.3643 3.1617 0.0000 34.4439 0.0000
# 6 0.0000 0.0000 0.0000 1.3303 0.0000 2.1172
#
#
#
# Elastic Compliance Matrix: (Units=1/GPa)
#
#
# Indices 1 2 3 4 5 6 
#
# 1 0.035405 -0.015519 -0.014666 0.000000 0.015247 0.000000
# 2 -0.015519 0.022688 0.002860 0.000000 -0.006188 0.000000
# 3 -0.014666 0.002860 0.022008 0.000000 -0.007816 0.000000
# 4 0.000000 0.000000 0.000000 0.177338 0.000000 -0.111428
# 5 0.015247 -0.006188 -0.007816 0.000000 0.035741 0.000000
# 6 0.000000 0.000000 0.000000 -0.111428 0.000000 0.542343
#
#
# Mechanical properties :
#
#
# Convention : Reuss Voigt Hill
#
# Bulk Modulus (GPa) = 39.29111 40.15481 39.72296
# Shear Modulus (GPa) = 5.56386 16.14237 10.85312
#
# Velocity S-wave (km/s) = 1.70627 2.90632 2.38307
# Velocity P-wave (km/s) = 4.94382 5.68100 5.32518
#
# Compressibility (1/GPa) = 0.02545105
#
# Stress axis : x y z
#
# Youngs Moduli (GPa) = 28.24466 44.07641 45.43883
#
# Poissons Ratio (x) = 0.68404 0.66639
# Poissons Ratio (y) = 0.43834 -0.12997
# Poissons Ratio (z) = 0.41422 -0.12607
#
# Static dielectric constant tensor:
#      x y z
#    x 1.780380 0.000000 0.046880 
#    y 0.000000 1.613200 0.000000 
#    z 0.046880 0.000000 1.729290 
# 
# From -- ./inp_files/147644.got.cif
#   From: 2010.05.17/outbox.cif.g08.bks.cpg/sg12_74_cif.got.tgz:147644.got - 2010.06.03 13:09:07.
