data_PCOD9170206
_publ_section_title
;
Structure prediction by ZEFSAII (Michael W. Deem and Ramdas Pophale) SiO2 
 PCOD9170206
Probable space group: C 2/M
;
_chemical_formula_sum "Si O2"
_cell_formula_units_Z 44
_cell_length_a 7.123864
_cell_length_b 29.095856
_cell_length_c 9.458601
_cell_angle_alpha 90.000000
_cell_angle_beta 60.950694
_cell_angle_gamma 90.000000
_cell_volume 1713.900277
_symmetry_space_group_name_H-M "C 2/M"
_symmetry_group_IT_number 12
_symmetry_cell_setting 'monoclinic'
loop_
_space_group_symop_operation_xyz
x,y,z
-x,y,-z
-x,-y,-z
x,-y,z
1/2+x,1/2+y,z
1/2-x,1/2+y,-z
1/2-x,1/2-y,-z
1/2+x,1/2-y,z
loop_
_atom_site_type_symbol
_atom_site_label
_atom_site_fract_x
_atom_site_fract_y
_atom_site_fract_z
Si Si1 0.390909 0.000000 0.884977
Si Si2 0.266068 0.195284 0.016991
Si Si3 0.500000 0.745046 0.500000
Si Si4 0.686309 0.313986 0.666008
Si Si5 0.267652 0.401759 0.508650
Si Si6 0.733922 0.500000 0.485016
Si Si7 0.898371 0.398685 0.878415
O O1 0.284911 0.949110 0.906652
O O2 0.586080 0.000000 0.701453
O O3 0.500000 0.000000 0.000000
O O4 0.048260 0.186415 0.182910
O O5 0.500000 0.191797 0.000000
O O6 0.250000 0.250000 0.000000
O O7 0.272488 0.150191 0.910706
O O8 0.344974 0.710169 0.476338
O O9 0.366986 0.778487 0.655208
O O10 0.758132 0.364444 0.602433
O O11 0.500000 0.397255 0.500000
O O12 0.249719 0.451829 0.443797
O O13 0.093616 0.397177 0.695942
O O14 0.500000 0.500000 0.500000
O O15 0.000000 0.399727 0.000000
#
# Coordination Sequence:
#
# PCOD9170206 Si02
#       7
#     4   8   4   8   8   4   8
#     4   8  14  28  44  66 103 136 172 212 261 316
#     4  11  23  36  53  79 112 141 175 217 269 319
#     4  10  24  36  58  74 104 142 186 214 264 310
#     4  11  22  38  56  78 107 142 181 221 265 320
#     4  10  17  30  51  76 107 140 178 222 267 318
#     4   8  16  26  44  75 104 134 172 220 270 308
#     4   9  18  29  47  75 105 140 173 217 268 313
#
# _framework density 25.672440000000002
#
# number of rings (size 3 to 8) (size 9 to 14) (size 15 to 20)
#    0.000    2.182    0.909    3.273    5.091    1.455 
#    0.000    0.000    0.000    0.545    0.000    0.636 
#    0.000    0.000    0.000    0.000    0.000    0.000 
#
# Total GULP energy -122816.466373 kJ/mol
# GULP energy per Si atom -5582.566653 kJ/mol
# Density = 2.561401 g / cm^3
# Si number density = 25.672440 Si / 1000 Ang^3
#
#
#
# Elastic Constant Matrix: (Units=GPa)
#
#
# Indices 1 2 3 4 5 6 
#
# 1 100.4524 21.5955 29.0006 0.0000 -21.1774 0.0000
# 2 21.5955 298.6585 77.8429 0.0000 -14.1097 0.0000
# 3 29.0006 77.8429 114.9288 0.0000 -21.4829 0.0000
# 4 0.0000 0.0000 0.0000 27.2753 0.0000 -12.3809
# 5 -21.1774 -14.1097 -21.4829 0.0000 38.3423 0.0000
# 6 0.0000 0.0000 0.0000 -12.3809 0.0000 9.2480
#
#
#
# Elastic Compliance Matrix: (Units=1/GPa)
#
#
# Indices 1 2 3 4 5 6 
#
# 1 0.011644 -0.000102 -0.001870 0.000000 0.005346 0.000000
# 2 -0.000102 0.004067 -0.002747 0.000000 -0.000099 0.000000
# 3 -0.001870 -0.002747 0.011898 0.000000 0.004622 0.000000
# 4 0.000000 0.000000 0.000000 0.093456 0.000000 0.125116
# 5 0.005346 -0.000099 0.004622 0.000000 0.031587 0.000000
# 6 0.000000 0.000000 0.000000 0.125116 0.000000 0.275633
#
#
# Mechanical properties :
#
#
# Convention : Reuss Voigt Hill
#
# Bulk Modulus (GPa) = 55.03537 85.65751 70.34644
# Shear Modulus (GPa) = 11.26686 40.67984 25.97335
#
# Velocity S-wave (km/s) = 2.09719 3.98499 3.18421
# Velocity P-wave (km/s) = 5.22957 7.38996 6.40156
#
# Compressibility (1/GPa) = 0.01817013
#
# Stress axis : x y z
#
# Youngs Moduli (GPa) = 85.88312 245.87459 84.04919
#
# Poissons Ratio (x) = 0.02509 0.15715
# Poissons Ratio (y) = 0.00876 0.23092
# Poissons Ratio (z) = 0.16058 0.67554
#
# Static dielectric constant tensor:
#      x y z
#    x 2.253180 0.000000 0.014150 
#    y 0.000000 2.085390 0.000000 
#    z 0.014150 0.000000 2.003540 
# 
# From -- ./inp_files/125105.got.cif
#   From: 2010.05.17/outbox.cif.g08.bks.cpg/sg12_63_cif.got.tgz:125105.got - 2010.06.03 13:09:07.
