data_PCOD9170977
_publ_section_title
;
Structure prediction by ZEFSAII (Michael W. Deem and Ramdas Pophale) SiO2 
 PCOD9170977
Probable space group: C 2/M
;
_chemical_formula_sum "Si O2"
_cell_formula_units_Z 44
_cell_length_a 5.584730
_cell_length_b 18.750984
_cell_length_c 19.706896
_cell_angle_alpha 90.000000
_cell_angle_beta 97.347682
_cell_angle_gamma 90.000000
_cell_volume 2046.743756
_symmetry_space_group_name_H-M "C 2/M"
_symmetry_group_IT_number 12
_symmetry_cell_setting 'monoclinic'
loop_
_space_group_symop_operation_xyz
x,y,z
-x,y,-z
-x,-y,-z
x,-y,z
1/2+x,1/2+y,z
1/2-x,1/2+y,-z
1/2-x,1/2-y,-z
1/2+x,1/2-y,z
loop_
_atom_site_type_symbol
_atom_site_label
_atom_site_fract_x
_atom_site_fract_y
_atom_site_fract_z
Si Si1 0.891635 0.253996 0.604542
Si Si2 0.385035 0.397926 0.668134
Si Si3 0.591436 0.878955 0.287236
Si Si4 0.441445 0.668377 0.918415
Si Si5 0.729327 0.500000 0.457489
Si Si6 0.582797 0.831726 0.135394
O O1 0.624497 0.250608 0.566698
O O2 0.906244 0.187457 0.657658
O O3 0.905846 0.325950 0.648360
O O4 0.655658 0.420635 0.698172
O O5 0.306855 0.432770 0.593979
O O6 0.170353 0.415136 0.712785
O O7 0.595292 0.837224 0.216689
O O8 0.420245 0.749579 0.889601
O O9 0.673030 0.635959 0.888080
O O10 0.175286 0.636194 0.896793
O O11 0.500000 0.671238 0.000000
O O12 0.500000 0.500000 0.500000
O O13 0.000000 0.500000 0.500000
#
# Coordination Sequence:
#
# PCOD9170977 Si02
#       6
#     8   8   8   8   4   8
#     4   8  16  27  49  74 111 127 158 199 272 310
#     4  10  21  36  56  82 107 131 174 227 262 317
#     4  10  19  31  54  84 111 137 174 220 283 327
#     4  10  19  27  37  62 109 163 196 213 241 296
#     4  12  26  46  68  80 102 146 185 206 261 346
#     4  10  18  25  44  64 100 148 195 209 257 315
#
# _framework density 21.497563
#
# number of rings (size 3 to 8) (size 9 to 14) (size 15 to 20)
#    0.000    2.182    0.000    4.909   15.273    0.000 
#    0.000    0.000    0.000   29.455    0.000    0.000 
#    0.000    0.000    0.000   94.909    0.000    0.000 
#
# Total GULP energy -122561.330055 kJ/mol
# GULP energy per Si atom -5570.969548 kJ/mol
# Density = 2.144863 g / cm^3
# Si number density = 21.497563 Si / 1000 Ang^3
#
#
#
# Elastic Constant Matrix: (Units=GPa)
#
#
# Indices 1 2 3 4 5 6 
#
# 1 263.7048 2.1773 29.9290 0.0000 6.0076 0.0000
# 2 2.1773 34.2343 -7.9208 0.0000 2.8919 0.0000
# 3 29.9290 -7.9208 76.3163 0.0000 1.4541 0.0000
# 4 0.0000 0.0000 0.0000 17.1678 0.0000 1.0286
# 5 6.0076 2.8919 1.4541 0.0000 43.1761 0.0000
# 6 0.0000 0.0000 0.0000 1.0286 0.0000 -2.2374
#
#
#
# Elastic Compliance Matrix: (Units=1/GPa)
#
#
# Indices 1 2 3 4 5 6 
#
# 1 0.003991 -0.000589 -0.001618 0.000000 -0.000461 0.000000
# 2 -0.000589 0.030210 0.003406 0.000000 -0.002056 0.000000
# 3 -0.001618 0.003406 0.014100 0.000000 -0.000478 0.000000
# 4 0.000000 0.000000 0.000000 0.056687 0.000000 0.026062
# 5 -0.000461 -0.002056 -0.000478 0.000000 0.023379 0.000000
# 6 0.000000 0.000000 0.000000 0.026062 0.000000 -0.434973
#
#
# Mechanical properties :
#
#
# Convention : Reuss Voigt Hill
#
# Bulk Modulus (GPa) = 19.72427 46.95847 33.34137
# Shear Modulus (GPa) = -17.11719 34.95930 8.92106
#
# Velocity S-wave (km/s) = -2.82483 4.03699 2.03932
# Velocity P-wave (km/s) = 1.20188 6.60460 4.59218
#
# Compressibility (1/GPa) = 0.05069897
#
# Stress axis : x y z
#
# Youngs Moduli (GPa) = 250.55903 33.10206 70.92056
#
# Poissons Ratio (x) = 0.01950 0.11472
# Poissons Ratio (y) = 0.14761 -0.24153
# Poissons Ratio (z) = 0.40529 -0.11273
#
# Static dielectric constant tensor:
#      x y z
#    x 1.933120 0.000000 0.029580 
#    y 0.000000 1.759310 0.000000 
#    z 0.029580 0.000000 1.710620 
# 
# From -- ./inp_files/253180.got.cif
#   From: 2010.05.17/outbox.cif.g08.bks.cpg/sg12_127_cif.got.tgz:253180.got - 2010.06.03 13:09:07.
