data_PCOD9170889
_publ_section_title
;
Structure prediction by ZEFSAII (Michael W. Deem and Ramdas Pophale) SiO2 
 PCOD9170889
Probable space group: C 2/M
;
_chemical_formula_sum "Si O2"
_cell_formula_units_Z 44
_cell_length_a 5.373170
_cell_length_b 33.547782
_cell_length_c 13.736760
_cell_angle_alpha 90.000000
_cell_angle_beta 115.389389
_cell_angle_gamma 90.000000
_cell_volume 2236.999382
_symmetry_space_group_name_H-M "C 2/M"
_symmetry_group_IT_number 12
_symmetry_cell_setting 'monoclinic'
loop_
_space_group_symop_operation_xyz
x,y,z
-x,y,-z
-x,-y,-z
x,-y,z
1/2+x,1/2+y,z
1/2-x,1/2+y,-z
1/2-x,1/2-y,-z
1/2+x,1/2-y,z
loop_
_atom_site_type_symbol
_atom_site_label
_atom_site_fract_x
_atom_site_fract_y
_atom_site_fract_z
Si Si1 0.715757 0.853420 0.164886
Si Si2 0.991309 0.882144 0.382525
Si Si3 0.500000 0.076208 0.500000
Si Si4 0.169811 0.096176 0.121246
Si Si5 0.828828 0.234614 0.121037
Si Si6 0.096771 0.545256 0.310703
O O1 0.837921 0.849376 0.294673
O O2 0.414689 0.873976 0.123373
O O3 0.729002 0.810376 0.118773
O O4 0.940944 0.880574 0.146501
O O5 0.834014 0.922980 0.327839
O O6 0.000000 0.876345 0.500000
O O7 0.301818 0.893025 0.410384
O O8 0.595070 0.048478 0.428021
O O9 0.326980 0.062769 0.211352
O O10 0.000000 0.080207 0.000000
O O11 0.659544 0.260422 0.171916
O O12 0.750000 0.250000 0.000000
O O13 0.149081 0.500000 0.289843
#
# Coordination Sequence:
#
# PCOD9170889 Si02
#       6
#     8   8   4   8   8   8
#     4  11  22  41  62  87 126 156 198 250 294 362
#     4   9  20  36  59  87 115 158 208 246 306 356
#     4  10  17  36  56  88 110 150 212 252 308 348
#     4  11  24  38  60  88 118 171 205 238 297 364
#     4  10  22  36  57  91 118 150 186 239 298 355
#     4  10  21  36  55  84 122 156 204 260 305 345
#
# _framework density 19.669205999999999
#
# number of rings (size 3 to 8) (size 9 to 14) (size 15 to 20)
#    0.000    1.818    1.818    1.909    7.636    4.364 
#    0.000    0.000    0.000    4.364    0.000    0.000 
#    0.000    0.000    0.000    0.000    0.000    0.000 
#
# Total GULP energy -122481.373756 kJ/mol
# GULP energy per Si atom -5567.335171 kJ/mol
# Density = 1.962444 g / cm^3
# Si number density = 19.669206 Si / 1000 Ang^3
#
#
#
# Elastic Constant Matrix: (Units=GPa)
#
#
# Indices 1 2 3 4 5 6 
#
# 1 101.9447 11.7803 11.3304 0.0000 0.9392 0.0000
# 2 11.7803 77.1164 33.4834 0.0000 -10.7252 0.0000
# 3 11.3304 33.4834 119.1370 0.0000 13.9699 0.0000
# 4 0.0000 0.0000 0.0000 22.9009 0.0000 -1.1774
# 5 0.9392 -10.7252 13.9699 0.0000 23.3508 0.0000
# 6 0.0000 0.0000 0.0000 -1.1774 0.0000 10.2154
#
#
#
# Elastic Compliance Matrix: (Units=1/GPa)
#
#
# Indices 1 2 3 4 5 6 
#
# 1 0.010034 -0.001446 -0.000455 0.000000 -0.000796 0.000000
# 2 -0.001446 0.017504 -0.006164 0.000000 0.011785 0.000000
# 3 -0.000455 -0.006164 0.011291 0.000000 -0.009568 0.000000
# 4 0.000000 0.000000 0.000000 0.043927 0.000000 0.005063
# 5 -0.000796 0.011785 -0.009568 0.000000 0.053994 0.000000
# 6 0.000000 0.000000 0.000000 0.005063 0.000000 0.098475
#
#
# Mechanical properties :
#
#
# Convention : Reuss Voigt Hill
#
# Bulk Modulus (GPa) = 44.05267 45.70957 44.88112
# Shear Modulus (GPa) = 19.31090 27.40035 23.35563
#
# Velocity S-wave (km/s) = 3.13674 3.73642 3.44964
# Velocity P-wave (km/s) = 5.96358 6.47333 6.22368
#
# Compressibility (1/GPa) = 0.02270010
#
# Stress axis : x y z
#
# Youngs Moduli (GPa) = 99.65918 57.13076 88.56466
#
# Poissons Ratio (x) = 0.08262 0.04025
# Poissons Ratio (y) = 0.14412 0.54590
# Poissons Ratio (z) = 0.04530 0.35214
#
# Static dielectric constant tensor:
#      x y z
#    x 1.847480 0.000000 0.035970 
#    y 0.000000 1.682620 0.000000 
#    z 0.035970 0.000000 1.770870 
# 
# From -- ./inp_files/192478.got.cif
#   From: 2010.05.17/outbox.cif.g08.bks.cpg/sg12_97_cif.got.tgz:192478.got - 2010.06.03 13:09:07.
