data_PCOD9170717
_publ_section_title
;
Structure prediction by ZEFSAII (Michael W. Deem and Ramdas Pophale) SiO2 
 PCOD9170717
Probable space group: C 2/M
;
_chemical_formula_sum "Si O2"
_cell_formula_units_Z 52
_cell_length_a 20.115265
_cell_length_b 25.732050
_cell_length_c 14.077250
_cell_angle_alpha 90.000000
_cell_angle_beta 164.951909
_cell_angle_gamma 90.000000
_cell_volume 1891.787450
_symmetry_space_group_name_H-M "C 2/M"
_symmetry_group_IT_number 12
_symmetry_cell_setting 'monoclinic'
loop_
_space_group_symop_operation_xyz
x,y,z
-x,y,-z
-x,-y,-z
x,-y,z
1/2+x,1/2+y,z
1/2-x,1/2+y,-z
1/2-x,1/2-y,-z
1/2+x,1/2-y,z
loop_
_atom_site_type_symbol
_atom_site_label
_atom_site_fract_x
_atom_site_fract_y
_atom_site_fract_z
Si Si1 0.299047 0.500000 0.575664
Si Si2 0.061323 0.500000 0.741737
Si Si3 0.391988 0.303327 0.572908
Si Si4 0.613724 0.611553 0.557999
Si Si5 0.147767 0.880806 0.304042
Si Si6 0.549564 0.890249 0.713599
Si Si7 0.319992 0.500000 0.387644
Si Si8 0.492970 0.218372 0.385219
O O1 0.080871 0.500000 0.353838
O O2 0.413533 0.440615 0.746081
O O3 0.228109 0.500000 0.368279
O O4 0.973069 0.446931 0.572430
O O5 0.365944 0.500000 0.179212
O O6 0.248755 0.340993 0.301794
O O7 0.380101 0.333945 0.656700
O O8 0.330158 0.244254 0.453091
O O9 0.689734 0.293620 0.949076
O O10 0.500000 0.627490 0.500000
O O11 0.744128 0.555831 0.744417
O O12 0.357247 0.606158 0.138722
O O13 0.443981 0.882613 0.675699
O O14 0.000000 0.874878 0.000000
O O15 0.425269 0.841798 0.489721
O O16 0.500000 0.243902 0.500000
#
# Coordination Sequence:
#
# PCOD9170717 Si02
#       8
#     4   4   8   8   8   8   4   8
#     4  10  19  35  59  85 124 159 190 245 301 345
#     4   8  18  34  55  83 120 150 186 252 289 341
#     4  10  21  35  57  82 112 148 192 243 282 347
#     4  10  19  35  58  82 112 152 195 239 294 345
#     4  11  21  37  59  84 117 157 191 234 298 349
#     4   9  20  36  56  81 117 148 189 244 285 341
#     4  10  17  33  59  83 114 161 196 243 297 353
#     4  10  20  37  57  82 112 149 192 239 291 340
#
# _framework density 27.48723
#
# number of rings (size 3 to 8) (size 9 to 14) (size 15 to 20)
#    0.000    2.154    1.538    1.846    0.000    0.615 
#    0.000    1.154    0.000    2.769    0.000    0.000 
#    0.000    0.000    0.000    0.000    0.000    0.000 
#
# Total GULP energy -144744.889496 kJ/mol
# GULP energy per Si atom -5567.111134 kJ/mol
# Density = 2.742467 g / cm^3
# Si number density = 27.487230 Si / 1000 Ang^3
#
#
#
# Elastic Constant Matrix: (Units=GPa)
#
#
# Indices 1 2 3 4 5 6 
#
# 1 166.0208 81.9678 16.0006 0.0007 -6.0386 -0.0002
# 2 81.9678 246.8962 -3.7338 -0.0019 -1.2136 0.0002
# 3 16.0006 -3.7338 53.5219 -0.0056 12.3771 -0.0020
# 4 0.0007 -0.0019 -0.0056 -5.3350 -0.0006 1.2369
# 5 -6.0386 -1.2136 12.3771 -0.0006 37.8613 -0.0001
# 6 -0.0002 0.0002 -0.0020 1.2369 -0.0001 50.3746
#
#
#
# Elastic Compliance Matrix: (Units=1/GPa)
#
#
# Indices 1 2 3 4 5 6 
#
# 1 0.007657 -0.002576 -0.002955 0.000005 0.002105 0.000000
# 2 -0.002576 0.004922 0.001268 -0.000003 -0.000668 0.000000
# 3 -0.002955 0.001268 0.021371 -0.000022 -0.007417 0.000001
# 4 0.000005 -0.000003 -0.000022 -0.186379 0.000005 0.004576
# 5 0.002105 -0.000668 -0.007417 0.000005 0.029151 0.000000
# 6 0.000000 0.000000 0.000001 0.004576 0.000000 0.019739
#
#
# Mechanical properties :
#
#
# Convention : Reuss Voigt Hill
#
# Bulk Modulus (GPa) = 39.33655 72.76758 56.05207
# Shear Modulus (GPa) = -57.77812 41.39379 -8.19216
#
# Velocity S-wave (km/s) = -4.58973 3.88484 -1.72824
# Velocity P-wave (km/s) = 3.70750 6.83032 4.05634
#
# Compressibility (1/GPa) = 0.02542165
#
# Stress axis : x y z
#
# Youngs Moduli (GPa) = 130.60417 203.19005 46.79203
#
# Poissons Ratio (x) = 0.52348 0.13829
# Poissons Ratio (y) = 0.33648 -0.05933
# Poissons Ratio (z) = 0.38600 -0.25763
#
# Static dielectric constant tensor:
#      x y z
#    x 2.090630 0.000000 0.079480 
#    y 0.000000 2.550270 0.000000 
#    z 0.079480 0.000000 2.382930 
# 
# From -- ./inp_files/235793.got.cif
#   From: 2010.05.17/outbox.cif.g08.bks.cpg/sg12_118_cif.got.tgz:235793.got - 2010.06.03 13:09:07.
