data_PCOD9170525
_publ_section_title
;
Structure prediction by ZEFSAII (Michael W. Deem and Ramdas Pophale) SiO2 
 PCOD9170525
Probable space group: C 2/M
;
_chemical_formula_sum "Si O2"
_cell_formula_units_Z 56
_cell_length_a 10.197097
_cell_length_b 31.527111
_cell_length_c 13.516779
_cell_angle_alpha 90.000000
_cell_angle_beta 54.443048
_cell_angle_gamma 90.000000
_cell_volume 3535.181601
_symmetry_space_group_name_H-M "C 2/M"
_symmetry_group_IT_number 12
_symmetry_cell_setting 'monoclinic'
loop_
_space_group_symop_operation_xyz
x,y,z
-x,y,-z
-x,-y,-z
x,-y,z
1/2+x,1/2+y,z
1/2-x,1/2+y,-z
1/2-x,1/2-y,-z
1/2+x,1/2-y,z
loop_
_atom_site_type_symbol
_atom_site_label
_atom_site_fract_x
_atom_site_fract_y
_atom_site_fract_z
Si Si1 0.159349 0.209466 0.493773
Si Si2 0.435878 0.500000 0.917057
Si Si3 0.450161 0.092404 0.906616
Si Si4 0.050951 0.500000 0.091980
Si Si5 0.063167 0.906004 0.084652
Si Si6 0.058151 0.244557 0.081533
Si Si7 0.854635 0.326953 0.227677
Si Si8 0.474014 0.330295 0.751420
O O1 0.250000 0.250000 0.500000
O O2 0.277981 0.186317 0.365502
O O3 0.096247 0.178074 0.607501
O O4 0.000000 0.222454 0.500000
O O5 0.481144 0.453509 0.856853
O O6 0.500000 0.500000 0.000000
O O7 0.243481 0.500000 0.006908
O O8 0.541326 0.130475 0.813616
O O9 0.498928 0.045754 0.844478
O O10 0.500000 0.094290 0.000000
O O11 0.257304 0.097109 0.990071
O O12 0.000000 0.500000 0.000000
O O13 0.002892 0.870788 0.188112
O O14 0.000000 0.900594 0.000000
O O15 0.968253 0.288866 0.140526
O O16 0.013974 0.211031 0.184913
O O17 0.250000 0.250000 0.000000
O O18 0.000000 0.228756 0.000000
O O19 0.705245 0.332509 0.217395
#
# Coordination Sequence:
#
# PCOD9170525 Si02
#       8
#     8   4   8   4   8   8   8   8
#     4  10  22  40  56  69  92 140 182 213 253 297
#     4   8  16  30  50  73 109 139 159 198 252 311
#     4  10  17  32  53  75 109 132 164 206 255 306
#     4   8  16  26  48  79  97 135 167 192 244 312
#     4  10  19  33  52  82 109 134 167 206 258 307
#     4  12  22  32  50  73 100 130 161 204 264 306
#     4  11  21  36  53  72 102 136 169 213 257 296
#     4  11  21  36  53  73 102 132 174 214 248 308
#
# _framework density 15.840771
#
# number of rings (size 3 to 8) (size 9 to 14) (size 15 to 20)
#    0.000    1.714    4.286    1.714    0.000    0.000 
#    2.571    0.000    0.000    0.857    0.000    3.000 
#    0.000    6.857    0.000    0.000    0.000    0.000 
#
# Total GULP energy -156051.200346 kJ/mol
# GULP energy per Si atom -5573.257155 kJ/mol
# Density = 1.580472 g / cm^3
# Si number density = 15.840771 Si / 1000 Ang^3
#
#
#
# Elastic Constant Matrix: (Units=GPa)
#
#
# Indices 1 2 3 4 5 6 
#
# 1 98.3005 20.9011 30.9217 0.0000 5.5365 0.0000
# 2 20.9011 130.3746 42.2110 0.0000 7.3454 0.0000
# 3 30.9217 42.2110 78.3716 0.0000 5.9583 0.0000
# 4 0.0000 0.0000 0.0000 4.9956 0.0000 1.1824
# 5 5.5365 7.3454 5.9583 0.0000 19.0992 0.0000
# 6 0.0000 0.0000 0.0000 1.1824 0.0000 23.2580
#
#
#
# Elastic Compliance Matrix: (Units=1/GPa)
#
#
# Indices 1 2 3 4 5 6 
#
# 1 0.011704 -0.000388 -0.004263 0.000000 -0.001913 0.000000
# 2 -0.000388 0.009383 -0.004747 0.000000 -0.002015 0.000000
# 3 -0.004263 -0.004747 0.017173 0.000000 -0.002296 0.000000
# 4 0.000000 0.000000 0.000000 0.202613 0.000000 -0.010300
# 5 -0.001913 -0.002015 -0.002296 0.000000 0.054404 0.000000
# 6 0.000000 0.000000 0.000000 -0.010300 0.000000 0.043520
#
#
# Mechanical properties :
#
#
# Convention : Reuss Voigt Hill
#
# Bulk Modulus (GPa) = 51.38017 55.01268 53.19643
# Shear Modulus (GPa) = 13.73313 23.67141 18.70227
#
# Velocity S-wave (km/s) = 2.94759 3.86986 3.43977
# Velocity P-wave (km/s) = 6.64005 7.40079 7.03071
#
# Compressibility (1/GPa) = 0.01946276
#
# Stress axis : x y z
#
# Youngs Moduli (GPa) = 85.43854 106.57579 58.22988
#
# Poissons Ratio (x) = 0.04138 0.24826
# Poissons Ratio (y) = 0.03317 0.27644
# Poissons Ratio (z) = 0.36426 0.50595
#
# Static dielectric constant tensor:
#      x y z
#    x 1.533420 0.000000 0.002020 
#    y 0.000000 1.567680 0.000000 
#    z 0.002020 0.000000 1.498700 
# 
# From -- ./inp_files/200548.got.cif
#   From: 2010.05.17/outbox.cif.g08.bks.cpg/sg12_101_cif.got.tgz:200548.got - 2010.06.03 13:09:07.
