data_PCOD9170902
_publ_section_title
;
Structure prediction by ZEFSAII (Michael W. Deem and Ramdas Pophale) SiO2 
 PCOD9170902
Probable space group: C 2/M
;
_chemical_formula_sum "Si O2"
_cell_formula_units_Z 44
_cell_length_a 8.957714
_cell_length_b 20.842601
_cell_length_c 11.621836
_cell_angle_alpha 90.000000
_cell_angle_beta 78.557961
_cell_angle_gamma 90.000000
_cell_volume 2126.697443
_symmetry_space_group_name_H-M "C 2/M"
_symmetry_group_IT_number 12
_symmetry_cell_setting 'monoclinic'
loop_
_space_group_symop_operation_xyz
x,y,z
-x,y,-z
-x,-y,-z
x,-y,z
1/2+x,1/2+y,z
1/2-x,1/2+y,-z
1/2-x,1/2-y,-z
1/2+x,1/2-y,z
loop_
_atom_site_type_symbol
_atom_site_label
_atom_site_fract_x
_atom_site_fract_y
_atom_site_fract_z
Si Si1 0.445075 0.500000 0.640537
Si Si2 0.739735 0.000000 0.267377
Si Si3 0.232897 0.861099 0.777124
Si Si4 0.362966 0.241237 0.587192
Si Si5 0.322629 0.500000 0.993861
Si Si6 0.609398 0.362122 0.260781
Si Si7 0.683091 0.868538 0.970355
O O1 0.500000 0.500000 0.500000
O O2 0.597929 0.500000 0.694347
O O3 0.363565 0.432468 0.685244
O O4 0.687098 0.925789 0.289004
O O5 0.746499 0.000000 0.129088
O O6 0.294551 0.801852 0.697052
O O7 0.263851 0.851278 0.908351
O O8 0.050897 0.866864 0.784120
O O9 0.500000 0.207395 0.500000
O O10 0.250000 0.250000 0.500000
O O11 0.409044 0.309106 0.636700
O O12 0.260337 0.438220 0.940760
O O13 0.500000 0.500000 0.000000
O O14 0.739986 0.335956 0.152766
O O15 0.500000 0.868475 0.000000
#
# Coordination Sequence:
#
# PCOD9170902 Si02
#       7
#     4   4   8   8   4   8   8
#     4  10  20  35  65  98 127 161 224 267 305 384
#     4   8  18  35  61  91 119 163 208 255 306 375
#     4  10  22  43  68  93 129 175 218 268 334 407
#     4  12  26  45  67  92 130 176 224 273 334 404
#     4  10  17  36  62  89 133 177 209 251 326 400
#     4  11  23  42  67  96 129 177 219 272 337 398
#     4  11  23  37  64 100 134 165 221 281 336 390
#
# _framework density 20.689356
#
# number of rings (size 3 to 8) (size 9 to 14) (size 15 to 20)
#    0.000    1.455    1.818    5.182    5.091    0.727 
#    0.000    0.455    0.000    0.000    0.000    0.000 
#    0.000    0.000    0.000    0.000    0.000    0.000 
#
# Total GULP energy -122473.752753 kJ/mol
# GULP energy per Si atom -5566.988762 kJ/mol
# Density = 2.064227 g / cm^3
# Si number density = 20.689356 Si / 1000 Ang^3
#
#
#
# Elastic Constant Matrix: (Units=GPa)
#
#
# Indices 1 2 3 4 5 6 
#
# 1 89.2993 7.4434 32.5621 0.0000 -8.5791 0.0000
# 2 7.4434 97.8413 48.5968 0.0000 -2.8342 0.0000
# 3 32.5621 48.5968 122.1100 0.0000 -6.9192 0.0000
# 4 0.0000 0.0000 0.0000 26.3570 0.0000 -3.6514
# 5 -8.5791 -2.8342 -6.9192 0.0000 36.1869 0.0000
# 6 0.0000 0.0000 0.0000 -3.6514 0.0000 17.1033
#
#
#
# Elastic Compliance Matrix: (Units=1/GPa)
#
#
# Indices 1 2 3 4 5 6 
#
# 1 0.012665 0.000892 -0.003597 0.000000 0.002385 0.000000
# 2 0.000892 0.012802 -0.005322 0.000000 0.000197 0.000000
# 3 -0.003597 -0.005322 0.011317 0.000000 0.000894 0.000000
# 4 0.000000 0.000000 0.000000 0.039097 0.000000 0.008347
# 5 0.002385 0.000197 0.000894 0.000000 0.028386 0.000000
# 6 0.000000 0.000000 0.000000 0.008347 0.000000 0.060250
#
#
# Mechanical properties :
#
#
# Convention : Reuss Voigt Hill
#
# Bulk Modulus (GPa) = 48.23807 54.05060 51.14434
# Shear Modulus (GPa) = 26.66959 30.63933 28.65446
#
# Velocity S-wave (km/s) = 3.59423 3.85245 3.72558
# Velocity P-wave (km/s) = 6.37108 6.78012 6.57878
#
# Compressibility (1/GPa) = 0.02073051
#
# Stress axis : x y z
#
# Youngs Moduli (GPa) = 78.95975 78.11529 88.36199
#
# Poissons Ratio (x) = -0.06970 0.31785
# Poissons Ratio (y) = -0.07045 0.47022
# Poissons Ratio (z) = 0.28403 0.41569
#
# Static dielectric constant tensor:
#      x y z
#    x 1.783810 0.000000 -0.146620 
#    y 0.000000 2.061420 0.000000 
#    z -0.146620 0.000000 1.882860 
# 
# From -- ./inp_files/120791.got.cif
#   From: 2010.05.17/outbox.cif.g08.bks.cpg/sg12_61_cif.got.tgz:120791.got - 2010.06.03 13:09:07.
