data_PCOD9170752
_publ_section_title
;
Structure prediction by ZEFSAII (Michael W. Deem and Ramdas Pophale) SiO2 
 PCOD9170752
Probable space group: C 2/M
;
_chemical_formula_sum "Si O2"
_cell_formula_units_Z 64
_cell_length_a 9.641663
_cell_length_b 19.901037
_cell_length_c 22.136453
_cell_angle_alpha 90.000000
_cell_angle_beta 54.188722
_cell_angle_gamma 90.000000
_cell_volume 3444.522688
_symmetry_space_group_name_H-M "C 2/M"
_symmetry_group_IT_number 12
_symmetry_cell_setting 'monoclinic'
loop_
_space_group_symop_operation_xyz
x,y,z
-x,y,-z
-x,-y,-z
x,-y,z
1/2+x,1/2+y,z
1/2-x,1/2+y,-z
1/2-x,1/2-y,-z
1/2+x,1/2-y,z
loop_
_atom_site_type_symbol
_atom_site_label
_atom_site_fract_x
_atom_site_fract_y
_atom_site_fract_z
Si Si1 0.361304 0.923872 0.481190
Si Si2 0.290068 0.075365 0.793381
Si Si3 0.973885 0.269856 0.152821
Si Si4 0.465291 0.359079 0.380708
Si Si5 0.975275 0.706424 0.376951
Si Si6 0.165416 0.812027 0.917883
Si Si7 0.357882 0.339662 0.271927
Si Si8 0.642289 0.141643 0.711407
O O1 0.500000 0.921584 0.500000
O O2 0.173853 0.908341 0.555377
O O3 0.404188 0.859690 0.428468
O O4 0.369549 0.000000 0.452991
O O5 0.217820 0.125941 0.861933
O O6 0.207522 0.097060 0.750680
O O7 0.495275 0.086236 0.739190
O O8 0.247444 0.000000 0.819281
O O9 0.876141 0.247729 0.118277
O O10 0.972856 0.205816 0.198534
O O11 0.883254 0.327408 0.215488
O O12 0.165321 0.292197 0.089055
O O13 0.429068 0.281347 0.410420
O O14 0.440318 0.358120 0.314558
O O15 0.660389 0.376528 0.347452
O O16 0.914398 0.697424 0.323524
O O17 0.180095 0.700652 0.327414
O O18 0.000000 0.825529 0.000000
#
# Coordination Sequence:
#
# PCOD9170752 Si02
#       8
#     8   8   8   8   8   8   8   8
#     4  11  26  42  54  78 114 156 195 234 281 345
#     4   9  21  38  54  80 117 152 189 228 274 334
#     4  10  17  34  52  84 121 134 178 236 278 330
#     4  12  20  37  61  85 111 141 196 244 288 344
#     4  11  20  38  59  84 113 146 189 238 293 343
#     4  10  20  32  56  85 115 155 182 219 277 331
#     4  10  19  33  61  83 106 148 184 233 289 332
#     4  10  21  33  60  87 108 143 181 241 296 325
#
# _framework density 18.580224000000001
#
# number of rings (size 3 to 8) (size 9 to 14) (size 15 to 20)
#    0.000    1.625    3.750    2.250    0.000    3.750 
#    0.000    0.625    0.000    0.000    0.000    0.000 
#    0.000   12.000    0.000    0.000    0.000    0.000 
#
# Total GULP energy -178534.840133 kJ/mol
# GULP energy per Si atom -5579.213754 kJ/mol
# Density = 1.853793 g / cm^3
# Si number density = 18.580224 Si / 1000 Ang^3
#
#
#
# Elastic Constant Matrix: (Units=GPa)
#
#
# Indices 1 2 3 4 5 6 
#
# 1 62.0148 14.6868 13.8182 0.0000 -15.8422 0.0000
# 2 14.6868 73.3481 13.3333 0.0000 -8.0397 0.0000
# 3 13.8182 13.3333 61.5268 0.0000 -23.3782 0.0000
# 4 0.0000 0.0000 0.0000 0.5025 0.0000 1.1974
# 5 -15.8422 -8.0397 -23.3782 0.0000 31.3208 0.0000
# 6 0.0000 0.0000 0.0000 1.1974 0.0000 8.8389
#
#
#
# Elastic Compliance Matrix: (Units=1/GPa)
#
#
# Indices 1 2 3 4 5 6 
#
# 1 0.019084 -0.002802 -0.000397 0.000000 0.008637 0.000000
# 2 -0.002802 0.014684 -0.002316 0.000000 0.000623 0.000000
# 3 -0.000397 -0.002316 0.023091 0.000000 0.016440 0.000000
# 4 0.000000 0.000000 0.000000 2.939174 0.000000 -0.398181
# 5 0.008637 0.000623 0.016440 0.000000 0.048727 0.000000
# 6 0.000000 0.000000 0.000000 -0.398181 0.000000 0.167079
#
#
# Mechanical properties :
#
#
# Convention : Reuss Voigt Hill
#
# Bulk Modulus (GPa) = 21.82072 31.17404 26.49738
# Shear Modulus (GPa) = 1.54409 18.46918 10.00664
#
# Velocity S-wave (km/s) = 0.91260 3.15623 2.32322
# Velocity P-wave (km/s) = 3.58887 5.48607 4.63557
#
# Compressibility (1/GPa) = 0.04582799
#
# Stress axis : x y z
#
# Youngs Moduli (GPa) = 52.40078 68.10114 43.30738
#
# Poissons Ratio (x) = 0.19084 0.01719
# Poissons Ratio (y) = 0.14685 0.10030
# Poissons Ratio (z) = 0.02080 0.15772
#
# Static dielectric constant tensor:
#      x y z
#    x 1.638090 0.000000 0.002840 
#    y 0.000000 1.646460 0.000000 
#    z 0.002840 0.000000 1.649290 
# 
# From -- ./inp_files/333716.got.cif
#   From: 2010.05.17/outbox.cif.g08.bks.cpg/sg12_167_cif.got.tgz:333716.got - 2010.06.03 13:09:07.
