data_PCOD9170184
_publ_section_title
;
Structure prediction by ZEFSAII (Michael W. Deem and Ramdas Pophale) SiO2 
 PCOD9170184
Probable space group: C 2/M
;
_chemical_formula_sum "Si O2"
_cell_formula_units_Z 64
_cell_length_a 25.776636
_cell_length_b 7.730902
_cell_length_c 24.957040
_cell_angle_alpha 90.000000
_cell_angle_beta 134.053787
_cell_angle_gamma 90.000000
_cell_volume 3574.287581
_symmetry_space_group_name_H-M "C 2/M"
_symmetry_group_IT_number 12
_symmetry_cell_setting 'monoclinic'
loop_
_space_group_symop_operation_xyz
x,y,z
-x,y,-z
-x,-y,-z
x,-y,z
1/2+x,1/2+y,z
1/2-x,1/2+y,-z
1/2-x,1/2-y,-z
1/2+x,1/2-y,z
loop_
_atom_site_type_symbol
_atom_site_label
_atom_site_fract_x
_atom_site_fract_y
_atom_site_fract_z
Si Si1 0.225501 0.211458 0.082656
Si Si2 0.913901 0.208652 0.081849
Si Si3 0.888445 0.292930 0.183234
Si Si4 0.468642 0.711514 0.919568
Si Si5 0.842993 0.801173 0.338287
Si Si6 0.463533 0.800049 0.342236
Si Si7 0.062053 0.291306 0.502398
Si Si8 0.807289 0.208656 0.818873
O O1 0.305818 0.272293 0.126014
O O2 0.206191 0.264409 0.129389
O O3 0.225433 0.000000 0.081641
O O4 0.162843 0.269795 0.997365
O O5 0.920891 0.259180 0.148449
O O6 0.978266 0.269640 0.089461
O O7 0.913310 0.000000 0.078700
O O8 0.883607 0.500000 0.187662
O O9 0.935054 0.221810 0.266407
O O10 0.468879 0.500000 0.919207
O O11 0.385744 0.768627 0.855808
O O12 0.500000 0.762819 0.000000
O O13 0.896128 0.700743 0.335638
O O14 0.865231 0.764053 0.415630
O O15 0.760543 0.762708 0.265374
O O16 0.858113 0.000000 0.337778
O O17 0.532202 0.725737 0.423999
O O18 0.481912 0.000000 0.344366
O O19 0.062339 0.500000 0.500639
O O20 0.000000 0.237221 0.500000
O O21 0.808566 0.000000 0.820573
#
# Coordination Sequence:
#
# PCOD9170184 Si02
#       8
#     8   8   8   8   8   8   8   8
#     4   9  16  28  48  67  90 122 159 195 227 268
#     4  10  19  31  47  71  94 118 158 204 239 271
#     4  10  19  31  46  67  95 130 160 184 225 281
#     4   9  16  29  52  73  87 114 162 208 241 270
#     4  11  20  28  42  69 101 125 149 188 238 286
#     4   9  17  31  49  66  90 126 165 192 219 273
#     4   8  15  28  46  66  89 122 158 190 223 272
#     4  10  17  30  51  69  89 124 163 198 231 272
#
# _framework density 17.905667000000001
#
# number of rings (size 3 to 8) (size 9 to 14) (size 15 to 20)
#    0.000    2.500    2.500    2.250    0.000    2.750 
#    0.000    1.250    0.000    0.750    0.000    0.875 
#    0.000    0.000    0.000    0.000    0.000    0.000 
#
# Total GULP energy -178396.040543 kJ/mol
# GULP energy per Si atom -5574.876267 kJ/mol
# Density = 1.786491 g / cm^3
# Si number density = 17.905667 Si / 1000 Ang^3
#
#
#
# Elastic Constant Matrix: (Units=GPa)
#
#
# Indices 1 2 3 4 5 6 
#
# 1 83.1702 -3.7093 63.9424 0.0000 -17.4951 0.0000
# 2 -3.7093 25.5671 0.8000 -0.0003 -2.4617 0.0006
# 3 63.9424 0.8000 183.0284 0.0000 -9.7127 0.0000
# 4 0.0000 -0.0003 0.0000 -23.5168 0.0000 -16.5864
# 5 -17.4951 -2.4617 -9.7127 0.0000 16.4246 0.0000
# 6 0.0000 0.0006 0.0000 -16.5864 0.0000 3.6537
#
#
#
# Elastic Compliance Matrix: (Units=1/GPa)
#
#
# Indices 1 2 3 4 5 6 
#
# 1 0.021350 0.005197 -0.006435 0.000000 0.019715 0.000000
# 2 0.005197 0.040954 -0.001420 0.000001 0.010835 -0.000002
# 3 -0.006435 -0.001420 0.007581 0.000000 -0.002585 0.000000
# 4 0.000000 0.000001 0.000000 -0.010120 0.000000 -0.045942
# 5 0.019715 0.010835 -0.002585 0.000000 0.081980 -0.000001
# 6 0.000000 -0.000002 0.000000 -0.045942 -0.000001 0.065138
#
#
# Mechanical properties :
#
#
# Convention : Reuss Voigt Hill
#
# Bulk Modulus (GPa) = 15.48717 45.98131 30.73424
# Shear Modulus (GPa) = 21.39298 14.69448 18.04373
#
# Velocity S-wave (km/s) = 3.46028 2.86783 3.17789
# Velocity P-wave (km/s) = 4.96315 6.05817 5.53779
#
# Compressibility (1/GPa) = 0.06456956
#
# Stress axis : x y z
#
# Youngs Moduli (GPa) = 46.83855 24.41737 131.91052
#
# Poissons Ratio (x) = -0.12690 0.84888
# Poissons Ratio (y) = -0.24342 0.18727
# Poissons Ratio (z) = 0.30142 0.03467
#
# Static dielectric constant tensor:
#      x y z
#    x 1.576020 0.000000 0.001660 
#    y 0.000000 1.673830 0.000000 
#    z 0.001660 0.000000 1.653630 
# 
# From -- ./inp_files/323779.got.cif
#   From: 2010.05.17/outbox.cif.g08.bks.cpg/sg12_162_cif.got.tgz:323779.got - 2010.06.03 13:09:07.
