data_PCOD9170570
_publ_section_title
;
Structure prediction by ZEFSAII (Michael W. Deem and Ramdas Pophale) SiO2 
 PCOD9170570
Probable space group: C 2/M
;
_chemical_formula_sum "Si O2"
_cell_formula_units_Z 60
_cell_length_a 12.583879
_cell_length_b 15.046250
_cell_length_c 25.935836
_cell_angle_alpha 90.000000
_cell_angle_beta 28.008112
_cell_angle_gamma 90.000000
_cell_volume 2306.046029
_symmetry_space_group_name_H-M "C 2/M"
_symmetry_group_IT_number 12
_symmetry_cell_setting 'monoclinic'
loop_
_space_group_symop_operation_xyz
x,y,z
-x,y,-z
-x,-y,-z
x,-y,z
1/2+x,1/2+y,z
1/2-x,1/2+y,-z
1/2-x,1/2-y,-z
1/2+x,1/2-y,z
loop_
_atom_site_type_symbol
_atom_site_label
_atom_site_fract_x
_atom_site_fract_y
_atom_site_fract_z
Si Si1 0.884276 0.635387 0.931394
Si Si2 0.028110 0.393093 0.706381
Si Si3 0.100867 0.102754 0.151559
Si Si4 0.918734 0.607816 0.640877
Si Si5 0.946079 0.796369 0.078971
Si Si6 0.696723 0.599228 0.318194
Si Si7 0.500000 0.144280 0.500000
Si Si8 0.004841 0.101205 0.300596
O O1 0.998119 0.729544 0.897936
O O2 0.070808 0.592988 0.814963
O O3 0.797685 0.606515 0.025043
O O4 0.653468 0.634992 0.998107
O O5 0.004219 0.500000 0.723842
O O6 0.060667 0.377525 0.631781
O O7 0.793632 0.343770 0.818469
O O8 0.223616 0.360678 0.661497
O O9 0.851716 0.123675 0.235154
O O10 0.122312 0.145157 0.199925
O O11 0.083581 0.000000 0.172437
O O12 0.945654 0.500000 0.617171
O O13 0.987681 0.673069 0.564908
O O14 0.000000 0.755711 0.000000
O O15 0.606166 0.500000 0.369472
O O16 0.539336 0.643626 0.342060
O O17 0.743563 0.097402 0.398049
O O18 0.087974 0.000000 0.272090
#
# Coordination Sequence:
#
# PCOD9170570 Si02
#       8
#     8   8   8   8   8   8   4   8
#     4  11  22  34  52  77 117 147 192 240 270 322
#     4  10  20  36  56  79 114 151 190 232 270 333
#     4   9  17  30  51  80 111 148 188 228 275 326
#     4   9  16  28  52  82 109 142 183 228 278 331
#     4  11  23  37  50  76 113 150 202 227 275 326
#     4  10  21  35  53  80 115 155 190 225 276 332
#     4  10  17  32  56  82 116 144 174 230 287 340
#     4   9  18  31  49  78 113 145 181 225 281 337
#
# _framework density 26.018560999999998
#
# number of rings (size 3 to 8) (size 9 to 14) (size 15 to 20)
#    0.000    2.133    2.667    2.400    1.867    0.800 
#    0.000    2.667    0.000    3.200    0.000    0.933 
#    0.000    0.000    0.000    0.000    0.000    0.000 
#
# Total GULP energy -167171.184227 kJ/mol
# GULP energy per Si atom -5572.372808 kJ/mol
# Density = 2.595934 g / cm^3
# Si number density = 26.018561 Si / 1000 Ang^3
#
#
#
# Elastic Constant Matrix: (Units=GPa)
#
#
# Indices 1 2 3 4 5 6 
#
# 1 224.4673 11.7581 19.4525 -0.0017 18.8226 0.0059
# 2 11.7581 44.7764 8.4277 0.0002 10.4988 0.0088
# 3 19.4525 8.4277 56.0973 0.0160 17.6158 0.0383
# 4 -0.0017 0.0002 0.0160 -9.1615 0.0188 -5.3181
# 5 18.8226 10.4988 17.6158 0.0188 40.3919 -0.0012
# 6 0.0059 0.0088 0.0383 -5.3181 -0.0012 17.1983
#
#
#
# Elastic Compliance Matrix: (Units=1/GPa)
#
#
# Indices 1 2 3 4 5 6 
#
# 1 0.004712 -0.000674 -0.001041 -0.000005 -0.001567 -0.000001
# 2 -0.000674 0.024053 -0.001756 -0.000007 -0.005172 -0.000011
# 3 -0.001041 -0.001756 0.021036 0.000040 -0.008233 -0.000034
# 4 -0.000005 -0.000007 0.000040 -0.092541 0.000029 -0.028616
# 5 -0.001567 -0.005172 -0.008233 0.000029 0.030422 0.000033
# 6 -0.000001 -0.000011 -0.000034 -0.028616 0.000033 0.049297
#
#
# Mechanical properties :
#
#
# Convention : Reuss Voigt Hill
#
# Bulk Modulus (GPa) = 23.33150 44.95751 34.14451
# Shear Modulus (GPa) = 85.90057 28.73261 57.31659
#
# Velocity S-wave (km/s) = 5.75211 3.32672 4.69861
# Velocity P-wave (km/s) = 7.28714 5.66327 6.52591
#
# Compressibility (1/GPa) = 0.04286051
#
# Stress axis : x y z
#
# Youngs Moduli (GPa) = 212.23053 41.57422 47.53709
#
# Poissons Ratio (x) = 0.02803 0.04947
# Poissons Ratio (y) = 0.14307 0.08346
# Poissons Ratio (z) = 0.22086 0.07299
#
# Static dielectric constant tensor:
#      x y z
#    x 2.129550 0.000000 0.061390 
#    y 0.000000 2.109940 0.000010 
#    z 0.061390 0.000010 2.058900 
# 
# From -- ./inp_files/336860.got.cif
#   From: 2010.05.17/outbox.cif.g08.bks.cpg/sg12_169_cif.got.tgz:336860.got - 2010.06.03 13:09:07.
