data_PCOD9170193
_publ_section_title
;
Structure prediction by ZEFSAII (Michael W. Deem and Ramdas Pophale) SiO2 
 PCOD9170193
Probable space group: C 2/M
;
_chemical_formula_sum "Si O2"
_cell_formula_units_Z 56
_cell_length_a 19.295057
_cell_length_b 22.927384
_cell_length_c 21.458981
_cell_angle_alpha 90.000000
_cell_angle_beta 19.429120
_cell_angle_gamma 90.000000
_cell_volume 3157.800976
_symmetry_space_group_name_H-M "C 2/M"
_symmetry_group_IT_number 12
_symmetry_cell_setting 'monoclinic'
loop_
_space_group_symop_operation_xyz
x,y,z
-x,y,-z
-x,-y,-z
x,-y,z
1/2+x,1/2+y,z
1/2-x,1/2+y,-z
1/2-x,1/2-y,-z
1/2+x,1/2-y,z
loop_
_atom_site_type_symbol
_atom_site_label
_atom_site_fract_x
_atom_site_fract_y
_atom_site_fract_z
Si Si1 0.402404 0.644055 0.338460
Si Si2 0.143940 0.756510 0.709312
Si Si3 0.751308 0.434319 0.025371
Si Si4 0.239083 0.190169 0.276908
Si Si5 0.927504 0.435564 0.133122
Si Si6 0.947285 0.332103 0.780145
Si Si7 0.394200 0.731635 0.737931
O O1 0.405104 0.678195 0.270422
O O2 0.169853 0.647193 0.562963
O O3 0.550549 0.682592 0.258088
O O4 0.512061 0.582096 0.241850
O O5 0.137045 0.736443 0.786020
O O6 0.002686 0.712462 0.789069
O O7 0.379546 0.745977 0.484308
O O8 0.773774 0.500000 0.983231
O O9 0.886879 0.429913 0.973981
O O10 0.833193 0.386971 0.906617
O O11 0.298964 0.124297 0.244940
O O12 0.247232 0.205080 0.196801
O O13 0.000000 0.196573 0.500000
O O14 0.827942 0.500000 0.230182
O O15 0.000000 0.437419 0.000000
O O16 0.833857 0.291164 0.825019
#
# Coordination Sequence:
#
# PCOD9170193 Si02
#       7
#     8   8   8   8   8   8   8
#     4   9  18  33  51  70 101 130 160 208 260 287
#     4   8  15  29  49  74  98 126 161 207 251 301
#     4  11  22  34  51  73  97 135 178 204 235 291
#     4  10  17  30  51  73  99 127 166 202 240 296
#     4  10  21  35  44  63 104 139 169 204 230 276
#     4   9  17  34  51  72 101 127 162 209 254 292
#     4   8  16  28  50  76  98 127 160 203 256 299
#
# _framework density 17.73386
#
# number of rings (size 3 to 8) (size 9 to 14) (size 15 to 20)
#    0.000    2.714    1.429    2.571    0.000    3.143 
#    2.571    0.000    0.000    0.000    0.000    2.000 
#    0.000    5.714    0.000    0.000    0.000    0.000 
#
# Total GULP energy -156049.300959 kJ/mol
# GULP energy per Si atom -5573.189320 kJ/mol
# Density = 1.769350 g / cm^3
# Si number density = 17.733860 Si / 1000 Ang^3
#
#
#
# Elastic Constant Matrix: (Units=GPa)
#
#
# Indices 1 2 3 4 5 6 
#
# 1 68.3568 29.4769 9.9737 -0.0417 -12.6477 -0.0225
# 2 29.4769 79.3492 20.2008 0.0998 -13.2135 0.0381
# 3 9.9737 20.2008 47.0768 -1.3518 0.3121 -0.3045
# 4 -0.0417 0.0998 -1.3518 -181.1171 0.2590 -56.1735
# 5 -12.6477 -13.2135 0.3121 0.2590 16.2011 0.0579
# 6 -0.0225 0.0381 -0.3045 -56.1735 0.0579 12.7386
#
#
#
# Elastic Compliance Matrix: (Units=1/GPa)
#
#
# Indices 1 2 3 4 5 6 
#
# 1 0.018999 -0.004687 -0.002087 0.000017 0.011049 0.000023
# 2 -0.004687 0.017910 -0.006764 0.000069 0.011078 0.000028
# 3 -0.002087 -0.006764 0.024631 -0.000167 -0.007617 -0.000098
# 4 0.000017 0.000069 -0.000167 -0.002331 0.000147 -0.010282
# 5 0.011049 0.011078 -0.007617 0.000147 0.079529 0.000089
# 6 0.000023 0.000028 -0.000098 -0.010282 0.000089 0.033156
#
#
# Mechanical properties :
#
#
# Convention : Reuss Voigt Hill
#
# Bulk Modulus (GPa) = 29.01372 34.89840 31.95606
# Shear Modulus (GPa) = 23.75774 -21.42674 1.16550
#
# Velocity S-wave (km/s) = 3.66414 -3.47974 0.81157
# Velocity P-wave (km/s) = 5.85639 1.89126 4.35168
#
# Compressibility (1/GPa) = 0.03446646
#
# Stress axis : x y z
#
# Youngs Moduli (GPa) = 52.63442 55.83468 40.59873
#
# Poissons Ratio (x) = 0.26168 0.08472
# Poissons Ratio (y) = 0.24668 0.27460
# Poissons Ratio (z) = 0.10983 0.37765
#
# Static dielectric constant tensor:
#      x y z
#    x 1.620170 -0.000010 0.007130 
#    y -0.000010 1.601280 0.000060 
#    z 0.007130 0.000060 1.673790 
# 
# From -- ./inp_files/76886.got.cif
#   From: 2010.05.17/outbox.cif.g08.bks.cpg/sg12_39_cif.got.tgz:76886.got - 2010.06.03 13:09:07.
