data_PCOD9170449
_publ_section_title
;
Structure prediction by ZEFSAII (Michael W. Deem and Ramdas Pophale) SiO2 
 PCOD9170449
Probable space group: C 2/M
;
_chemical_formula_sum "Si O2"
_cell_formula_units_Z 58
_cell_length_a 21.443487
_cell_length_b 14.994543
_cell_length_c 11.392112
_cell_angle_alpha 90.000000
_cell_angle_beta 124.446819
_cell_angle_gamma 90.000000
_cell_volume 3020.670645
_symmetry_space_group_name_H-M "C 2/M"
_symmetry_group_IT_number 12
_symmetry_cell_setting 'monoclinic'
loop_
_space_group_symop_operation_xyz
x,y,z
-x,y,-z
-x,-y,-z
x,-y,z
1/2+x,1/2+y,z
1/2-x,1/2+y,-z
1/2-x,1/2-y,-z
1/2+x,1/2-y,z
loop_
_atom_site_type_symbol
_atom_site_label
_atom_site_fract_x
_atom_site_fract_y
_atom_site_fract_z
Si Si1 0.208865 0.103447 0.585707
Si Si2 0.109573 0.201225 0.095390
Si Si3 0.760479 0.105866 0.649228
Si Si4 0.500000 0.000000 0.500000
Si Si5 0.999810 0.897182 0.835399
Si Si6 0.584436 0.872124 0.409237
Si Si7 0.557125 0.677250 0.454449
Si Si8 0.384123 0.099489 0.829167
O O1 0.213929 0.133477 0.455154
O O2 0.142980 0.154803 0.581351
O O3 0.292971 0.107566 0.725464
O O4 0.187623 0.000000 0.560360
O O5 0.195046 0.169679 0.213940
O O6 0.093628 0.307161 0.086127
O O7 0.062370 0.150329 0.147738
O O8 0.076022 0.158402 0.941660
O O9 0.669759 0.114535 0.550400
O O10 0.778604 0.000000 0.686050
O O11 0.528715 0.924338 0.435299
O O12 0.971931 0.891897 0.673124
O O13 0.009892 0.000000 0.879085
O O14 0.561790 0.769956 0.391340
O O15 0.587407 0.899385 0.275666
O O16 0.500000 0.681419 0.500000
O O17 0.403041 0.000000 0.898317
#
# Coordination Sequence:
#
# PCOD9170449 Si02
#       8
#     8   8   8   2   8   8   8   8
#     4   9  18  32  52  84 114 140 183 243 285 341
#     4  11  20  34  59  82 117 150 189 242 285 345
#     4  10  17  31  57  85 111 148 192 235 294 336
#     4  12  20  36  52  84 128 154 186 244 292 336
#     4  11  23  38  54  83 120 153 187 240 298 337
#     4  11  20  34  54  84 119 153 189 244 286 336
#     4  12  23  35  57  83 116 155 194 228 294 355
#     4  10  19  35  59  85 114 148 192 240 297 333
#
# _framework density 19.201034
#
# number of rings (size 3 to 8) (size 9 to 14) (size 15 to 20)
#    0.000    1.379    4.828    3.724    0.000    3.310 
#    0.000    1.379    1.517    3.310    0.000    1.931 
#    0.000    0.000    0.000    0.000    0.000    0.000 
#
# Total GULP energy -161519.743467 kJ/mol
# GULP energy per Si atom -5569.646326 kJ/mol
# Density = 1.915733 g / cm^3
# Si number density = 19.201034 Si / 1000 Ang^3
#
#
#
# Elastic Constant Matrix: (Units=GPa)
#
#
# Indices 1 2 3 4 5 6 
#
# 1 65.9324 22.9389 -3.5343 0.0000 -4.8684 0.0000
# 2 22.9389 144.2352 20.0856 0.0000 0.9586 0.0000
# 3 -3.5343 20.0856 26.9053 0.0000 10.2449 0.0000
# 4 0.0000 0.0000 0.0000 13.6355 0.0000 4.3681
# 5 -4.8684 0.9586 10.2449 0.0000 11.7010 0.0000
# 6 0.0000 0.0000 0.0000 4.3681 0.0000 21.7775
#
#
#
# Elastic Compliance Matrix: (Units=1/GPa)
#
#
# Indices 1 2 3 4 5 6 
#
# 1 0.016734 -0.003056 0.002600 0.000000 0.004936 0.000000
# 2 -0.003056 0.008655 -0.009164 0.000000 0.006043 0.000000
# 3 0.002600 -0.009164 0.065484 0.000000 -0.055502 0.000000
# 4 0.000000 0.000000 0.000000 0.078374 0.000000 -0.015720
# 5 0.004936 0.006043 -0.055502 0.000000 0.135616 0.000000
# 6 0.000000 0.000000 0.000000 -0.015720 0.000000 0.049072
#
#
# Mechanical properties :
#
#
# Convention : Reuss Voigt Hill
#
# Bulk Modulus (GPa) = 13.95993 35.11704 24.53848
# Shear Modulus (GPa) = 12.59281 22.59499 17.59390
#
# Velocity S-wave (km/s) = 2.56372 3.43411 3.03033
# Velocity P-wave (km/s) = 4.00621 5.83550 5.00513
#
# Compressibility (1/GPa) = 0.07163362
#
# Stress axis : x y z
#
# Youngs Moduli (GPa) = 59.75772 115.53846 15.27097
#
# Poissons Ratio (x) = 0.35312 -0.03971
# Poissons Ratio (y) = 0.18264 0.13994
# Poissons Ratio (z) = -0.15538 1.05876
#
# Static dielectric constant tensor:
#      x y z
#    x 1.666260 0.000000 0.064520 
#    y 0.000000 1.718890 0.000000 
#    z 0.064520 0.000000 1.698400 
# 
# From -- ./inp_files/167331.got.cif
#   From: 2010.05.17/outbox.cif.g08.bks.cpg/sg12_84_cif.got.tgz:167331.got - 2010.06.03 13:09:07.
