data_PCOD9170684
_publ_section_title
;
Structure prediction by ZEFSAII (Michael W. Deem and Ramdas Pophale) SiO2 
 PCOD9170684
Probable space group: C 2/M
;
_chemical_formula_sum "Si O2"
_cell_formula_units_Z 64
_cell_length_a 22.100375
_cell_length_b 17.032046
_cell_length_c 13.249895
_cell_angle_alpha 90.000000
_cell_angle_beta 141.642491
_cell_angle_gamma 90.000000
_cell_volume 3095.046439
_symmetry_space_group_name_H-M "C 2/M"
_symmetry_group_IT_number 12
_symmetry_cell_setting 'monoclinic'
loop_
_space_group_symop_operation_xyz
x,y,z
-x,y,-z
-x,-y,-z
x,-y,z
1/2+x,1/2+y,z
1/2-x,1/2+y,-z
1/2-x,1/2-y,-z
1/2+x,1/2-y,z
loop_
_atom_site_type_symbol
_atom_site_label
_atom_site_fract_x
_atom_site_fract_y
_atom_site_fract_z
Si Si1 0.906910 0.366978 0.573835
Si Si2 0.909022 0.135353 0.941725
Si Si3 0.250441 0.291644 0.110023
Si Si4 0.422992 0.589430 0.309155
Si Si5 0.215084 0.834302 0.416579
Si Si6 0.122292 0.415201 0.878159
Si Si7 0.467924 0.689521 0.715572
Si Si8 0.715768 0.877128 0.781362
O O1 0.814418 0.381682 0.526608
O O2 0.938003 0.274535 0.630614
O O3 0.864306 0.390480 0.408996
O O4 0.006666 0.412213 0.718640
O O5 0.843426 0.171370 0.765695
O O6 0.823888 0.091326 0.894432
O O7 0.000000 0.095306 0.000000
O O8 0.965247 0.191244 0.095439
O O9 0.332881 0.357242 0.224806
O O10 0.268808 0.217445 0.202991
O O11 0.250000 0.250000 0.000000
O O12 0.153351 0.342492 0.988282
O O13 0.500000 0.586351 0.500000
O O14 0.396914 0.500000 0.247027
O O15 0.471168 0.638167 0.282179
O O16 0.250000 0.750000 0.500000
O O17 0.131309 0.857255 0.385793
O O18 0.153924 0.500000 0.958119
O O19 0.173888 0.402128 0.835596
#
# Coordination Sequence:
#
# PCOD9170684 Si02
#       8
#     8   8   8   8   8   8   8   8
#     4  10  19  32  51  77 107 139 181 226 266 318
#     4   9  17  30  52  79 106 134 171 224 277 325
#     4  10  20  34  53  77 101 134 179 225 270 319
#     4  11  23  37  55  81 113 148 186 230 281 334
#     4   8  17  31  52  81 109 137 178 229 274 324
#     4  11  22  34  50  74 109 149 181 218 272 328
#     4  10  17  33  56  77 106 141 181 230 280 326
#     4  10  19  32  51  75 102 138 182 224 268 320
#
# _framework density 20.678203
#
# number of rings (size 3 to 8) (size 9 to 14) (size 15 to 20)
#    0.000    2.125    0.000    5.250    0.000    1.000 
#    0.000    0.625    0.000    9.000    0.000    0.000 
#    0.000   50.500    0.000    0.000    0.000    0.000 
#
# Total GULP energy -178187.255967 kJ/mol
# GULP energy per Si atom -5568.351749 kJ/mol
# Density = 2.063114 g / cm^3
# Si number density = 20.678203 Si / 1000 Ang^3
#
#
#
# Elastic Constant Matrix: (Units=GPa)
#
#
# Indices 1 2 3 4 5 6 
#
# 1 73.4190 9.6650 14.0975 0.0000 27.0133 0.0000
# 2 9.6650 90.2504 12.6710 0.0000 12.0016 0.0000
# 3 14.0975 12.6710 91.5554 0.0000 28.7091 0.0000
# 4 0.0000 0.0000 0.0000 -6.0107 0.0000 -20.3325
# 5 27.0133 12.0016 28.7091 0.0000 34.9578 0.0000
# 6 0.0000 0.0000 0.0000 -20.3325 0.0000 -22.2446
#
#
#
# Elastic Compliance Matrix: (Units=1/GPa)
#
#
# Indices 1 2 3 4 5 6 
#
# 1 0.019389 -0.000164 0.002313 0.000000 -0.016826 0.000000
# 2 -0.000164 0.011627 -0.000501 0.000000 -0.003454 0.000000
# 3 0.002313 -0.000501 0.015007 0.000000 -0.013940 0.000000
# 4 0.000000 0.000000 0.000000 0.079529 0.000000 -0.072693
# 5 -0.016826 -0.003454 -0.013940 0.000000 0.054242 0.000000
# 6 0.000000 0.000000 0.000000 -0.072693 0.000000 0.021489
#
#
# Mechanical properties :
#
#
# Convention : Reuss Voigt Hill
#
# Bulk Modulus (GPa) = 20.27555 36.45466 28.36511
# Shear Modulus (GPa) = 23.31813 15.92659 19.62236
#
# Velocity S-wave (km/s) = 3.36172 2.77828 3.08383
# Velocity P-wave (km/s) = 4.98947 5.28768 5.14074
#
# Compressibility (1/GPa) = 0.04932048
#
# Stress axis : x y z
#
# Youngs Moduli (GPa) = 51.57646 86.00336 66.63742
#
# Poissons Ratio (x) = 0.01407 -0.15416
# Poissons Ratio (y) = 0.00844 0.03338
# Poissons Ratio (z) = -0.11932 0.04308
#
# Static dielectric constant tensor:
#      x y z
#    x 1.791770 0.000000 0.029250 
#    y 0.000000 1.724000 0.000000 
#    z 0.029250 0.000000 1.764510 
# 
# From -- ./inp_files/241505.got.cif
#   From: 2010.05.17/outbox.cif.g08.bks.cpg/sg12_121_cif.got.tgz:241505.got - 2010.06.03 13:09:07.
