data_PCOD9170831
_publ_section_title
;
Structure prediction by ZEFSAII (Michael W. Deem and Ramdas Pophale) SiO2 
 PCOD9170831
Probable space group: C 2/M
;
_chemical_formula_sum "Si O2"
_cell_formula_units_Z 36
_cell_length_a 24.426863
_cell_length_b 14.245069
_cell_length_c 20.335384
_cell_angle_alpha 90.000000
_cell_angle_beta 17.173835
_cell_angle_gamma 90.000000
_cell_volume 2089.327732
_symmetry_space_group_name_H-M "C 2/M"
_symmetry_group_IT_number 12
_symmetry_cell_setting 'monoclinic'
loop_
_space_group_symop_operation_xyz
x,y,z
-x,y,-z
-x,-y,-z
x,-y,z
1/2+x,1/2+y,z
1/2-x,1/2+y,-z
1/2-x,1/2-y,-z
1/2+x,1/2-y,z
loop_
_atom_site_type_symbol
_atom_site_label
_atom_site_fract_x
_atom_site_fract_y
_atom_site_fract_z
Si Si1 0.132590 0.792144 0.039027
Si Si2 0.995015 0.000000 0.204720
Si Si3 0.659688 0.000000 0.680884
Si Si4 0.105254 0.500000 0.594650
Si Si5 0.915202 0.299872 0.169531
Si Si6 0.524090 0.792155 0.647585
O O1 0.049201 0.750852 0.068190
O O2 0.014363 0.750083 0.235639
O O3 0.346029 0.767382 0.807951
O O4 0.107115 0.904366 0.070185
O O5 0.875257 0.000000 0.409954
O O6 0.829867 0.000000 0.340156
O O7 0.613641 0.093532 0.773037
O O8 0.554467 0.000000 0.730878
O O9 0.037866 0.404371 0.639667
O O10 0.716071 0.248946 0.401314
O O11 0.000000 0.296640 0.000000
#
# Coordination Sequence:
#
# PCOD9170831 Si02
#       6
#     8   4   4   4   8   8
#     4  11  21  37  62  88 116 154 200 246 288 339
#     4  10  17  34  66  86 119 139 199 255 289 334
#     4  10  19  36  62  88 119 150 194 234 299 354
#     4  10  17  34  66  86 119 139 199 255 289 334
#     4  12  23  40  59  85 127 160 189 234 293 360
#     4  11  21  37  62  88 116 154 200 246 288 339
#
# _framework density 17.230422000000001
#
# number of rings (size 3 to 8) (size 9 to 14) (size 15 to 20)
#    0.667    0.444    6.667    1.667    0.000    0.889 
#    0.000    3.333    0.000    5.333    0.000    0.000 
#    0.000    0.000    0.000    0.000    0.000    0.000 
#
# Total GULP energy -100443.116841 kJ/mol
# GULP energy per Si atom -5580.173158 kJ/mol
# Density = 1.719121 g / cm^3
# Si number density = 17.230422 Si / 1000 Ang^3
#
#
#
# Elastic Constant Matrix: (Units=GPa)
#
#
# Indices 1 2 3 4 5 6 
#
# 1 110.1903 52.3163 88.1511 0.0021 7.3085 -0.0001
# 2 52.3163 149.1291 45.3080 0.0056 14.0608 -0.0005
# 3 88.1511 45.3080 103.8427 0.0185 3.7827 0.0035
# 4 0.0021 0.0056 0.0185 7.5773 -0.0033 2.9350
# 5 7.3085 14.0608 3.7827 -0.0033 16.9360 -0.0001
# 6 -0.0001 -0.0005 0.0035 2.9350 -0.0001 8.9970
#
#
#
# Elastic Compliance Matrix: (Units=1/GPa)
#
#
# Indices 1 2 3 4 5 6 
#
# 1 0.029954 -0.002698 -0.024057 0.000053 -0.005313 -0.000008
# 2 -0.002698 0.008563 -0.001239 -0.000006 -0.005668 0.000003
# 3 -0.024057 -0.001239 0.030424 -0.000069 0.004615 0.000010
# 4 0.000053 -0.000006 -0.000069 0.151062 0.000027 -0.049280
# 5 -0.005313 -0.005668 0.004615 0.000027 0.065014 -0.000010
# 6 -0.000008 0.000003 0.000010 -0.049280 -0.000010 0.127224
#
#
# Mechanical properties :
#
#
# Convention : Reuss Voigt Hill
#
# Bulk Modulus (GPa) = 77.20449 81.63479 79.41964
# Shear Modulus (GPa) = 10.58098 18.52784 14.55441
#
# Velocity S-wave (km/s) = 2.48077 3.28273 2.90951
# Velocity P-wave (km/s) = 7.28766 7.86445 7.58154
#
# Compressibility (1/GPa) = 0.01295261
#
# Stress axis : x y z
#
# Youngs Moduli (GPa) = 33.38482 116.77988 32.86892
#
# Poissons Ratio (x) = 0.31512 0.79071
# Poissons Ratio (y) = 0.09009 0.04073
# Poissons Ratio (z) = 0.80312 0.14470
#
# Static dielectric constant tensor:
#      x y z
#    x 1.567940 0.000000 -0.022390 
#    y 0.000000 1.569990 0.000000 
#    z -0.022390 0.000000 1.578010 
# 
# From -- ./inp_files/82907.got.cif
#   From: 2010.05.17/outbox.cif.g08.bks.cpg/sg12_42_cif.got.tgz:82907.got - 2010.06.03 13:09:07.
