data_PCOD9170289
_publ_section_title
;
Structure prediction by ZEFSAII (Michael W. Deem and Ramdas Pophale) SiO2 
 PCOD9170289
Probable space group: C 2/M
;
_chemical_formula_sum "Si O2"
_cell_formula_units_Z 56
_cell_length_a 13.592603
_cell_length_b 13.556900
_cell_length_c 24.059258
_cell_angle_alpha 90.000000
_cell_angle_beta 140.645317
_cell_angle_gamma 90.000000
_cell_volume 2811.357749
_symmetry_space_group_name_H-M "C 2/M"
_symmetry_group_IT_number 12
_symmetry_cell_setting 'monoclinic'
loop_
_space_group_symop_operation_xyz
x,y,z
-x,y,-z
-x,-y,-z
x,-y,z
1/2+x,1/2+y,z
1/2-x,1/2+y,-z
1/2-x,1/2-y,-z
1/2+x,1/2-y,z
loop_
_atom_site_type_symbol
_atom_site_label
_atom_site_fract_x
_atom_site_fract_y
_atom_site_fract_z
Si Si1 0.538122 0.715824 0.829846
Si Si2 0.712922 0.291029 0.545654
Si Si3 0.683145 0.884164 0.088306
Si Si4 0.734681 0.751337 0.217442
Si Si5 0.160361 0.889428 0.351132
Si Si6 0.052384 0.889169 0.629536
Si Si7 0.980318 0.616772 0.266584
O O1 0.709410 0.671267 0.909534
O O2 0.436535 0.719784 0.840431
O O3 0.444295 0.644947 0.746035
O O4 0.537739 0.821829 0.798656
O O5 0.750000 0.250000 0.500000
O O6 0.708606 0.192515 0.580984
O O7 0.562623 0.356546 0.469465
O O8 0.856765 0.352811 0.633365
O O9 0.726787 0.830369 0.164597
O O10 0.720703 0.000000 0.106534
O O11 0.500000 0.873646 0.000000
O O12 0.814555 0.808803 0.303498
O O13 0.844854 0.662324 0.246392
O O14 0.048717 0.888044 0.357108
O O15 0.218835 0.000000 0.369472
O O16 0.111884 0.000000 0.647430
O O17 0.969573 0.500000 0.255181
#
# Coordination Sequence:
#
# PCOD9170289 Si02
#       7
#     8   8   8   8   8   8   8
#     4  10  21  36  57  82 118 144 181 228 278 331
#     4   9  15  30  49  77 107 146 194 239 276 319
#     4  10  21  40  66  90 111 140 180 225 276 338
#     4  11  21  36  57  84 114 147 183 229 278 338
#     4   9  16  30  53  75 105 149 189 231 276 318
#     4  10  17  30  55  78 103 148 197 237 278 322
#     4  10  20  35  52  78 112 152 192 231 273 324
#
# _framework density 19.9192
#
# number of rings (size 3 to 8) (size 9 to 14) (size 15 to 20)
#    0.000    2.143    5.714    1.286    0.000    3.429 
#    0.000    2.857    0.000   12.000    0.000    0.000 
#    0.000    0.000    0.000    0.000    0.000    0.000 
#
# Total GULP energy -156285.476659 kJ/mol
# GULP energy per Si atom -5581.624166 kJ/mol
# Density = 1.987386 g / cm^3
# Si number density = 19.919200 Si / 1000 Ang^3
#
#
#
# Elastic Constant Matrix: (Units=GPa)
#
#
# Indices 1 2 3 4 5 6 
#
# 1 55.2562 15.0767 2.9082 0.0000 20.0130 0.0000
# 2 15.0767 144.1092 31.0789 0.0000 8.1338 0.0000
# 3 2.9082 31.0789 48.9879 0.0000 15.9495 0.0000
# 4 0.0000 0.0000 0.0000 24.5962 0.0000 3.2697
# 5 20.0130 8.1338 15.9495 0.0000 19.1167 0.0000
# 6 0.0000 0.0000 0.0000 3.2697 0.0000 4.1739
#
#
#
# Elastic Compliance Matrix: (Units=1/GPa)
#
#
# Indices 1 2 3 4 5 6 
#
# 1 0.037138 -0.004773 0.017602 0.000000 -0.051534 0.000000
# 2 -0.004773 0.008671 -0.007748 0.000000 0.007771 0.000000
# 3 0.017602 -0.007748 0.040103 0.000000 -0.048589 0.000000
# 4 0.000000 0.000000 0.000000 0.045383 0.000000 -0.035552
# 5 -0.051534 0.007771 -0.048589 0.000000 0.143493 0.000000
# 6 0.000000 0.000000 0.000000 -0.035552 0.000000 0.267434
#
#
# Mechanical properties :
#
#
# Convention : Reuss Voigt Hill
#
# Bulk Modulus (GPa) = 10.40859 38.49788 24.45323
# Shear Modulus (GPa) = 8.86392 22.86333 15.86363
#
# Velocity S-wave (km/s) = 2.11178 3.39160 2.82512
# Velocity P-wave (km/s) = 3.34408 5.89120 4.79005
#
# Compressibility (1/GPa) = 0.09607451
#
# Stress axis : x y z
#
# Youngs Moduli (GPa) = 26.92649 115.33006 24.93559
#
# Poissons Ratio (x) = 0.55043 -0.43891
# Poissons Ratio (y) = 0.12851 0.19319
# Poissons Ratio (z) = -0.47395 0.89355
#
# Static dielectric constant tensor:
#      x y z
#    x 1.754940 0.000000 0.030060 
#    y 0.000000 1.691580 0.000000 
#    z 0.030060 0.000000 1.713760 
# 
# From -- ./inp_files/376387.got.cif
#   From: 2010.05.17/outbox.cif.g08.bks.cpg/sg12_189_cif.got.tgz:376387.got - 2010.06.03 13:09:07.
