data_PCOD9170429
_publ_section_title
;
Structure prediction by ZEFSAII (Michael W. Deem and Ramdas Pophale) SiO2 
 PCOD9170429
Probable space group: C 2/M
;
_chemical_formula_sum "Si O2"
_cell_formula_units_Z 44
_cell_length_a 13.879161
_cell_length_b 18.319515
_cell_length_c 14.889948
_cell_angle_alpha 90.000000
_cell_angle_beta 42.948585
_cell_angle_gamma 90.000000
_cell_volume 2579.499204
_symmetry_space_group_name_H-M "C 2/M"
_symmetry_group_IT_number 12
_symmetry_cell_setting 'monoclinic'
loop_
_space_group_symop_operation_xyz
x,y,z
-x,y,-z
-x,-y,-z
x,-y,z
1/2+x,1/2+y,z
1/2-x,1/2+y,-z
1/2-x,1/2-y,-z
1/2+x,1/2-y,z
loop_
_atom_site_type_symbol
_atom_site_label
_atom_site_fract_x
_atom_site_fract_y
_atom_site_fract_z
Si Si1 0.704088 0.083760 0.023958
Si Si2 0.000000 0.301690 0.500000
Si Si3 0.972046 0.850979 0.918521
Si Si4 0.310593 0.753545 0.299208
Si Si5 0.207518 0.713470 0.890190
Si Si6 0.032785 0.680911 0.278477
O O1 0.611138 0.119321 0.167019
O O2 0.669856 0.000000 0.031843
O O3 0.868172 0.094851 0.939142
O O4 0.685279 0.137188 0.952765
O O5 0.142983 0.256375 0.422849
O O6 0.022417 0.342118 0.389738
O O7 0.111427 0.824773 0.770811
O O8 0.884483 0.775512 0.996432
O O9 0.000000 0.878956 0.000000
O O10 0.330964 0.791011 0.187985
O O11 0.389490 0.795425 0.325409
O O12 0.365323 0.747211 0.790235
#
# Coordination Sequence:
#
# PCOD9170429 Si02
#       6
#     8   4   8   8   8   8
#     4  11  20  32  52  82 112 138 166 207 266 331
#     4  10  22  30  51  86  95 132 190 228 244 296
#     4   9  16  30  54  76 104 135 165 214 270 305
#     4  10  17  31  56  77 106 131 172 219 265 295
#     4   9  17  31  53  81 104 132 166 216 269 313
#     4  10  18  35  52  75 109 138 172 219 262 295
#
# _framework density 17.057575
#
# number of rings (size 3 to 8) (size 9 to 14) (size 15 to 20)
#    0.000    2.182    3.636    2.727    0.000    0.364 
#    0.000    2.273    0.000    1.091    0.000   10.818 
#    0.000    0.000    0.000    0.000    0.000    0.000 
#
# Total GULP energy -122542.179982 kJ/mol
# GULP energy per Si atom -5570.099090 kJ/mol
# Density = 1.701875 g / cm^3
# Si number density = 17.057575 Si / 1000 Ang^3
#
#
#
# Elastic Constant Matrix: (Units=GPa)
#
#
# Indices 1 2 3 4 5 6 
#
# 1 91.8639 10.0628 23.2462 0.0001 -4.2194 0.0000
# 2 10.0628 65.9224 18.8348 0.0002 8.5289 -0.0002
# 3 23.2462 18.8348 67.3872 0.0003 -2.0232 -0.0002
# 4 0.0001 0.0002 0.0003 6.4742 -0.0002 -2.8360
# 5 -4.2194 8.5289 -2.0232 -0.0002 39.6933 0.0001
# 6 0.0000 -0.0002 -0.0002 -2.8360 0.0001 7.3089
#
#
#
# Elastic Compliance Matrix: (Units=1/GPa)
#
#
# Indices 1 2 3 4 5 6 
#
# 1 0.012018 -0.000897 -0.003857 0.000000 0.001274 0.000000
# 2 -0.000897 0.017140 -0.004602 0.000000 -0.004013 0.000000
# 3 -0.003857 -0.004602 0.017500 0.000000 0.001471 0.000000
# 4 0.000000 0.000000 0.000000 0.186091 0.000001 0.072208
# 5 0.001274 -0.004013 0.001471 0.000001 0.026266 0.000000
# 6 0.000000 0.000000 0.000000 0.072208 0.000000 0.164838
#
#
# Mechanical properties :
#
#
# Convention : Reuss Voigt Hill
#
# Bulk Modulus (GPa) = 35.78163 36.60679 36.19421
# Shear Modulus (GPa) = 11.06484 22.23059 16.64772
#
# Velocity S-wave (km/s) = 2.54968 3.61400 3.12744
# Velocity P-wave (km/s) = 5.44888 6.23875 5.85714
#
# Compressibility (1/GPa) = 0.02794730
#
# Stress axis : x y z
#
# Youngs Moduli (GPa) = 83.20534 58.34219 57.14150
#
# Poissons Ratio (x) = 0.05236 0.22039
# Poissons Ratio (y) = 0.07467 0.26294
# Poissons Ratio (z) = 0.32091 0.26847
#
# Static dielectric constant tensor:
#      x y z
#    x 1.644410 0.000000 -0.010640 
#    y 0.000000 1.536910 0.000000 
#    z -0.010640 0.000000 1.642560 
# 
# From -- ./inp_files/215769.got.cif
#   From: 2010.05.17/outbox.cif.g08.bks.cpg/sg12_108_cif.got.tgz:215769.got - 2010.06.03 13:09:07.
