data_PCOD9170759
_publ_section_title
;
Structure prediction by ZEFSAII (Michael W. Deem and Ramdas Pophale) SiO2 
 PCOD9170759
Probable space group: C 2/M
;
_chemical_formula_sum "Si O2"
_cell_formula_units_Z 56
_cell_length_a 12.159817
_cell_length_b 14.936321
_cell_length_c 13.428880
_cell_angle_alpha 90.000000
_cell_angle_beta 101.614332
_cell_angle_gamma 90.000000
_cell_volume 2389.053968
_symmetry_space_group_name_H-M "C 2/M"
_symmetry_group_IT_number 12
_symmetry_cell_setting 'monoclinic'
loop_
_space_group_symop_operation_xyz
x,y,z
-x,y,-z
-x,-y,-z
x,-y,z
1/2+x,1/2+y,z
1/2-x,1/2+y,-z
1/2-x,1/2-y,-z
1/2+x,1/2-y,z
loop_
_atom_site_type_symbol
_atom_site_label
_atom_site_fract_x
_atom_site_fract_y
_atom_site_fract_z
Si Si1 0.799365 0.842820 0.145475
Si Si2 0.950624 0.347991 0.885415
Si Si3 0.115723 0.853929 0.060555
Si Si4 0.116874 0.606738 0.552484
Si Si5 0.965084 0.894839 0.334657
Si Si6 0.835711 0.110285 0.504475
Si Si7 0.830857 0.639193 0.209462
O O1 0.677190 0.882689 0.151662
O O2 0.906994 0.885382 0.218332
O O3 0.806306 0.743287 0.188819
O O4 0.815655 0.838297 0.030071
O O5 0.928996 0.239655 0.896602
O O6 0.049282 0.373853 0.826185
O O7 0.000000 0.378666 0.000000
O O8 0.211790 0.899503 0.146302
O O9 0.000000 0.898253 0.000000
O O10 0.111815 0.500000 0.533621
O O11 0.212377 0.644086 0.499403
O O12 0.148343 0.617469 0.672799
O O13 0.000000 0.648077 0.500000
O O14 0.885996 0.859119 0.408941
O O15 0.087717 0.860949 0.387350
O O16 0.972533 0.000000 0.352895
O O17 0.832804 0.000000 0.501825
#
# Coordination Sequence:
#
# PCOD9170759 Si02
#       7
#     8   8   8   8   8   8   8
#     4  11  20  32  58  87 109 145 183 228 276 328
#     4  10  17  34  54  79 109 148 188 212 265 339
#     4  10  19  33  56  83 112 149 180 214 281 342
#     4  10  23  41  59  77 109 153 191 226 282 338
#     4   9  19  35  58  82 109 144 184 227 278 328
#     4   8  17  38  58  74 102 148 187 218 271 339
#     4  11  21  36  57  83 109 145 191 232 266 329
#
# _framework density 23.440242000000001
#
# number of rings (size 3 to 8) (size 9 to 14) (size 15 to 20)
#    0.000    2.143    4.286    1.714    4.000    0.000 
#    2.571    1.429    0.000    1.714    0.000    0.000 
#    0.000    0.000    0.000    0.000    0.000    0.000 
#
# Total GULP energy -156074.317989 kJ/mol
# GULP energy per Si atom -5574.082785 kJ/mol
# Density = 2.338689 g / cm^3
# Si number density = 23.440242 Si / 1000 Ang^3
#
#
#
# Elastic Constant Matrix: (Units=GPa)
#
#
# Indices 1 2 3 4 5 6 
#
# 1 141.3465 6.2502 28.8193 0.0000 22.0407 0.0000
# 2 6.2502 35.0911 -6.2358 0.0000 1.5463 0.0000
# 3 28.8193 -6.2358 60.0922 0.0000 30.2453 0.0000
# 4 0.0000 0.0000 0.0000 26.3858 0.0000 7.7749
# 5 22.0407 1.5463 30.2453 0.0000 35.9592 0.0000
# 6 0.0000 0.0000 0.0000 7.7749 0.0000 -3.8779
#
#
#
# Elastic Compliance Matrix: (Units=1/GPa)
#
#
# Indices 1 2 3 4 5 6 
#
# 1 0.008124 -0.001834 -0.002809 0.000000 -0.002538 0.000000
# 2 -0.001834 0.030367 0.007149 0.000000 -0.006194 0.000000
# 3 -0.002809 0.007149 0.031246 0.000000 -0.024866 0.000000
# 4 0.000000 0.000000 0.000000 0.023824 0.000000 0.047766
# 5 -0.002538 -0.006194 -0.024866 0.000000 0.050546 0.000000
# 6 0.000000 0.000000 0.000000 0.047766 0.000000 -0.162106
#
#
# Mechanical properties :
#
#
# Convention : Reuss Voigt Hill
#
# Bulk Modulus (GPa) = 13.37843 32.68858 23.03351
# Shear Modulus (GPa) = 2619.77777 25.53982 1322.65880
#
# Velocity S-wave (km/s) = 33.46741 3.30445 23.78010
# Velocity P-wave (km/s) = 38.71877 5.34181 27.63764
#
# Compressibility (1/GPa) = 0.07474716
#
# Stress axis : x y z
#
# Youngs Moduli (GPa) = 123.08469 32.93018 32.00428
#
# Poissons Ratio (x) = 0.06041 0.08991
# Poissons Ratio (y) = 0.22579 -0.22879
# Poissons Ratio (z) = 0.34579 -0.23541
#
# Static dielectric constant tensor:
#      x y z
#    x 1.991360 0.000000 0.037730 
#    y 0.000000 1.938380 0.000000 
#    z 0.037730 0.000000 1.858170 
# 
# From -- ./inp_files/133319.got.cif
#   From: 2010.05.17/outbox.cif.g08.bks.cpg/sg12_67_cif.got.tgz:133319.got - 2010.06.03 13:09:07.
