data_PCOD9170023
_publ_section_title
;
Structure prediction by ZEFSAII (Michael W. Deem and Ramdas Pophale) SiO2 
 PCOD9170023
Probable space group: C 2/M
;
_chemical_formula_sum "Si O2"
_cell_formula_units_Z 48
_cell_length_a 19.546821
_cell_length_b 20.213620
_cell_length_c 12.169909
_cell_angle_alpha 90.000000
_cell_angle_beta 37.114165
_cell_angle_gamma 90.000000
_cell_volume 2901.459937
_symmetry_space_group_name_H-M "C 2/M"
_symmetry_group_IT_number 12
_symmetry_cell_setting 'monoclinic'
loop_
_space_group_symop_operation_xyz
x,y,z
-x,y,-z
-x,-y,-z
x,-y,z
1/2+x,1/2+y,z
1/2-x,1/2+y,-z
1/2-x,1/2-y,-z
1/2+x,1/2-y,z
loop_
_atom_site_type_symbol
_atom_site_label
_atom_site_fract_x
_atom_site_fract_y
_atom_site_fract_z
Si Si1 0.776669 0.694547 0.130423
Si Si2 0.364597 0.325329 0.914224
Si Si3 0.317912 0.922031 0.770317
Si Si4 0.448284 0.074914 0.945238
Si Si5 0.542777 0.123560 0.611481
Si Si6 0.563839 0.723864 0.536678
O O1 0.704808 0.684711 0.110635
O O2 0.854293 0.631273 0.050691
O O3 0.690440 0.704278 0.341672
O O4 0.845256 0.761745 0.017079
O O5 0.494184 0.324595 0.706418
O O6 0.301033 0.386653 0.051965
O O7 0.363856 0.906626 0.589516
O O8 0.418629 0.891757 0.717379
O O9 0.312932 0.000000 0.795540
O O10 0.405256 0.000000 0.982068
O O11 0.500000 0.078630 0.000000
O O12 0.540745 0.091258 0.733336
O O13 0.557732 0.202383 0.593356
O O14 0.500000 0.727599 0.500000
#
# Coordination Sequence:
#
# PCOD9170023 Si02
#       6
#     8   8   8   8   8   8
#     4  10  18  32  51  74 105 137 171 211 256 309
#     4  10  17  29  51  76 107 136 162 209 267 316
#     4  11  19  27  48  80 107 130 160 214 273 309
#     4  11  23  37  53  74 105 145 180 209 249 304
#     4  11  17  31  50  75 102 128 170 216 256 305
#     4  10  17  29  51  79 103 132 168 203 260 316
#
# _framework density 16.543396000000001
#
# number of rings (size 3 to 8) (size 9 to 14) (size 15 to 20)
#    0.000    1.500    6.667    3.000    0.000    0.000 
#    0.000    1.667    0.000    3.000    0.000    0.000 
#    0.000    4.667    0.000    0.000    0.000    0.000 
#
# Total GULP energy -133766.250917 kJ/mol
# GULP energy per Si atom -5573.593788 kJ/mol
# Density = 1.650574 g / cm^3
# Si number density = 16.543396 Si / 1000 Ang^3
#
#
#
# Elastic Constant Matrix: (Units=GPa)
#
#
# Indices 1 2 3 4 5 6 
#
# 1 20.5111 17.2447 25.1927 0.0000 11.8407 0.0000
# 2 17.2447 112.6267 59.9873 0.0000 -5.6669 0.0000
# 3 25.1927 59.9873 150.3502 0.0000 7.2695 0.0000
# 4 0.0000 0.0000 0.0000 -45.8157 0.0000 21.3066
# 5 11.8407 -5.6669 7.2695 0.0000 19.1982 0.0000
# 6 0.0000 0.0000 0.0000 21.3066 0.0000 5.2715
#
#
#
# Elastic Compliance Matrix: (Units=1/GPa)
#
#
# Indices 1 2 3 4 5 6 
#
# 1 0.116304 -0.016489 -0.009377 0.000000 -0.073048 0.000000
# 2 -0.016489 0.014130 -0.003635 0.000000 0.015717 0.000000
# 3 -0.009377 -0.003635 0.009621 0.000000 0.001068 0.000000
# 4 0.000000 0.000000 0.000000 -0.007580 0.000000 0.030635
# 5 -0.073048 0.015717 0.001068 0.000000 0.101376 0.000000
# 6 0.000000 0.000000 0.000000 0.030635 0.000000 0.065876
#
#
# Mechanical properties :
#
#
# Convention : Reuss Voigt Hill
#
# Bulk Modulus (GPa) = 12.33746 54.25973 33.29859
# Shear Modulus (GPa) = 12.96183 7.80169 10.38176
#
# Velocity S-wave (km/s) = 2.80215 2.17397 2.50781
# Velocity P-wave (km/s) = 4.23595 6.25868 5.34389
#
# Compressibility (1/GPa) = 0.08105397
#
# Stress axis : x y z
#
# Youngs Moduli (GPa) = 8.59813 70.76966 103.93906
#
# Poissons Ratio (x) = 1.16690 0.97467
# Poissons Ratio (y) = 0.14177 0.37780
# Poissons Ratio (z) = 0.08063 0.25724
#
# Static dielectric constant tensor:
#      x y z
#    x 1.541170 0.000000 0.010620 
#    y 0.000000 1.549260 0.000000 
#    z 0.010620 0.000000 1.597100 
# 
# From -- ./inp_files/144777.got.cif
#   From: 2010.05.17/outbox.cif.g08.bks.cpg/sg12_73_cif.got.tgz:144777.got - 2010.06.03 13:09:07.
