data_PCOD9170575
_publ_section_title
;
Structure prediction by ZEFSAII (Michael W. Deem and Ramdas Pophale) SiO2 
 PCOD9170575
Probable space group: C 2/M
;
_chemical_formula_sum "Si O2"
_cell_formula_units_Z 64
_cell_length_a 15.255144
_cell_length_b 25.447185
_cell_length_c 12.807669
_cell_angle_alpha 90.000000
_cell_angle_beta 142.264287
_cell_angle_gamma 90.000000
_cell_volume 3042.929133
_symmetry_space_group_name_H-M "C 2/M"
_symmetry_group_IT_number 12
_symmetry_cell_setting 'monoclinic'
loop_
_space_group_symop_operation_xyz
x,y,z
-x,y,-z
-x,-y,-z
x,-y,z
1/2+x,1/2+y,z
1/2-x,1/2+y,-z
1/2-x,1/2-y,-z
1/2+x,1/2-y,z
loop_
_atom_site_type_symbol
_atom_site_label
_atom_site_fract_x
_atom_site_fract_y
_atom_site_fract_z
Si Si1 0.053308 0.799710 0.289857
Si Si2 0.708229 0.209301 0.308603
Si Si3 0.152071 0.285252 0.703128
Si Si4 0.548374 0.057969 0.376197
Si Si5 0.779638 0.940462 0.887421
Si Si6 0.503945 0.889535 0.118092
Si Si7 0.254915 0.839517 0.005807
Si Si8 0.706264 0.621781 0.290987
O O1 0.152407 0.793558 0.485090
O O2 0.098537 0.751081 0.258329
O O3 0.100031 0.852581 0.273030
O O4 0.885987 0.806361 0.154007
O O5 0.762767 0.232850 0.250210
O O6 0.629796 0.153805 0.232752
O O7 0.152208 0.305786 0.822075
O O8 0.245129 0.330685 0.736288
O O9 0.000000 0.284526 0.500000
O O10 0.394573 0.060036 0.287422
O O11 0.524767 0.069975 0.232018
O O12 0.654613 0.101373 0.518343
O O13 0.609612 0.000000 0.449730
O O14 0.799066 0.893868 0.989388
O O15 0.841686 0.923266 0.834014
O O16 0.820219 0.000000 0.955765
O O17 0.359476 0.858180 0.012907
O O18 0.500000 0.914193 0.000000
#
# Coordination Sequence:
#
# PCOD9170575 Si02
#       8
#     8   8   8   8   8   8   8   8
#     4  10  22  38  58  84 120 164 192 234 287 346
#     4  10  23  39  58  81 121 154 199 242 279 343
#     4  10  21  35  59  90 122 157 190 233 296 350
#     4  10  19  35  59  86 116 154 199 247 295 344
#     4   9  18  32  56  91 123 154 193 237 289 352
#     4  11  24  41  61  88 113 150 199 253 291 350
#     4  10  23  40  62  84 123 157 192 240 300 350
#     4  10  17  32  56  85 126 154 192 232 285 351
#
# _framework density 21.032367000000001
#
# number of rings (size 3 to 8) (size 9 to 14) (size 15 to 20)
#    0.000    2.000    1.250    3.000    5.250    6.750 
#    0.000    1.875    0.000    0.000    0.000    0.875 
#    0.000    0.000    0.000    0.000    0.000    0.000 
#
# Total GULP energy -178753.244307 kJ/mol
# GULP energy per Si atom -5586.038885 kJ/mol
# Density = 2.098450 g / cm^3
# Si number density = 21.032367 Si / 1000 Ang^3
#
#
#
# Elastic Constant Matrix: (Units=GPa)
#
#
# Indices 1 2 3 4 5 6 
#
# 1 81.7673 9.3599 28.3213 0.0000 -17.6775 0.0000
# 2 9.3599 79.2939 3.6274 0.0000 -2.3454 0.0000
# 3 28.3213 3.6274 47.1880 0.0000 8.6534 0.0000
# 4 0.0000 0.0000 0.0000 18.2232 0.0000 -1.2643
# 5 -17.6775 -2.3454 8.6534 0.0000 30.1487 0.0000
# 6 0.0000 0.0000 0.0000 -1.2643 0.0000 21.9891
#
#
#
# Elastic Compliance Matrix: (Units=1/GPa)
#
#
# Indices 1 2 3 4 5 6 
#
# 1 0.021661 -0.001313 -0.016055 0.000000 0.017207 0.000000
# 2 -0.001313 0.012786 -0.000249 0.000000 0.000296 0.000000
# 3 -0.016055 -0.000249 0.034387 0.000000 -0.019303 0.000000
# 4 0.000000 0.000000 0.000000 0.055095 0.000000 0.003168
# 5 0.017207 0.000296 -0.019303 0.000000 0.048821 0.000000
# 6 0.000000 0.000000 0.000000 0.003168 0.000000 0.045659
#
#
# Mechanical properties :
#
#
# Convention : Reuss Voigt Hill
#
# Bulk Modulus (GPa) = 29.76235 32.31851 31.04043
# Shear Modulus (GPa) = 18.87903 25.20158 22.04030
#
# Velocity S-wave (km/s) = 2.99928 3.46530 3.24068
# Velocity P-wave (km/s) = 5.11622 5.60451 5.36592
#
# Compressibility (1/GPa) = 0.03359950
#
# Stress axis : x y z
#
# Youngs Moduli (GPa) = 46.16579 78.20752 29.08107
#
# Poissons Ratio (x) = 0.10272 0.46690
# Poissons Ratio (y) = 0.06064 0.00724
# Poissons Ratio (z) = 0.74119 0.01946
#
# Static dielectric constant tensor:
#      x y z
#    x 1.761380 0.000000 -0.006490 
#    y 0.000000 1.763990 0.000000 
#    z -0.006490 0.000000 1.778240 
# 
# From -- ./inp_files/149821.got.cif
#   From: 2010.05.17/outbox.cif.g08.bks.cpg/sg12_75_cif.got.tgz:149821.got - 2010.06.03 13:09:07.
