data_PCOD9170524
_publ_section_title
;
Structure prediction by ZEFSAII (Michael W. Deem and Ramdas Pophale) SiO2 
 PCOD9170524
Probable space group: C 2/M
;
_chemical_formula_sum "Si O2"
_cell_formula_units_Z 40
_cell_length_a 21.509196
_cell_length_b 15.374643
_cell_length_c 17.905326
_cell_angle_alpha 90.000000
_cell_angle_beta 161.878934
_cell_angle_gamma 90.000000
_cell_volume 1841.653766
_symmetry_space_group_name_H-M "C 2/M"
_symmetry_group_IT_number 12
_symmetry_cell_setting 'monoclinic'
loop_
_space_group_symop_operation_xyz
x,y,z
-x,y,-z
-x,-y,-z
x,-y,z
1/2+x,1/2+y,z
1/2-x,1/2+y,-z
1/2-x,1/2-y,-z
1/2+x,1/2-y,z
loop_
_atom_site_type_symbol
_atom_site_label
_atom_site_fract_x
_atom_site_fract_y
_atom_site_fract_z
Si Si1 0.832759 0.657752 0.122780
Si Si2 0.733528 0.218747 0.630119
Si Si3 0.713998 0.093620 0.084910
Si Si4 0.663985 0.905293 0.254461
Si Si5 0.298996 0.286031 0.874204
O O1 0.760575 0.651643 0.125699
O O2 0.072041 0.666454 0.399418
O O3 0.762813 0.595334 0.977473
O O4 0.750000 0.750000 0.000000
O O5 0.693740 0.322833 0.582570
O O6 0.721741 0.192000 0.703536
O O7 0.960146 0.212302 0.859612
O O8 0.476685 0.094186 0.833690
O O9 0.788413 0.000000 0.200326
O O10 0.774273 0.187143 0.189070
O O11 0.757953 0.000000 0.352662
O O12 0.500000 0.893723 0.000000
#
# Coordination Sequence:
#
# PCOD9170524 Si02
#       5
#     8   8   8   8   8
#     4  10  21  32  48  75 106 135 169 212 249 304
#     4  10  17  32  53  75 102 135 171 206 254 301
#     4   9  17  31  50  73 103 137 165 200 257 307
#     4   9  15  27  50  78 105 134 165 202 254 308
#     4   9  18  32  53  78  96 132 170 216 252 296
#
# _framework density 21.719608999999998
#
# number of rings (size 3 to 8) (size 9 to 14) (size 15 to 20)
#    0.000    2.600    4.000    0.600    0.000    7.200 
#    0.000    4.000    0.000   14.400    0.000    2.800 
#    0.000    0.000    0.000    0.000    0.000    0.000 
#
# Total GULP energy -111448.636006 kJ/mol
# GULP energy per Si atom -5572.431800 kJ/mol
# Density = 2.167017 g / cm^3
# Si number density = 21.719609 Si / 1000 Ang^3
#
#
#
# Elastic Constant Matrix: (Units=GPa)
#
#
# Indices 1 2 3 4 5 6 
#
# 1 110.1001 19.8892 10.7734 0.0074 7.3110 0.0016
# 2 19.8892 17.1068 -3.7801 0.0048 -1.6881 0.0023
# 3 10.7734 -3.7801 69.7102 0.0088 1.4632 0.0029
# 4 0.0074 0.0048 0.0088 2.8198 0.0094 -3.4833
# 5 7.3110 -1.6881 1.4632 0.0094 22.8739 0.0042
# 6 0.0016 0.0023 0.0029 -3.4833 0.0042 14.2852
#
#
#
# Elastic Compliance Matrix: (Units=1/GPa)
#
#
# Indices 1 2 3 4 5 6 
#
# 1 0.012494 -0.015608 -0.002673 0.000032 -0.004974 0.000011
# 2 -0.015608 0.079062 0.006481 -0.000240 0.010409 -0.000074
# 3 -0.002673 0.006481 0.015102 -0.000082 0.000367 -0.000024
# 4 0.000032 -0.000240 -0.000082 0.507497 -0.000254 0.123747
# 5 -0.004974 0.010409 0.000367 -0.000254 0.046053 -0.000077
# 6 0.000011 -0.000074 -0.000024 0.123747 -0.000077 0.100177
#
#
# Mechanical properties :
#
#
# Convention : Reuss Voigt Hill
#
# Bulk Modulus (GPa) = 12.03971 27.85355 19.94663
# Shear Modulus (GPa) = 6.16015 19.33142 12.74578
#
# Velocity S-wave (km/s) = 1.68593 2.98660 2.42509
# Velocity P-wave (km/s) = 3.05698 4.97444 4.12857
#
# Compressibility (1/GPa) = 0.08305850
#
# Stress axis : x y z
#
# Youngs Moduli (GPa) = 80.03884 12.64835 66.21673
#
# Poissons Ratio (x) = 0.19741 0.17698
# Poissons Ratio (y) = 1.24921 -0.42914
# Poissons Ratio (z) = 0.21393 -0.08197
#
# Static dielectric constant tensor:
#      x y z
#    x 1.856150 0.000000 0.041840 
#    y 0.000000 1.800800 -0.000010 
#    z 0.041840 -0.000010 1.819760 
# 
# From -- ./inp_files/73925.got.cif
#   From: 2010.05.17/outbox.cif.g08.bks.cpg/sg12_37_cif.got.tgz:73925.got - 2010.06.03 13:09:07.
