data_PCOD9170073
_publ_section_title
;
Structure prediction by ZEFSAII (Michael W. Deem and Ramdas Pophale) SiO2 
 PCOD9170073
Probable space group: C 2/M
;
_chemical_formula_sum "Si O2"
_cell_formula_units_Z 48
_cell_length_a 7.595283
_cell_length_b 24.679703
_cell_length_c 11.175275
_cell_angle_alpha 90.000000
_cell_angle_beta 70.095297
_cell_angle_gamma 90.000000
_cell_volume 1969.654962
_symmetry_space_group_name_H-M "C 2/M"
_symmetry_group_IT_number 12
_symmetry_cell_setting 'monoclinic'
loop_
_space_group_symop_operation_xyz
x,y,z
-x,y,-z
-x,-y,-z
x,-y,z
1/2+x,1/2+y,z
1/2-x,1/2+y,-z
1/2-x,1/2-y,-z
1/2+x,1/2-y,z
loop_
_atom_site_type_symbol
_atom_site_label
_atom_site_fract_x
_atom_site_fract_y
_atom_site_fract_z
Si Si1 0.642596 0.650485 0.354933
Si Si2 0.697523 0.823282 0.097321
Si Si3 0.720389 0.440154 0.912203
Si Si4 0.528806 0.717491 0.174356
Si Si5 0.853643 0.438956 0.427375
Si Si6 0.438090 0.556898 0.301276
O O1 0.500000 0.655518 0.500000
O O2 0.607633 0.704968 0.287932
O O3 0.824362 0.616765 0.359898
O O4 0.570444 0.607556 0.272145
O O5 0.665122 0.886703 0.084003
O O6 0.525808 0.782383 0.153628
O O7 0.835923 0.811436 0.178842
O O8 0.819352 0.803979 0.956004
O O9 0.779259 0.500000 0.940167
O O10 0.711314 0.440611 0.769932
O O11 0.500000 0.432909 0.000000
O O12 0.883459 0.500000 0.366033
O O13 0.662258 0.443633 0.548170
O O14 0.000000 0.431495 0.500000
O O15 0.541583 0.500000 0.260593
#
# Coordination Sequence:
#
# PCOD9170073 Si02
#       6
#     8   8   8   8   8   8
#     4  10  18  32  53  79 112 140 187 236 276 325
#     4  10  19  37  58  81 111 145 194 224 270 342
#     4  10  17  29  54  85 110 134 177 236 278 314
#     4  10  20  36  57  80 107 150 185 229 271 335
#     4   9  18  32  50  76 114 155 188 222 279 346
#     4   9  16  28  51  78 106 143 182 225 271 325
#
# _framework density 24.369751000000001
#
# number of rings (size 3 to 8) (size 9 to 14) (size 15 to 20)
#    0.000    2.333    3.333    0.500    0.000    2.000 
#    3.000    1.667    0.000    0.000    0.000   10.500 
#    0.000    0.833    0.000    0.000    0.000    0.000 
#
# Total GULP energy -133745.234391 kJ/mol
# GULP energy per Si atom -5572.718100 kJ/mol
# Density = 2.431428 g / cm^3
# Si number density = 24.369751 Si / 1000 Ang^3
#
#
#
# Elastic Constant Matrix: (Units=GPa)
#
#
# Indices 1 2 3 4 5 6 
#
# 1 68.5483 8.2771 14.1236 0.0000 20.4439 0.0000
# 2 8.2771 172.2897 15.9008 0.0000 5.2450 0.0000
# 3 14.1236 15.9008 68.8600 0.0000 5.9849 0.0000
# 4 0.0000 0.0000 0.0000 29.5087 0.0000 5.2561
# 5 20.4439 5.2450 5.9849 0.0000 26.3613 0.0000
# 6 0.0000 0.0000 0.0000 5.2561 0.0000 16.6557
#
#
#
# Elastic Compliance Matrix: (Units=1/GPa)
#
#
# Indices 1 2 3 4 5 6 
#
# 1 0.019480 -0.000248 -0.002682 0.000000 -0.014449 0.000000
# 2 -0.000248 0.005954 -0.001263 0.000000 -0.000705 0.000000
# 3 -0.002682 -0.001263 0.015467 0.000000 -0.001180 0.000000
# 4 0.000000 0.000000 0.000000 0.035907 0.000000 -0.011331
# 5 -0.014449 -0.000705 -0.001180 0.000000 0.049548 0.000000
# 6 0.000000 0.000000 0.000000 -0.011331 0.000000 0.063615
#
#
# Mechanical properties :
#
#
# Convention : Reuss Voigt Hill
#
# Bulk Modulus (GPa) = 30.75592 42.92231 36.83912
# Shear Modulus (GPa) = 23.90106 32.59824 28.24965
#
# Velocity S-wave (km/s) = 3.13512 3.66136 3.40841
# Velocity P-wave (km/s) = 5.07476 5.96031 5.53527
#
# Compressibility (1/GPa) = 0.03251406
#
# Stress axis : x y z
#
# Youngs Moduli (GPa) = 51.33413 167.95111 64.65585
#
# Poissons Ratio (x) = 0.04173 0.17343
# Poissons Ratio (y) = 0.01275 0.08164
# Poissons Ratio (z) = 0.13769 0.21206
#
# Static dielectric constant tensor:
#      x y z
#    x 2.005050 0.000000 -0.032990 
#    y 0.000000 2.084180 0.000000 
#    z -0.032990 0.000000 1.963470 
# 
# From -- ./inp_files/121887.got.cif
#   From: 2010.05.17/outbox.cif.g08.bks.cpg/sg12_61_cif.got.tgz:121887.got - 2010.06.03 13:09:07.
