data_PCOD9170098
_publ_section_title
;
Structure prediction by ZEFSAII (Michael W. Deem and Ramdas Pophale) SiO2 
 PCOD9170098
Probable space group: C 2/M
;
_chemical_formula_sum "Si O2"
_cell_formula_units_Z 56
_cell_length_a 23.795853
_cell_length_b 24.448446
_cell_length_c 17.175159
_cell_angle_alpha 90.000000
_cell_angle_beta 19.514270
_cell_angle_gamma 90.000000
_cell_volume 3337.750631
_symmetry_space_group_name_H-M "C 2/M"
_symmetry_group_IT_number 12
_symmetry_cell_setting 'monoclinic'
loop_
_space_group_symop_operation_xyz
x,y,z
-x,y,-z
-x,-y,-z
x,-y,z
1/2+x,1/2+y,z
1/2-x,1/2+y,-z
1/2-x,1/2-y,-z
1/2+x,1/2-y,z
loop_
_atom_site_type_symbol
_atom_site_label
_atom_site_fract_x
_atom_site_fract_y
_atom_site_fract_z
Si Si1 0.538525 0.160134 0.177974
Si Si2 0.286317 0.659734 0.494031
Si Si3 0.117965 0.713599 0.221427
Si Si4 0.734981 0.273883 0.326424
Si Si5 0.112270 0.780391 0.009070
Si Si6 0.187986 0.882796 0.286353
Si Si7 0.193747 0.562379 0.726906
O O1 0.350064 0.150691 0.395230
O O2 0.570508 0.163018 0.228061
O O3 0.572293 0.221333 0.100034
O O4 0.672454 0.119899 0.963159
O O5 0.236020 0.708301 0.621909
O O6 0.277167 0.604637 0.557632
O O7 0.464073 0.678520 0.226615
O O8 0.212403 0.701680 0.178633
O O9 0.950111 0.749255 0.444286
O O10 0.250000 0.750000 0.000000
O O11 0.857789 0.232549 0.120845
O O12 0.733158 0.330225 0.280572
O O13 0.210125 0.932569 0.316557
O O14 0.000000 0.877838 0.500000
O O15 0.191607 0.500000 0.701502
O O16 0.000000 0.578970 0.000000
#
# Coordination Sequence:
#
# PCOD9170098 Si02
#       7
#     8   8   8   8   8   8   8
#     4  10  19  30  44  70 100 136 165 196 243 294
#     4  11  20  34  48  73  99 138 168 209 247 298
#     4  10  17  30  44  66 102 143 170 200 232 288
#     4  10  19  30  49  70 106 144 173 195 244 293
#     4  10  20  29  48  68 100 137 175 197 239 297
#     4  10  19  30  50  71  96 131 170 199 244 298
#     4  10  21  37  53  69  95 130 171 211 259 305
#
# _framework density 16.777767000000001
#
# number of rings (size 3 to 8) (size 9 to 14) (size 15 to 20)
#    0.000    1.857    4.286    3.429    2.000    0.286 
#    0.000    0.000    0.000    0.000    0.000    0.000 
#    0.000    5.714    0.000    0.000    0.000    0.000 
#
# Total GULP energy -155977.188314 kJ/mol
# GULP energy per Si atom -5570.613868 kJ/mol
# Density = 1.673958 g / cm^3
# Si number density = 16.777767 Si / 1000 Ang^3
#
#
#
# Elastic Constant Matrix: (Units=GPa)
#
#
# Indices 1 2 3 4 5 6 
#
# 1 77.1356 13.2470 18.8838 0.0012 -13.7372 0.0003
# 2 13.2470 45.7761 35.2930 -0.0096 5.2762 0.0088
# 3 18.8838 35.2930 70.7842 -0.0411 0.1870 0.0001
# 4 0.0012 -0.0096 -0.0411 8.6390 0.0157 1.7313
# 5 -13.7372 5.2762 0.1870 0.0157 27.1837 -0.0001
# 6 0.0003 0.0088 0.0001 1.7313 -0.0001 9.1676
#
#
#
# Elastic Compliance Matrix: (Units=1/GPa)
#
#
# Indices 1 2 3 4 5 6 
#
# 1 0.015731 -0.003737 -0.002356 -0.000035 0.008691 0.000010
# 2 -0.003737 0.037665 -0.017759 -0.000019 -0.009077 -0.000032
# 3 -0.002356 -0.017759 0.023605 0.000089 0.002094 0.000000
# 4 -0.000035 -0.000019 0.000089 0.120308 -0.000084 -0.022720
# 5 0.008691 -0.009077 0.002094 -0.000084 0.042926 0.000024
# 6 0.000010 -0.000032 0.000000 -0.022720 0.000024 0.113371
#
#
# Mechanical properties :
#
#
# Convention : Reuss Voigt Hill
#
# Bulk Modulus (GPa) = 34.13417 36.50484 35.31950
# Shear Modulus (GPa) = 12.16319 17.41617 14.78968
#
# Velocity S-wave (km/s) = 2.69543 3.22537 2.97224
# Velocity P-wave (km/s) = 5.48417 5.97292 5.73376
#
# Compressibility (1/GPa) = 0.02929616
#
# Stress axis : x y z
#
# Youngs Moduli (GPa) = 63.57011 26.54972 42.36368
#
# Poissons Ratio (x) = 0.09923 0.09981
# Poissons Ratio (y) = 0.23759 0.75233
# Poissons Ratio (z) = 0.14978 0.47149
#
# Static dielectric constant tensor:
#      x y z
#    x 1.665650 0.000010 0.009030 
#    y 0.000010 1.562950 0.000020 
#    z 0.009030 0.000020 1.603380 
# 
# From -- ./inp_files/99618.got.cif
#   From: 2010.05.17/outbox.cif.g08.bks.cpg/sg12_50_cif.got.tgz:99618.got - 2010.06.03 13:09:07.
