data_PCOD9170007
_publ_section_title
;
Structure prediction by ZEFSAII (Michael W. Deem and Ramdas Pophale) SiO2 
 PCOD9170007
Probable space group: C 2/M
;
_chemical_formula_sum "Si O2"
_cell_formula_units_Z 56
_cell_length_a 10.297947
_cell_length_b 28.897259
_cell_length_c 14.337284
_cell_angle_alpha 90.000000
_cell_angle_beta 59.025722
_cell_angle_gamma 90.000000
_cell_volume 3658.110971
_symmetry_space_group_name_H-M "C 2/M"
_symmetry_group_IT_number 12
_symmetry_cell_setting 'monoclinic'
loop_
_space_group_symop_operation_xyz
x,y,z
-x,y,-z
-x,-y,-z
x,-y,z
1/2+x,1/2+y,z
1/2-x,1/2+y,-z
1/2-x,1/2-y,-z
1/2+x,1/2-y,z
loop_
_atom_site_type_symbol
_atom_site_label
_atom_site_fract_x
_atom_site_fract_y
_atom_site_fract_z
Si Si1 0.655280 0.053109 0.503484
Si Si2 0.413841 0.945751 0.934824
Si Si3 0.490796 0.106920 0.721124
Si Si4 0.744184 0.790187 0.370442
Si Si5 0.557513 0.791952 0.630140
Si Si6 0.684687 0.391432 0.712448
Si Si7 0.557808 0.553802 0.084380
O O1 0.500000 0.053377 0.500000
O O2 0.610886 0.077708 0.616002
O O3 0.773463 0.081725 0.398040
O O4 0.701403 0.000000 0.499413
O O5 0.474623 0.913374 0.830036
O O6 0.429490 0.000000 0.900587
O O7 0.500000 0.939177 0.000000
O O8 0.236297 0.937197 0.017686
O O9 0.536162 0.160629 0.694734
O O10 0.327887 0.101572 0.729454
O O11 0.662457 0.800887 0.499983
O O12 0.606731 0.778259 0.350796
O O13 0.860489 0.748579 0.343518
O O14 0.822194 0.837042 0.306405
O O15 0.537746 0.413023 0.813996
O O16 0.531455 0.500000 0.121111
O O17 0.500000 0.559219 0.000000
#
# Coordination Sequence:
#
# PCOD9170007 Si02
#       7
#     8   8   8   8   8   8   8
#     4   9  16  24  42  76 107 129 154 199 258 303
#     4  10  21  36  52  72 101 140 177 205 242 296
#     4  10  17  30  51  74 102 133 167 207 251 299
#     4   9  17  31  50  74 103 131 163 204 250 305
#     4   9  17  31  51  74 101 130 166 205 250 303
#     4  10  17  29  50  77 105 128 162 211 257 296
#     4  10  19  32  52  76 100 133 174 210 244 290
#
# _framework density 15.308446999999999
#
# number of rings (size 3 to 8) (size 9 to 14) (size 15 to 20)
#    0.000    2.429    2.857    0.857    0.000    1.143 
#    2.571    0.000    0.000    2.571    0.000    4.000 
#    0.000    0.000    0.000    0.000    0.000    0.000 
#
# Total GULP energy -156069.214953 kJ/mol
# GULP energy per Si atom -5573.900534 kJ/mol
# Density = 1.527360 g / cm^3
# Si number density = 15.308447 Si / 1000 Ang^3
#
#
#
# Elastic Constant Matrix: (Units=GPa)
#
#
# Indices 1 2 3 4 5 6 
#
# 1 78.8749 65.2055 51.0454 0.0000 -4.1520 0.0000
# 2 65.2055 125.8684 78.7380 0.0000 -2.5816 0.0000
# 3 51.0454 78.7380 100.0929 0.0000 -3.3204 0.0000
# 4 0.0000 0.0000 0.0000 26.4347 0.0000 -4.5228
# 5 -4.1520 -2.5816 -3.3204 0.0000 12.0456 0.0000
# 6 0.0000 0.0000 0.0000 -4.5228 0.0000 10.2008
#
#
#
# Elastic Compliance Matrix: (Units=1/GPa)
#
#
# Indices 1 2 3 4 5 6 
#
# 1 0.023521 -0.009219 -0.004582 0.000000 0.004869 0.000000
# 2 -0.009219 0.019256 -0.010511 0.000000 -0.001948 0.000000
# 3 -0.004582 -0.010511 0.020657 0.000000 0.001862 0.000000
# 4 0.000000 0.000000 0.000000 0.040934 0.000000 0.018149
# 5 0.004869 -0.001948 0.001862 0.000000 0.084792 0.000000
# 6 0.000000 0.000000 0.000000 0.018149 0.000000 0.106078
#
#
# Mechanical properties :
#
#
# Convention : Reuss Voigt Hill
#
# Bulk Modulus (GPa) = 67.51536 77.20156 72.35846
# Shear Modulus (GPa) = 14.33495 17.05937 15.69716
#
# Velocity S-wave (km/s) = 3.06340 3.34185 3.20565
# Velocity P-wave (km/s) = 7.53071 8.08893 7.81481
#
# Compressibility (1/GPa) = 0.01481144
#
# Stress axis : x y z
#
# Youngs Moduli (GPa) = 42.51523 51.93271 48.40939
#
# Poissons Ratio (x) = 0.47877 0.22179
# Poissons Ratio (y) = 0.39195 0.50881
# Poissons Ratio (z) = 0.19479 0.54584
#
# Static dielectric constant tensor:
#      x y z
#    x 1.501570 0.000000 0.000720 
#    y 0.000000 1.499390 0.000000 
#    z 0.000720 0.000000 1.487780 
# 
# From -- ./inp_files/125627.got.cif
#   From: 2010.05.17/outbox.cif.g08.bks.cpg/sg12_63_cif.got.tgz:125627.got - 2010.06.03 13:09:07.
