data_PCOD9170624
_publ_section_title
;
Structure prediction by ZEFSAII (Michael W. Deem and Ramdas Pophale) SiO2 
 PCOD9170624
Probable space group: C 2/M
;
_chemical_formula_sum "Si O2"
_cell_formula_units_Z 64
_cell_length_a 10.174887
_cell_length_b 29.376639
_cell_length_c 18.193920
_cell_angle_alpha 90.000000
_cell_angle_beta 37.567818
_cell_angle_gamma 90.000000
_cell_volume 3315.692253
_symmetry_space_group_name_H-M "C 2/M"
_symmetry_group_IT_number 12
_symmetry_cell_setting 'monoclinic'
loop_
_space_group_symop_operation_xyz
x,y,z
-x,y,-z
-x,-y,-z
x,-y,z
1/2+x,1/2+y,z
1/2-x,1/2+y,-z
1/2-x,1/2-y,-z
1/2+x,1/2-y,z
loop_
_atom_site_type_symbol
_atom_site_label
_atom_site_fract_x
_atom_site_fract_y
_atom_site_fract_z
Si Si1 0.183897 0.700573 0.497635
Si Si2 0.259120 0.619543 0.096634
Si Si3 0.724668 0.132915 0.939884
Si Si4 0.197332 0.396662 0.469697
Si Si5 0.978753 0.053306 0.226290
Si Si6 0.912530 0.446266 0.714580
Si Si7 0.951424 0.214076 0.239700
Si Si8 0.808776 0.708512 0.777703
O O1 0.250000 0.750000 0.500000
O O2 0.298277 0.650915 0.452901
O O3 0.239271 0.708877 0.386402
O O4 0.980714 0.691088 0.640938
O O5 0.104267 0.582930 0.203832
O O6 0.256313 0.665585 0.145577
O O7 0.500000 0.600418 0.000000
O O8 0.207459 0.632149 0.035864
O O9 0.910847 0.168126 0.831196
O O10 0.810955 0.083080 0.880460
O O11 0.500000 0.143718 0.000000
O O12 0.359418 0.426865 0.350754
O O13 0.000000 0.384332 0.500000
O O14 0.094792 0.425440 0.580854
O O15 0.809461 0.059986 0.233931
O O16 0.019684 0.000000 0.215271
O O17 0.942262 0.500000 0.713401
O O18 0.092595 0.252395 0.215949
O O19 0.880463 0.227740 0.189507
#
# Coordination Sequence:
#
# PCOD9170624 Si02
#       8
#     8   8   8   8   8   8   8   8
#     4  10  20  35  62  95 124 161 199 245 308 368
#     4  12  23  41  62  88 122 166 207 253 304 358
#     4  12  27  43  61  87 124 167 213 250 302 362
#     4  10  17  32  62  94 129 155 192 254 315 363
#     4  10  20  37  63  94 124 159 203 254 309 368
#     4  10  20  35  63  99 124 153 200 258 314 362
#     4  11  23  41  63  91 125 163 204 254 305 366
#     4  11  23  39  64  93 125 162 202 250 311 367
#
# _framework density 19.302153000000001
#
# number of rings (size 3 to 8) (size 9 to 14) (size 15 to 20)
#    0.000    1.250    5.000    1.500    1.750    3.500 
#    0.000    0.000    0.000    2.250    0.000    1.750 
#    0.000    0.000    0.000    0.000    0.000    0.000 
#
# Total GULP energy -178318.037559 kJ/mol
# GULP energy per Si atom -5572.438674 kJ/mol
# Density = 1.925822 g / cm^3
# Si number density = 19.302153 Si / 1000 Ang^3
#
#
#
# Elastic Constant Matrix: (Units=GPa)
#
#
# Indices 1 2 3 4 5 6 
#
# 1 74.3028 25.1238 40.6347 0.0000 21.4938 0.0000
# 2 25.1238 109.4687 43.2448 0.0000 23.5412 0.0000
# 3 40.6347 43.2448 115.3465 0.0000 30.5704 0.0000
# 4 0.0000 0.0000 0.0000 17.8245 0.0000 -2.4664
# 5 21.4938 23.5412 30.5704 0.0000 23.7091 0.0000
# 6 0.0000 0.0000 0.0000 -2.4664 0.0000 17.6050
#
#
#
# Elastic Compliance Matrix: (Units=1/GPa)
#
#
# Indices 1 2 3 4 5 6 
#
# 1 0.019016 -0.000360 -0.003175 0.000000 -0.012788 0.000000
# 2 -0.000360 0.011925 -0.001963 0.000000 -0.008983 0.000000
# 3 -0.003175 -0.001963 0.014044 0.000000 -0.013280 0.000000
# 4 0.000000 0.000000 0.000000 0.057212 0.000000 0.008015
# 5 -0.012788 -0.008983 -0.013280 0.000000 0.079814 0.000000
# 6 0.000000 0.000000 0.000000 0.008015 0.000000 0.057925
#
#
# Mechanical properties :
#
#
# Convention : Reuss Voigt Hill
#
# Bulk Modulus (GPa) = 29.42204 57.45829 43.44017
# Shear Modulus (GPa) = 19.06505 24.50203 21.78354
#
# Velocity S-wave (km/s) = 3.14621 3.56672 3.36304
# Velocity P-wave (km/s) = 5.33611 6.84065 6.13468
#
# Compressibility (1/GPa) = 0.03398813
#
# Stress axis : x y z
#
# Youngs Moduli (GPa) = 52.58858 83.85775 71.20624
#
# Poissons Ratio (x) = 0.03019 0.22606
# Poissons Ratio (y) = 0.01893 0.13980
# Poissons Ratio (z) = 0.16695 0.16464
#
# Static dielectric constant tensor:
#      x y z
#    x 1.357270 0.000000 -0.208720 
#    y 0.000000 1.649810 0.000000 
#    z -0.208720 0.000000 1.579800 
# 
# From -- ./inp_files/201231.got.cif
#   From: 2010.05.17/outbox.cif.g08.bks.cpg/sg12_101_cif.got.tgz:201231.got - 2010.06.03 13:09:07.
