data_PCOD9170865
_publ_section_title
;
Structure prediction by ZEFSAII (Michael W. Deem and Ramdas Pophale) SiO2 
 PCOD9170865
Probable space group: C 2/M
;
_chemical_formula_sum "Si O2"
_cell_formula_units_Z 56
_cell_length_a 14.804395
_cell_length_b 28.984330
_cell_length_c 6.959687
_cell_angle_alpha 90.000000
_cell_angle_beta 60.295081
_cell_angle_gamma 90.000000
_cell_volume 2593.928200
_symmetry_space_group_name_H-M "C 2/M"
_symmetry_group_IT_number 12
_symmetry_cell_setting 'monoclinic'
loop_
_space_group_symop_operation_xyz
x,y,z
-x,y,-z
-x,-y,-z
x,-y,z
1/2+x,1/2+y,z
1/2-x,1/2+y,-z
1/2-x,1/2-y,-z
1/2+x,1/2-y,z
loop_
_atom_site_type_symbol
_atom_site_label
_atom_site_fract_x
_atom_site_fract_y
_atom_site_fract_z
Si Si1 0.375758 0.370361 0.622056
Si Si2 0.193610 0.946644 0.024108
Si Si3 0.611384 0.947530 0.428652
Si Si4 0.585095 0.748778 0.777779
Si Si5 0.227719 0.884548 0.663288
Si Si6 0.374584 0.804932 0.617298
Si Si7 0.620821 0.716997 0.132331
O O1 0.500000 0.373709 0.500000
O O2 0.331919 0.417445 0.761767
O O3 0.333560 0.365107 0.451328
O O4 0.342238 0.326452 0.787060
O O5 0.157386 0.000000 0.062796
O O6 0.316032 0.947902 0.838505
O O7 0.155628 0.914280 0.884641
O O8 0.500000 0.926804 0.500000
O O9 0.683490 0.920462 0.501477
O O10 0.596321 0.000000 0.508471
O O11 0.643285 0.781567 0.573032
O O12 0.506877 0.717163 0.735276
O O13 0.500000 0.776198 0.000000
O O14 0.301151 0.849012 0.702285
O O15 0.142728 0.780057 0.880839
O O16 0.500000 0.814170 0.500000
O O17 0.351545 0.765526 0.798735
#
# Coordination Sequence:
#
# PCOD9170865 Si02
#       7
#     8   8   8   8   8   8   8
#     4  12  25  42  63  89 125 173 222 266 307 356
#     4   9  23  45  65  93 126 156 207 264 318 382
#     4   8  16  40  70  91 121 161 191 244 327 392
#     4   7  16  32  56  85 119 168 201 251 297 366
#     4  10  23  37  61  97 124 160 212 258 301 390
#     4  10  17  35  60  91 130 165 198 258 318 370
#     4   8  19  35  58  85 124 166 211 256 307 367
#
# _framework density 21.588877
#
# number of rings (size 3 to 8) (size 9 to 14) (size 15 to 20)
#    1.714    1.000    0.000    1.714    0.000    7.143 
#    0.000    2.857    0.000    2.571    0.000    0.000 
#    0.000    0.000    0.000    0.000    0.000    0.000 
#
# Total GULP energy -155878.501043 kJ/mol
# GULP energy per Si atom -5567.089323 kJ/mol
# Density = 2.153974 g / cm^3
# Si number density = 21.588877 Si / 1000 Ang^3
#
#
#
# Elastic Constant Matrix: (Units=GPa)
#
#
# Indices 1 2 3 4 5 6 
#
# 1 113.0733 43.1659 19.3371 0.0000 8.6516 0.0000
# 2 43.1659 135.9245 32.2034 0.0000 16.7574 0.0000
# 3 19.3371 32.2034 64.1788 0.0000 12.7057 0.0000
# 4 0.0000 0.0000 0.0000 31.8099 0.0000 3.8990
# 5 8.6516 16.7574 12.7057 0.0000 29.7608 0.0000
# 6 0.0000 0.0000 0.0000 3.8990 0.0000 19.9834
#
#
#
# Elastic Compliance Matrix: (Units=1/GPa)
#
#
# Indices 1 2 3 4 5 6 
#
# 1 0.010229 -0.002793 -0.001533 0.000000 -0.000747 0.000000
# 2 -0.002793 0.009398 -0.003263 0.000000 -0.003086 0.000000
# 3 -0.001533 -0.003263 0.018819 0.000000 -0.005752 0.000000
# 4 0.000000 0.000000 0.000000 0.032207 0.000000 -0.006284
# 5 -0.000747 -0.003086 -0.005752 0.000000 0.038012 0.000000
# 6 0.000000 0.000000 0.000000 -0.006284 0.000000 0.051268
#
#
# Mechanical properties :
#
#
# Convention : Reuss Voigt Hill
#
# Bulk Modulus (GPa) = 42.97671 55.84326 49.40998
# Shear Modulus (GPa) = 27.34233 30.87551 29.10892
#
# Velocity S-wave (km/s) = 3.56265 3.78585 3.67594
# Velocity P-wave (km/s) = 6.07235 6.71066 6.39947
#
# Compressibility (1/GPa) = 0.02326842
#
# Stress axis : x y z
#
# Youngs Moduli (GPa) = 97.75709 106.40904 53.13734
#
# Poissons Ratio (x) = 0.29725 0.08144
# Poissons Ratio (y) = 0.27308 0.17338
# Poissons Ratio (z) = 0.14983 0.34720
#
# Static dielectric constant tensor:
#      x y z
#    x 1.843500 0.000000 -0.029300 
#    y 0.000000 1.855590 0.000000 
#    z -0.029300 0.000000 1.828760 
# 
# From -- ./inp_files/90948.got.cif
#   From: 2010.05.17/outbox.cif.g08.bks.cpg/sg12_46_cif.got.tgz:90948.got - 2010.06.03 13:09:07.
