data_PCOD9170904
_publ_section_title
;
Structure prediction by ZEFSAII (Michael W. Deem and Ramdas Pophale) SiO2 
 PCOD9170904
Probable space group: C 2/M
;
_chemical_formula_sum "Si O2"
_cell_formula_units_Z 52
_cell_length_a 7.811563
_cell_length_b 19.698106
_cell_length_c 22.186277
_cell_angle_alpha 90.000000
_cell_angle_beta 137.021039
_cell_angle_gamma 90.000000
_cell_volume 2327.336038
_symmetry_space_group_name_H-M "C 2/M"
_symmetry_group_IT_number 12
_symmetry_cell_setting 'monoclinic'
loop_
_space_group_symop_operation_xyz
x,y,z
-x,y,-z
-x,-y,-z
x,-y,z
1/2+x,1/2+y,z
1/2-x,1/2+y,-z
1/2-x,1/2-y,-z
1/2+x,1/2-y,z
loop_
_atom_site_type_symbol
_atom_site_label
_atom_site_fract_x
_atom_site_fract_y
_atom_site_fract_z
Si Si1 0.799727 0.078741 0.004104
Si Si2 0.952617 0.856713 0.641437
Si Si3 0.821822 0.127109 0.809699
Si Si4 0.122130 0.716591 0.655707
Si Si5 0.759241 0.606506 0.534065
Si Si6 0.937916 0.580505 0.812712
Si Si7 0.163404 0.500000 0.690677
O O1 0.542239 0.100310 0.905245
O O2 0.779252 0.000000 0.019014
O O3 0.000000 0.078756 0.000000
O O4 0.918154 0.124946 0.086417
O O5 0.782200 0.816077 0.643664
O O6 0.795296 0.895823 0.550875
O O7 0.106148 0.797013 0.647927
O O8 0.148395 0.904052 0.726354
O O9 0.751441 0.191731 0.751084
O O10 0.602668 0.115668 0.803068
O O11 0.812730 0.060529 0.765433
O O12 0.850538 0.681548 0.577152
O O13 0.500000 0.588260 0.500000
O O14 0.981666 0.558328 0.612662
O O15 0.982537 0.500000 0.817656
#
# Coordination Sequence:
#
# PCOD9170904 Si02
#       7
#     8   8   8   8   8   8   4
#     4   8  14  29  57  91 122 156 196 242 289 355
#     4  12  24  43  60  84 126 155 212 249 298 358
#     4  10  17  36  62  91 123 154 204 242 295 357
#     4  11  25  42  62  87 114 170 200 252 299 356
#     4  11  23  38  62  90 119 158 201 246 300 360
#     4  10  20  35  62  94 125 161 197 243 303 352
#     4  10  19  32  58  92 120 154 194 234 298 344
#
# _framework density 22.343143000000001
#
# number of rings (size 3 to 8) (size 9 to 14) (size 15 to 20)
#    0.000    1.692    1.538    5.769    1.077    0.000 
#    5.538    4.615    0.000    1.846    0.000    0.000 
#    0.000    0.000    0.000    0.000    0.000    0.000 
#
# Total GULP energy -144878.626716 kJ/mol
# GULP energy per Si atom -5572.254874 kJ/mol
# Density = 2.229229 g / cm^3
# Si number density = 22.343143 Si / 1000 Ang^3
#
#
#
# Elastic Constant Matrix: (Units=GPa)
#
#
# Indices 1 2 3 4 5 6 
#
# 1 63.4906 -9.5236 18.5113 0.0002 -10.5297 0.0002
# 2 -9.5236 14.6707 10.9027 0.0000 2.6711 0.0000
# 3 18.5113 10.9027 173.3919 0.0004 -16.9930 0.0001
# 4 0.0002 0.0000 0.0004 20.4012 0.0003 -5.2491
# 5 -10.5297 2.6711 -16.9930 0.0003 7.2250 0.0001
# 6 0.0002 0.0000 0.0001 -5.2491 0.0001 -3.2787
#
#
#
# Elastic Compliance Matrix: (Units=1/GPa)
#
#
# Indices 1 2 3 4 5 6 
#
# 1 0.021824 0.009181 -0.000160 0.000000 0.028036 0.000003
# 2 0.009181 0.091049 -0.011297 0.000000 -0.046850 -0.000002
# 3 -0.000160 -0.011297 0.008942 0.000000 0.024976 0.000002
# 4 0.000000 0.000000 0.000000 0.034717 -0.000001 -0.055579
# 5 0.028036 -0.046850 0.024976 -0.000001 0.255335 0.000015
# 6 0.000003 -0.000002 0.000002 -0.055579 0.000015 -0.216016
#
#
# Mechanical properties :
#
#
# Convention : Reuss Voigt Hill
#
# Bulk Modulus (GPa) = 8.52775 32.37044 20.44909
# Shear Modulus (GPa) = 20.87780 20.31368 20.59574
#
# Velocity S-wave (km/s) = 3.06014 3.01851 3.03940
# Velocity P-wave (km/s) = 4.03868 5.16409 4.63567
#
# Compressibility (1/GPa) = 0.11726423
#
# Stress axis : x y z
#
# Youngs Moduli (GPa) = 45.82165 10.98315 111.82655
#
# Poissons Ratio (x) = -0.10084 0.01784
# Poissons Ratio (y) = -0.42069 1.26327
# Poissons Ratio (z) = 0.00731 0.12407
#
# Static dielectric constant tensor:
#      x y z
#    x 1.909560 0.000000 0.009530 
#    y 0.000000 1.813780 0.000000 
#    z 0.009530 0.000000 1.822560 
# 
# From -- ./inp_files/333789.got.cif
#   From: 2010.05.17/outbox.cif.g08.bks.cpg/sg12_167_cif.got.tgz:333789.got - 2010.06.03 13:09:07.
