data_PCOD9170988
_publ_section_title
;
Structure prediction by ZEFSAII (Michael W. Deem and Ramdas Pophale) SiO2 
 PCOD9170988
Probable space group: C 2/M
;
_chemical_formula_sum "Si O2"
_cell_formula_units_Z 64
_cell_length_a 30.048084
_cell_length_b 7.330131
_cell_length_c 17.662956
_cell_angle_alpha 90.000000
_cell_angle_beta 53.180097
_cell_angle_gamma 90.000000
_cell_volume 3114.338763
_symmetry_space_group_name_H-M "C 2/M"
_symmetry_group_IT_number 12
_symmetry_cell_setting 'monoclinic'
loop_
_space_group_symop_operation_xyz
x,y,z
-x,y,-z
-x,-y,-z
x,-y,z
1/2+x,1/2+y,z
1/2-x,1/2+y,-z
1/2-x,1/2-y,-z
1/2+x,1/2-y,z
loop_
_atom_site_type_symbol
_atom_site_label
_atom_site_fract_x
_atom_site_fract_y
_atom_site_fract_z
Si Si1 0.552543 0.722992 0.393651
Si Si2 0.874809 0.221938 0.445577
Si Si3 0.833894 0.216439 0.645287
Si Si4 0.500918 0.721437 0.702794
Si Si5 0.300850 0.716887 0.391617
Si Si6 0.710765 0.281477 0.766436
Si Si7 0.911289 0.778044 0.085240
Si Si8 0.506096 0.277673 0.870732
O O1 0.500000 0.777513 0.500000
O O2 0.552210 0.500000 0.395328
O O3 0.612355 0.784572 0.363996
O O4 0.542316 0.780046 0.317228
O O5 0.838992 0.286361 0.553542
O O6 0.852958 0.286015 0.386780
O O7 0.938535 0.270396 0.391150
O O8 0.871693 0.000000 0.446883
O O9 0.771447 0.243320 0.738619
O O10 0.841512 0.000000 0.633106
O O11 0.498202 0.500000 0.708551
O O12 0.499012 0.784389 0.791650
O O13 0.308114 0.500000 0.374880
O O14 0.250000 0.750000 0.500000
O O15 0.290280 0.789936 0.319065
O O16 0.707543 0.500000 0.768344
O O17 0.652207 0.217660 0.860780
O O18 0.938929 0.723385 0.137609
O O19 0.911559 0.000000 0.085032
O O20 0.953740 0.722956 0.976027
O O21 0.507624 0.500000 0.867025
#
# Coordination Sequence:
#
# PCOD9170988 Si02
#       8
#     8   8   8   8   8   8   8   8
#     4   9  15  24  38  59  83 107 138 178 218 250
#     4   9  15  23  36  56  83 110 134 163 205 251
#     4  10  18  28  42  60  85 115 143 173 208 247
#     4   9  14  21  37  60  82 104 134 175 221 256
#     4  10  18  26  37  56  82 111 138 164 195 240
#     4  10  19  29  42  60  86 118 145 170 205 251
#     4   8  14  25  39  59  86 112 138 170 212 255
#     4   8  13  22  39  61  84 108 136 175 217 255
#
# _framework density 20.550108999999999
#
# number of rings (size 3 to 8) (size 9 to 14) (size 15 to 20)
#    0.000    2.875    2.500    1.500    0.000    3.000 
#    0.000    0.000    0.000    1.125    0.000    1.750 
#    0.000    3.000    0.000    0.000    0.000    0.000 
#
# Total GULP energy -178456.148410 kJ/mol
# GULP energy per Si atom -5576.754638 kJ/mol
# Density = 2.050334 g / cm^3
# Si number density = 20.550109 Si / 1000 Ang^3
#
#
#
# Elastic Constant Matrix: (Units=GPa)
#
#
# Indices 1 2 3 4 5 6 
#
# 1 156.0457 3.2328 58.4572 -0.0028 -19.9254 -0.0142
# 2 3.2328 78.9780 -3.3712 -0.0049 1.6204 -0.0248
# 3 58.4572 -3.3712 86.5407 0.0001 -10.6874 0.0004
# 4 -0.0028 -0.0049 0.0001 9.5153 0.0004 28.2848
# 5 -19.9254 1.6204 -10.6874 0.0004 34.2230 0.0015
# 6 -0.0142 -0.0248 0.0004 28.2848 0.0015 151.2956
#
#
#
# Elastic Compliance Matrix: (Units=1/GPa)
#
#
# Indices 1 2 3 4 5 6 
#
# 1 0.008993 -0.000682 -0.005669 0.000000 0.003498 0.000001
# 2 -0.000682 0.012742 0.000867 0.000001 -0.000730 0.000002
# 3 -0.005669 0.000867 0.015608 0.000000 0.001532 0.000000
# 4 0.000000 0.000001 0.000000 0.236551 -0.000001 -0.044223
# 5 0.003498 -0.000730 0.001532 -0.000001 0.031770 0.000000
# 6 0.000001 0.000002 0.000000 -0.044223 0.000000 0.014877
#
#
# Mechanical properties :
#
#
# Convention : Reuss Voigt Hill
#
# Bulk Modulus (GPa) = 37.91635 48.68910 43.30273
# Shear Modulus (GPa) = 14.69291 56.55648 35.62470
#
# Velocity S-wave (km/s) = 2.67681 5.25176 4.16811
# Velocity P-wave (km/s) = 5.29571 7.77939 6.65445
#
# Compressibility (1/GPa) = 0.02637384
#
# Stress axis : x y z
#
# Youngs Moduli (GPa) = 111.19879 78.48285 64.07074
#
# Poissons Ratio (x) = 0.05351 0.36323
# Poissons Ratio (y) = 0.07582 -0.05554
# Poissons Ratio (z) = 0.63041 -0.06803
#
# Static dielectric constant tensor:
#      x y z
#    x 1.759460 0.000000 -0.017350 
#    y 0.000000 1.834750 0.000000 
#    z -0.017350 0.000000 1.718170 
# 
# From -- ./inp_files/292738.got.cif
#   From: 2010.05.17/outbox.cif.g08.bks.cpg/sg12_147_cif.got.tgz:292738.got - 2010.06.03 13:09:07.
