data_PCOD9170204
_publ_section_title
;
Structure prediction by ZEFSAII (Michael W. Deem and Ramdas Pophale) SiO2 
 PCOD9170204
Probable space group: C 2/M
;
_chemical_formula_sum "Si O2"
_cell_formula_units_Z 48
_cell_length_a 23.516468
_cell_length_b 8.555164
_cell_length_c 27.548391
_cell_angle_alpha 90.000000
_cell_angle_beta 28.847282
_cell_angle_gamma 90.000000
_cell_volume 2674.071298
_symmetry_space_group_name_H-M "C 2/M"
_symmetry_group_IT_number 12
_symmetry_cell_setting 'monoclinic'
loop_
_space_group_symop_operation_xyz
x,y,z
-x,y,-z
-x,-y,-z
x,-y,z
1/2+x,1/2+y,z
1/2-x,1/2+y,-z
1/2-x,1/2-y,-z
1/2+x,1/2-y,z
loop_
_atom_site_type_symbol
_atom_site_label
_atom_site_fract_x
_atom_site_fract_y
_atom_site_fract_z
Si Si1 0.197015 0.187874 0.489660
Si Si2 0.884902 0.171626 0.618624
Si Si3 0.038442 0.691165 0.893613
Si Si4 0.933955 0.678340 0.678201
Si Si5 0.668987 0.181785 0.705878
Si Si6 0.313260 0.812064 0.122056
O O1 0.250000 0.250000 0.500000
O O2 0.278062 0.247620 0.383838
O O3 0.060345 0.238628 0.588461
O O4 0.199739 0.000000 0.485834
O O5 0.899160 0.303156 0.647731
O O6 0.777841 0.183846 0.661971
O O7 0.000000 0.170147 0.500000
O O8 0.875825 0.000000 0.650505
O O9 0.041277 0.500000 0.889766
O O10 0.068099 0.748978 0.817042
O O11 0.134705 0.733846 0.863421
O O12 0.912135 0.739396 0.009400
O O13 0.948312 0.500000 0.682209
O O14 0.817696 0.750646 0.789972
O O15 0.637886 0.000000 0.718937
O O16 0.312010 0.000000 0.122199
#
# Coordination Sequence:
#
# PCOD9170204 Si02
#       6
#     8   8   8   8   8   8
#     4  11  23  40  58  77 101 136 178 224 269 315
#     4  10  17  30  51  76 104 139 175 208 257 318
#     4   8  14  26  50  81 106 135 175 211 248 307
#     4  12  23  33  49  77 112 145 175 213 258 310
#     4   9  16  29  54  80 104 134 171 212 260 314
#     4   9  16  29  51  77 107 141 176 210 247 306
#
# _framework density 17.950156
#
# number of rings (size 3 to 8) (size 9 to 14) (size 15 to 20)
#    0.000    2.167    3.333    3.000    0.000    0.333 
#    0.000    1.667    0.000    1.000    0.000    0.000 
#    0.000    0.000    0.000    0.000    0.000    0.000 
#
# Total GULP energy -133622.446851 kJ/mol
# GULP energy per Si atom -5567.601952 kJ/mol
# Density = 1.790930 g / cm^3
# Si number density = 17.950156 Si / 1000 Ang^3
#
#
#
# Elastic Constant Matrix: (Units=GPa)
#
#
# Indices 1 2 3 4 5 6 
#
# 1 59.7723 13.9133 54.6815 0.0002 13.8030 -0.0001
# 2 13.9133 32.3196 22.5834 0.0012 2.5786 -0.0006
# 3 54.6815 22.5834 174.2420 0.0005 21.3721 -0.0004
# 4 0.0002 0.0012 0.0005 8.4431 -0.0002 -1.3085
# 5 13.8030 2.5786 21.3721 -0.0002 13.4717 0.0001
# 6 -0.0001 -0.0006 -0.0004 -1.3085 0.0001 18.8766
#
#
#
# Elastic Compliance Matrix: (Units=1/GPa)
#
#
# Indices 1 2 3 4 5 6 
#
# 1 0.027528 -0.006511 -0.005573 0.000000 -0.018117 0.000000
# 2 -0.006511 0.035566 -0.003166 -0.000004 0.004885 0.000001
# 3 -0.005573 -0.003166 0.008845 0.000000 -0.007716 0.000000
# 4 0.000000 -0.000004 0.000000 0.119726 0.000002 0.008299
# 5 -0.018117 0.004885 -0.007716 0.000002 0.104098 0.000000
# 6 0.000000 0.000001 0.000000 0.008299 0.000000 0.053551
#
#
# Mechanical properties :
#
#
# Convention : Reuss Voigt Hill
#
# Bulk Modulus (GPa) = 24.13138 49.85447 36.99293
# Shear Modulus (GPa) = 12.70245 19.83534 16.26890
#
# Velocity S-wave (km/s) = 2.66306 3.32780 3.01381
# Velocity P-wave (km/s) = 4.78838 6.52685 5.72400
#
# Compressibility (1/GPa) = 0.04143982
#
# Stress axis : x y z
#
# Youngs Moduli (GPa) = 36.32718 28.11662 113.06177
#
# Poissons Ratio (x) = 0.18307 0.63006
# Poissons Ratio (y) = 0.23652 0.35791
# Poissons Ratio (z) = 0.20244 0.08901
#
# Static dielectric constant tensor:
#      x y z
#    x 1.584990 0.000000 0.014780 
#    y 0.000000 1.659810 0.000000 
#    z 0.014780 0.000000 1.715840 
# 
# From -- ./inp_files/367101.got.cif
#   From: 2010.05.17/outbox.cif.g08.bks.cpg/sg12_184_cif.got.tgz:367101.got - 2010.06.03 13:09:07.
