data_PCOD9170818
_publ_section_title
;
Structure prediction by ZEFSAII (Michael W. Deem and Ramdas Pophale) SiO2 
 PCOD9170818
Probable space group: C 2/M
;
_chemical_formula_sum "Si O2"
_cell_formula_units_Z 60
_cell_length_a 21.272319
_cell_length_b 28.365460
_cell_length_c 13.407678
_cell_angle_alpha 90.000000
_cell_angle_beta 20.456296
_cell_angle_gamma 90.000000
_cell_volume 2827.460065
_symmetry_space_group_name_H-M "C 2/M"
_symmetry_group_IT_number 12
_symmetry_cell_setting 'monoclinic'
loop_
_space_group_symop_operation_xyz
x,y,z
-x,y,-z
-x,-y,-z
x,-y,z
1/2+x,1/2+y,z
1/2-x,1/2+y,-z
1/2-x,1/2-y,-z
1/2+x,1/2-y,z
loop_
_atom_site_type_symbol
_atom_site_label
_atom_site_fract_x
_atom_site_fract_y
_atom_site_fract_z
Si Si1 0.000000 0.104887 0.000000
Si Si2 0.845156 0.448095 0.481462
Si Si3 0.551608 0.638161 0.703978
Si Si4 0.293944 0.947060 0.323328
Si Si5 0.664211 0.208207 0.690269
Si Si6 0.508858 0.149574 0.743155
Si Si7 0.309433 0.818880 0.725190
Si Si8 0.207608 0.223767 0.168173
O O1 0.161906 0.072230 0.800709
O O2 0.060091 0.133947 0.813371
O O3 0.896528 0.500000 0.441323
O O4 0.787286 0.451805 0.452317
O O5 0.992605 0.406825 0.265152
O O6 0.643521 0.591565 0.521518
O O7 0.676061 0.682018 0.488025
O O8 0.342706 0.649210 0.996932
O O9 0.272766 0.000000 0.310985
O O10 0.500000 0.931161 0.000000
O O11 0.750000 0.250000 0.500000
O O12 0.580311 0.167944 0.742761
O O13 0.500000 0.225746 0.000000
O O14 0.646960 0.166579 0.452016
O O15 0.325243 0.177250 0.998589
O O16 0.500000 0.821007 0.500000
O O17 0.240628 0.765127 0.831073
O O18 0.000000 0.213760 0.500000
O O19 0.250000 0.250000 0.000000
#
# Coordination Sequence:
#
# PCOD9170818 Si02
#       8
#     4   8   8   8   8   8   8   8
#     4  10  17  34  60  90 122 158 200 250 315 386
#     4  10  20  34  60  90 121 161 208 258 319 379
#     4  11  20  37  60  86 126 160 205 255 321 384
#     4   9  18  35  57  87 125 161 206 258 316 390
#     4  12  28  40  60  94 133 168 203 255 335 399
#     4  12  23  42  65  91 134 164 212 268 322 378
#     4  11  23  42  64  90 125 172 217 269 310 372
#     4  11  23  43  66  91 119 168 224 261 310 377
#
# _framework density 21.220458000000001
#
# number of rings (size 3 to 8) (size 9 to 14) (size 15 to 20)
#    0.000    1.200    6.667    1.400    4.667    1.600 
#    0.000    0.000    0.000    2.000    0.000    0.000 
#    0.000    0.000    0.000    0.000    0.000    0.000 
#
# Total GULP energy -167485.927636 kJ/mol
# GULP energy per Si atom -5582.864255 kJ/mol
# Density = 2.117216 g / cm^3
# Si number density = 21.220458 Si / 1000 Ang^3
#
#
#
# Elastic Constant Matrix: (Units=GPa)
#
#
# Indices 1 2 3 4 5 6 
#
# 1 25.6163 6.8929 10.2661 -0.1276 -5.1681 0.0219
# 2 6.8929 164.3698 72.4166 -0.0453 -19.0464 0.0239
# 3 10.2661 72.4166 172.9229 -0.2790 -14.2653 0.0751
# 4 -0.1276 -0.0453 -0.2790 -14.0494 0.0956 10.9806
# 5 -5.1681 -19.0464 -14.2653 0.0956 27.7653 -0.0121
# 6 0.0219 0.0239 0.0751 10.9806 -0.0121 13.2021
#
#
#
# Elastic Compliance Matrix: (Units=1/GPa)
#
#
# Indices 1 2 3 4 5 6 
#
# 1 0.041147 -0.000151 -0.001834 -0.000201 0.006613 0.000116
# 2 -0.000151 0.007837 -0.002957 0.000040 0.003828 -0.000027
# 3 -0.001834 -0.002957 0.007241 -0.000081 0.001351 0.000036
# 4 -0.000201 0.000040 -0.000081 -0.043134 0.000113 0.035876
# 5 0.006613 0.003828 0.001351 0.000113 0.040567 -0.000082
# 6 0.000116 -0.000027 0.000036 0.035876 -0.000082 0.045906
#
#
# Mechanical properties :
#
#
# Convention : Reuss Voigt Hill
#
# Bulk Modulus (GPa) = 21.57972 60.22890 40.90431
# Shear Modulus (GPa) = 40.03365 23.60583 31.81974
#
# Velocity S-wave (km/s) = 4.34817 3.33890 3.87652
# Velocity P-wave (km/s) = 5.94980 6.58091 6.27330
#
# Compressibility (1/GPa) = 0.04633981
#
# Stress axis : x y z
#
# Youngs Moduli (GPa) = 24.30339 127.60767 138.09433
#
# Poissons Ratio (x) = 0.01928 0.25331
# Poissons Ratio (y) = 0.00367 0.40833
# Poissons Ratio (z) = 0.04458 0.37733
#
# Static dielectric constant tensor:
#      x y z
#    x 1.823260 -0.000040 0.012980 
#    y -0.000040 1.826190 0.000060 
#    z 0.012980 0.000060 1.844490 
# 
# From -- ./inp_files/242353.got.cif
#   From: 2010.05.17/outbox.cif.g08.bks.cpg/sg12_122_cif.got.tgz:242353.got - 2010.06.03 13:09:07.
