data_PCOD9170053
_publ_section_title
;
Structure prediction by ZEFSAII (Michael W. Deem and Ramdas Pophale) SiO2 
 PCOD9170053
Probable space group: C 2/M
;
_chemical_formula_sum "Si O2"
_cell_formula_units_Z 48
_cell_length_a 14.483280
_cell_length_b 17.250100
_cell_length_c 11.737312
_cell_angle_alpha 90.000000
_cell_angle_beta 136.330232
_cell_angle_gamma 90.000000
_cell_volume 2024.843238
_symmetry_space_group_name_H-M "C 2/M"
_symmetry_group_IT_number 12
_symmetry_cell_setting 'monoclinic'
loop_
_space_group_symop_operation_xyz
x,y,z
-x,y,-z
-x,-y,-z
x,-y,z
1/2+x,1/2+y,z
1/2-x,1/2+y,-z
1/2-x,1/2-y,-z
1/2+x,1/2-y,z
loop_
_atom_site_type_symbol
_atom_site_label
_atom_site_fract_x
_atom_site_fract_y
_atom_site_fract_z
Si Si1 0.541906 0.500000 0.279323
Si Si2 0.348545 0.914814 0.414757
Si Si3 0.178721 0.000000 0.649632
Si Si4 0.491335 0.334421 0.858021
Si Si5 0.282417 0.000000 0.957786
Si Si6 0.500000 0.357077 0.500000
Si Si7 0.711449 0.138072 0.879328
Si Si8 0.940058 0.728450 0.627081
O O1 0.633178 0.500000 0.476002
O O2 0.561337 0.419108 0.228734
O O3 0.379910 0.500000 0.159504
O O4 0.500000 0.916658 0.500000
O O5 0.266141 0.900204 0.225539
O O6 0.351200 0.843282 0.504266
O O7 0.321845 0.000000 0.439889
O O8 0.114087 0.081460 0.634663
O O9 0.309088 0.000000 0.846103
O O10 0.414982 0.264028 0.728575
O O11 0.500000 0.325486 0.000000
O O12 0.645937 0.330184 0.955281
O O13 0.335747 0.925453 0.072032
O O14 0.439774 0.301382 0.541821
O O15 0.592164 0.197614 0.756845
#
# Coordination Sequence:
#
# PCOD9170053 Si02
#       8
#     4   8   4   8   4   4   8   8
#     4  10  18  34  52  71 106 149 184 208 262 333
#     4   9  17  32  56  80 107 137 179 227 271 313
#     4  11  18  29  49  75 114 142 172 215 272 327
#     4  11  23  37  52  81 114 148 180 221 277 326
#     4  10  17  29  52  86 113 134 171 229 281 309
#     4  11  16  30  53  78 108 136 179 216 270 315
#     4  10  19  33  56  86 110 137 182 233 268 313
#     4  11  20  34  58  83 109 143 184 227 271 323
#
# _framework density 23.705538000000001
#
# number of rings (size 3 to 8) (size 9 to 14) (size 15 to 20)
#    0.000    1.667    6.667    1.750    1.167    0.000 
#    0.000    0.833    0.000    0.500    0.000    0.000 
#    0.000    0.000    0.000    0.000    0.000    0.000 
#
# Total GULP energy -133950.873011 kJ/mol
# GULP energy per Si atom -5581.286375 kJ/mol
# Density = 2.365158 g / cm^3
# Si number density = 23.705538 Si / 1000 Ang^3
#
#
#
# Elastic Constant Matrix: (Units=GPa)
#
#
# Indices 1 2 3 4 5 6 
#
# 1 37.5380 21.4235 11.1139 0.0000 0.2316 0.0000
# 2 21.4235 181.1396 75.2527 0.0000 -22.7079 0.0000
# 3 11.1139 75.2527 116.5048 0.0000 -34.9395 0.0000
# 4 0.0000 0.0000 0.0000 8.7808 0.0000 -23.9635
# 5 0.2316 -22.7079 -34.9395 0.0000 46.4465 0.0000
# 6 0.0000 0.0000 0.0000 -23.9635 0.0000 3.8947
#
#
#
# Elastic Compliance Matrix: (Units=1/GPa)
#
#
# Indices 1 2 3 4 5 6 
#
# 1 0.028910 -0.003110 -0.001612 0.000000 -0.002877 0.000000
# 2 -0.003110 0.007880 -0.004691 0.000000 0.000339 0.000000
# 3 -0.001612 -0.004691 0.014310 0.000000 0.008479 0.000000
# 4 0.000000 0.000000 0.000000 -0.007212 0.000000 -0.044373
# 5 -0.002877 0.000339 0.008479 0.000000 0.028089 0.000000
# 6 0.000000 0.000000 0.000000 -0.044373 0.000000 -0.016259
#
#
# Mechanical properties :
#
#
# Convention : Reuss Voigt Hill
#
# Bulk Modulus (GPa) = 30.98563 61.19584 46.09073
# Shear Modulus (GPa) = 58.61501 26.98389 42.79945
#
# Velocity S-wave (km/s) = 4.97795 3.37752 4.25368
# Velocity P-wave (km/s) = 6.79260 6.40947 6.60381
#
# Compressibility (1/GPa) = 0.03227303
#
# Stress axis : x y z
#
# Youngs Moduli (GPa) = 34.59051 126.90386 69.87951
#
# Poissons Ratio (x) = 0.39471 0.11262
# Poissons Ratio (y) = 0.10759 0.32784
# Poissons Ratio (z) = 0.05575 0.59537
#
# Static dielectric constant tensor:
#      x y z
#    x 2.001390 0.000000 0.018410 
#    y 0.000000 1.861740 0.000000 
#    z 0.018410 0.000000 1.921750 
# 
# From -- ./inp_files/158052.got.cif
#   From: 2010.05.17/outbox.cif.g08.bks.cpg/sg12_80_cif.got.tgz:158052.got - 2010.06.03 13:09:07.
