data_PCOD9170832
_publ_section_title
;
Structure prediction by ZEFSAII (Michael W. Deem and Ramdas Pophale) SiO2 
 PCOD9170832
Probable space group: C 2/M
;
_chemical_formula_sum "Si O2"
_cell_formula_units_Z 60
_cell_length_a 20.682708
_cell_length_b 22.780896
_cell_length_c 15.111768
_cell_angle_alpha 90.000000
_cell_angle_beta 30.901552
_cell_angle_gamma 90.000000
_cell_volume 3656.692750
_symmetry_space_group_name_H-M "C 2/M"
_symmetry_group_IT_number 12
_symmetry_cell_setting 'monoclinic'
loop_
_space_group_symop_operation_xyz
x,y,z
-x,y,-z
-x,-y,-z
x,-y,z
1/2+x,1/2+y,z
1/2-x,1/2+y,-z
1/2-x,1/2-y,-z
1/2+x,1/2-y,z
loop_
_atom_site_type_symbol
_atom_site_label
_atom_site_fract_x
_atom_site_fract_y
_atom_site_fract_z
Si Si1 0.504796 0.219237 0.657290
Si Si2 0.569475 0.567566 0.824517
Si Si3 0.369519 0.430856 0.900589
Si Si4 0.000000 0.251264 0.000000
Si Si5 0.730068 0.667929 0.680975
Si Si6 0.924419 0.155642 0.678752
Si Si7 0.342857 0.783026 0.021632
Si Si8 0.294032 0.841543 0.807475
O O1 0.649335 0.201913 0.496512
O O2 0.489067 0.287053 0.647597
O O3 0.426382 0.206363 0.837671
O O4 0.433229 0.180145 0.667809
O O5 0.609695 0.500000 0.781172
O O6 0.472811 0.574754 0.857530
O O7 0.684515 0.611888 0.680348
O O8 0.500000 0.580698 0.000000
O O9 0.345822 0.500000 0.914116
O O10 0.416569 0.397407 0.757641
O O11 0.250737 0.394964 0.078973
O O12 0.108917 0.210278 0.830430
O O13 0.928852 0.286800 0.007358
O O14 0.768784 0.646941 0.734203
O O15 0.000000 0.142316 0.500000
O O16 0.781326 0.177034 0.827226
O O17 0.292647 0.715892 0.071423
#
# Coordination Sequence:
#
# PCOD9170832 Si02
#       8
#     8   8   8   4   8   8   8   8
#     4  11  20  33  56  83 110 145 175 213 272 329
#     4  10  19  34  54  76 107 147 183 219 262 309
#     4  11  21  35  59  81 103 141 188 229 265 309
#     4  10  20  32  47  80 113 138 176 218 264 320
#     4  11  20  31  53  81 113 143 177 213 264 325
#     4  11  21  38  58  81 108 140 181 223 275 314
#     4  10  19  35  55  77 113 144 167 219 269 330
#     4  10  17  35  52  78 112 140 175 217 265 320
#
# _framework density 16.408270000000002
#
# number of rings (size 3 to 8) (size 9 to 14) (size 15 to 20)
#    0.000    1.467    4.667    4.400    0.000    0.800 
#    2.400    0.667    0.000    1.600    0.000    0.467 
#    0.000    0.000    0.000    0.000    0.000    0.000 
#
# Total GULP energy -167387.824541 kJ/mol
# GULP energy per Si atom -5579.594151 kJ/mol
# Density = 1.637092 g / cm^3
# Si number density = 16.408270 Si / 1000 Ang^3
#
#
#
# Elastic Constant Matrix: (Units=GPa)
#
#
# Indices 1 2 3 4 5 6 
#
# 1 77.0327 42.1566 34.5805 0.0008 -1.3404 -0.0007
# 2 42.1566 87.3437 33.2427 0.0003 1.0350 -0.0003
# 3 34.5805 33.2427 100.8016 0.0013 1.0803 -0.0014
# 4 0.0008 0.0003 0.0013 13.4218 -0.0009 1.0733
# 5 -1.3404 1.0350 1.0803 -0.0009 33.7073 0.0009
# 6 -0.0007 -0.0003 -0.0014 1.0733 0.0009 23.7320
#
#
#
# Elastic Compliance Matrix: (Units=1/GPa)
#
#
# Indices 1 2 3 4 5 6 
#
# 1 0.018986 -0.007654 -0.004001 -0.000001 0.001118 0.000000
# 2 -0.007654 0.016180 -0.002703 0.000000 -0.000715 0.000000
# 3 -0.004001 -0.002703 0.012189 -0.000001 -0.000467 0.000001
# 4 -0.000001 0.000000 -0.000001 0.074776 0.000002 -0.003382
# 5 0.001118 -0.000715 -0.000467 0.000002 0.029749 -0.000001
# 6 0.000000 0.000000 0.000001 -0.003382 -0.000001 0.042290
#
#
# Mechanical properties :
#
#
# Convention : Reuss Voigt Hill
#
# Bulk Modulus (GPa) = 53.64746 53.90416 53.77581
# Shear Modulus (GPa) = 21.82469 24.51877 23.17173
#
# Velocity S-wave (km/s) = 3.65101 3.86980 3.76200
# Velocity P-wave (km/s) = 7.10912 7.27257 7.19131
#
# Compressibility (1/GPa) = 0.01864021
#
# Stress axis : x y z
#
# Youngs Moduli (GPa) = 52.67127 61.80359 82.03921
#
# Poissons Ratio (x) = 0.47304 0.32824
# Poissons Ratio (y) = 0.40314 0.22172
# Poissons Ratio (z) = 0.21074 0.16703
#
# Static dielectric constant tensor:
#      x y z
#    x 1.579610 0.000000 0.014730 
#    y 0.000000 1.543350 0.000000 
#    z 0.014730 0.000000 1.560220 
# 
# From -- ./inp_files/235445.got.cif
#   From: 2010.05.17/outbox.cif.g08.bks.cpg/sg12_118_cif.got.tgz:235445.got - 2010.06.03 13:09:07.
