data_PCOD9170582
_publ_section_title
;
Structure prediction by ZEFSAII (Michael W. Deem and Ramdas Pophale) SiO2 
 PCOD9170582
Probable space group: C 2/M
;
_chemical_formula_sum "Si O2"
_cell_formula_units_Z 36
_cell_length_a 14.730049
_cell_length_b 9.565654
_cell_length_c 16.324400
_cell_angle_alpha 90.000000
_cell_angle_beta 132.600687
_cell_angle_gamma 90.000000
_cell_volume 1693.114769
_symmetry_space_group_name_H-M "C 2/M"
_symmetry_group_IT_number 12
_symmetry_cell_setting 'monoclinic'
loop_
_space_group_symop_operation_xyz
x,y,z
-x,y,-z
-x,-y,-z
x,-y,z
1/2+x,1/2+y,z
1/2-x,1/2+y,-z
1/2-x,1/2-y,-z
1/2+x,1/2-y,z
loop_
_atom_site_type_symbol
_atom_site_label
_atom_site_fract_x
_atom_site_fract_y
_atom_site_fract_z
Si Si1 0.900301 0.835389 0.834537
Si Si2 0.757083 0.850030 0.580166
Si Si3 0.500000 0.212025 0.500000
Si Si4 0.365741 0.833284 0.265829
Si Si5 0.122697 0.665718 0.915854
O O1 0.843927 0.814101 0.709090
O O2 0.781569 0.806956 0.819140
O O3 0.018905 0.737113 0.909165
O O4 0.933480 0.000000 0.864215
O O5 0.750000 0.750000 0.500000
O O6 0.620691 0.856941 0.535025
O O7 0.796820 0.000000 0.572741
O O8 0.564373 0.263727 0.624826
O O9 0.412404 0.818996 0.202077
O O10 0.381805 0.000000 0.298054
O O11 0.137163 0.500000 0.941215
O O12 0.250000 0.750000 0.000000
#
# Coordination Sequence:
#
# PCOD9170582 Si02
#       5
#     8   8   4   8   8
#     4   9  19  36  55  79 109 142 182 229 275 320
#     4  10  19  31  52  80 112 147 183 224 269 319
#     4  10  17  32  57  84 111 144 185 222 261 322
#     4   9  18  33  56  82 110 145 183 221 266 322
#     4  11  23  39  59  82 108 143 184 228 276 328
#
# _framework density 21.262585999999999
#
# number of rings (size 3 to 8) (size 9 to 14) (size 15 to 20)
#    0.000    2.222    0.000    5.333    0.000    3.556 
#    0.000    7.222    0.000    4.000    0.000    0.000 
#    0.000    0.000    0.000    0.000    0.000    0.000 
#
# Total GULP energy -100218.220242 kJ/mol
# GULP energy per Si atom -5567.678902 kJ/mol
# Density = 2.121419 g / cm^3
# Si number density = 21.262586 Si / 1000 Ang^3
#
#
#
# Elastic Constant Matrix: (Units=GPa)
#
#
# Indices 1 2 3 4 5 6 
#
# 1 91.8452 33.6010 18.1852 0.0000 15.4737 0.0000
# 2 33.6010 37.7529 26.1405 0.0000 20.3186 0.0000
# 3 18.1852 26.1405 79.5437 0.0000 15.0603 0.0000
# 4 0.0000 0.0000 0.0000 18.2658 0.0000 2.0388
# 5 15.4737 20.3186 15.0603 0.0000 47.2611 0.0000
# 6 0.0000 0.0000 0.0000 2.0388 0.0000 10.6451
#
#
#
# Elastic Compliance Matrix: (Units=1/GPa)
#
#
# Indices 1 2 3 4 5 6 
#
# 1 0.016302 -0.016040 0.001330 0.000000 0.001135 0.000000
# 2 -0.016040 0.057724 -0.012343 0.000000 -0.015632 0.000000
# 3 0.001330 -0.012343 0.016391 0.000000 -0.000352 0.000000
# 4 0.000000 0.000000 0.000000 0.055943 0.000000 -0.010715
# 5 0.001135 -0.015632 -0.000352 0.000000 0.027620 0.000000
# 6 0.000000 0.000000 0.000000 -0.010715 0.000000 0.095992
#
#
# Mechanical properties :
#
#
# Convention : Reuss Voigt Hill
#
# Bulk Modulus (GPa) = 27.54185 40.55502 34.04843
# Shear Modulus (GPa) = 14.87289 23.98207 19.42748
#
# Velocity S-wave (km/s) = 2.64765 3.36207 3.02602
# Velocity P-wave (km/s) = 4.72526 5.84689 5.31574
#
# Compressibility (1/GPa) = 0.03630838
#
# Stress axis : x y z
#
# Youngs Moduli (GPa) = 61.34334 17.32382 61.01032
#
# Poissons Ratio (x) = 0.27788 -0.08112
# Poissons Ratio (y) = 0.98398 0.75306
# Poissons Ratio (z) = -0.08156 0.21383
#
# Static dielectric constant tensor:
#      x y z
#    x 1.750220 0.000000 -0.010400 
#    y 0.000000 1.751320 0.000000 
#    z -0.010400 0.000000 1.822040 
# 
# From -- ./inp_files/269043.got.cif
#   From: 2010.05.17/outbox.cif.g08.bks.cpg/sg12_135_cif.got.tgz:269043.got - 2010.06.03 13:09:07.
