data_PCOD9170666
_publ_section_title
;
Structure prediction by ZEFSAII (Michael W. Deem and Ramdas Pophale) SiO2 
 PCOD9170666
Probable space group: C 2/M
;
_chemical_formula_sum "Si O2"
_cell_formula_units_Z 48
_cell_length_a 19.958642
_cell_length_b 10.639051
_cell_length_c 12.501821
_cell_angle_alpha 90.000000
_cell_angle_beta 83.166755
_cell_angle_gamma 90.000000
_cell_volume 2635.792367
_symmetry_space_group_name_H-M "C 2/M"
_symmetry_group_IT_number 12
_symmetry_cell_setting 'monoclinic'
loop_
_space_group_symop_operation_xyz
x,y,z
-x,y,-z
-x,-y,-z
x,-y,z
1/2+x,1/2+y,z
1/2-x,1/2+y,-z
1/2-x,1/2-y,-z
1/2+x,1/2-y,z
loop_
_atom_site_type_symbol
_atom_site_label
_atom_site_fract_x
_atom_site_fract_y
_atom_site_fract_z
Si Si1 0.101015 0.000000 0.722061
Si Si2 0.449539 0.500000 0.741732
Si Si3 0.527651 0.236849 0.374009
Si Si4 0.744576 0.234406 0.764561
Si Si5 0.665217 0.140313 0.416578
Si Si6 0.781807 0.000000 0.131196
Si Si7 0.308528 0.500000 0.874988
Si Si8 0.616990 0.224225 0.656818
O O1 0.149231 0.000000 0.814145
O O2 0.114051 0.875985 0.650304
O O3 0.024314 0.000000 0.776380
O O4 0.448518 0.372839 0.672100
O O5 0.388128 0.500000 0.834890
O O6 0.500000 0.250039 0.500000
O O7 0.593806 0.151356 0.367934
O O8 0.462259 0.187846 0.320785
O O9 0.784324 0.260777 0.646319
O O10 0.750771 0.367396 0.826073
O O11 0.777014 0.122638 0.824851
O O12 0.667664 0.200905 0.745506
O O13 0.647831 0.167636 0.543075
O O14 0.693631 0.000000 0.401151
O O15 0.793112 0.000000 0.003087
#
# Coordination Sequence:
#
# PCOD9170666 Si02
#       8
#     4   4   8   8   8   4   4   8
#     4   8  18  37  60  78 109 146 174 227 284 324
#     4  10  17  33  54  84 109 132 182 231 275 319
#     4   9  18  33  52  78 111 149 182 216 265 327
#     4  11  22  40  56  83 113 144 183 231 282 324
#     4  11  21  34  54  80 112 154 183 219 266 331
#     4  10  22  43  60  77 107 147 187 232 289 325
#     4  12  24  35  62  85 105 141 191 240 272 328
#     4   9  20  34  55  80 113 147 180 216 271 335
#
# _framework density 18.210843000000001
#
# number of rings (size 3 to 8) (size 9 to 14) (size 15 to 20)
#    0.000    2.000    2.500    1.250    1.167    6.000 
#    0.000    0.000    0.000    0.000    0.000    1.167 
#    0.000    0.000    0.000    0.000    0.000    0.000 
#
# Total GULP energy -133797.435147 kJ/mol
# GULP energy per Si atom -5574.893131 kJ/mol
# Density = 1.816939 g / cm^3
# Si number density = 18.210843 Si / 1000 Ang^3
#
#
#
# Elastic Constant Matrix: (Units=GPa)
#
#
# Indices 1 2 3 4 5 6 
#
# 1 50.0470 23.8974 6.3824 0.0000 -4.9003 0.0000
# 2 23.8974 80.9936 22.9102 0.0000 8.5807 0.0000
# 3 6.3824 22.9102 40.9954 0.0000 -4.5967 0.0000
# 4 0.0000 0.0000 0.0000 19.1607 0.0000 -4.4399
# 5 -4.9003 8.5807 -4.5967 0.0000 13.7845 0.0000
# 6 0.0000 0.0000 0.0000 -4.4399 0.0000 22.2889
#
#
#
# Elastic Compliance Matrix: (Units=1/GPa)
#
#
# Indices 1 2 3 4 5 6 
#
# 1 0.026270 -0.010650 0.003794 0.000000 0.017234 0.000000
# 2 -0.010650 0.021318 -0.012641 0.000000 -0.021272 0.000000
# 3 0.003794 -0.012641 0.033139 0.000000 0.020268 0.000000
# 4 0.000000 0.000000 0.000000 0.054716 0.000000 0.010899
# 5 0.017234 -0.021272 0.020268 0.000000 0.098672 0.000000
# 6 0.000000 0.000000 0.000000 0.010899 0.000000 0.047036
#
#
# Mechanical properties :
#
#
# Convention : Reuss Voigt Hill
#
# Bulk Modulus (GPa) = 23.96107 30.93513 27.44810
# Shear Modulus (GPa) = 14.96756 18.96990 16.96873
#
# Velocity S-wave (km/s) = 2.87000 3.23101 3.05584
# Velocity P-wave (km/s) = 4.91616 5.56267 5.24938
#
# Compressibility (1/GPa) = 0.04173436
#
# Stress axis : x y z
#
# Youngs Moduli (GPa) = 38.06600 46.90836 30.17587
#
# Poissons Ratio (x) = 0.49958 -0.11450
# Poissons Ratio (y) = 0.40541 0.38144
# Poissons Ratio (z) = -0.14443 0.59295
#
# Static dielectric constant tensor:
#      x y z
#    x 1.679880 0.000000 0.015160 
#    y 0.000000 1.635700 0.000000 
#    z 0.015160 0.000000 1.582110 
# 
# From -- ./inp_files/164149.got.cif
#   From: 2010.05.17/outbox.cif.g08.bks.cpg/sg12_83_cif.got.tgz:164149.got - 2010.06.03 13:09:07.
