data_PCOD9170064
_publ_section_title
;
Structure prediction by ZEFSAII (Michael W. Deem and Ramdas Pophale) SiO2 
 PCOD9170064
Probable space group: C 2/M
;
_chemical_formula_sum "Si O2"
_cell_formula_units_Z 56
_cell_length_a 28.423310
_cell_length_b 8.125097
_cell_length_c 12.147574
_cell_angle_alpha 90.000000
_cell_angle_beta 56.265231
_cell_angle_gamma 90.000000
_cell_volume 2333.008170
_symmetry_space_group_name_H-M "C 2/M"
_symmetry_group_IT_number 12
_symmetry_cell_setting 'monoclinic'
loop_
_space_group_symop_operation_xyz
x,y,z
-x,y,-z
-x,-y,-z
x,-y,z
1/2+x,1/2+y,z
1/2-x,1/2+y,-z
1/2-x,1/2-y,-z
1/2+x,1/2-y,z
loop_
_atom_site_type_symbol
_atom_site_label
_atom_site_fract_x
_atom_site_fract_y
_atom_site_fract_z
Si Si1 0.780084 0.185981 0.650164
Si Si2 0.937218 0.684702 0.569180
Si Si3 0.629998 0.699237 0.024044
Si Si4 0.011049 0.810709 0.107587
Si Si5 0.396720 0.752082 0.383334
Si Si6 0.825414 0.191052 0.814939
Si Si7 0.331138 0.691473 0.273405
O O1 0.841109 0.172485 0.513146
O O2 0.789888 0.262990 0.759120
O O3 0.736126 0.290827 0.637821
O O4 0.757505 0.000000 0.688114
O O5 0.935814 0.500000 0.619335
O O6 0.921992 0.668346 0.460362
O O7 0.890229 0.794338 0.688739
O O8 0.000000 0.753299 0.500000
O O9 0.630221 0.500000 0.041730
O O10 0.564742 0.759530 0.104688
O O11 0.670200 0.766087 0.069114
O O12 0.652485 0.729851 0.872964
O O13 0.954103 0.814842 0.252715
O O14 0.028241 0.000000 0.062667
O O15 0.000000 0.736216 0.000000
O O16 0.364224 0.808028 0.314720
O O17 0.808600 0.000000 0.842085
O O18 0.347557 0.500000 0.275336
#
# Coordination Sequence:
#
# PCOD9170064 Si02
#       7
#     8   8   8   8   8   8   8
#     4  10  22  37  54  80 117 157 201 248 291 341
#     4  10  22  39  59  85 119 157 195 236 287 352
#     4   9  18  33  56  87 120 149 187 242 296 348
#     4  10  17  29  53  85 117 144 179 231 292 346
#     4  11  21  35  59  85 115 149 191 238 290 343
#     4   9  19  37  59  85 115 150 196 249 296 340
#     4  11  22  37  59  87 118 155 199 243 291 349
#
# _framework density 24.003346000000001
#
# number of rings (size 3 to 8) (size 9 to 14) (size 15 to 20)
#    0.000    2.000    1.429    2.571    0.000    4.857 
#    0.000    0.714    0.000    1.286    0.000    0.000 
#    0.000    0.000    0.000    0.000    0.000    0.000 
#
# Total GULP energy -155898.636064 kJ/mol
# GULP energy per Si atom -5567.808431 kJ/mol
# Density = 2.394871 g / cm^3
# Si number density = 24.003346 Si / 1000 Ang^3
#
#
#
# Elastic Constant Matrix: (Units=GPa)
#
#
# Indices 1 2 3 4 5 6 
#
# 1 109.3261 3.0116 44.5649 0.0000 15.6624 0.0000
# 2 3.0116 25.1634 6.1689 0.0000 -0.3637 0.0000
# 3 44.5649 6.1689 100.0496 0.0000 19.2303 0.0000
# 4 0.0000 0.0000 0.0000 -7.6725 0.0000 13.4586
# 5 15.6624 -0.3637 19.2303 0.0000 56.1177 0.0000
# 6 0.0000 0.0000 0.0000 13.4586 0.0000 53.7558
#
#
#
# Elastic Compliance Matrix: (Units=1/GPa)
#
#
# Indices 1 2 3 4 5 6 
#
# 1 0.011299 -0.000216 -0.004724 0.000000 -0.001536 0.000000
# 2 -0.000216 0.040429 -0.002632 0.000000 0.001224 0.000000
# 3 -0.004724 -0.002632 0.012858 0.000000 -0.003105 0.000000
# 4 0.000000 0.000000 0.000000 -0.090562 0.000000 0.022674
# 5 -0.001536 0.001224 -0.003105 0.000000 0.019320 0.000000
# 6 0.000000 0.000000 0.000000 0.022674 0.000000 0.012926
#
#
# Mechanical properties :
#
#
# Convention : Reuss Voigt Hill
#
# Bulk Modulus (GPa) = 20.22591 38.00332 29.11462
# Shear Modulus (GPa) = 131.94401 32.49310 82.21856
#
# Velocity S-wave (km/s) = 7.42215 3.68324 5.85895
# Velocity P-wave (km/s) = 9.04962 5.82712 7.61088
#
# Compressibility (1/GPa) = 0.04944154
#
# Stress axis : x y z
#
# Youngs Moduli (GPa) = 88.50586 24.73476 77.77042
#
# Poissons Ratio (x) = 0.00535 0.36740
# Poissons Ratio (y) = 0.01914 0.20467
# Poissons Ratio (z) = 0.41812 0.06510
#
# Static dielectric constant tensor:
#      x y z
#    x 1.944670 0.000000 0.020380 
#    y 0.000000 1.925230 0.000000 
#    z 0.020380 0.000000 1.937390 
# 
# From -- ./inp_files/174487.got.cif
#   From: 2010.05.17/outbox.cif.g08.bks.cpg/sg12_88_cif.got.tgz:174487.got - 2010.06.03 13:09:07.
