data_PCOD9170245
_publ_section_title
;
Structure prediction by ZEFSAII (Michael W. Deem and Ramdas Pophale) SiO2 
 PCOD9170245
Probable space group: C 2/M
;
_chemical_formula_sum "Si O2"
_cell_formula_units_Z 36
_cell_length_a 7.730380
_cell_length_b 17.877995
_cell_length_c 17.853298
_cell_angle_alpha 90.000000
_cell_angle_beta 40.977585
_cell_angle_gamma 90.000000
_cell_volume 1618.026005
_symmetry_space_group_name_H-M "C 2/M"
_symmetry_group_IT_number 12
_symmetry_cell_setting 'monoclinic'
loop_
_space_group_symop_operation_xyz
x,y,z
-x,y,-z
-x,-y,-z
x,-y,z
1/2+x,1/2+y,z
1/2-x,1/2+y,-z
1/2-x,1/2-y,-z
1/2+x,1/2-y,z
loop_
_atom_site_type_symbol
_atom_site_label
_atom_site_fract_x
_atom_site_fract_y
_atom_site_fract_z
Si Si1 0.724221 0.500000 0.842309
Si Si2 0.939632 0.837148 0.139226
Si Si3 0.515549 0.838692 0.409484
Si Si4 0.500000 0.372182 0.500000
Si Si5 0.500000 0.792053 0.000000
Si Si6 0.270049 0.000000 0.653434
Si Si7 0.830156 0.000000 0.669978
O O1 0.630414 0.413264 0.883401
O O2 0.676055 0.500000 0.768907
O O3 0.016110 0.500000 0.782277
O O4 0.754462 0.822367 0.273238
O O5 0.920763 0.764071 0.093109
O O6 0.244696 0.840366 0.063795
O O7 0.500000 0.810681 0.500000
O O8 0.243009 0.827672 0.455266
O O9 0.547765 0.927874 0.409550
O O10 0.392662 0.426797 0.600085
O O11 0.024889 0.000000 0.677171
#
# Coordination Sequence:
#
# PCOD9170245 Si02
#       7
#     4   8   8   4   4   4   4
#     4  10  21  40  67 109 130 160 237 295 313 385
#     4  10  23  47  72  99 128 181 232 276 336 402
#     4  11  20  35  60 101 138 172 218 270 335 412
#     4  11  18  28  54  94 144 186 200 253 352 413
#     4  10  24  52  74  80 134 196 228 272 346 404
#     4  10  17  30  52  93 146 180 199 256 345 409
#     4  11  17  28  53  95 144 184 201 254 350 408
#
# _framework density 22.249334000000001
#
# number of rings (size 3 to 8) (size 9 to 14) (size 15 to 20)
#    0.000    1.556    6.667    1.000    0.000    0.889 
#   24.000    1.111    0.000    0.000    0.000    0.000 
#    0.000    0.000    0.000    2.333    0.000    0.000 
#
# Total GULP energy -100339.780486 kJ/mol
# GULP energy per Si atom -5574.432249 kJ/mol
# Density = 2.219869 g / cm^3
# Si number density = 22.249334 Si / 1000 Ang^3
#
#
#
# Elastic Constant Matrix: (Units=GPa)
#
#
# Indices 1 2 3 4 5 6 
#
# 1 145.8626 35.6612 52.6775 0.0202 -27.4509 0.0257
# 2 35.6612 86.9377 41.7963 0.0079 -26.3127 0.0103
# 3 52.6775 41.7963 127.8624 0.0161 0.0892 0.0212
# 4 0.0202 0.0079 0.0161 142.7254 -0.0094 145.2148
# 5 -27.4509 -26.3127 0.0892 -0.0094 61.0754 -0.0121
# 6 0.0257 0.0103 0.0212 145.2148 -0.0121 225.0156
#
#
#
# Elastic Compliance Matrix: (Units=1/GPa)
#
#
# Indices 1 2 3 4 5 6 
#
# 1 0.009002 -0.000958 -0.003398 0.000000 0.003638 0.000000
# 2 -0.000958 0.016253 -0.004923 0.000000 0.006579 0.000000
# 3 -0.003398 -0.004923 0.010833 0.000000 -0.003664 0.000000
# 4 0.000000 0.000000 0.000000 0.020404 0.000000 -0.013168
# 5 0.003638 0.006579 -0.003664 0.000000 0.020848 0.000000
# 6 0.000000 0.000000 0.000000 -0.013168 0.000000 0.012942
#
#
# Mechanical properties :
#
#
# Convention : Reuss Voigt Hill
#
# Bulk Modulus (GPa) = 57.04402 68.99253 63.01828
# Shear Modulus (GPa) = 43.59839 101.13178 72.36509
#
# Velocity S-wave (km/s) = 4.43147 6.74926 5.70922
# Velocity P-wave (km/s) = 7.20264 9.58190 8.47617
#
# Compressibility (1/GPa) = 0.01753032
#
# Stress axis : x y z
#
# Youngs Moduli (GPa) = 111.08840 61.52577 92.31281
#
# Poissons Ratio (x) = 0.05892 0.31369
# Poissons Ratio (y) = 0.10638 0.45446
# Poissons Ratio (z) = 0.37749 0.30289
#
# Static dielectric constant tensor:
#      x y z
#    x 1.708580 0.000000 0.004090 
#    y 0.000000 1.862700 0.000000 
#    z 0.004090 0.000000 1.852940 
# 
# From -- ./inp_files/301544.got.cif
#   From: 2010.05.17/outbox.cif.g08.bks.cpg/sg12_151_cif.got.tgz:301544.got - 2010.06.03 13:09:07.
