data_PCOD9170164
_publ_section_title
;
Structure prediction by ZEFSAII (Michael W. Deem and Ramdas Pophale) SiO2 
 PCOD9170164
Probable space group: C 2/M
;
_chemical_formula_sum "Si O2"
_cell_formula_units_Z 58
_cell_length_a 24.009980
_cell_length_b 7.950810
_cell_length_c 14.947276
_cell_angle_alpha 90.000000
_cell_angle_beta 91.713737
_cell_angle_gamma 90.000000
_cell_volume 2852.140609
_symmetry_space_group_name_H-M "C 2/M"
_symmetry_group_IT_number 12
_symmetry_cell_setting 'monoclinic'
loop_
_space_group_symop_operation_xyz
x,y,z
-x,y,-z
-x,-y,-z
x,-y,z
1/2+x,1/2+y,z
1/2-x,1/2+y,-z
1/2-x,1/2-y,-z
1/2+x,1/2-y,z
loop_
_atom_site_type_symbol
_atom_site_label
_atom_site_fract_x
_atom_site_fract_y
_atom_site_fract_z
Si Si1 0.968814 0.687674 0.610565
Si Si2 0.698770 0.803614 0.893189
Si Si3 0.500000 0.500000 0.500000
Si Si4 0.324612 0.698373 0.915735
Si Si5 0.705788 0.794424 0.368932
Si Si6 0.175530 0.804684 0.703481
Si Si7 0.637972 0.807124 0.526687
Si Si8 0.395970 0.302217 0.762530
O O1 0.994295 0.500000 0.603251
O O2 0.001379 0.849905 0.577713
O O3 0.914766 0.694779 0.541749
O O4 0.944296 0.711132 0.709017
O O5 0.762545 0.734128 0.888021
O O6 0.667759 0.782920 0.797873
O O7 0.703892 0.000000 0.914708
O O8 0.670309 0.721967 0.978005
O O9 0.323333 0.500000 0.895013
O O10 0.375122 0.765545 0.857627
O O11 0.766263 0.743852 0.337613
O O12 0.687471 0.735071 0.466797
O O13 0.659768 0.721585 0.299785
O O14 0.701894 0.000000 0.368453
O O15 0.132188 0.782909 0.620856
O O16 0.181733 0.000000 0.724401
O O17 0.650163 0.000000 0.548800
O O18 0.410261 0.500000 0.767528
#
# Coordination Sequence:
#
# PCOD9170164 Si02
#       8
#     8   8   2   8   8   8   8   8
#     4  10  22  38  57  83 109 134 166 209 261 320
#     4  10  19  30  42  62  90 134 181 222 263 294
#     4  12  22  40  64  82 108 134 170 204 272 342
#     4   9  18  30  45  64  94 130 176 224 259 298
#     4   9  18  29  41  63  93 133 176 216 253 291
#     4  11  20  28  43  64  95 135 180 219 252 296
#     4   9  19  33  47  67  98 131 168 211 255 300
#     4  10  17  30  50  73 100 135 173 214 259 310
#
# _framework density 20.335604
#
# number of rings (size 3 to 8) (size 9 to 14) (size 15 to 20)
#    0.000    2.207    2.069    2.690    0.966    2.759 
#    0.000    0.000    0.000    0.000    0.000    0.000 
#    0.000    2.207    0.000    5.931    0.000    0.000 
#
# Total GULP energy -161445.102099 kJ/mol
# GULP energy per Si atom -5567.072486 kJ/mol
# Density = 2.028932 g / cm^3
# Si number density = 20.335604 Si / 1000 Ang^3
#
#
#
# Elastic Constant Matrix: (Units=GPa)
#
#
# Indices 1 2 3 4 5 6 
#
# 1 20.9918 16.2690 13.0564 0.0000 -14.9427 0.0000
# 2 16.2690 73.9927 14.7725 0.0000 -15.8376 0.0000
# 3 13.0564 14.7725 132.3750 0.0000 -28.9855 0.0000
# 4 0.0000 0.0000 0.0000 24.3976 0.0000 -4.9902
# 5 -14.9427 -15.8376 -28.9855 0.0000 32.9592 0.0000
# 6 0.0000 0.0000 0.0000 -4.9902 0.0000 8.9424
#
#
#
# Elastic Compliance Matrix: (Units=1/GPa)
#
#
# Indices 1 2 3 4 5 6 
#
# 1 0.077086 -0.010556 0.000144 0.000000 0.030003 0.000000
# 2 -0.010556 0.016511 -0.000139 0.000000 0.003026 0.000000
# 3 0.000144 -0.000139 0.009357 0.000000 0.008228 0.000000
# 4 0.000000 0.000000 0.000000 0.046269 0.000000 0.025819
# 5 0.030003 0.003026 0.008228 0.000000 0.052633 0.000000
# 6 0.000000 0.000000 0.000000 0.025819 0.000000 0.126234
#
#
# Mechanical properties :
#
#
# Convention : Reuss Voigt Hill
#
# Bulk Modulus (GPa) = 12.21694 35.06172 23.63933
# Shear Modulus (GPa) = 13.28107 25.47728 19.37918
#
# Velocity S-wave (km/s) = 2.55834 3.54339 3.09037
# Velocity P-wave (km/s) = 3.84025 5.83265 4.93798
#
# Compressibility (1/GPa) = 0.08185359
#
# Stress axis : x y z
#
# Youngs Moduli (GPa) = 12.97253 60.56463 106.87020
#
# Poissons Ratio (x) = 0.63933 -0.01544
# Poissons Ratio (y) = 0.13694 0.01483
# Poissons Ratio (z) = -0.00187 0.00841
#
# Static dielectric constant tensor:
#      x y z
#    x 1.764230 0.000000 -0.029250 
#    y 0.000000 1.846850 0.000000 
#    z -0.029250 0.000000 1.753080 
# 
# From -- ./inp_files/243169.got.cif
#   From: 2010.05.17/outbox.cif.g08.bks.cpg/sg12_122_cif.got.tgz:243169.got - 2010.06.03 13:09:07.
