data_PCOD9170556
_publ_section_title
;
Structure prediction by ZEFSAII (Michael W. Deem and Ramdas Pophale) SiO2 
 PCOD9170556
Probable space group: C 2/M
;
_chemical_formula_sum "Si O2"
_cell_formula_units_Z 60
_cell_length_a 27.042248
_cell_length_b 11.535910
_cell_length_c 12.142784
_cell_angle_alpha 90.000000
_cell_angle_beta 58.128885
_cell_angle_gamma 90.000000
_cell_volume 3216.935340
_symmetry_space_group_name_H-M "C 2/M"
_symmetry_group_IT_number 12
_symmetry_cell_setting 'monoclinic'
loop_
_space_group_symop_operation_xyz
x,y,z
-x,y,-z
-x,-y,-z
x,-y,z
1/2+x,1/2+y,z
1/2-x,1/2+y,-z
1/2-x,1/2-y,-z
1/2+x,1/2-y,z
loop_
_atom_site_type_symbol
_atom_site_label
_atom_site_fract_x
_atom_site_fract_y
_atom_site_fract_z
Si Si1 0.621550 0.775894 0.774601
Si Si2 0.090462 0.138200 0.594674
Si Si3 0.809926 0.219949 0.670997
Si Si4 0.465370 0.638214 0.816423
Si Si5 0.340332 0.638784 0.876562
Si Si6 0.264658 0.875324 0.427531
Si Si7 0.500000 0.765849 0.000000
Si Si8 0.294270 0.365485 0.165454
O O1 0.609834 0.680657 0.693076
O O2 0.666525 0.868253 0.673271
O O3 0.559653 0.824893 0.888122
O O4 0.657981 0.710673 0.826738
O O5 0.128656 0.210996 0.463727
O O6 0.021356 0.160287 0.673524
O O7 0.100350 0.000000 0.568733
O O8 0.819533 0.188616 0.785944
O O9 0.769654 0.131962 0.647884
O O10 0.770248 0.335052 0.715850
O O11 0.461022 0.500000 0.836163
O O12 0.405121 0.679725 0.834625
O O13 0.478489 0.691384 0.920494
O O14 0.343111 0.500000 0.859757
O O15 0.299826 0.662745 0.029457
O O16 0.250000 0.750000 0.500000
O O17 0.248906 0.000000 0.498867
O O18 0.308194 0.500000 0.163505
#
# Coordination Sequence:
#
# PCOD9170556 Si02
#       8
#     8   8   8   8   8   8   4   8
#     4  10  20  34  55  83 111 144 183 232 283 331
#     4  10  19  32  50  80 113 145 181 226 286 340
#     4  11  22  35  53  78 114 152 180 229 285 343
#     4   9  18  29  50  80 111 144 183 231 283 339
#     4  10  19  34  53  79 111 145 184 229 283 341
#     4  11  23  39  58  85 117 153 194 238 290 342
#     4  10  17  32  55  80 112 142 185 228 281 332
#     4  10  21  35  53  80 109 147 192 234 277 334
#
# _framework density 18.651292999999999
#
# number of rings (size 3 to 8) (size 9 to 14) (size 15 to 20)
#    0.000    1.867    2.667    2.200    0.000    3.733 
#    0.000    2.333    0.000    0.000    0.000    2.800 
#    0.000    0.000    0.000    0.000    0.000    0.000 
#
# Total GULP energy -167145.478143 kJ/mol
# GULP energy per Si atom -5571.515938 kJ/mol
# Density = 1.860884 g / cm^3
# Si number density = 18.651293 Si / 1000 Ang^3
#
#
#
# Elastic Constant Matrix: (Units=GPa)
#
#
# Indices 1 2 3 4 5 6 
#
# 1 81.5974 25.8228 32.7096 0.0000 -3.8325 0.0000
# 2 25.8228 53.9876 22.4926 0.0000 -1.5248 0.0000
# 3 32.7096 22.4926 88.0181 0.0000 -13.0689 0.0000
# 4 0.0000 0.0000 0.0000 18.9963 0.0000 -6.0850
# 5 -3.8325 -1.5248 -13.0689 0.0000 45.9117 0.0000
# 6 0.0000 0.0000 0.0000 -6.0850 0.0000 13.2273
#
#
#
# Elastic Compliance Matrix: (Units=1/GPa)
#
#
# Indices 1 2 3 4 5 6 
#
# 1 0.015844 -0.005731 -0.004443 0.000000 -0.000133 0.000000
# 2 -0.005731 0.022835 -0.003826 0.000000 -0.000809 0.000000
# 3 -0.004443 -0.003826 0.014530 0.000000 0.003638 0.000000
# 4 0.000000 0.000000 0.000000 0.061740 0.000000 0.028402
# 5 -0.000133 -0.000809 0.003638 0.000000 0.022779 0.000000
# 6 0.000000 0.000000 0.000000 0.028402 0.000000 0.088667
#
#
# Mechanical properties :
#
#
# Convention : Reuss Voigt Hill
#
# Bulk Modulus (GPa) = 39.66746 42.85036 41.25891
# Shear Modulus (GPa) = 19.02607 25.13227 22.07917
#
# Velocity S-wave (km/s) = 3.19736 3.67479 3.44435
# Velocity P-wave (km/s) = 5.91142 6.40545 6.16339
#
# Compressibility (1/GPa) = 0.02520958
#
# Stress axis : x y z
#
# Youngs Moduli (GPa) = 63.11624 43.79249 68.82169
#
# Poissons Ratio (x) = 0.25097 0.30578
# Poissons Ratio (y) = 0.36171 0.26329
# Poissons Ratio (z) = 0.28043 0.16754
#
# Static dielectric constant tensor:
#      x y z
#    x 1.655230 0.000000 -0.030810 
#    y 0.000000 1.628460 0.000000 
#    z -0.030810 0.000000 1.705000 
# 
# From -- ./inp_files/182501.got.cif
#   From: 2010.05.17/outbox.cif.g08.bks.cpg/sg12_92_cif.got.tgz:182501.got - 2010.06.03 13:09:07.
