data_PCOD9170933
_publ_section_title
;
Structure prediction by ZEFSAII (Michael W. Deem and Ramdas Pophale) SiO2 
 PCOD9170933
Probable space group: C 2/M
;
_chemical_formula_sum "Si O2"
_cell_formula_units_Z 44
_cell_length_a 7.527206
_cell_length_b 16.535451
_cell_length_c 15.632371
_cell_angle_alpha 90.000000
_cell_angle_beta 95.013387
_cell_angle_gamma 90.000000
_cell_volume 1938.251088
_symmetry_space_group_name_H-M "C 2/M"
_symmetry_group_IT_number 12
_symmetry_cell_setting 'monoclinic'
loop_
_space_group_symop_operation_xyz
x,y,z
-x,y,-z
-x,-y,-z
x,-y,z
1/2+x,1/2+y,z
1/2-x,1/2+y,-z
1/2-x,1/2-y,-z
1/2+x,1/2-y,z
loop_
_atom_site_type_symbol
_atom_site_label
_atom_site_fract_x
_atom_site_fract_y
_atom_site_fract_z
Si Si1 0.502685 0.330849 0.187255
Si Si2 0.151891 0.669294 0.267607
Si Si3 0.205473 0.500000 0.038446
Si Si4 0.357858 0.000000 0.761771
Si Si5 0.203185 0.164078 0.536638
Si Si6 0.000000 0.131873 0.000000
Si Si7 0.199585 0.000000 0.466486
Si Si8 0.054951 0.000000 0.272990
O O1 0.293598 0.338010 0.197210
O O2 0.558152 0.254107 0.246618
O O3 0.537284 0.319412 0.088463
O O4 0.582510 0.417160 0.221155
O O5 0.047203 0.583948 0.259230
O O6 0.255114 0.669190 0.361594
O O7 0.186469 0.500000 0.139810
O O8 0.327526 0.424576 0.012524
O O9 0.000000 0.500000 0.000000
O O10 0.158166 0.000000 0.710938
O O11 0.250000 0.250000 0.500000
O O12 0.289700 0.082776 0.501953
O O13 0.000000 0.156260 0.500000
O O14 0.167572 0.000000 0.363966
O O15 0.000000 0.000000 0.500000
#
# Coordination Sequence:
#
# PCOD9170933 Si02
#       8
#     8   8   4   4   8   4   4   4
#     4  11  23  40  66  90 130 173 223 284 333 406
#     4  11  22  40  61  92 124 174 220 273 343 398
#     4  11  22  41  71 102 131 176 227 281 343 405
#     4  10  19  40  61  87 123 166 217 274 335 393
#     4  11  21  37  60  91 127 165 214 275 327 402
#     4  11  22  46  66  97 138 180 232 279 346 401
#     4  10  18  31  59  91 115 164 217 256 316 413
#     4  10  17  37  61  86 121 170 209 265 341 398
#
# _framework density 22.700879
#
# number of rings (size 3 to 8) (size 9 to 14) (size 15 to 20)
#    0.000    1.273    3.636    7.636    0.000    2.182 
#    1.636    1.364    0.000    0.000    0.000    0.000 
#    0.000    0.000    0.000    0.000    0.000    0.000 
#
# Total GULP energy -122820.357695 kJ/mol
# GULP energy per Si atom -5582.743532 kJ/mol
# Density = 2.264921 g / cm^3
# Si number density = 22.700879 Si / 1000 Ang^3
#
#
#
# Elastic Constant Matrix: (Units=GPa)
#
#
# Indices 1 2 3 4 5 6 
#
# 1 64.4865 25.0570 6.8759 0.0000 13.1778 0.0000
# 2 25.0570 218.7979 53.3678 0.0000 14.6280 0.0000
# 3 6.8759 53.3678 118.0015 0.0000 4.5344 0.0000
# 4 0.0000 0.0000 0.0000 4.6552 0.0000 -24.4016
# 5 13.1778 14.6280 4.5344 0.0000 19.0668 0.0000
# 6 0.0000 0.0000 0.0000 -24.4016 0.0000 5.4742
#
#
#
# Elastic Compliance Matrix: (Units=1/GPa)
#
#
# Indices 1 2 3 4 5 6 
#
# 1 0.018415 -0.001320 -0.000026 0.000000 -0.011709 0.000000
# 2 -0.001320 0.005463 -0.002289 0.000000 -0.002734 0.000000
# 3 -0.000026 -0.002289 0.009530 0.000000 -0.000492 0.000000
# 4 0.000000 0.000000 0.000000 -0.009605 0.000000 -0.042813
# 5 -0.011709 -0.002734 -0.000492 0.000000 0.062754 0.000000
# 6 0.000000 0.000000 0.000000 -0.042813 0.000000 -0.008168
#
#
# Mechanical properties :
#
#
# Convention : Reuss Voigt Hill
#
# Bulk Modulus (GPa) = 38.25725 63.54303 50.90014
# Shear Modulus (GPa) = 52.98169 26.90492 39.94331
#
# Velocity S-wave (km/s) = 4.83629 3.44640 4.19925
# Velocity P-wave (km/s) = 6.93366 6.62488 6.78103
#
# Compressibility (1/GPa) = 0.02613884
#
# Stress axis : x y z
#
# Youngs Moduli (GPa) = 54.30239 183.06324 104.93230
#
# Poissons Ratio (x) = 0.24160 0.00275
# Poissons Ratio (y) = 0.07167 0.24014
# Poissons Ratio (z) = 0.00143 0.41895
#
# Static dielectric constant tensor:
#      x y z
#    x 1.867010 0.000000 -0.014240 
#    y 0.000000 1.996480 0.000000 
#    z -0.014240 0.000000 1.825760 
# 
# From -- ./inp_files/195620.got.cif
#   From: 2010.05.17/outbox.cif.g08.bks.cpg/sg12_98_cif.got.tgz:195620.got - 2010.06.03 13:09:07.
