data_PCOD9170058
_publ_section_title
;
Structure prediction by ZEFSAII (Michael W. Deem and Ramdas Pophale) SiO2 
 PCOD9170058
Probable space group: C 2/M
;
_chemical_formula_sum "Si O2"
_cell_formula_units_Z 52
_cell_length_a 33.296024
_cell_length_b 14.660747
_cell_length_c 8.593853
_cell_angle_alpha 90.000000
_cell_angle_beta 139.337043
_cell_angle_gamma 90.000000
_cell_volume 2733.523937
_symmetry_space_group_name_H-M "C 2/M"
_symmetry_group_IT_number 12
_symmetry_cell_setting 'monoclinic'
loop_
_space_group_symop_operation_xyz
x,y,z
-x,y,-z
-x,-y,-z
x,-y,z
1/2+x,1/2+y,z
1/2-x,1/2+y,-z
1/2-x,1/2-y,-z
1/2+x,1/2-y,z
loop_
_atom_site_type_symbol
_atom_site_label
_atom_site_fract_x
_atom_site_fract_y
_atom_site_fract_z
Si Si1 0.199436 0.288725 0.134069
Si Si2 0.804326 0.104466 0.267412
Si Si3 0.407676 0.107122 0.028171
Si Si4 0.400299 0.102027 0.651778
Si Si5 0.752402 0.601348 0.248688
Si Si6 0.398714 0.738230 0.420495
Si Si7 0.500000 0.229633 0.500000
O O1 0.258904 0.343513 0.250576
O O2 0.221382 0.186902 0.244056
O O3 0.158547 0.344896 0.135798
O O4 0.154680 0.275833 0.852065
O O5 0.867430 0.159583 0.429564
O O6 0.813078 0.000000 0.339218
O O7 0.772536 0.105035 0.002432
O O8 0.455924 0.163491 0.271414
O O9 0.404202 0.000000 0.061073
O O10 0.425329 0.112281 0.899138
O O11 0.325992 0.109922 0.452455
O O12 0.420004 0.179315 0.591850
O O13 0.414251 0.000000 0.634574
O O14 0.738242 0.500000 0.270431
O O15 0.455821 0.711465 0.480416
#
# Coordination Sequence:
#
# PCOD9170058 Si02
#       7
#     8   8   8   8   8   8   4
#     4  10  17  31  53  78 106 139 169 205 248 303
#     4  10  17  29  53  81 105 135 170 205 251 307
#     4  10  22  35  50  77 107 135 170 209 256 306
#     4  10  19  32  51  76 106 137 166 206 257 306
#     4   9  16  28  48  77 109 138 167 201 246 301
#     4  10  19  35  52  76 101 136 175 213 249 301
#     4  10  23  38  55  68 100 136 177 216 257 296
#
# _framework density 19.023061999999999
#
# number of rings (size 3 to 8) (size 9 to 14) (size 15 to 20)
#    0.000    2.154    3.077    1.615    0.000    4.308 
#    0.000    1.923    0.000    0.923    0.000    1.077 
#    0.000    0.000    0.000    0.000    0.000    0.000 
#
# Total GULP energy -145134.603797 kJ/mol
# GULP energy per Si atom -5582.100146 kJ/mol
# Density = 1.897977 g / cm^3
# Si number density = 19.023062 Si / 1000 Ang^3
#
#
#
# Elastic Constant Matrix: (Units=GPa)
#
#
# Indices 1 2 3 4 5 6 
#
# 1 81.9848 41.1669 14.1138 0.0000 27.0584 0.0000
# 2 41.1669 88.3601 13.4125 0.0000 14.8237 0.0000
# 3 14.1138 13.4125 37.0482 0.0000 11.0205 0.0000
# 4 0.0000 0.0000 0.0000 8.9602 0.0000 -3.9045
# 5 27.0584 14.8237 11.0205 0.0000 22.6159 0.0000
# 6 0.0000 0.0000 0.0000 -3.9045 0.0000 19.2824
#
#
#
# Elastic Compliance Matrix: (Units=1/GPa)
#
#
# Indices 1 2 3 4 5 6 
#
# 1 0.023472 -0.007048 0.000689 0.000000 -0.023799 0.000000
# 2 -0.007048 0.015030 -0.002730 0.000000 -0.000089 0.000000
# 3 0.000689 -0.002730 0.032081 0.000000 -0.014668 0.000000
# 4 0.000000 0.000000 0.000000 0.122406 0.000000 0.024786
# 5 -0.023799 -0.000089 -0.014668 0.000000 0.079897 0.000000
# 6 0.000000 0.000000 0.000000 0.024786 0.000000 0.056880
#
#
# Mechanical properties :
#
#
# Convention : Reuss Voigt Hill
#
# Bulk Modulus (GPa) = 19.08171 38.30883 28.69527
# Shear Modulus (GPa) = 13.68317 19.41836 16.55077
#
# Velocity S-wave (km/s) = 2.68488 3.19843 2.95284
# Velocity P-wave (km/s) = 4.43441 5.81565 5.17135
#
# Compressibility (1/GPa) = 0.05240619
#
# Stress axis : x y z
#
# Youngs Moduli (GPa) = 42.60324 66.53283 31.17125
#
# Poissons Ratio (x) = 0.46890 -0.02148
# Poissons Ratio (y) = 0.30025 0.08510
# Poissons Ratio (z) = -0.02935 0.18163
#
# Static dielectric constant tensor:
#      x y z
#    x 1.664860 0.000000 -0.000100 
#    y 0.000000 1.650480 0.000000 
#    z -0.000100 0.000000 1.674100 
# 
# From -- ./inp_files/103932.got.cif
#   From: 2010.05.17/outbox.cif.g08.bks.cpg/sg12_52_cif.got.tgz:103932.got - 2010.06.03 13:09:07.
