data_PCOD9170594
_publ_section_title
;
Structure prediction by ZEFSAII (Michael W. Deem and Ramdas Pophale) SiO2 
 PCOD9170594
Probable space group: C 2/M
;
_chemical_formula_sum "Si O2"
_cell_formula_units_Z 32
_cell_length_a 8.582403
_cell_length_b 27.509592
_cell_length_c 6.197323
_cell_angle_alpha 90.000000
_cell_angle_beta 104.593141
_cell_angle_gamma 90.000000
_cell_volume 1415.974984
_symmetry_space_group_name_H-M "C 2/M"
_symmetry_group_IT_number 12
_symmetry_cell_setting 'monoclinic'
loop_
_space_group_symop_operation_xyz
x,y,z
-x,y,-z
-x,-y,-z
x,-y,z
1/2+x,1/2+y,z
1/2-x,1/2+y,-z
1/2-x,1/2-y,-z
1/2+x,1/2-y,z
loop_
_atom_site_type_symbol
_atom_site_label
_atom_site_fract_x
_atom_site_fract_y
_atom_site_fract_z
Si Si1 0.821891 0.445505 0.326764
Si Si2 0.500000 0.097000 0.000000
Si Si3 0.000000 0.710485 0.500000
Si Si4 0.259807 0.857266 0.577440
Si Si5 0.893908 0.216190 0.145430
O O1 0.755674 0.500000 0.317906
O O2 0.719532 0.405774 0.426795
O O3 0.000000 0.445617 0.500000
O O4 0.867631 0.432215 0.095505
O O5 0.597532 0.128075 0.207300
O O6 0.842626 0.677836 0.432157
O O7 0.010423 0.744592 0.298417
O O8 0.150512 0.823982 0.691461
O O9 0.750000 0.250000 0.000000
O O10 0.000000 0.191214 0.000000
#
# Coordination Sequence:
#
# PCOD9170594 Si02
#       5
#     8   4   4   8   8
#     4   9  18  31  52  83 116 149 191 241 297 349
#     4  10  17  32  58  82 120 148 192 238 301 342
#     4  12  22  40  59  86 125 160 192 248 296 352
#     4  11  21  35  57  84 119 155 192 244 295 351
#     4  12  26  39  61  87 121 163 206 240 294 353
#
# _framework density 22.599267999999999
#
# number of rings (size 3 to 8) (size 9 to 14) (size 15 to 20)
#    0.000    1.250    6.250    2.625    0.000    1.000 
#    0.000    0.000    0.000    0.750    0.000    2.625 
#    0.000    0.000    0.000    0.000    0.000    0.000 
#
# Total GULP energy -89251.573024 kJ/mol
# GULP energy per Si atom -5578.223314 kJ/mol
# Density = 2.254783 g / cm^3
# Si number density = 22.599268 Si / 1000 Ang^3
#
#
#
# Elastic Constant Matrix: (Units=GPa)
#
#
# Indices 1 2 3 4 5 6 
#
# 1 47.3215 44.2348 30.8224 0.0000 -30.8185 0.0000
# 2 44.2348 167.2012 52.1143 0.0000 -37.5032 0.0000
# 3 30.8224 52.1143 88.6595 0.0000 -36.4271 0.0000
# 4 0.0000 0.0000 0.0000 25.3534 0.0000 -9.1684
# 5 -30.8185 -37.5032 -36.4271 0.0000 55.7090 0.0000
# 6 0.0000 0.0000 0.0000 -9.1684 0.0000 12.6076
#
#
#
# Elastic Compliance Matrix: (Units=1/GPa)
#
#
# Indices 1 2 3 4 5 6 
#
# 1 0.038821 -0.005649 -0.003985 0.000000 0.015067 0.000000
# 2 -0.005649 0.008502 -0.002688 0.000000 0.000841 0.000000
# 3 -0.003985 -0.002688 0.017222 0.000000 0.007247 0.000000
# 4 0.000000 0.000000 0.000000 0.053516 0.000000 0.038918
# 5 0.015067 0.000841 0.007247 0.000000 0.031590 0.000000
# 6 0.000000 0.000000 0.000000 0.038918 0.000000 0.107619
#
#
# Mechanical properties :
#
#
# Convention : Reuss Voigt Hill
#
# Bulk Modulus (GPa) = 25.06215 61.94723 43.50469
# Shear Modulus (GPa) = 16.93687 30.46804 23.70246
#
# Velocity S-wave (km/s) = 2.74057 3.67575 3.24206
# Velocity P-wave (km/s) = 4.59654 6.74430 5.77121
#
# Compressibility (1/GPa) = 0.03990080
#
# Stress axis : x y z
#
# Youngs Moduli (GPa) = 25.75952 117.62403 58.06477
#
# Poissons Ratio (x) = 0.66443 0.23139
# Poissons Ratio (y) = 0.14551 0.15608
# Poissons Ratio (z) = 0.10265 0.31619
#
# Static dielectric constant tensor:
#      x y z
#    x 1.917680 0.000000 -0.032940 
#    y 0.000000 1.852660 0.000000 
#    z -0.032940 0.000000 1.865470 
# 
# From -- ./inp_files/6679.got.cif
#   From: 2010.05.17/outbox.cif.g08.bks.cpg/sg12_4_cif.got.tgz:6679.got - 2010.06.03 13:09:07.
