data_PCOD9170095
_publ_section_title
;
Structure prediction by ZEFSAII (Michael W. Deem and Ramdas Pophale) SiO2 
 PCOD9170095
Probable space group: C 2/M
;
_chemical_formula_sum "Si O2"
_cell_formula_units_Z 64
_cell_length_a 14.605249
_cell_length_b 26.275668
_cell_length_c 15.948912
_cell_angle_alpha 90.000000
_cell_angle_beta 136.830456
_cell_angle_gamma 90.000000
_cell_volume 4187.464786
_symmetry_space_group_name_H-M "C 2/M"
_symmetry_group_IT_number 12
_symmetry_cell_setting 'monoclinic'
loop_
_space_group_symop_operation_xyz
x,y,z
-x,y,-z
-x,-y,-z
x,-y,z
1/2+x,1/2+y,z
1/2-x,1/2+y,-z
1/2-x,1/2-y,-z
1/2+x,1/2-y,z
loop_
_atom_site_type_symbol
_atom_site_label
_atom_site_fract_x
_atom_site_fract_y
_atom_site_fract_z
Si Si1 0.298383 0.638836 0.654559
Si Si2 0.930679 0.718302 0.539984
Si Si3 0.503004 0.290942 0.280173
Si Si4 0.300684 0.221963 0.867303
Si Si5 0.154930 0.843465 0.121304
Si Si6 0.068019 0.365110 0.749075
Si Si7 0.985042 0.299388 0.846200
Si Si8 0.419368 0.939710 0.532990
O O1 0.200581 0.686273 0.568316
O O2 0.438328 0.654882 0.706888
O O3 0.313845 0.637601 0.764400
O O4 0.221541 0.589585 0.569484
O O5 0.000000 0.733455 0.500000
O O6 0.911807 0.765902 0.587796
O O7 0.027767 0.679303 0.655168
O O8 0.351059 0.290084 0.210689
O O9 0.513562 0.252448 0.207999
O O10 0.324961 0.282538 0.873393
O O11 0.352557 0.198247 0.814684
O O12 0.394634 0.204167 0.006589
O O13 0.271149 0.867214 0.140803
O O14 0.000000 0.854773 0.000000
O O15 0.007806 0.345021 0.796080
O O16 0.001425 0.414882 0.664538
O O17 0.500000 0.928524 0.500000
O O18 0.405571 0.000000 0.531700
#
# Coordination Sequence:
#
# PCOD9170095 Si02
#       8
#     8   8   8   8   8   8   8   8
#     4  11  19  32  46  75  97 134 170 202 255 300
#     4  10  17  30  44  63 101 134 167 206 230 282
#     4  11  20  27  45  67 101 141 172 203 245 286
#     4  11  19  31  41  72 107 150 179 194 225 286
#     4  12  19  28  48  73 110 141 174 201 230 294
#     4  10  19  33  50  74  96 135 173 208 252 297
#     4  10  20  29  46  68 107 144 180 201 224 289
#     4  10  20  38  61  76  94 123 166 224 272 313
#
# _framework density 15.283711
#
# number of rings (size 3 to 8) (size 9 to 14) (size 15 to 20)
#    0.000    1.375    7.500    1.500    1.750    0.000 
#    0.000    0.000    0.000    1.500    0.000    3.500 
#    0.000    0.000    0.000    0.000    0.000    0.000 
#
# Total GULP energy -178494.324947 kJ/mol
# GULP energy per Si atom -5577.947655 kJ/mol
# Density = 1.524892 g / cm^3
# Si number density = 15.283711 Si / 1000 Ang^3
#
#
#
# Elastic Constant Matrix: (Units=GPa)
#
#
# Indices 1 2 3 4 5 6 
#
# 1 111.5981 37.4011 43.2181 0.0000 -1.7289 0.0000
# 2 37.4011 65.3128 22.1713 0.0000 -1.5977 0.0000
# 3 43.2181 22.1713 62.4857 0.0000 0.9695 0.0000
# 4 0.0000 0.0000 0.0000 12.6927 0.0000 -1.9701
# 5 -1.7289 -1.5977 0.9695 0.0000 29.2944 0.0000
# 6 0.0000 0.0000 0.0000 -1.9701 0.0000 14.5132
#
#
#
# Elastic Compliance Matrix: (Units=1/GPa)
#
#
# Indices 1 2 3 4 5 6 
#
# 1 0.013673 -0.005226 -0.007615 0.000000 0.000774 0.000000
# 2 -0.005226 0.019444 -0.003298 0.000000 0.000861 0.000000
# 3 -0.007615 -0.003298 0.022462 0.000000 -0.001373 0.000000
# 4 0.000000 0.000000 0.000000 0.080481 0.000000 0.010925
# 5 0.000774 0.000861 -0.001373 0.000000 0.034274 0.000000
# 6 0.000000 0.000000 0.000000 0.010925 0.000000 0.070386
#
#
# Mechanical properties :
#
#
# Convention : Reuss Voigt Hill
#
# Bulk Modulus (GPa) = 42.91532 49.44196 46.17864
# Shear Modulus (GPa) = 17.80852 20.40715 19.10784
#
# Velocity S-wave (km/s) = 3.41720 3.65803 3.53967
# Velocity P-wave (km/s) = 6.61134 7.08952 6.85460
#
# Compressibility (1/GPa) = 0.02330170
#
# Stress axis : x y z
#
# Youngs Moduli (GPa) = 73.13661 51.42921 44.51999
#
# Poissons Ratio (x) = 0.26877 0.33900
# Poissons Ratio (y) = 0.38221 0.14683
# Poissons Ratio (z) = 0.55691 0.16962
#
# Static dielectric constant tensor:
#      x y z
#    x 1.539830 0.000000 0.022290 
#    y 0.000000 1.484330 0.000000 
#    z 0.022290 0.000000 1.542850 
# 
# From -- ./inp_files/218943.got.cif
#   From: 2010.05.17/outbox.cif.g08.bks.cpg/sg12_110_cif.got.tgz:218943.got - 2010.06.03 13:09:07.
