data_PCOD9170872
_publ_section_title
;
Structure prediction by ZEFSAII (Michael W. Deem and Ramdas Pophale) SiO2 
 PCOD9170872
Probable space group: C 2/M
;
_chemical_formula_sum "Si O2"
_cell_formula_units_Z 56
_cell_length_a 22.970234
_cell_length_b 15.354190
_cell_length_c 7.529464
_cell_angle_alpha 90.000000
_cell_angle_beta 114.647620
_cell_angle_gamma 90.000000
_cell_volume 2413.612948
_symmetry_space_group_name_H-M "C 2/M"
_symmetry_group_IT_number 12
_symmetry_cell_setting 'monoclinic'
loop_
_space_group_symop_operation_xyz
x,y,z
-x,y,-z
-x,-y,-z
x,-y,z
1/2+x,1/2+y,z
1/2-x,1/2+y,-z
1/2-x,1/2-y,-z
1/2+x,1/2-y,z
loop_
_atom_site_type_symbol
_atom_site_label
_atom_site_fract_x
_atom_site_fract_y
_atom_site_fract_z
Si Si1 0.196084 0.662754 0.155694
Si Si2 0.206686 0.130400 0.184329
Si Si3 0.844243 0.400971 0.287533
Si Si4 0.568678 0.781732 0.101327
Si Si5 0.072203 0.096564 0.014591
Si Si6 0.930290 0.241240 0.497495
Si Si7 0.671680 0.595724 0.727573
O O1 0.211130 0.765186 0.191858
O O2 0.128953 0.654758 0.171352
O O3 0.261450 0.614850 0.287644
O O4 0.178284 0.635123 0.933072
O O5 0.278293 0.100013 0.317930
O O6 0.142496 0.097550 0.202069
O O7 0.189970 0.101867 0.960318
O O8 0.866493 0.500000 0.300749
O O9 0.898303 0.334759 0.418542
O O10 0.574548 0.701373 0.965804
O O11 0.567044 0.734383 0.287605
O O12 0.500000 0.826576 0.000000
O O13 0.073769 0.000000 0.921660
O O14 0.000000 0.093791 0.000000
O O15 0.881503 0.167486 0.372152
O O16 0.000000 0.233088 0.500000
O O17 0.648489 0.500000 0.653635
#
# Coordination Sequence:
#
# PCOD9170872 Si02
#       7
#     8   8   8   8   8   8   8
#     4  10  18  39  68  92 126 164 206 254 309 368
#     4  10  17  35  63  93 124 166 207 253 307 369
#     4  11  21  39  67  96 124 161 207 259 313 370
#     4  10  23  40  64  88 119 170 211 253 319 374
#     4   9  18  31  53  86 124 163 210 253 293 363
#     4  12  26  43  63  91 130 165 211 263 312 370
#     4  11  22  38  64  97 130 166 207 254 312 375
#
# _framework density 23.201732
#
# number of rings (size 3 to 8) (size 9 to 14) (size 15 to 20)
#    0.000    1.571    2.857    4.286    4.000    1.714 
#    0.000    1.429    0.000    3.000    0.000    0.000 
#    0.000    0.000    0.000    0.000    0.000    0.000 
#
# Total GULP energy -155986.378086 kJ/mol
# GULP energy per Si atom -5570.942075 kJ/mol
# Density = 2.314892 g / cm^3
# Si number density = 23.201732 Si / 1000 Ang^3
#
#
#
# Elastic Constant Matrix: (Units=GPa)
#
#
# Indices 1 2 3 4 5 6 
#
# 1 196.2197 27.9571 37.8865 0.0000 30.6102 0.0000
# 2 27.9571 118.8391 8.5294 0.0000 17.4684 0.0000
# 3 37.8865 8.5294 52.7326 0.0000 11.4526 0.0000
# 4 0.0000 0.0000 0.0000 -13.3453 0.0000 -11.5435
# 5 30.6102 17.4684 11.4526 0.0000 33.5738 0.0000
# 6 0.0000 0.0000 0.0000 -11.5435 0.0000 -10.1468
#
#
#
# Elastic Compliance Matrix: (Units=1/GPa)
#
#
# Indices 1 2 3 4 5 6 
#
# 1 0.006585 -0.000636 -0.003668 0.000000 -0.004422 0.000000
# 2 -0.000636 0.009184 -0.000126 0.000000 -0.004156 0.000000
# 3 -0.003668 -0.000126 0.022549 0.000000 -0.004282 0.000000
# 4 0.000000 0.000000 0.000000 -4.695320 0.000000 5.341590
# 5 -0.004422 -0.004156 -0.004282 0.000000 0.037439 0.000000
# 6 0.000000 0.000000 0.000000 5.341590 0.000000 -6.175367
#
#
# Mechanical properties :
#
#
# Convention : Reuss Voigt Hill
#
# Bulk Modulus (GPa) = 33.94591 57.39305 45.66948
# Shear Modulus (GPa) = -0.46398 21.57756 10.55679
#
# Velocity S-wave (km/s) = -0.44767 3.05289 2.13539
# Velocity P-wave (km/s) = 3.79412 6.10058 5.07998
#
# Compressibility (1/GPa) = 0.02945863
#
# Stress axis : x y z
#
# Youngs Moduli (GPa) = 151.86256 108.88212 44.34732
#
# Poissons Ratio (x) = 0.06924 0.16266
# Poissons Ratio (y) = 0.09657 0.00559
# Poissons Ratio (z) = 0.55701 0.01373
#
# Static dielectric constant tensor:
#      x y z
#    x 2.000470 0.000000 -0.057990 
#    y 0.000000 1.851550 0.000000 
#    z -0.057990 0.000000 1.916500 
# 
# From -- ./inp_files/96955.got.cif
#   From: 2010.05.17/outbox.cif.g08.bks.cpg/sg12_49_cif.got.tgz:96955.got - 2010.06.03 13:09:07.
