data_PCOD9170614
_publ_section_title
;
Structure prediction by ZEFSAII (Michael W. Deem and Ramdas Pophale) SiO2 
 PCOD9170614
Probable space group: C 2/M
;
_chemical_formula_sum "Si O2"
_cell_formula_units_Z 40
_cell_length_a 9.872885
_cell_length_b 28.340491
_cell_length_c 6.703787
_cell_angle_alpha 90.000000
_cell_angle_beta 102.950360
_cell_angle_gamma 90.000000
_cell_volume 1828.025645
_symmetry_space_group_name_H-M "C 2/M"
_symmetry_group_IT_number 12
_symmetry_cell_setting 'monoclinic'
loop_
_space_group_symop_operation_xyz
x,y,z
-x,y,-z
-x,-y,-z
x,-y,z
1/2+x,1/2+y,z
1/2-x,1/2+y,-z
1/2-x,1/2-y,-z
1/2+x,1/2-y,z
loop_
_atom_site_type_symbol
_atom_site_label
_atom_site_fract_x
_atom_site_fract_y
_atom_site_fract_z
Si Si1 0.344944 0.127653 0.374474
Si Si2 0.157576 0.554050 0.974758
Si Si3 0.748808 0.729441 0.274550
Si Si4 0.045538 0.805480 0.749988
Si Si5 0.362254 0.598014 0.343654
O O1 0.500000 0.117562 0.500000
O O2 0.338081 0.181538 0.297243
O O3 0.236562 0.121332 0.519809
O O4 0.311073 0.090829 0.189793
O O5 0.164424 0.500000 0.906809
O O6 0.267385 0.562469 0.188359
O O7 0.000000 0.562786 0.000000
O O8 0.750000 0.750000 0.500000
O O9 0.823009 0.771488 0.181693
O O10 0.591922 0.712665 0.186258
O O11 0.087288 0.859870 0.786620
O O12 0.000000 0.803272 0.500000
O O13 0.500000 0.579044 0.500000
#
# Coordination Sequence:
#
# PCOD9170614 Si02
#       5
#     8   8   8   8   8
#     4  12  22  39  72 100 130 185 222 267 344 407
#     4  11  27  47  68 100 134 170 232 291 335 405
#     4  10  17  32  60  99 131 174 220 263 322 397
#     4   9  17  31  57  92 133 170 211 264 321 386
#     4  11  22  44  68  98 139 175 218 279 342 395
#
# _framework density 21.881530000000001
#
# number of rings (size 3 to 8) (size 9 to 14) (size 15 to 20)
#    0.000    1.400    8.000    1.800    0.000    2.400 
#    0.000    2.000    0.000    0.000    0.000    0.000 
#    0.000    0.000    0.000    0.000    0.000    0.000 
#
# Total GULP energy -111826.014076 kJ/mol
# GULP energy per Si atom -5591.300704 kJ/mol
# Density = 2.183173 g / cm^3
# Si number density = 21.881530 Si / 1000 Ang^3
#
#
#
# Elastic Constant Matrix: (Units=GPa)
#
#
# Indices 1 2 3 4 5 6 
#
# 1 120.7073 12.4719 35.4671 0.0000 17.4329 0.0000
# 2 12.4719 100.5853 33.4253 0.0000 -1.6374 0.0000
# 3 35.4671 33.4253 71.7279 0.0000 17.6721 0.0000
# 4 0.0000 0.0000 0.0000 29.8092 0.0000 3.8904
# 5 17.4329 -1.6374 17.6721 0.0000 50.4346 0.0000
# 6 0.0000 0.0000 0.0000 3.8904 0.0000 25.7582
#
#
#
# Elastic Compliance Matrix: (Units=1/GPa)
#
#
# Indices 1 2 3 4 5 6 
#
# 1 0.009855 0.000261 -0.004550 0.000000 -0.001804 0.000000
# 2 0.000261 0.012071 -0.006379 0.000000 0.002537 0.000000
# 3 -0.004550 -0.006379 0.020606 0.000000 -0.005855 0.000000
# 4 0.000000 0.000000 0.000000 0.034221 0.000000 -0.005169
# 5 -0.001804 0.002537 -0.005855 0.000000 0.022585 0.000000
# 6 0.000000 0.000000 0.000000 -0.005169 0.000000 0.039603
#
#
# Mechanical properties :
#
#
# Convention : Reuss Voigt Hill
#
# Bulk Modulus (GPa) = 47.17968 50.63880 48.90924
# Shear Modulus (GPa) = 29.87874 35.31080 32.59477
#
# Velocity S-wave (km/s) = 3.69925 4.02148 3.86372
# Velocity P-wave (km/s) = 6.31301 6.68996 6.50422
#
# Compressibility (1/GPa) = 0.02119556
#
# Stress axis : x y z
#
# Youngs Moduli (GPa) = 101.47136 82.84647 48.52842
#
# Poissons Ratio (x) = -0.02160 0.22081
# Poissons Ratio (y) = -0.02646 0.30955
# Poissons Ratio (z) = 0.46171 0.52846
#
# Static dielectric constant tensor:
#      x y z
#    x 1.790030 0.000000 -0.013890 
#    y 0.000000 1.753180 0.000000 
#    z -0.013890 0.000000 1.878380 
# 
# From -- ./inp_files/8508.got.cif
#   From: 2010.05.17/outbox.cif.g08.bks.cpg/sg12_5_cif.got.tgz:8508.got - 2010.06.03 13:09:07.
