data_PCOD9170599
_publ_section_title
;
Structure prediction by ZEFSAII (Michael W. Deem and Ramdas Pophale) SiO2 
 PCOD9170599
Probable space group: C 2/M
;
_chemical_formula_sum "Si O2"
_cell_formula_units_Z 48
_cell_length_a 14.200317
_cell_length_b 21.910356
_cell_length_c 12.308145
_cell_angle_alpha 90.000000
_cell_angle_beta 38.946416
_cell_angle_gamma 90.000000
_cell_volume 2407.187037
_symmetry_space_group_name_H-M "C 2/M"
_symmetry_group_IT_number 12
_symmetry_cell_setting 'monoclinic'
loop_
_space_group_symop_operation_xyz
x,y,z
-x,y,-z
-x,-y,-z
x,-y,z
1/2+x,1/2+y,z
1/2-x,1/2+y,-z
1/2-x,1/2-y,-z
1/2+x,1/2-y,z
loop_
_atom_site_type_symbol
_atom_site_label
_atom_site_fract_x
_atom_site_fract_y
_atom_site_fract_z
Si Si1 0.364047 0.372033 0.351627
Si Si2 0.708171 0.500000 0.934799
Si Si3 0.657449 0.500000 0.736126
Si Si4 0.831314 0.070218 0.607870
Si Si5 0.832143 0.336125 0.108690
Si Si6 0.278030 0.632794 0.014834
Si Si7 0.320803 0.706503 0.189155
O O1 0.310056 0.436203 0.349342
O O2 0.324032 0.382806 0.513012
O O3 0.545137 0.365763 0.176970
O O4 0.301083 0.319624 0.328240
O O5 0.736465 0.500000 0.781348
O O6 0.525475 0.500000 0.098071
O O7 0.762754 0.561615 0.940874
O O8 0.740123 0.101341 0.785925
O O9 0.000000 0.067307 0.500000
O O10 0.787214 0.000000 0.620337
O O11 0.814313 0.333192 0.995207
O O12 0.762032 0.274730 0.222920
O O13 0.000000 0.337299 0.000000
O O14 0.258474 0.662281 0.151035
O O15 0.500000 0.706951 0.000000
#
# Coordination Sequence:
#
# PCOD9170599 Si02
#       7
#     8   4   4   8   8   8   8
#     4  10  17  32  58  86 112 139 184 240 285 322
#     4   9  16  24  50  87 112 137 179 232 287 322
#     4   9  14  26  48  88 116 130 173 240 290 317
#     4  11  23  38  59  85 112 147 186 232 284 332
#     4  11  24  39  54  80 117 157 189 221 272 343
#     4  10  18  32  56  85 116 143 182 233 281 330
#     4   9  19  34  57  85 112 147 187 235 281 325
#
# _framework density 19.940286
#
# number of rings (size 3 to 8) (size 9 to 14) (size 15 to 20)
#    0.000    2.000    4.167    0.500    1.167    1.000 
#    0.000    0.000    0.000    0.000    0.000    2.333 
#    0.000    0.000    0.000    0.000    0.000    0.000 
#
# Total GULP energy -133729.094891 kJ/mol
# GULP energy per Si atom -5572.045620 kJ/mol
# Density = 1.989490 g / cm^3
# Si number density = 19.940286 Si / 1000 Ang^3
#
#
#
# Elastic Constant Matrix: (Units=GPa)
#
#
# Indices 1 2 3 4 5 6 
#
# 1 91.2108 37.0640 3.4548 0.0000 26.4549 -0.0004
# 2 37.0640 102.9733 1.1862 -0.0001 3.7511 -0.0005
# 3 3.4548 1.1862 12.0837 -0.0002 14.4323 -0.0011
# 4 0.0000 -0.0001 -0.0002 10.5867 -0.0001 -0.2069
# 5 26.4549 3.7511 14.4323 -0.0001 23.8991 0.0007
# 6 -0.0004 -0.0005 -0.0011 -0.2069 0.0007 13.2444
#
#
#
# Elastic Compliance Matrix: (Units=1/GPa)
#
#
# Indices 1 2 3 4 5 6 
#
# 1 0.138939 -0.039352 0.503869 0.000007 -0.451899 0.000069
# 2 -0.039352 0.020946 -0.139572 -0.000002 0.124558 -0.000019
# 3 0.503869 -0.139572 2.125204 0.000030 -1.819223 0.000287
# 4 0.000007 -0.000002 0.000030 0.094487 -0.000025 0.001476
# 5 -0.451899 0.124558 -1.819223 -0.000025 1.621116 -0.000249
# 6 0.000069 -0.000019 0.000287 0.001476 -0.000249 0.075527
#
#
# Mechanical properties :
#
#
# Convention : Reuss Voigt Hill
#
# Bulk Modulus (GPa) = 0.34072 32.18641 16.26357
# Shear Modulus (GPa) = 1.13516 20.51689 10.82603
#
# Velocity S-wave (km/s) = 0.75533 3.21115 2.33260
# Velocity P-wave (km/s) = 0.96536 5.47038 3.92792
#
# Compressibility (1/GPa) = 2.93497965
#
# Stress axis : x y z
#
# Youngs Moduli (GPa) = 7.19742 47.74219 0.47054
#
# Poissons Ratio (x) = 1.87874 -0.23709
# Poissons Ratio (y) = 0.28323 0.06567
# Poissons Ratio (z) = -3.62656 6.66347
#
# Static dielectric constant tensor:
#      x y z
#    x 2.198850 0.000000 0.045920 
#    y 0.000000 1.715060 0.000000 
#    z 0.045920 0.000000 1.713910 
# 
# From -- ./inp_files/135223.got.cif
#   From: 2010.05.17/outbox.cif.g08.bks.cpg/sg12_68_cif.got.tgz:135223.got - 2010.06.03 13:09:07.
