data_PCOD9170119
_publ_section_title
;
Structure prediction by ZEFSAII (Michael W. Deem and Ramdas Pophale) SiO2 
 PCOD9170119
Probable space group: C 2/M
;
_chemical_formula_sum "Si O2"
_cell_formula_units_Z 40
_cell_length_a 22.415352
_cell_length_b 13.428728
_cell_length_c 9.722538
_cell_angle_alpha 90.000000
_cell_angle_beta 43.686827
_cell_angle_gamma 90.000000
_cell_volume 2021.434694
_symmetry_space_group_name_H-M "C 2/M"
_symmetry_group_IT_number 12
_symmetry_cell_setting 'monoclinic'
loop_
_space_group_symop_operation_xyz
x,y,z
-x,y,-z
-x,-y,-z
x,-y,z
1/2+x,1/2+y,z
1/2-x,1/2+y,-z
1/2-x,1/2-y,-z
1/2+x,1/2-y,z
loop_
_atom_site_type_symbol
_atom_site_label
_atom_site_fract_x
_atom_site_fract_y
_atom_site_fract_z
Si Si1 0.760787 0.613854 0.565066
Si Si2 0.905701 0.394004 0.085767
Si Si3 0.466796 0.302317 0.899480
Si Si4 0.932828 0.000000 0.815700
Si Si5 0.867127 0.000000 0.624087
Si Si6 0.156560 0.193868 0.494016
O O1 0.750936 0.500000 0.631613
O O2 0.837189 0.612273 0.322693
O O3 0.790484 0.703925 0.614095
O O4 0.680975 0.651277 0.605343
O O5 0.893473 0.500000 0.033560
O O6 0.907276 0.294983 0.993981
O O7 0.000000 0.395048 0.000000
O O8 0.420261 0.400529 0.923800
O O9 0.554287 0.284750 0.665794
O O10 0.500000 0.317290 0.000000
O O11 0.877849 0.000000 0.768954
O O12 0.034933 0.000000 0.602139
O O13 0.824829 0.101399 0.637714
#
# Coordination Sequence:
#
# PCOD9170119 Si02
#       6
#     8   8   8   4   4   8
#     4  10  18  29  46  74  97 128 156 192 245 279
#     4   9  16  28  45  69  99 125 152 189 241 291
#     4  10  17  30  46  76 101 119 155 204 248 275
#     4   9  19  30  50  66  97 131 159 193 240 290
#     4   9  18  34  46  68  93 134 165 190 232 289
#     4  10  18  29  48  70  99 125 158 199 233 286
#
# _framework density 19.787927
#
# number of rings (size 3 to 8) (size 9 to 14) (size 15 to 20)
#    0.000    2.400    5.000    0.300    0.000    0.000 
#    0.000    0.000    0.000    2.400    0.000    5.600 
#    0.000    0.000    0.000    0.000    0.000    0.000 
#
# Total GULP energy -111524.478609 kJ/mol
# GULP energy per Si atom -5576.223930 kJ/mol
# Density = 1.974289 g / cm^3
# Si number density = 19.787927 Si / 1000 Ang^3
#
#
#
# Elastic Constant Matrix: (Units=GPa)
#
#
# Indices 1 2 3 4 5 6 
#
# 1 46.2711 55.6399 8.3573 0.0000 5.7950 0.0000
# 2 55.6399 250.7147 24.9929 0.0000 20.9133 0.0000
# 3 8.3573 24.9929 32.0744 0.0000 -12.8338 0.0000
# 4 0.0000 0.0000 0.0000 11.8007 0.0000 -7.3597
# 5 5.7950 20.9133 -12.8338 0.0000 32.1845 0.0000
# 6 0.0000 0.0000 0.0000 -7.3597 0.0000 9.0655
#
#
#
# Elastic Compliance Matrix: (Units=1/GPa)
#
#
# Indices 1 2 3 4 5 6 
#
# 1 0.029969 -0.005918 -0.004543 0.000000 -0.003363 0.000000
# 2 -0.005918 0.006273 -0.005415 0.000000 -0.005170 0.000000
# 3 -0.004543 -0.005415 0.045589 0.000000 0.022515 0.000000
# 4 0.000000 0.000000 0.000000 0.171650 0.000000 0.139352
# 5 -0.003363 -0.005170 0.022515 0.000000 0.044014 0.000000
# 6 0.000000 0.000000 0.000000 0.139352 0.000000 0.223439
#
#
# Mechanical properties :
#
#
# Convention : Reuss Voigt Hill
#
# Bulk Modulus (GPa) = 19.96771 56.33784 38.15277
# Shear Modulus (GPa) = 8.78151 26.61481 17.69816
#
# Velocity S-wave (km/s) = 2.10890 3.67141 2.99388
# Velocity P-wave (km/s) = 4.00533 6.81945 5.59230
#
# Compressibility (1/GPa) = 0.05008086
#
# Stress axis : x y z
#
# Youngs Moduli (GPa) = 33.36759 159.41774 21.93498
#
# Poissons Ratio (x) = 0.94336 0.09965
# Poissons Ratio (y) = 0.19745 0.11877
# Poissons Ratio (z) = 0.15159 0.86317
#
# Static dielectric constant tensor:
#      x y z
#    x 1.677130 0.000000 -0.052990 
#    y 0.000000 1.775760 0.000000 
#    z -0.052990 0.000000 1.719930 
# 
# From -- ./inp_files/85548.got.cif
#   From: 2010.05.17/outbox.cif.g08.bks.cpg/sg12_43_cif.got.tgz:85548.got - 2010.06.03 13:09:07.
