data_PCOD9170395
_publ_section_title
;
Structure prediction by ZEFSAII (Michael W. Deem and Ramdas Pophale) SiO2 
 PCOD9170395
Probable space group: C 2/M
;
_chemical_formula_sum "Si O2"
_cell_formula_units_Z 56
_cell_length_a 16.154171
_cell_length_b 17.188862
_cell_length_c 11.767016
_cell_angle_alpha 90.000000
_cell_angle_beta 115.285303
_cell_angle_gamma 90.000000
_cell_volume 2954.329105
_symmetry_space_group_name_H-M "C 2/M"
_symmetry_group_IT_number 12
_symmetry_cell_setting 'monoclinic'
loop_
_space_group_symop_operation_xyz
x,y,z
-x,y,-z
-x,-y,-z
x,-y,z
1/2+x,1/2+y,z
1/2-x,1/2+y,-z
1/2-x,1/2-y,-z
1/2+x,1/2-y,z
loop_
_atom_site_type_symbol
_atom_site_label
_atom_site_fract_x
_atom_site_fract_y
_atom_site_fract_z
Si Si1 0.757559 0.343726 0.495223
Si Si2 0.948343 0.229935 0.354331
Si Si3 0.161053 0.325163 0.121682
Si Si4 0.240174 0.328879 0.761133
Si Si5 0.165860 0.908072 0.662706
Si Si6 0.450140 0.153689 0.724482
Si Si7 0.635365 0.913356 0.879595
O O1 0.750000 0.250000 0.500000
O O2 0.740553 0.360978 0.353275
O O3 0.689024 0.381210 0.546840
O O4 0.860487 0.365060 0.596805
O O5 0.853305 0.277491 0.300108
O O6 0.920985 0.139944 0.342463
O O7 0.000000 0.250099 0.500000
O O8 0.011417 0.262114 0.291028
O O9 0.186316 0.234538 0.153583
O O10 0.248012 0.376304 0.214111
O O11 0.082049 0.345611 0.164571
O O12 0.139663 0.349728 0.981704
O O13 0.215429 0.394257 0.837708
O O14 0.156929 0.000000 0.664289
O O15 0.536380 0.096870 0.762015
O O16 0.643531 0.000000 0.931417
#
# Coordination Sequence:
#
# PCOD9170395 Si02
#       7
#     8   8   8   8   8   8   8
#     4  11  17  36  58  81 106 143 187 233 268 323
#     4  10  17  31  53  77 109 133 173 226 274 323
#     4  10  20  38  59  76 105 147 201 231 258 321
#     4  10  20  35  60  81 102 148 197 225 270 327
#     4  10  21  32  53  82 108 145 181 222 281 330
#     4  10  20  32  58  83 102 143 181 226 281 323
#     4  11  24  37  52  82 122 151 177 229 286 333
#
# _framework density 18.955234000000001
#
# number of rings (size 3 to 8) (size 9 to 14) (size 15 to 20)
#    0.000    1.714    5.714    1.286    0.000    4.286 
#    0.000    0.714    0.000    0.000    0.000    0.000 
#    0.000    9.143    0.000    0.000    0.000    0.000 
#
# Total GULP energy -156209.025443 kJ/mol
# GULP energy per Si atom -5578.893766 kJ/mol
# Density = 1.891209 g / cm^3
# Si number density = 18.955234 Si / 1000 Ang^3
#
#
#
# Elastic Constant Matrix: (Units=GPa)
#
#
# Indices 1 2 3 4 5 6 
#
# 1 30.7924 13.8389 8.1226 0.0000 -14.7080 0.0000
# 2 13.8389 53.0110 11.0559 0.0000 -2.6091 0.0000
# 3 8.1226 11.0559 74.7106 0.0000 -13.9574 0.0000
# 4 0.0000 0.0000 0.0000 19.2367 0.0000 -3.9431
# 5 -14.7080 -2.6091 -13.9574 0.0000 20.7832 0.0000
# 6 0.0000 0.0000 0.0000 -3.9431 0.0000 11.4298
#
#
#
# Elastic Compliance Matrix: (Units=1/GPa)
#
#
# Indices 1 2 3 4 5 6 
#
# 1 0.057410 -0.013685 0.003491 0.000000 0.041255 0.000000
# 2 -0.013685 0.022733 -0.003605 0.000000 -0.009252 0.000000
# 3 0.003491 -0.003605 0.015912 0.000000 0.012704 0.000000
# 4 0.000000 0.000000 0.000000 0.055940 0.000000 0.019298
# 5 0.041255 -0.009252 0.012704 0.000000 0.084682 0.000000
# 6 0.000000 0.000000 0.000000 0.019298 0.000000 0.094148
#
#
# Mechanical properties :
#
#
# Convention : Reuss Voigt Hill
#
# Bulk Modulus (GPa) = 14.60753 24.94987 19.77870
# Shear Modulus (GPa) = 13.11501 18.65637 15.88569
#
# Velocity S-wave (km/s) = 2.63324 3.14065 2.89807
# Velocity P-wave (km/s) = 4.11926 5.13251 4.65355
#
# Compressibility (1/GPa) = 0.06845784
#
# Stress axis : x y z
#
# Youngs Moduli (GPa) = 17.41845 43.98891 62.84457
#
# Poissons Ratio (x) = 0.60198 -0.21937
# Poissons Ratio (y) = 0.23837 0.22653
# Poissons Ratio (z) = -0.06080 0.15856
#
# Static dielectric constant tensor:
#      x y z
#    x 1.672120 0.000000 0.010230 
#    y 0.000000 1.652290 0.000000 
#    z 0.010230 0.000000 1.677640 
# 
# From -- ./inp_files/145645.got.cif
#   From: 2010.05.17/outbox.cif.g08.bks.cpg/sg12_73_cif.got.tgz:145645.got - 2010.06.03 13:09:07.
