data_PCOD9170780
_publ_section_title
;
Structure prediction by ZEFSAII (Michael W. Deem and Ramdas Pophale) SiO2 
 PCOD9170780
Probable space group: C 2/M
;
_chemical_formula_sum "Si O2"
_cell_formula_units_Z 56
_cell_length_a 10.560105
_cell_length_b 15.536581
_cell_length_c 26.718567
_cell_angle_alpha 90.000000
_cell_angle_beta 144.940430
_cell_angle_gamma 90.000000
_cell_volume 2518.096075
_symmetry_space_group_name_H-M "C 2/M"
_symmetry_group_IT_number 12
_symmetry_cell_setting 'monoclinic'
loop_
_space_group_symop_operation_xyz
x,y,z
-x,y,-z
-x,-y,-z
x,-y,z
1/2+x,1/2+y,z
1/2-x,1/2+y,-z
1/2-x,1/2-y,-z
1/2+x,1/2-y,z
loop_
_atom_site_type_symbol
_atom_site_label
_atom_site_fract_x
_atom_site_fract_y
_atom_site_fract_z
Si Si1 0.114553 0.340842 0.687940
Si Si2 0.881104 0.865211 0.287450
Si Si3 0.077699 0.661592 0.275138
Si Si4 0.454645 0.595339 0.131857
Si Si5 0.080790 0.789260 0.081654
Si Si6 0.161502 0.673150 0.597362
Si Si7 0.094952 0.594508 0.098251
O O1 0.122787 0.239595 0.706481
O O2 0.364751 0.372137 0.770490
O O3 0.034268 0.359790 0.605914
O O4 0.993665 0.383606 0.696143
O O5 0.732134 0.890910 0.286963
O O6 0.758126 0.898761 0.198636
O O7 0.139686 0.883407 0.361837
O O8 0.222967 0.742320 0.341622
O O9 0.847952 0.694872 0.174481
O O10 0.514749 0.500000 0.135719
O O11 0.472134 0.653262 0.089131
O O12 0.230939 0.593713 0.090395
O O13 0.005744 0.691658 0.069060
O O14 0.000000 0.811435 0.000000
O O15 0.000000 0.694789 0.500000
O O16 0.980964 0.500000 0.066064
#
# Coordination Sequence:
#
# PCOD9170780 Si02
#       7
#     8   8   8   8   8   8   8
#     4   9  16  32  55  80 116 159 204 242 309 370
#     4  10  17  34  56  81 122 159 203 253 317 364
#     4   9  19  33  56  84 116 162 204 254 313 374
#     4  10  20  38  64  88 116 164 215 258 310 377
#     4  11  23  40  64  87 125 168 212 263 316 373
#     4  10  18  30  56  89 121 160 209 256 306 380
#     4  11  21  37  62  89 120 164 210 261 318 373
#
# _framework density 22.239025000000002
#
# number of rings (size 3 to 8) (size 9 to 14) (size 15 to 20)
#    0.000    2.000    5.714    0.857    0.000    6.286 
#    0.000    2.857    0.000    1.714    0.000    0.000 
#    0.000   61.143    0.000    0.000    0.000    0.000 
#
# Total GULP energy -156006.504580 kJ/mol
# GULP energy per Si atom -5571.660878 kJ/mol
# Density = 2.218841 g / cm^3
# Si number density = 22.239025 Si / 1000 Ang^3
#
#
#
# Elastic Constant Matrix: (Units=GPa)
#
#
# Indices 1 2 3 4 5 6 
#
# 1 126.4801 27.7544 50.4607 0.0000 -30.7401 0.0000
# 2 27.7544 104.0266 7.5287 0.0000 -19.0797 0.0000
# 3 50.4607 7.5287 136.1705 0.0002 -40.4237 0.0001
# 4 0.0000 0.0000 0.0002 -3.0658 0.0000 -3.8396
# 5 -30.7401 -19.0797 -40.4237 0.0000 32.1013 0.0000
# 6 0.0000 0.0000 0.0001 -3.8396 0.0000 13.5051
#
#
#
# Elastic Compliance Matrix: (Units=1/GPa)
#
#
# Indices 1 2 3 4 5 6 
#
# 1 0.010652 -0.001399 -0.001739 0.000000 0.007179 0.000000
# 2 -0.001399 0.011358 0.002390 0.000000 0.008421 0.000000
# 3 -0.001739 0.002390 0.012430 0.000001 0.015408 0.000000
# 4 0.000000 0.000000 0.000001 -0.240532 0.000001 -0.068385
# 5 0.007179 0.008421 0.015408 0.000001 0.062434 0.000000
# 6 0.000000 0.000000 0.000000 -0.068385 0.000000 0.054604
#
#
# Mechanical properties :
#
#
# Convention : Reuss Voigt Hill
#
# Bulk Modulus (GPa) = 30.35451 59.79607 45.07529
# Shear Modulus (GPa) = -65.29294 27.23700 -19.02797
#
# Velocity S-wave (km/s) = -5.42433 3.50342 -2.92826
# Velocity P-wave (km/s) = 5.05493 6.58115 2.97987
#
# Compressibility (1/GPa) = 0.03294404
#
# Stress axis : x y z
#
# Youngs Moduli (GPa) = 93.87936 88.04589 80.45049
#
# Poissons Ratio (x) = 0.12321 0.13988
# Poissons Ratio (y) = 0.13138 -0.19230
# Poissons Ratio (z) = 0.16323 -0.21046
#
# Static dielectric constant tensor:
#      x y z
#    x 1.957760 0.000000 0.029580 
#    y 0.000000 1.920430 0.000000 
#    z 0.029580 0.000000 1.834790 
# 
# From -- ./inp_files/358238.got.cif
#   From: 2010.05.17/outbox.cif.g08.bks.cpg/sg12_180_cif.got.tgz:358238.got - 2010.06.03 13:09:07.
