data_PCOD9170277
_publ_section_title
;
Structure prediction by ZEFSAII (Michael W. Deem and Ramdas Pophale) SiO2 
 PCOD9170277
Probable space group: C 2/M
;
_chemical_formula_sum "Si O2"
_cell_formula_units_Z 64
_cell_length_a 23.022851
_cell_length_b 8.850154
_cell_length_c 19.894194
_cell_angle_alpha 90.000000
_cell_angle_beta 124.390227
_cell_angle_gamma 90.000000
_cell_volume 3345.035139
_symmetry_space_group_name_H-M "C 2/M"
_symmetry_group_IT_number 12
_symmetry_cell_setting 'monoclinic'
loop_
_space_group_symop_operation_xyz
x,y,z
-x,y,-z
-x,-y,-z
x,-y,z
1/2+x,1/2+y,z
1/2-x,1/2+y,-z
1/2-x,1/2-y,-z
1/2+x,1/2-y,z
loop_
_atom_site_type_symbol
_atom_site_label
_atom_site_fract_x
_atom_site_fract_y
_atom_site_fract_z
Si Si1 0.556958 0.666608 0.905747
Si Si2 0.445192 0.828302 0.667745
Si Si3 0.898976 0.239570 0.781125
Si Si4 0.731740 0.678271 0.817170
Si Si5 0.401127 0.180003 0.197015
Si Si6 0.378358 0.680978 0.912339
Si Si7 0.314542 0.816828 0.500462
Si Si8 0.762882 0.328006 0.321007
O O1 0.588487 0.500000 0.915677
O O2 0.474214 0.657340 0.835385
O O3 0.591761 0.783089 0.877380
O O4 0.569447 0.704987 0.991688
O O5 0.412612 0.832761 0.721961
O O6 0.523785 0.763546 0.723606
O O7 0.387157 0.758567 0.580677
O O8 0.454995 0.000000 0.651226
O O9 0.892173 0.284100 0.855559
O O10 0.821371 0.170718 0.719346
O O11 0.742895 0.500000 0.833014
O O12 0.663642 0.734608 0.812369
O O13 0.800133 0.774112 0.884265
O O14 0.723389 0.720412 0.732909
O O15 0.394891 0.000000 0.202647
O O16 0.380890 0.500000 0.895571
O O17 0.250000 0.750000 0.500000
O O18 0.302876 0.781231 0.414660
O O19 0.312609 0.000000 0.505223
O O20 0.782913 0.500000 0.315929
#
# Coordination Sequence:
#
# PCOD9170277 Si02
#       8
#     8   8   8   8   8   8   8   8
#     4  10  20  34  55  82 111 143 180 225 269 318
#     4   9  19  34  54  81 114 147 181 219 268 321
#     4  10  17  30  54  81 113 144 183 216 264 317
#     4  11  23  39  59  79 103 139 184 233 276 321
#     4  10  21  39  59  78 105 143 183 227 273 324
#     4  10  21  36  54  79 112 146 180 220 271 328
#     4  10  19  34  54  84 118 149 181 216 260 317
#     4  10  20  34  56  83 113 148 182 218 266 322
#
# _framework density 19.132832000000001
#
# number of rings (size 3 to 8) (size 9 to 14) (size 15 to 20)
#    0.000    2.000    1.250    3.750    0.000    4.500 
#    0.000    1.250    0.000    9.750    0.000    0.000 
#    0.000    0.000    0.000    0.000    0.000    0.000 
#
# Total GULP energy -178135.270645 kJ/mol
# GULP energy per Si atom -5566.727208 kJ/mol
# Density = 1.908929 g / cm^3
# Si number density = 19.132832 Si / 1000 Ang^3
#
#
#
# Elastic Constant Matrix: (Units=GPa)
#
#
# Indices 1 2 3 4 5 6 
#
# 1 82.1201 14.0835 9.8211 0.0000 1.7762 0.0000
# 2 14.0835 34.3048 16.0141 0.0000 -4.6234 0.0000
# 3 9.8211 16.0141 115.8858 0.0000 0.8296 0.0000
# 4 0.0000 0.0000 0.0000 20.5214 0.0000 -4.6290
# 5 1.7762 -4.6234 0.8296 0.0000 15.1772 0.0000
# 6 0.0000 0.0000 0.0000 -4.6290 0.0000 20.1195
#
#
#
# Elastic Compliance Matrix: (Units=1/GPa)
#
#
# Indices 1 2 3 4 5 6 
#
# 1 0.013271 -0.005748 -0.000307 0.000000 -0.003287 0.000000
# 2 -0.005748 0.035156 -0.004454 0.000000 0.011626 0.000000
# 3 -0.000307 -0.004454 0.009284 0.000000 -0.001828 0.000000
# 4 0.000000 0.000000 0.000000 0.051397 0.000000 0.011825
# 5 -0.003287 0.011626 -0.001828 0.000000 0.069914 0.000000
# 6 0.000000 0.000000 0.000000 0.011825 0.000000 0.052424
#
#
# Mechanical properties :
#
#
# Convention : Reuss Voigt Hill
#
# Bulk Modulus (GPa) = 27.25332 34.68312 30.96822
# Shear Modulus (GPa) = 18.88962 23.98975 21.43968
#
# Velocity S-wave (km/s) = 3.14552 3.54482 3.35112
# Velocity P-wave (km/s) = 5.24095 5.90942 5.58520
#
# Compressibility (1/GPa) = 0.03669278
#
# Stress axis : x y z
#
# Youngs Moduli (GPa) = 75.35310 28.44427 107.71431
#
# Poissons Ratio (x) = 0.16350 0.03305
# Poissons Ratio (y) = 0.43313 0.47980
# Poissons Ratio (z) = 0.02312 0.12670
#
# Static dielectric constant tensor:
#      x y z
#    x 1.655160 0.000000 0.009430 
#    y 0.000000 1.682710 0.000000 
#    z 0.009430 0.000000 1.700160 
# 
# From -- ./inp_files/319988.got.cif
#   From: 2010.05.17/outbox.cif.g08.bks.cpg/sg12_160_cif.got.tgz:319988.got - 2010.06.03 13:09:07.
