data_PCOD9170601
_publ_section_title
;
Structure prediction by ZEFSAII (Michael W. Deem and Ramdas Pophale) SiO2 
 PCOD9170601
Probable space group: C 2/M
;
_chemical_formula_sum "Si O2"
_cell_formula_units_Z 46
_cell_length_a 13.312313
_cell_length_b 20.428151
_cell_length_c 23.616658
_cell_angle_alpha 90.000000
_cell_angle_beta 154.782186
_cell_angle_gamma 90.000000
_cell_volume 2736.354674
_symmetry_space_group_name_H-M "C 2/M"
_symmetry_group_IT_number 12
_symmetry_cell_setting 'monoclinic'
loop_
_space_group_symop_operation_xyz
x,y,z
-x,y,-z
-x,-y,-z
x,-y,z
1/2+x,1/2+y,z
1/2-x,1/2+y,-z
1/2-x,1/2-y,-z
1/2+x,1/2-y,z
loop_
_atom_site_type_symbol
_atom_site_label
_atom_site_fract_x
_atom_site_fract_y
_atom_site_fract_z
Si Si1 0.290954 0.925620 0.009227
Si Si2 0.849312 0.208679 0.253737
Si Si3 0.000000 0.622864 0.000000
Si Si4 0.742305 0.619035 0.687361
Si Si5 0.225736 0.252950 0.362669
Si Si6 0.982119 0.204269 0.125849
Si Si7 0.500000 0.500000 0.500000
O O1 0.382040 0.917225 0.990957
O O2 0.511808 0.906578 0.161483
O O3 0.216573 0.000000 0.981300
O O4 0.095405 0.870348 0.920190
O O5 0.873210 0.163320 0.321705
O O6 0.680669 0.269060 0.184787
O O7 0.092951 0.233131 0.351962
O O8 0.699452 0.167289 0.131484
O O9 0.788382 0.669958 0.659697
O O10 0.593403 0.557837 0.591145
O O11 0.500000 0.234665 0.500000
O O12 0.086378 0.217346 0.240999
O O13 0.750000 0.250000 0.000000
#
# Coordination Sequence:
#
# PCOD9170601 Si02
#       7
#     8   8   4   8   8   8   2
#     4  11  20  34  55  88 121 152 195 237 296 354
#     4  10  20  35  59  90 113 146 203 241 294 344
#     4  10  17  32  58  88 115 148 184 254 293 334
#     4  10  22  34  60  84 115 157 190 240 288 345
#     4  11  21  37  59  87 114 151 199 249 299 335
#     4  11  19  35  58  85 119 152 190 245 296 339
#     4  12  20  44  52  82 132 156 184 240 284 364
#
# _framework density 16.810687000000001
#
# number of rings (size 3 to 8) (size 9 to 14) (size 15 to 20)
#    0.000    1.391    8.696    0.261    0.000    2.783 
#    0.000    0.000    1.913    1.565    0.000    0.000 
#    0.000    0.000    0.000    0.000    0.000    0.000 
#
# Total GULP energy -128039.201476 kJ/mol
# GULP energy per Si atom -5566.921803 kJ/mol
# Density = 1.677242 g / cm^3
# Si number density = 16.810687 Si / 1000 Ang^3
#
#
#
# Elastic Constant Matrix: (Units=GPa)
#
#
# Indices 1 2 3 4 5 6 
#
# 1 57.1631 53.9957 50.5715 0.0005 13.1022 -0.0005
# 2 53.9957 162.8417 55.1556 -0.0005 8.5279 -0.0010
# 3 50.5715 55.1556 86.6632 0.0063 4.3434 -0.0008
# 4 0.0005 -0.0005 0.0063 29.0768 -0.0028 -2.7454
# 5 13.1022 8.5279 4.3434 -0.0028 29.1789 0.0009
# 6 -0.0005 -0.0010 -0.0008 -2.7454 0.0009 12.9148
#
#
#
# Elastic Compliance Matrix: (Units=1/GPa)
#
#
# Indices 1 2 3 4 5 6 
#
# 1 0.048242 -0.007510 -0.022564 0.000002 -0.016109 0.000002
# 2 -0.007510 0.009069 -0.001436 0.000001 0.000936 0.000000
# 3 -0.022564 -0.001436 0.025280 -0.000005 0.006789 -0.000001
# 4 0.000002 0.000001 -0.000005 0.035096 0.000002 0.007461
# 5 -0.016109 0.000936 0.006789 0.000002 0.040221 -0.000002
# 6 0.000002 0.000000 -0.000001 0.007461 -0.000002 0.079016
#
#
# Mechanical properties :
#
#
# Convention : Reuss Voigt Hill
#
# Bulk Modulus (GPa) = 51.09899 69.56816 60.33358
# Shear Modulus (GPa) = 16.31494 24.03046 20.17270
#
# Velocity S-wave (km/s) = 3.11868 3.78494 3.46785
# Velocity P-wave (km/s) = 6.59022 7.78294 7.21128
#
# Compressibility (1/GPa) = 0.01956986
#
# Stress axis : x y z
#
# Youngs Moduli (GPa) = 20.72869 110.27130 39.55733
#
# Poissons Ratio (x) = 0.82815 0.89258
# Poissons Ratio (y) = 0.15567 0.05680
# Poissons Ratio (z) = 0.46773 0.15835
#
# Static dielectric constant tensor:
#      x y z
#    x 1.596060 0.000000 -0.016340 
#    y 0.000000 1.555630 0.000000 
#    z -0.016340 0.000000 1.573540 
# 
# From -- ./inp_files/361987.got.cif
#   From: 2010.05.17/outbox.cif.g08.bks.cpg/sg12_181_cif.got.tgz:361987.got - 2010.06.03 13:09:07.
