data_PCOD9170320
_publ_section_title
;
Structure prediction by ZEFSAII (Michael W. Deem and Ramdas Pophale) SiO2 
 PCOD9170320
Probable space group: C 2/M
;
_chemical_formula_sum "Si O2"
_cell_formula_units_Z 44
_cell_length_a 25.370915
_cell_length_b 8.786219
_cell_length_c 29.674687
_cell_angle_alpha 90.000000
_cell_angle_beta 159.731931
_cell_angle_gamma 90.000000
_cell_volume 2291.492138
_symmetry_space_group_name_H-M "C 2/M"
_symmetry_group_IT_number 12
_symmetry_cell_setting 'monoclinic'
loop_
_space_group_symop_operation_xyz
x,y,z
-x,y,-z
-x,-y,-z
x,-y,z
1/2+x,1/2+y,z
1/2-x,1/2+y,-z
1/2-x,1/2-y,-z
1/2+x,1/2-y,z
loop_
_atom_site_type_symbol
_atom_site_label
_atom_site_fract_x
_atom_site_fract_y
_atom_site_fract_z
Si Si1 0.000000 0.269541 0.500000
Si Si2 0.636870 0.680428 0.445618
Si Si3 0.987905 0.819259 0.097195
Si Si4 0.251825 0.182344 0.237798
Si Si5 0.711606 0.318211 0.830357
Si Si6 0.251482 0.671199 0.627880
O O1 0.879495 0.213997 0.365460
O O2 0.874353 0.338891 0.433266
O O3 0.642454 0.500000 0.446519
O O4 0.750000 0.750000 0.500000
O O5 0.461580 0.727923 0.297729
O O6 0.689010 0.729720 0.537257
O O7 0.095210 0.798903 0.139203
O O8 0.094331 0.772259 0.224536
O O9 0.959353 0.000000 0.078500
O O10 0.832820 0.730529 0.965144
O O11 0.243638 0.232617 0.179894
O O12 0.293582 0.000000 0.274451
O O13 0.716756 0.500000 0.827647
O O14 0.277558 0.500000 0.631795
#
# Coordination Sequence:
#
# PCOD9170320 Si02
#       6
#     4   8   8   8   8   8
#     4  10  17  30  57  90 119 154 191 232 287 344
#     4  11  25  43  62  86 113 151 202 249 295 347
#     4   9  20  35  56  87 119 154 195 231 277 348
#     4  10  18  31  54  83 117 156 197 232 275 341
#     4  11  23  37  54  82 118 153 192 238 292 346
#     4  10  19  36  62  90 119 152 194 242 290 344
#
# _framework density 19.201463
#
# number of rings (size 3 to 8) (size 9 to 14) (size 15 to 20)
#    0.000    1.818    1.818    4.364    0.000    5.818 
#    0.000    4.545    0.000    0.000    0.000    0.000 
#    0.000    0.000    0.000    0.000    0.000    0.000 
#
# Total GULP energy -122566.984657 kJ/mol
# GULP energy per Si atom -5571.226575 kJ/mol
# Density = 1.915776 g / cm^3
# Si number density = 19.201463 Si / 1000 Ang^3
#
#
#
# Elastic Constant Matrix: (Units=GPa)
#
#
# Indices 1 2 3 4 5 6 
#
# 1 59.6644 22.2511 47.9723 -0.0014 0.9286 0.0022
# 2 22.2511 30.7542 42.5873 0.0002 3.7366 0.0009
# 3 47.9723 42.5873 171.9873 0.0065 -12.0139 -0.0032
# 4 -0.0014 0.0002 0.0065 22.3347 0.0000 3.4575
# 5 0.9286 3.7366 -12.0139 0.0000 15.8095 -0.0015
# 6 0.0022 0.0009 -0.0032 3.4575 -0.0015 -5.6587
#
#
#
# Elastic Compliance Matrix: (Units=1/GPa)
#
#
# Indices 1 2 3 4 5 6 
#
# 1 0.024447 -0.012015 -0.003956 0.000001 -0.001602 0.000011
# 2 -0.012015 0.064046 -0.014273 0.000000 -0.025278 0.000020
# 3 -0.003956 -0.014273 0.011304 -0.000001 0.012196 -0.000014
# 4 0.000001 0.000000 -0.000001 0.040905 0.000001 0.024993
# 5 -0.001602 -0.025278 0.012196 0.000001 0.078590 -0.000031
# 6 0.000011 0.000020 -0.000014 0.024993 -0.000031 -0.161448
#
#
# Mechanical properties :
#
#
# Convention : Reuss Voigt Hill
#
# Bulk Modulus (GPa) = 25.44017 54.22524 39.83270
# Shear Modulus (GPa) = 38.04209 16.47010 27.25609
#
# Velocity S-wave (km/s) = 4.45590 2.93192 3.77169
# Velocity P-wave (km/s) = 6.30486 6.30579 6.30533
#
# Compressibility (1/GPa) = 0.03930791
#
# Stress axis : x y z
#
# Youngs Moduli (GPa) = 40.90519 15.61389 88.46468
#
# Poissons Ratio (x) = 0.18761 0.34993
# Poissons Ratio (y) = 0.49149 1.26267
# Poissons Ratio (z) = 0.16180 0.22286
#
# Static dielectric constant tensor:
#      x y z
#    x 1.645470 0.000000 -0.024220 
#    y 0.000000 1.672910 0.000000 
#    z -0.024220 0.000000 1.704680 
# 
# From -- ./inp_files/382577.got.cif
#   From: 2010.05.17/outbox.cif.g08.bks.cpg/sg12_192_cif.got.tgz:382577.got - 2010.06.03 13:09:07.
