data_PCOD9170796
_publ_section_title
;
Structure prediction by ZEFSAII (Michael W. Deem and Ramdas Pophale) SiO2 
 PCOD9170796
Probable space group: C 2/M
;
_chemical_formula_sum "Si O2"
_cell_formula_units_Z 44
_cell_length_a 18.786466
_cell_length_b 16.208602
_cell_length_c 11.132380
_cell_angle_alpha 90.000000
_cell_angle_beta 49.343524
_cell_angle_gamma 90.000000
_cell_volume 2571.629412
_symmetry_space_group_name_H-M "C 2/M"
_symmetry_group_IT_number 12
_symmetry_cell_setting 'monoclinic'
loop_
_space_group_symop_operation_xyz
x,y,z
-x,y,-z
-x,-y,-z
x,-y,z
1/2+x,1/2+y,z
1/2-x,1/2+y,-z
1/2-x,1/2-y,-z
1/2+x,1/2-y,z
loop_
_atom_site_type_symbol
_atom_site_label
_atom_site_fract_x
_atom_site_fract_y
_atom_site_fract_z
Si Si1 0.893254 0.134598 0.845739
Si Si2 0.211636 0.000000 0.492672
Si Si3 0.287724 0.901721 0.813127
Si Si4 0.028799 0.692672 0.328846
Si Si5 0.981498 0.000000 0.161401
Si Si6 0.648348 0.906475 0.522077
Si Si7 0.111083 0.000000 0.348516
O O1 0.936696 0.221538 0.762617
O O2 0.968294 0.079078 0.834837
O O3 0.868981 0.080461 0.754218
O O4 0.800463 0.141695 0.028410
O O5 0.278241 0.921987 0.451490
O O6 0.168666 0.000000 0.408320
O O7 0.126758 0.000000 0.681380
O O8 0.384466 0.870928 0.765311
O O9 0.297569 0.883741 0.660137
O O10 0.274785 0.000000 0.841972
O O11 0.000000 0.704496 0.500000
O O12 0.937745 0.654406 0.364655
O O13 0.000000 0.000000 0.000000
O O14 0.609748 0.000000 0.540738
O O15 0.000000 0.000000 0.500000
#
# Coordination Sequence:
#
# PCOD9170796 Si02
#       7
#     8   4   8   8   4   8   4
#     4  11  21  34  57  83 114 142 191 231 281 333
#     4  10  19  35  59  77 110 145 193 232 266 343
#     4  10  17  34  58  87 111 147 192 231 275 327
#     4  10  20  33  58  86 119 146 181 236 279 338
#     4  11  21  36  59  77 107 147 186 238 278 326
#     4   8  18  35  59  85 108 147 189 230 282 324
#     4  11  20  36  55  79 106 158 185 221 280 340
#
# _framework density 17.109774999999999
#
# number of rings (size 3 to 8) (size 9 to 14) (size 15 to 20)
#    0.545    1.455    3.636    2.727    0.000    2.182 
#    0.000    0.909    8.000    1.091    0.000    0.000 
#    0.000    0.000    0.000    0.000    0.000    0.000 
#
# Total GULP energy -122631.226221 kJ/mol
# GULP energy per Si atom -5574.146646 kJ/mol
# Density = 1.707083 g / cm^3
# Si number density = 17.109775 Si / 1000 Ang^3
#
#
#
# Elastic Constant Matrix: (Units=GPa)
#
#
# Indices 1 2 3 4 5 6 
#
# 1 126.0498 37.0652 32.6390 0.0000 -2.3286 0.0000
# 2 37.0652 58.4068 48.2257 0.0000 -4.9722 0.0000
# 3 32.6390 48.2257 73.6095 0.0000 -19.8739 0.0000
# 4 0.0000 0.0000 0.0000 26.1817 0.0000 -6.4189
# 5 -2.3286 -4.9722 -19.8739 0.0000 27.1341 0.0000
# 6 0.0000 0.0000 0.0000 -6.4189 0.0000 5.1028
#
#
#
# Elastic Compliance Matrix: (Units=1/GPa)
#
#
# Indices 1 2 3 4 5 6 
#
# 1 0.009781 -0.005451 -0.001008 0.000000 -0.000898 0.000000
# 2 -0.005451 0.044992 -0.031112 0.000000 -0.015011 0.000000
# 3 -0.001008 -0.031112 0.040951 0.000000 0.024206 0.000000
# 4 0.000000 0.000000 0.000000 0.055227 0.000000 0.069472
# 5 -0.000898 -0.015011 0.024206 0.000000 0.051756 0.000000
# 6 0.000000 0.000000 0.000000 0.069472 0.000000 0.283364
#
#
# Mechanical properties :
#
#
# Convention : Reuss Voigt Hill
#
# Bulk Modulus (GPa) = 48.58918 54.88066 51.73492
# Shear Modulus (GPa) = 8.80169 21.02611 14.91390
#
# Velocity S-wave (km/s) = 2.27055 3.50936 2.95559
# Velocity P-wave (km/s) = 5.94424 6.96894 6.47689
#
# Compressibility (1/GPa) = 0.02058071
#
# Stress axis : x y z
#
# Youngs Moduli (GPa) = 102.24252 22.22634 24.41944
#
# Poissons Ratio (x) = 0.12116 0.02461
# Poissons Ratio (y) = 0.55733 0.75975
# Poissons Ratio (z) = 0.10305 0.69151
#
# Static dielectric constant tensor:
#      x y z
#    x 1.581700 0.000000 -0.002620 
#    y 0.000000 1.571680 0.000000 
#    z -0.002620 0.000000 1.574600 
# 
# From -- ./inp_files/167071.got.cif
#   From: 2010.05.17/outbox.cif.g08.bks.cpg/sg12_84_cif.got.tgz:167071.got - 2010.06.03 13:09:07.
