data_PCOD9170393
_publ_section_title
;
Structure prediction by ZEFSAII (Michael W. Deem and Ramdas Pophale) SiO2 
 PCOD9170393
Probable space group: C 2/M
;
_chemical_formula_sum "Si O2"
_cell_formula_units_Z 48
_cell_length_a 20.290057
_cell_length_b 17.976771
_cell_length_c 13.412769
_cell_angle_alpha 90.000000
_cell_angle_beta 145.925864
_cell_angle_gamma 90.000000
_cell_volume 2740.987156
_symmetry_space_group_name_H-M "C 2/M"
_symmetry_group_IT_number 12
_symmetry_cell_setting 'monoclinic'
loop_
_space_group_symop_operation_xyz
x,y,z
-x,y,-z
-x,-y,-z
x,-y,z
1/2+x,1/2+y,z
1/2-x,1/2+y,-z
1/2-x,1/2-y,-z
1/2+x,1/2-y,z
loop_
_atom_site_type_symbol
_atom_site_label
_atom_site_fract_x
_atom_site_fract_y
_atom_site_fract_z
Si Si1 0.171596 0.083348 0.662932
Si Si2 0.483616 0.188504 0.741032
Si Si3 0.609350 0.253918 0.571095
Si Si4 0.294481 0.913844 0.034322
Si Si5 0.109449 0.582579 0.212348
Si Si6 0.304830 0.709710 0.970364
O O1 0.096731 0.156689 0.547646
O O2 0.276464 0.087780 0.713866
O O3 0.119203 0.000000 0.589180
O O4 0.226246 0.091212 0.842544
O O5 0.402206 0.216333 0.549892
O O6 0.582062 0.129333 0.825804
O O7 0.409479 0.147896 0.733055
O O8 0.564171 0.258467 0.876614
O O9 0.500000 0.226314 0.500000
O O10 0.727152 0.233717 0.778666
O O11 0.217527 0.874957 0.024640
O O12 0.315346 0.000000 0.081037
O O13 0.108182 0.500000 0.258767
O O14 0.000000 0.585554 0.000000
O O15 0.250000 0.750000 0.000000
#
# Coordination Sequence:
#
# PCOD9170393 Si02
#       6
#     8   8   8   8   8   8
#     4  10  20  33  52  78 105 131 173 220 259 306
#     4  11  20  32  53  76 107 139 171 213 261 311
#     4  12  20  33  53  76 109 142 169 211 266 311
#     4  10  17  31  53  76 102 133 168 213 262 301
#     4  10  18  32  54  78 103 135 173 221 267 301
#     4  10  18  34  49  75 106 140 170 212 255 315
#
# _framework density 17.511939000000002
#
# number of rings (size 3 to 8) (size 9 to 14) (size 15 to 20)
#    0.000    1.500    8.333    0.500    0.000    1.000 
#    0.000    3.333    0.000    0.000    0.000    0.000 
#    0.000    5.333    0.000    0.000    0.000    0.000 
#
# Total GULP energy -133812.267874 kJ/mol
# GULP energy per Si atom -5575.511161 kJ/mol
# Density = 1.747208 g / cm^3
# Si number density = 17.511939 Si / 1000 Ang^3
#
#
#
# Elastic Constant Matrix: (Units=GPa)
#
#
# Indices 1 2 3 4 5 6 
#
# 1 66.7128 26.5042 17.7658 0.0000 -4.1313 0.0000
# 2 26.5042 105.0511 21.0571 0.0000 -16.4214 0.0000
# 3 17.7658 21.0571 72.8261 0.0000 -18.8199 0.0000
# 4 0.0000 0.0000 0.0000 25.6569 0.0000 -5.7931
# 5 -4.1313 -16.4214 -18.8199 0.0000 15.6734 0.0000
# 6 0.0000 0.0000 0.0000 -5.7931 0.0000 34.0991
#
#
#
# Elastic Compliance Matrix: (Units=1/GPa)
#
#
# Indices 1 2 3 4 5 6 
#
# 1 0.017565 -0.004368 -0.004362 0.000000 -0.005183 0.000000
# 2 -0.004368 0.012474 0.000781 0.000000 0.012856 0.000000
# 3 -0.004362 0.000781 0.021000 0.000000 0.024885 0.000000
# 4 0.000000 0.000000 0.000000 0.040531 0.000000 0.006886
# 5 -0.005183 0.012856 0.024885 0.000000 0.105786 0.000000
# 6 0.000000 0.000000 0.000000 0.006886 0.000000 0.030496
#
#
# Mechanical properties :
#
#
# Convention : Reuss Voigt Hill
#
# Bulk Modulus (GPa) = 28.45510 41.69379 35.07445
# Shear Modulus (GPa) = 19.57227 27.03675 23.30451
#
# Velocity S-wave (km/s) = 3.34676 3.93352 3.65194
# Velocity P-wave (km/s) = 5.58736 6.67012 6.15261
#
# Compressibility (1/GPa) = 0.03514308
#
# Stress axis : x y z
#
# Youngs Moduli (GPa) = 56.93017 80.16537 47.61837
#
# Poissons Ratio (x) = 0.35014 0.20770
# Poissons Ratio (y) = 0.24865 -0.03719
# Poissons Ratio (z) = 0.24831 -0.06260
#
# Static dielectric constant tensor:
#      x y z
#    x 1.553010 0.000000 0.008130 
#    y 0.000000 1.657240 0.000000 
#    z 0.008130 0.000000 1.591480 
# 
# From -- ./inp_files/144966.got.cif
#   From: 2010.05.17/outbox.cif.g08.bks.cpg/sg12_73_cif.got.tgz:144966.got - 2010.06.03 13:09:07.
