data_PCOD9170544
_publ_section_title
;
Structure prediction by ZEFSAII (Michael W. Deem and Ramdas Pophale) SiO2 
 PCOD9170544
Probable space group: C 2/M
;
_chemical_formula_sum "Si O2"
_cell_formula_units_Z 44
_cell_length_a 16.746525
_cell_length_b 18.296189
_cell_length_c 15.956994
_cell_angle_alpha 90.000000
_cell_angle_beta 148.394135
_cell_angle_gamma 90.000000
_cell_volume 2562.289997
_symmetry_space_group_name_H-M "C 2/M"
_symmetry_group_IT_number 12
_symmetry_cell_setting 'monoclinic'
loop_
_space_group_symop_operation_xyz
x,y,z
-x,y,-z
-x,-y,-z
x,-y,z
1/2+x,1/2+y,z
1/2-x,1/2+y,-z
1/2-x,1/2-y,-z
1/2+x,1/2-y,z
loop_
_atom_site_type_symbol
_atom_site_label
_atom_site_fract_x
_atom_site_fract_y
_atom_site_fract_z
Si Si1 0.890524 0.220461 0.180444
Si Si2 0.658865 0.226379 0.302963
Si Si3 0.036661 0.678907 0.437630
Si Si4 0.420346 0.916404 0.681702
Si Si5 0.000000 0.333649 0.000000
Si Si6 0.712397 0.916103 0.064206
O O1 0.850582 0.137530 0.166415
O O2 0.042534 0.233571 0.262354
O O3 0.909046 0.269585 0.280156
O O4 0.750000 0.250000 0.000000
O O5 0.810929 0.272117 0.428747
O O6 0.680797 0.145225 0.362173
O O7 0.575799 0.214167 0.140400
O O8 0.058483 0.610881 0.394329
O O9 0.000000 0.659285 0.500000
O O10 0.367384 0.000000 0.640470
O O11 0.583654 0.911841 0.875759
O O12 0.126343 0.384217 0.068584
O O13 0.755860 0.000000 0.113813
#
# Coordination Sequence:
#
# PCOD9170544 Si02
#       6
#     8   8   8   8   4   8
#     4  11  18  36  55  76 108 142 180 214 261 316
#     4  10  21  34  56  80 107 139 181 219 264 319
#     4  11  22  35  55  82 109 138 179 226 265 312
#     4   9  18  34  54  76 105 142 180 215 259 317
#     4  10  17  32  54  80 109 140 176 216 265 318
#     4  10  19  31  53  81 109 140 175 216 263 319
#
# _framework density 17.172139000000001
#
# number of rings (size 3 to 8) (size 9 to 14) (size 15 to 20)
#    0.000    1.818    5.455    3.545    0.000    1.091 
#    0.000    3.636    0.000    2.182    0.000    3.818 
#    0.000    0.000    0.000    0.000    0.000    0.000 
#
# Total GULP energy -122716.269632 kJ/mol
# GULP energy per Si atom -5578.012256 kJ/mol
# Density = 1.713305 g / cm^3
# Si number density = 17.172139 Si / 1000 Ang^3
#
#
#
# Elastic Constant Matrix: (Units=GPa)
#
#
# Indices 1 2 3 4 5 6 
#
# 1 85.5956 34.6709 20.6412 -0.0003 -21.3324 -0.0001
# 2 34.6709 97.8859 5.9013 0.0000 5.4154 0.0000
# 3 20.6412 5.9013 38.7891 -0.0003 -18.5385 -0.0001
# 4 -0.0003 0.0000 -0.0003 18.2750 -0.0004 1.4592
# 5 -21.3324 5.4154 -18.5385 -0.0004 32.8362 -0.0002
# 6 -0.0001 0.0000 -0.0001 1.4592 -0.0002 17.2041
#
#
#
# Elastic Compliance Matrix: (Units=1/GPa)
#
#
# Indices 1 2 3 4 5 6 
#
# 1 0.017932 -0.006755 -0.003307 0.000000 0.010897 0.000000
# 2 -0.006755 0.013165 -0.002114 0.000000 -0.007753 0.000000
# 3 -0.003307 -0.002114 0.036980 0.000001 0.019078 0.000000
# 4 0.000000 0.000000 0.000001 0.055093 0.000002 -0.004673
# 5 0.010897 -0.007753 0.019078 0.000002 0.049583 0.000001
# 6 0.000000 0.000000 0.000000 -0.004673 0.000001 0.058522
#
#
# Mechanical properties :
#
#
# Convention : Reuss Voigt Hill
#
# Bulk Modulus (GPa) = 22.86970 38.29971 30.58471
# Shear Modulus (GPa) = 18.50475 24.40020 21.45248
#
# Velocity S-wave (km/s) = 3.28625 3.77360 3.53832
# Velocity P-wave (km/s) = 5.26745 6.42950 5.87727
#
# Compressibility (1/GPa) = 0.04372597
#
# Stress axis : x y z
#
# Youngs Moduli (GPa) = 55.76559 75.95929 27.04193
#
# Poissons Ratio (x) = 0.51311 0.08942
# Poissons Ratio (y) = 0.37670 0.05716
# Poissons Ratio (z) = 0.18440 0.16055
#
# Static dielectric constant tensor:
#      x y z
#    x 1.581490 0.000000 -0.009870 
#    y 0.000000 1.580140 0.000000 
#    z -0.009870 0.000000 1.598620 
# 
# From -- ./inp_files/226626.got.cif
#   From: 2010.05.17/outbox.cif.g08.bks.cpg/sg12_114_cif.got.tgz:226626.got - 2010.06.03 13:09:07.
