data_PCOD9170280
_publ_section_title
;
Structure prediction by ZEFSAII (Michael W. Deem and Ramdas Pophale) SiO2 
 PCOD9170280
Probable space group: C 2/M
;
_chemical_formula_sum "Si O2"
_cell_formula_units_Z 40
_cell_length_a 17.493240
_cell_length_b 13.954589
_cell_length_c 8.055188
_cell_angle_alpha 90.000000
_cell_angle_beta 115.108377
_cell_angle_gamma 90.000000
_cell_volume 1780.552102
_symmetry_space_group_name_H-M "C 2/M"
_symmetry_group_IT_number 12
_symmetry_cell_setting 'monoclinic'
loop_
_space_group_symop_operation_xyz
x,y,z
-x,y,-z
-x,-y,-z
x,-y,z
1/2+x,1/2+y,z
1/2-x,1/2+y,-z
1/2-x,1/2-y,-z
1/2+x,1/2-y,z
loop_
_atom_site_type_symbol
_atom_site_label
_atom_site_fract_x
_atom_site_fract_y
_atom_site_fract_z
Si Si1 0.083430 0.831253 0.002358
Si Si2 0.609362 0.000000 0.202313
Si Si3 0.194970 0.000000 0.087371
Si Si4 0.844347 0.791064 0.572892
Si Si5 0.608722 0.000000 0.803219
Si Si6 0.992825 0.333090 0.708868
Si Si7 0.301627 0.500000 0.508364
O O1 0.146489 0.906261 0.977641
O O2 0.128457 0.793449 0.208926
O O3 0.049199 0.744679 0.859805
O O4 0.000000 0.882656 0.000000
O O5 0.606236 0.000000 0.001380
O O6 0.561272 0.093418 0.226361
O O7 0.704462 0.000000 0.360033
O O8 0.189279 0.000000 0.282874
O O9 0.293486 0.000000 0.146558
O O10 0.750000 0.750000 0.500000
O O11 0.841390 0.898145 0.495427
O O12 0.918045 0.728836 0.554703
O O13 0.559726 0.093040 0.691743
#
# Coordination Sequence:
#
# PCOD9170280 Si02
#       7
#     8   4   4   8   4   8   4
#     4   9  18  34  57  82 105 143 191 232 264 324
#     4  11  18  34  58  83 106 140 194 233 260 325
#     4  10  22  37  53  84 119 143 179 226 291 333
#     4  10  17  30  54  83 107 137 177 234 271 315
#     4  11  22  35  56  82 114 150 179 232 281 330
#     4  10  20  34  56  82 109 145 196 230 266 320
#     4  10  21  32  57  85 110 137 188 234 271 322
#
# _framework density 22.464943999999999
#
# number of rings (size 3 to 8) (size 9 to 14) (size 15 to 20)
#    0.000    2.000    2.000    5.100    0.000    3.200 
#    0.000    2.000    0.000    0.000    0.000   16.800 
#    0.000    0.000    0.000    0.000    0.000    0.000 
#
# Total GULP energy -111641.733074 kJ/mol
# GULP energy per Si atom -5582.086654 kJ/mol
# Density = 2.241381 g / cm^3
# Si number density = 22.464944 Si / 1000 Ang^3
#
#
#
# Elastic Constant Matrix: (Units=GPa)
#
#
# Indices 1 2 3 4 5 6 
#
# 1 87.2452 76.8220 30.2778 0.0000 48.5586 0.0000
# 2 76.8220 213.6672 61.8648 0.0000 42.8205 0.0000
# 3 30.2778 61.8648 122.6631 0.0000 41.2029 0.0000
# 4 0.0000 0.0000 0.0000 33.3362 0.0000 5.5499
# 5 48.5586 42.8205 41.2029 0.0000 51.2619 0.0000
# 6 0.0000 0.0000 0.0000 5.5499 0.0000 6.4337
#
#
#
# Elastic Compliance Matrix: (Units=1/GPa)
#
#
# Indices 1 2 3 4 5 6 
#
# 1 0.031802 -0.007307 0.005348 0.000000 -0.028320 0.000000
# 2 -0.007307 0.007579 -0.003037 0.000000 0.003032 0.000000
# 3 0.005348 -0.003037 0.012621 0.000000 -0.012674 0.000000
# 4 0.000000 0.000000 0.000000 0.035028 0.000000 -0.030216
# 5 -0.028320 0.003032 -0.012674 0.000000 0.053988 0.000000
# 6 0.000000 0.000000 0.000000 -0.030216 0.000000 0.181497
#
#
# Mechanical properties :
#
#
# Convention : Reuss Voigt Hill
#
# Bulk Modulus (GPa) = 23.80382 84.61163 54.20772
# Shear Modulus (GPa) = 14.42952 35.18042 24.80497
#
# Velocity S-wave (km/s) = 2.53714 3.96158 3.32650
# Velocity P-wave (km/s) = 4.38198 7.65971 6.23991
#
# Compressibility (1/GPa) = 0.04201006
#
# Stress axis : x y z
#
# Youngs Moduli (GPa) = 31.44423 131.94052 79.23149
#
# Poissons Ratio (x) = 0.96411 -0.42374
# Poissons Ratio (y) = 0.22977 0.24065
# Poissons Ratio (z) = -0.16817 0.40075
#
# Static dielectric constant tensor:
#      x y z
#    x 1.927570 0.000000 -0.032540 
#    y 0.000000 1.881030 0.000000 
#    z -0.032540 0.000000 1.851610 
# 
# From -- ./inp_files/154707.got.cif
#   From: 2010.05.17/outbox.cif.g08.bks.cpg/sg12_78_cif.got.tgz:154707.got - 2010.06.03 13:09:07.
