data_PCOD9170321
_publ_section_title
;
Structure prediction by ZEFSAII (Michael W. Deem and Ramdas Pophale) SiO2 
 PCOD9170321
Probable space group: C 2/M
;
_chemical_formula_sum "Si O2"
_cell_formula_units_Z 56
_cell_length_a 28.052477
_cell_length_b 8.190099
_cell_length_c 12.060880
_cell_angle_alpha 90.000000
_cell_angle_beta 59.948984
_cell_angle_gamma 90.000000
_cell_volume 2398.537466
_symmetry_space_group_name_H-M "C 2/M"
_symmetry_group_IT_number 12
_symmetry_cell_setting 'monoclinic'
loop_
_space_group_symop_operation_xyz
x,y,z
-x,y,-z
-x,-y,-z
x,-y,z
1/2+x,1/2+y,z
1/2-x,1/2+y,-z
1/2-x,1/2-y,-z
1/2+x,1/2-y,z
loop_
_atom_site_type_symbol
_atom_site_label
_atom_site_fract_x
_atom_site_fract_y
_atom_site_fract_z
Si Si1 0.561726 0.183859 0.436605
Si Si2 0.795111 0.312443 0.609030
Si Si3 0.896609 0.253538 0.371937
Si Si4 0.320302 0.184142 0.258780
Si Si5 0.626790 0.803659 0.029148
Si Si6 0.998285 0.302076 0.868647
Si Si7 0.668401 0.685464 0.208366
O O1 0.500000 0.244541 0.500000
O O2 0.577474 0.170848 0.546984
O O3 0.605702 0.295967 0.325318
O O4 0.564709 0.000000 0.383893
O O5 0.811321 0.500000 0.564655
O O6 0.839821 0.192895 0.499260
O O7 0.733249 0.282915 0.643945
O O8 0.798294 0.285935 0.737928
O O9 0.866490 0.325051 0.298952
O O10 0.953464 0.198896 0.246579
O O11 0.300736 0.000000 0.258559
O O12 0.347254 0.254815 0.116499
O O13 0.562183 0.757047 0.106805
O O14 0.663740 0.748736 0.089091
O O15 0.626435 0.000000 0.026166
O O16 0.007643 0.500000 0.837213
O O17 0.000000 0.282018 0.000000
O O18 0.687471 0.500000 0.188247
#
# Coordination Sequence:
#
# PCOD9170321 Si02
#       7
#     8   8   8   8   8   8   8
#     4  10  20  36  61  92 127 165 207 254 301 358
#     4  11  24  41  62  87 121 162 207 256 306 365
#     4  11  20  35  60  93 128 159 198 250 305 362
#     4  11  22  38  61  91 124 159 203 253 306 367
#     4  10  21  37  62  93 125 160 201 251 308 369
#     4  10  17  30  57  93 125 154 192 240 295 357
#     4  11  23  40  61  86 120 161 208 258 309 366
#
# _framework density 23.347559
#
# number of rings (size 3 to 8) (size 9 to 14) (size 15 to 20)
#    0.000    1.429    1.429    6.429    0.000    3.714 
#    0.000    2.857    0.000    2.143    0.000    0.000 
#    0.000    0.000    0.000    0.000    0.000    0.000 
#
# Total GULP energy -156059.019422 kJ/mol
# GULP energy per Si atom -5573.536408 kJ/mol
# Density = 2.329442 g / cm^3
# Si number density = 23.347559 Si / 1000 Ang^3
#
#
#
# Elastic Constant Matrix: (Units=GPa)
#
#
# Indices 1 2 3 4 5 6 
#
# 1 102.5196 5.9554 39.0428 0.0000 -5.9898 0.0000
# 2 5.9554 38.0576 11.7771 0.0000 -7.2388 0.0000
# 3 39.0428 11.7771 122.8726 0.0000 15.9382 0.0000
# 4 0.0000 0.0000 0.0000 12.4231 0.0000 -2.3749
# 5 -5.9898 -7.2388 15.9382 0.0000 41.8861 0.0000
# 6 0.0000 0.0000 0.0000 -2.3749 0.0000 1.9142
#
#
#
# Elastic Compliance Matrix: (Units=1/GPa)
#
#
# Indices 1 2 3 4 5 6 
#
# 1 0.011489 0.000072 -0.004073 0.000000 0.003205 0.000000
# 2 0.000072 0.028573 -0.003580 0.000000 0.006311 0.000000
# 3 -0.004073 -0.003580 0.010447 0.000000 -0.005177 0.000000
# 4 0.000000 0.000000 0.000000 0.105523 0.000000 0.130920
# 5 0.003205 0.006311 -0.005177 0.000000 0.027393 0.000000
# 6 0.000000 0.000000 0.000000 0.130920 0.000000 0.684830
#
#
# Mechanical properties :
#
#
# Convention : Reuss Voigt Hill
#
# Bulk Modulus (GPa) = 28.29122 41.88895 35.09008
# Shear Modulus (GPa) = 5.58535 25.02300 15.30417
#
# Velocity S-wave (km/s) = 1.54837 3.27733 2.56304
# Velocity P-wave (km/s) = 3.91667 5.68345 4.88067
#
# Compressibility (1/GPa) = 0.03534666
#
# Stress axis : x y z
#
# Youngs Moduli (GPa) = 87.04354 34.99827 95.71769
#
# Poissons Ratio (x) = -0.00253 0.38988
# Poissons Ratio (y) = -0.00630 0.34269
# Poissons Ratio (z) = 0.35454 0.12530
#
# Static dielectric constant tensor:
#      x y z
#    x 1.840390 0.000000 -0.005710 
#    y 0.000000 1.878700 0.000000 
#    z -0.005710 0.000000 1.894270 
# 
# From -- ./inp_files/187163.got.cif
#   From: 2010.05.17/outbox.cif.g08.bks.cpg/sg12_94_cif.got.tgz:187163.got - 2010.06.03 13:09:07.
