data_PCOD9170029
_publ_section_title
;
Structure prediction by ZEFSAII (Michael W. Deem and Ramdas Pophale) SiO2 
 PCOD9170029
Probable space group: C 2/M
;
_chemical_formula_sum "Si O2"
_cell_formula_units_Z 36
_cell_length_a 14.203557
_cell_length_b 19.091051
_cell_length_c 22.669816
_cell_angle_alpha 90.000000
_cell_angle_beta 21.474442
_cell_angle_gamma 90.000000
_cell_volume 2250.392436
_symmetry_space_group_name_H-M "C 2/M"
_symmetry_group_IT_number 12
_symmetry_cell_setting 'monoclinic'
loop_
_space_group_symop_operation_xyz
x,y,z
-x,y,-z
-x,-y,-z
x,-y,z
1/2+x,1/2+y,z
1/2-x,1/2+y,-z
1/2-x,1/2-y,-z
1/2+x,1/2-y,z
loop_
_atom_site_type_symbol
_atom_site_label
_atom_site_fract_x
_atom_site_fract_y
_atom_site_fract_z
Si Si1 0.677894 0.787018 0.448752
Si Si2 0.125164 0.298802 0.123027
Si Si3 0.735782 0.581819 0.316713
Si Si4 0.556178 0.324944 0.323534
Si Si5 0.500000 0.737882 0.000000
O O1 0.500000 0.817241 0.500000
O O2 0.527382 0.730214 0.576604
O O3 0.901694 0.745836 0.284378
O O4 0.825431 0.834251 0.411067
O O5 0.981993 0.368969 0.185826
O O6 0.250000 0.250000 0.000000
O O7 0.346710 0.308567 0.042331
O O8 0.500000 0.595896 0.500000
O O9 0.797349 0.500000 0.284340
O O10 0.635168 0.605221 0.311268
O O11 0.795425 0.288068 0.151761
#
# Coordination Sequence:
#
# PCOD9170029 Si02
#       5
#     8   8   8   8   4
#     4  10  17  29  51  77 106 127 173 228 260 299
#     4  11  18  32  52  78 106 132 178 222 262 303
#     4  11  21  36  55  77 109 143 174 212 267 324
#     4  10  18  31  49  79 105 134 172 217 267 304
#     4  10  20  28  54  80 104 130 172 230 260 302
#
# _framework density 15.997210000000001
#
# number of rings (size 3 to 8) (size 9 to 14) (size 15 to 20)
#    0.000    1.556    6.667    0.000    0.000    0.000 
#    0.000    1.111    0.000    0.667    0.000    0.000 
#    0.000    0.889    0.000    0.000    0.000    0.000 
#
# Total GULP energy -100244.042618 kJ/mol
# GULP energy per Si atom -5569.113479 kJ/mol
# Density = 1.596080 g / cm^3
# Si number density = 15.997210 Si / 1000 Ang^3
#
#
#
# Elastic Constant Matrix: (Units=GPa)
#
#
# Indices 1 2 3 4 5 6 
#
# 1 153.7445 49.6662 38.5700 -0.0082 -28.2732 -0.0129
# 2 49.6662 83.0798 35.1517 -0.2088 -7.0112 -0.0528
# 3 38.5700 35.1517 97.2336 -0.2011 10.0776 -0.0532
# 4 -0.0082 -0.2088 -0.2011 19.5808 -0.0058 -3.6974
# 5 -28.2732 -7.0112 10.0776 -0.0058 40.1482 0.0467
# 6 -0.0129 -0.0528 -0.0532 -3.6974 0.0467 19.5004
#
#
#
# Elastic Compliance Matrix: (Units=1/GPa)
#
#
# Indices 1 2 3 4 5 6 
#
# 1 0.009895 -0.003950 -0.003232 -0.000078 0.007090 -0.000045
# 2 -0.003950 0.016398 -0.004487 0.000137 0.001208 0.000053
# 3 -0.003232 -0.004487 0.013867 0.000102 -0.006540 0.000059
# 4 -0.000078 0.000137 0.000102 0.052969 -0.000060 0.010044
# 5 0.007090 0.001208 -0.006540 -0.000060 0.031753 -0.000097
# 6 -0.000045 0.000053 0.000059 0.010044 -0.000097 0.053186
#
#
# Mechanical properties :
#
#
# Convention : Reuss Voigt Hill
#
# Bulk Modulus (GPa) = 59.44134 64.53707 61.98921
# Shear Modulus (GPa) = 24.15308 29.89055 27.02181
#
# Velocity S-wave (km/s) = 3.88987 4.32729 4.11440
# Velocity P-wave (km/s) = 7.57712 8.08687 7.83614
#
# Compressibility (1/GPa) = 0.01682331
#
# Stress axis : x y z
#
# Youngs Moduli (GPa) = 101.06290 60.98160 72.11528
#
# Poissons Ratio (x) = 0.24085 0.23309
# Poissons Ratio (y) = 0.39916 0.32355
# Poissons Ratio (z) = 0.32665 0.27360
#
# Static dielectric constant tensor:
#      x y z
#    x 1.601850 0.000020 -0.016590 
#    y 0.000020 1.497660 0.000000 
#    z -0.016590 0.000000 1.551350 
# 
# From -- ./inp_files/60749.got.cif
#   From: 2010.05.17/outbox.cif.g08.bks.cpg/sg12_31_cif.got.tgz:60749.got - 2010.06.03 13:09:07.
