data_PCOD9170102
_publ_section_title
;
Structure prediction by ZEFSAII (Michael W. Deem and Ramdas Pophale) SiO2 
 PCOD9170102
Probable space group: C 2/M
;
_chemical_formula_sum "Si O2"
_cell_formula_units_Z 56
_cell_length_a 16.675993
_cell_length_b 20.714747
_cell_length_c 12.507356
_cell_angle_alpha 90.000000
_cell_angle_beta 59.969656
_cell_angle_gamma 90.000000
_cell_volume 3740.542615
_symmetry_space_group_name_H-M "C 2/M"
_symmetry_group_IT_number 12
_symmetry_cell_setting 'monoclinic'
loop_
_space_group_symop_operation_xyz
x,y,z
-x,y,-z
-x,-y,-z
x,-y,z
1/2+x,1/2+y,z
1/2-x,1/2+y,-z
1/2-x,1/2-y,-z
1/2+x,1/2-y,z
loop_
_atom_site_type_symbol
_atom_site_label
_atom_site_fract_x
_atom_site_fract_y
_atom_site_fract_z
Si Si1 0.831565 0.269013 0.361220
Si Si2 0.296630 0.364136 0.294394
Si Si3 0.395405 0.422929 0.034431
Si Si4 0.612955 0.424748 0.211224
Si Si5 0.900770 0.305191 0.528884
Si Si6 0.825053 0.832607 0.647965
Si Si7 0.897400 0.927588 0.418251
O O1 0.750000 0.250000 0.500000
O O2 0.850269 0.202919 0.286840
O O3 0.812009 0.349762 0.614949
O O4 0.781271 0.318410 0.315281
O O5 0.405342 0.205761 0.396909
O O6 0.335334 0.414355 0.355415
O O7 0.323657 0.387318 0.159336
O O8 0.387602 0.500000 0.056627
O O9 0.380022 0.410721 0.919472
O O10 0.500000 0.404803 0.000000
O O11 0.641623 0.500000 0.210598
O O12 0.663967 0.372110 0.250394
O O13 0.504448 0.421003 0.314817
O O14 0.877080 0.236645 0.603667
O O15 0.000000 0.329327 0.500000
O O16 0.870134 0.876675 0.526057
O O17 0.882692 0.000000 0.468790
#
# Coordination Sequence:
#
# PCOD9170102 Si02
#       7
#     8   8   8   8   8   8   8
#     4   8  16  30  45  65  90 119 153 187 236 273
#     4  10  17  31  45  68  94 126 157 187 226 277
#     4  10  19  31  46  65  95 133 158 181 224 278
#     4  10  20  28  41  70  98 124 154 182 225 288
#     4  10  18  30  50  69  91 125 155 192 239 272
#     4  10  17  30  45  69  97 122 151 191 236 282
#     4  11  17  25  45  69  96 122 148 184 233 284
#
# _framework density 14.971090999999999
#
# number of rings (size 3 to 8) (size 9 to 14) (size 15 to 20)
#    0.000    2.429    5.714    2.143    0.000    1.143 
#    0.000    2.857    0.000    1.714    0.000    0.000 
#    0.000    2.286    0.000    0.000    0.000    0.000 
#
# Total GULP energy -155879.984719 kJ/mol
# GULP energy per Si atom -5567.142311 kJ/mol
# Density = 1.493702 g / cm^3
# Si number density = 14.971091 Si / 1000 Ang^3
#
#
#
# Elastic Constant Matrix: (Units=GPa)
#
#
# Indices 1 2 3 4 5 6 
#
# 1 70.3934 11.9080 8.3606 0.0000 17.1984 0.0000
# 2 11.9080 38.2631 18.1973 0.0000 6.9261 0.0000
# 3 8.3606 18.1973 62.7055 0.0000 17.1390 0.0000
# 4 0.0000 0.0000 0.0000 28.8838 0.0000 5.3836
# 5 17.1984 6.9261 17.1390 0.0000 19.0659 0.0000
# 6 0.0000 0.0000 0.0000 5.3836 0.0000 18.8469
#
#
#
# Elastic Compliance Matrix: (Units=1/GPa)
#
#
# Indices 1 2 3 4 5 6 
#
# 1 0.019189 -0.004374 0.003987 0.000000 -0.019304 0.000000
# 2 -0.004374 0.031562 -0.008645 0.000000 0.000251 0.000000
# 3 0.003987 -0.008645 0.023929 0.000000 -0.021967 0.000000
# 4 0.000000 0.000000 0.000000 0.036568 0.000000 -0.010446
# 5 -0.019304 0.000251 -0.021967 0.000000 0.089518 0.000000
# 6 0.000000 0.000000 0.000000 -0.010446 0.000000 0.056043
#
#
# Mechanical properties :
#
#
# Convention : Reuss Voigt Hill
#
# Bulk Modulus (GPa) = 17.66259 27.58820 22.62539
# Shear Modulus (GPa) = 17.02167 22.21908 19.62038
#
# Velocity S-wave (km/s) = 3.37556 3.85662 3.62408
# Velocity P-wave (km/s) = 5.19768 6.18862 5.71467
#
# Compressibility (1/GPa) = 0.05661683
#
# Stress axis : x y z
#
# Youngs Moduli (GPa) = 52.11434 31.68382 41.79084
#
# Poissons Ratio (x) = 0.13857 -0.16663
# Poissons Ratio (y) = 0.22793 0.36127
# Poissons Ratio (z) = -0.20779 0.27390
#
# Static dielectric constant tensor:
#      x y z
#    x 1.530610 0.000000 0.036710 
#    y 0.000000 1.520990 0.000000 
#    z 0.036710 0.000000 1.497290 
# 
# From -- ./inp_files/158637.got.cif
#   From: 2010.05.17/outbox.cif.g08.bks.cpg/sg12_80_cif.got.tgz:158637.got - 2010.06.03 13:09:07.
