data_PCOD9170252
_publ_section_title
;
Structure prediction by ZEFSAII (Michael W. Deem and Ramdas Pophale) SiO2 
 PCOD9170252
Probable space group: C 2/M
;
_chemical_formula_sum "Si O2"
_cell_formula_units_Z 56
_cell_length_a 26.013260
_cell_length_b 8.370177
_cell_length_c 15.488747
_cell_angle_alpha 90.000000
_cell_angle_beta 74.505482
_cell_angle_gamma 90.000000
_cell_volume 3249.883159
_symmetry_space_group_name_H-M "C 2/M"
_symmetry_group_IT_number 12
_symmetry_cell_setting 'monoclinic'
loop_
_space_group_symop_operation_xyz
x,y,z
-x,y,-z
-x,-y,-z
x,-y,z
1/2+x,1/2+y,z
1/2-x,1/2+y,-z
1/2-x,1/2-y,-z
1/2+x,1/2-y,z
loop_
_atom_site_type_symbol
_atom_site_label
_atom_site_fract_x
_atom_site_fract_y
_atom_site_fract_z
Si Si1 0.103530 0.193086 0.773935
Si Si2 0.174292 0.690902 0.591386
Si Si3 0.290834 0.309335 0.603667
Si Si4 0.007279 0.195099 0.096516
Si Si5 0.816243 0.805106 0.108847
Si Si6 0.697701 0.809396 0.211549
Si Si7 0.874601 0.807219 0.908300
O O1 0.126366 0.254199 0.673529
O O2 0.144070 0.244454 0.832018
O O3 0.044046 0.246287 0.825555
O O4 0.103965 0.000000 0.772462
O O5 0.175849 0.500000 0.586674
O O6 0.230131 0.747471 0.610311
O O7 0.174677 0.757599 0.494359
O O8 0.289969 0.500000 0.609396
O O9 0.309459 0.241093 0.686286
O O10 0.064503 0.248024 0.106387
O O11 0.007388 0.000000 0.096486
O O12 0.000000 0.243719 0.000000
O O13 0.756177 0.749829 0.154162
O O14 0.815983 0.000000 0.108828
O O15 0.839597 0.752412 0.006383
O O16 0.652949 0.745982 0.167205
O O17 0.698368 0.000000 0.206504
O O18 0.875216 0.000000 0.910513
#
# Coordination Sequence:
#
# PCOD9170252 Si02
#       7
#     8   8   8   8   8   8   8
#     4  10  17  30  53  78 104 135 172 214 256 298
#     4  10  20  33  51  78 107 134 164 206 261 313
#     4  10  20  34  53  76 102 134 171 210 252 305
#     4   9  16  29  53  78  99 132 180 223 253 287
#     4   9  17  29  49  74 103 137 173 211 251 297
#     4  11  21  33  49  74 107 142 172 207 259 312
#     4  10  19  33  51  74 103 139 181 218 250 295
#
# _framework density 17.231389
#
# number of rings (size 3 to 8) (size 9 to 14) (size 15 to 20)
#    0.000    2.143    2.857    1.714    0.000    1.143 
#    0.000    2.143    0.000    1.714    0.000    6.000 
#    0.000    0.000    0.000    0.000    0.000    0.000 
#
# Total GULP energy -156263.694634 kJ/mol
# GULP energy per Si atom -5580.846237 kJ/mol
# Density = 1.719217 g / cm^3
# Si number density = 17.231389 Si / 1000 Ang^3
#
#
#
# Elastic Constant Matrix: (Units=GPa)
#
#
# Indices 1 2 3 4 5 6 
#
# 1 135.8212 17.5010 88.1341 0.0000 6.9900 0.0000
# 2 17.5010 10.9995 8.6492 0.0000 -0.5625 0.0000
# 3 88.1341 8.6492 141.8993 0.0000 -3.2596 0.0000
# 4 0.0000 0.0000 0.0000 18.7646 0.0000 0.7790
# 5 6.9900 -0.5625 -3.2596 0.0000 24.5495 0.0000
# 6 0.0000 0.0000 0.0000 0.7790 0.0000 16.4111
#
#
#
# Elastic Compliance Matrix: (Units=1/GPa)
#
#
# Indices 1 2 3 4 5 6 
#
# 1 0.015775 -0.018481 -0.008811 0.000000 -0.006085 0.000000
# 2 -0.018481 0.117192 0.004532 0.000000 0.008549 0.000000
# 3 -0.008811 0.004532 0.012341 0.000000 0.004251 0.000000
# 4 0.000000 0.000000 0.000000 0.053397 0.000000 -0.002535
# 5 -0.006085 0.008549 0.004251 0.000000 0.043227 0.000000
# 6 0.000000 0.000000 0.000000 -0.002535 0.000000 0.061055
#
#
# Mechanical properties :
#
#
# Convention : Reuss Voigt Hill
#
# Bulk Modulus (GPa) = 10.02129 57.47650 33.74889
# Shear Modulus (GPa) = 13.09690 23.57409 18.33550
#
# Velocity S-wave (km/s) = 2.75991 3.70278 3.26556
# Velocity P-wave (km/s) = 3.99806 7.19089 5.81779
#
# Compressibility (1/GPa) = 0.09978756
#
# Stress axis : x y z
#
# Youngs Moduli (GPa) = 63.39334 8.53298 81.02974
#
# Poissons Ratio (x) = 0.15770 0.71394
# Poissons Ratio (y) = 1.17160 -0.36723
# Poissons Ratio (z) = 0.55855 -0.03867
#
# Static dielectric constant tensor:
#      x y z
#    x 1.573610 0.000000 -0.012600 
#    y 0.000000 1.591640 0.000000 
#    z -0.012600 0.000000 1.566210 
# 
# From -- ./inp_files/237433.got.cif
#   From: 2010.05.17/outbox.cif.g08.bks.cpg/sg12_119_cif.got.tgz:237433.got - 2010.06.03 13:09:07.
