data_PCOD9170267
_publ_section_title
;
Structure prediction by ZEFSAII (Michael W. Deem and Ramdas Pophale) SiO2 
 PCOD9170267
Probable space group: C 2/M
;
_chemical_formula_sum "Si O2"
_cell_formula_units_Z 64
_cell_length_a 12.722567
_cell_length_b 20.790125
_cell_length_c 25.365666
_cell_angle_alpha 90.000000
_cell_angle_beta 144.476211
_cell_angle_gamma 90.000000
_cell_volume 3898.385995
_symmetry_space_group_name_H-M "C 2/M"
_symmetry_group_IT_number 12
_symmetry_cell_setting 'monoclinic'
loop_
_space_group_symop_operation_xyz
x,y,z
-x,y,-z
-x,-y,-z
x,-y,z
1/2+x,1/2+y,z
1/2-x,1/2+y,-z
1/2-x,1/2-y,-z
1/2+x,1/2-y,z
loop_
_atom_site_type_symbol
_atom_site_label
_atom_site_fract_x
_atom_site_fract_y
_atom_site_fract_z
Si Si1 0.948125 0.832868 0.594673
Si Si2 0.046471 0.323438 0.892449
Si Si3 0.716888 0.345067 0.285195
Si Si4 0.377905 0.325994 0.087568
Si Si5 0.037597 0.926070 0.299624
Si Si6 0.669551 0.194200 0.296631
Si Si7 0.673818 0.120670 0.101335
Si Si8 0.589775 0.815036 0.384976
O O1 0.769876 0.841078 0.486631
O O2 0.927554 0.761661 0.611477
O O3 0.966549 0.884410 0.648753
O O4 0.129217 0.830876 0.633643
O O5 0.071616 0.246630 0.906369
O O6 0.965138 0.335102 0.801974
O O7 0.905894 0.345101 0.879649
O O8 0.242144 0.352282 0.987657
O O9 0.565174 0.359567 0.178838
O O10 0.680799 0.392786 0.318650
O O11 0.678116 0.271920 0.290367
O O12 0.913507 0.345741 0.339836
O O13 0.260180 0.330299 0.093658
O O14 0.842177 0.921006 0.190399
O O15 0.079733 0.000000 0.327105
O O16 0.605984 0.178083 0.329065
O O17 0.500000 0.090262 0.000000
#
# Coordination Sequence:
#
# PCOD9170267 Si02
#       8
#     8   8   8   8   8   8   8   8
#     4  10  20  34  52  78 102 132 179 216 273 304
#     4   9  15  25  44  72 102 137 166 203 262 312
#     4   9  19  32  48  75 108 136 171 207 266 311
#     4   8  16  25  42  69 106 139 161 205 260 310
#     4  11  21  36  55  77 109 139 176 220 262 313
#     4  10  17  30  54  76 107 128 171 223 258 316
#     4   9  17  31  48  73 109 138 176 214 254 312
#     4  10  20  33  53  74 104 137 169 224 261 322
#
# _framework density 16.417051000000001
#
# number of rings (size 3 to 8) (size 9 to 14) (size 15 to 20)
#    0.000    2.500    2.500    0.375    0.000    0.750 
#    0.000    1.875    0.000    2.250    0.000    0.000 
#    0.000    3.500    0.000    0.000    0.000    0.000 
#
# Total GULP energy -178153.341717 kJ/mol
# GULP energy per Si atom -5567.291929 kJ/mol
# Density = 1.637969 g / cm^3
# Si number density = 16.417051 Si / 1000 Ang^3
#
#
#
# Elastic Constant Matrix: (Units=GPa)
#
#
# Indices 1 2 3 4 5 6 
#
# 1 101.5259 27.2692 59.2500 0.0000 0.3983 0.0000
# 2 27.2692 48.6017 17.2105 0.0000 1.6294 0.0000
# 3 59.2500 17.2105 105.6341 0.0001 4.3198 0.0001
# 4 0.0000 0.0000 0.0001 6.1996 0.0001 -1.3224
# 5 0.3983 1.6294 4.3198 0.0001 25.1098 0.0000
# 6 0.0000 0.0000 0.0001 -1.3224 0.0000 7.2367
#
#
#
# Elastic Compliance Matrix: (Units=1/GPa)
#
#
# Indices 1 2 3 4 5 6 
#
# 1 0.016316 -0.006307 -0.008188 0.000000 0.001559 0.000000
# 2 -0.006307 0.024290 -0.000362 0.000000 -0.001414 0.000000
# 3 -0.008188 -0.000362 0.014212 0.000000 -0.002292 0.000000
# 4 0.000000 0.000000 0.000000 0.167843 0.000000 0.030670
# 5 0.001559 -0.001414 -0.002292 0.000000 0.040286 0.000000
# 6 0.000000 0.000000 0.000000 0.030670 0.000000 0.143788
#
#
# Mechanical properties :
#
#
# Convention : Reuss Voigt Hill
#
# Bulk Modulus (GPa) = 39.83463 51.46900 45.65182
# Shear Modulus (GPa) = 11.24059 17.84471 14.54265
#
# Velocity S-wave (km/s) = 2.61950 3.30049 2.97951
# Velocity P-wave (km/s) = 5.78497 6.77815 6.30116
#
# Compressibility (1/GPa) = 0.02510379
#
# Stress axis : x y z
#
# Youngs Moduli (GPa) = 61.28939 41.16940 70.36406
#
# Poissons Ratio (x) = 0.25967 0.57612
# Poissons Ratio (y) = 0.38658 0.02546
# Poissons Ratio (z) = 0.50182 0.01490
#
# Static dielectric constant tensor:
#      x y z
#    x 1.528580 0.000000 0.011920 
#    y 0.000000 1.520300 0.000000 
#    z 0.011920 0.000000 1.611180 
# 
# From -- ./inp_files/336693.got.cif
#   From: 2010.05.17/outbox.cif.g08.bks.cpg/sg12_169_cif.got.tgz:336693.got - 2010.06.03 13:09:07.
