data_PCOD9170821
_publ_section_title
;
Structure prediction by ZEFSAII (Michael W. Deem and Ramdas Pophale) SiO2 
 PCOD9170821
Probable space group: C 2/M
;
_chemical_formula_sum "Si O2"
_cell_formula_units_Z 52
_cell_length_a 24.239196
_cell_length_b 23.305663
_cell_length_c 7.359039
_cell_angle_alpha 90.000000
_cell_angle_beta 31.269237
_cell_angle_gamma 90.000000
_cell_volume 2157.836630
_symmetry_space_group_name_H-M "C 2/M"
_symmetry_group_IT_number 12
_symmetry_cell_setting 'monoclinic'
loop_
_space_group_symop_operation_xyz
x,y,z
-x,y,-z
-x,-y,-z
x,-y,z
1/2+x,1/2+y,z
1/2-x,1/2+y,-z
1/2-x,1/2-y,-z
1/2+x,1/2-y,z
loop_
_atom_site_type_symbol
_atom_site_label
_atom_site_fract_x
_atom_site_fract_y
_atom_site_fract_z
Si Si1 0.227427 0.362533 0.175834
Si Si2 0.894261 0.000000 0.033313
Si Si3 0.407601 0.378279 0.133656
Si Si4 0.108321 0.790101 0.122169
Si Si5 0.161569 0.623182 0.973385
Si Si6 0.708991 0.000000 0.815038
Si Si7 0.709381 0.500000 0.029266
Si Si8 0.095566 0.697613 0.863569
O O1 0.323821 0.315654 0.902052
O O2 0.164449 0.352616 0.167124
O O3 0.246561 0.432657 0.131116
O O4 0.170792 0.337700 0.514117
O O5 0.937487 0.056723 0.001909
O O6 0.769745 0.000000 0.452528
O O7 0.888227 0.000000 0.833670
O O8 0.287257 0.372873 0.551741
O O9 0.500000 0.354117 0.000000
O O10 0.412483 0.348112 0.927692
O O11 0.000000 0.764043 0.500000
O O12 0.142390 0.748370 0.859516
O O13 0.140943 0.556068 0.031959
O O14 0.079642 0.651248 0.066669
O O15 0.794666 0.000000 0.740446
O O16 0.000000 0.716121 0.000000
#
# Coordination Sequence:
#
# PCOD9170821 Si02
#       8
#     8   4   8   8   8   4   4   8
#     4  11  23  45  76 102 142 179 225 284 351 406
#     4  10  17  34  61  90 141 183 215 268 334 410
#     4  11  21  39  62 100 141 179 230 275 335 413
#     4  12  26  45  67 100 138 184 231 286 338 407
#     4  10  22  42  72  99 137 179 223 281 350 405
#     4   8  18  35  65 102 134 169 220 279 340 412
#     4  10  18  39  70 106 136 179 217 274 344 424
#     4  12  28  47  69  99 136 186 244 289 338 398
#
# _framework density 24.098209000000001
#
# number of rings (size 3 to 8) (size 9 to 14) (size 15 to 20)
#    0.000    1.231    3.077    3.000    2.154    0.615 
#    0.000    4.615    0.000    2.769    0.000    0.000 
#    0.000    0.000    0.000    0.000    0.000    0.000 
#
# Total GULP energy -144762.052174 kJ/mol
# GULP energy per Si atom -5567.771237 kJ/mol
# Density = 2.404336 g / cm^3
# Si number density = 24.098209 Si / 1000 Ang^3
#
#
#
# Elastic Constant Matrix: (Units=GPa)
#
#
# Indices 1 2 3 4 5 6 
#
# 1 99.6524 25.9559 16.3553 0.0000 12.1958 0.0000
# 2 25.9559 105.2734 20.3500 0.0000 9.8133 0.0000
# 3 16.3553 20.3500 75.2147 0.0000 1.1326 0.0000
# 4 0.0000 0.0000 0.0000 16.5148 0.0000 1.6658
# 5 12.1958 9.8133 1.1326 0.0000 20.3245 0.0000
# 6 0.0000 0.0000 0.0000 1.6658 0.0000 19.8773
#
#
#
# Elastic Compliance Matrix: (Units=1/GPa)
#
#
# Indices 1 2 3 4 5 6 
#
# 1 0.011574 -0.001935 -0.001904 0.000000 -0.005905 0.000000
# 2 -0.001935 0.010815 -0.002446 0.000000 -0.003924 0.000000
# 3 -0.001904 -0.002446 0.014348 0.000000 0.001524 0.000000
# 4 0.000000 0.000000 0.000000 0.061068 0.000000 -0.005118
# 5 -0.005905 -0.003924 0.001524 0.000000 0.054555 0.000000
# 6 0.000000 0.000000 0.000000 -0.005118 0.000000 0.050737
#
#
# Mechanical properties :
#
#
# Convention : Reuss Voigt Hill
#
# Bulk Modulus (GPa) = 41.38050 45.05146 43.21598
# Shear Modulus (GPa) = 22.34899 25.84193 24.09546
#
# Velocity S-wave (km/s) = 3.04865 3.27824 3.16553
# Velocity P-wave (km/s) = 5.44070 5.75019 5.59759
#
# Compressibility (1/GPa) = 0.02416597
#
# Stress axis : x y z
#
# Youngs Moduli (GPa) = 86.39992 92.46522 69.69501
#
# Poissons Ratio (x) = 0.17893 0.13272
# Poissons Ratio (y) = 0.16720 0.17049
# Poissons Ratio (z) = 0.16453 0.22619
#
# Static dielectric constant tensor:
#      x y z
#    x 1.879660 0.000000 -0.061980 
#    y 0.000000 1.993250 0.000000 
#    z -0.061980 0.000000 2.091610 
# 
# From -- ./inp_files/90609.got.cif
#   From: 2010.05.17/outbox.cif.g08.bks.cpg/sg12_46_cif.got.tgz:90609.got - 2010.06.03 13:09:07.
