data_PCOD9170004
_publ_section_title
;
Structure prediction by ZEFSAII (Michael W. Deem and Ramdas Pophale) SiO2 
 PCOD9170004
Probable space group: C 2/M
;
_chemical_formula_sum "Si O2"
_cell_formula_units_Z 64
_cell_length_a 28.124425
_cell_length_b 17.471755
_cell_length_c 19.371613
_cell_angle_alpha 90.000000
_cell_angle_beta 158.386389
_cell_angle_gamma 90.000000
_cell_volume 3506.236756
_symmetry_space_group_name_H-M "C 2/M"
_symmetry_group_IT_number 12
_symmetry_cell_setting 'monoclinic'
loop_
_space_group_symop_operation_xyz
x,y,z
-x,y,-z
-x,-y,-z
x,-y,z
1/2+x,1/2+y,z
1/2-x,1/2+y,-z
1/2-x,1/2-y,-z
1/2+x,1/2-y,z
loop_
_atom_site_type_symbol
_atom_site_label
_atom_site_fract_x
_atom_site_fract_y
_atom_site_fract_z
Si Si1 0.354792 0.285889 0.283563
Si Si2 0.156816 0.910874 0.621709
Si Si3 0.649523 0.838646 0.217168
Si Si4 0.591424 0.709721 0.944098
Si Si5 0.853238 0.681030 0.636803
Si Si6 0.188103 0.680549 0.571744
Si Si7 0.098292 0.089824 0.069146
Si Si8 0.461814 0.294778 0.287849
O O1 0.500000 0.260171 0.500000
O O2 0.337680 0.367915 0.297332
O O3 0.350996 0.287676 0.195620
O O4 0.238906 0.234719 0.155238
O O5 0.284595 0.893308 0.749741
O O6 0.047118 0.865516 0.430942
O O7 0.132257 0.000000 0.595421
O O8 0.666988 0.865434 0.320172
O O9 0.718106 0.755429 0.304594
O O10 0.500000 0.829612 0.000000
O O11 0.494088 0.779439 0.828925
O O12 0.574657 0.692115 0.840494
O O13 0.557445 0.640186 0.948413
O O14 0.750000 0.750000 0.500000
O O15 0.832418 0.646727 0.532920
O O16 0.261178 0.619495 0.717023
O O17 0.053235 0.719013 0.412930
O O18 0.098513 0.000000 0.054307
O O19 0.000000 0.103947 0.000000
#
# Coordination Sequence:
#
# PCOD9170004 Si02
#       8
#     8   8   8   8   8   8   8   8
#     4  10  20  35  57  82 102 134 177 219 266 307
#     4  10  21  34  49  76 111 141 171 209 259 318
#     4  10  17  29  50  75 101 137 178 216 259 305
#     4  11  20  35  57  81 107 132 175 226 262 306
#     4   9  17  29  52  78 101 134 174 216 258 299
#     4   9  17  33  51  72 101 134 179 220 255 305
#     4  11  22  33  49  76 110 144 173 209 260 315
#     4   9  20  35  57  80  98 131 174 223 267 301
#
# _framework density 18.253188999999999
#
# number of rings (size 3 to 8) (size 9 to 14) (size 15 to 20)
#    0.000    2.125    0.000    6.750    0.000    3.000 
#    0.000    1.875    0.000    7.875    0.000    3.500 
#    0.000    0.000    0.000    0.000    0.000    0.000 
#
# Total GULP energy -178454.633010 kJ/mol
# GULP energy per Si atom -5576.707282 kJ/mol
# Density = 1.821164 g / cm^3
# Si number density = 18.253189 Si / 1000 Ang^3
#
#
#
# Elastic Constant Matrix: (Units=GPa)
#
#
# Indices 1 2 3 4 5 6 
#
# 1 108.5027 19.3651 20.5277 0.0000 -5.5657 0.0000
# 2 19.3651 48.9682 9.9807 0.0000 1.8707 0.0000
# 3 20.5277 9.9807 53.0846 0.0000 4.6723 0.0000
# 4 0.0000 0.0000 0.0000 9.4586 0.0000 -0.3627
# 5 -5.5657 1.8707 4.6723 0.0000 31.1386 0.0000
# 6 0.0000 0.0000 0.0000 -0.3627 0.0000 12.8866
#
#
#
# Elastic Compliance Matrix: (Units=1/GPa)
#
#
# Indices 1 2 3 4 5 6 
#
# 1 0.010692 -0.003577 -0.003698 0.000000 0.002681 0.000000
# 2 -0.003577 0.022446 -0.002698 0.000000 -0.001583 0.000000
# 3 -0.003698 -0.002698 0.021098 0.000000 -0.003665 0.000000
# 4 0.000000 0.000000 0.000000 0.105838 0.000000 0.002979
# 5 0.002681 -0.001583 -0.003665 0.000000 0.033239 0.000000
# 6 0.000000 0.000000 0.000000 0.002979 0.000000 0.077684
#
#
# Mechanical properties :
#
#
# Convention : Reuss Voigt Hill
#
# Bulk Modulus (GPa) = 29.16256 34.47804 31.82030
# Shear Modulus (GPa) = 16.53591 21.40888 18.97240
#
# Velocity S-wave (km/s) = 3.01311 3.42846 3.22747
# Velocity P-wave (km/s) = 5.30250 5.88236 5.59994
#
# Compressibility (1/GPa) = 0.03429055
#
# Stress axis : x y z
#
# Youngs Moduli (GPa) = 93.52879 44.55079 47.39878
#
# Poissons Ratio (x) = 0.15936 0.17528
# Poissons Ratio (y) = 0.33455 0.12787
# Poissons Ratio (z) = 0.34587 0.12019
#
# Static dielectric constant tensor:
#      x y z
#    x 1.700400 0.000000 -0.004170 
#    y 0.000000 1.586100 0.000000 
#    z -0.004170 0.000000 1.663320 
# 
# From -- ./inp_files/330396.got.cif
#   From: 2010.05.17/outbox.cif.g08.bks.cpg/sg12_166_cif.got.tgz:330396.got - 2010.06.03 13:09:07.
