data_PCOD9170990
_publ_section_title
;
Structure prediction by ZEFSAII (Michael W. Deem and Ramdas Pophale) SiO2 
 PCOD9170990
Probable space group: C 2/M
;
_chemical_formula_sum "Si O2"
_cell_formula_units_Z 64
_cell_length_a 15.006052
_cell_length_b 14.046175
_cell_length_c 13.512273
_cell_angle_alpha 90.000000
_cell_angle_beta 120.130149
_cell_angle_gamma 90.000000
_cell_volume 2463.272772
_symmetry_space_group_name_H-M "C 2/M"
_symmetry_group_IT_number 12
_symmetry_cell_setting 'monoclinic'
loop_
_space_group_symop_operation_xyz
x,y,z
-x,y,-z
-x,-y,-z
x,-y,z
1/2+x,1/2+y,z
1/2-x,1/2+y,-z
1/2-x,1/2-y,-z
1/2+x,1/2-y,z
loop_
_atom_site_type_symbol
_atom_site_label
_atom_site_fract_x
_atom_site_fract_y
_atom_site_fract_z
Si Si1 0.917430 0.109385 0.557972
Si Si2 0.140327 0.385377 0.097319
Si Si3 0.526140 0.114529 0.224719
Si Si4 0.866039 0.115289 0.267142
Si Si5 0.642116 0.390321 0.242145
Si Si6 0.193874 0.615838 0.904867
Si Si7 0.735028 0.782129 0.378193
Si Si8 0.084466 0.114198 0.937496
O O1 0.887131 0.106310 0.657395
O O2 0.833428 0.149019 0.435455
O O3 0.029984 0.155614 0.625943
O O4 0.926010 0.000000 0.534851
O O5 0.136319 0.500000 0.085676
O O6 0.045799 0.363110 0.118078
O O7 0.245461 0.359770 0.215258
O O8 0.164709 0.352281 0.000250
O O9 0.624072 0.166636 0.322942
O O10 0.535586 0.000000 0.239112
O O11 0.414672 0.142699 0.206256
O O12 0.884263 0.133287 0.158901
O O13 0.869608 0.000000 0.277401
O O14 0.669766 0.500000 0.229273
O O15 0.728549 0.308822 0.300194
O O16 0.537114 0.358804 0.125123
O O17 0.196360 0.500000 0.905270
O O18 0.311063 0.645456 0.945291
O O19 0.750000 0.750000 0.500000
O O20 0.079362 0.000000 0.947382
#
# Coordination Sequence:
#
# PCOD9170990 Si02
#       8
#     8   8   8   8   8   8   8   8
#     4   8  13  23  38  54  74 100 126 153 189 228
#     4   8  13  22  37  58  84 110 128 142 170 223
#     4  10  18  26  37  57  85 110 129 150 182 227
#     4   7  10  18  34  54  75 101 128 146 168 215
#     4   8  14  25  40  53  66  92 131 170 199 220
#     4   8  13  22  38  59  83 108 125 140 175 233
#     4  10  19  28  37  50  71 101 136 170 198 221
#     4   7  10  19  36  55  72  94 125 154 182 220
#
# _framework density 25.981695999999999
#
# number of rings (size 3 to 8) (size 9 to 14) (size 15 to 20)
#    0.000    3.750    0.000    3.750    0.000    2.000 
#    0.000    1.250    0.000    3.000    0.000    0.000 
#    0.000    4.000    0.000    7.250    0.000    0.500 
#
# Total GULP energy -178348.378260 kJ/mol
# GULP energy per Si atom -5573.386821 kJ/mol
# Density = 2.592256 g / cm^3
# Si number density = 25.981696 Si / 1000 Ang^3
#
#
#
# Elastic Constant Matrix: (Units=GPa)
#
#
# Indices 1 2 3 4 5 6 
#
# 1 94.3213 10.3881 33.4520 0.0000 39.1594 0.0000
# 2 10.3881 123.6455 30.7194 0.0000 13.7428 0.0000
# 3 33.4520 30.7194 172.4813 0.0000 33.8109 0.0000
# 4 0.0000 0.0000 0.0000 3.6326 0.0000 -25.4625
# 5 39.1594 13.7428 33.8109 0.0000 44.9568 0.0000
# 6 0.0000 0.0000 0.0000 -25.4625 0.0000 -28.5780
#
#
#
# Elastic Compliance Matrix: (Units=1/GPa)
#
#
# Indices 1 2 3 4 5 6 
#
# 1 0.016649 0.000305 -0.000495 0.000000 -0.014223 0.000000
# 2 0.000305 0.008581 -0.001198 0.000000 -0.001988 0.000000
# 3 -0.000495 -0.001198 0.006980 0.000000 -0.004452 0.000000
# 4 0.000000 0.000000 0.000000 0.037995 0.000000 -0.033853
# 5 -0.014223 -0.001988 -0.004452 0.000000 0.038588 0.000000
# 6 0.000000 0.000000 0.000000 -0.033853 0.000000 -0.004830
#
#
# Mechanical properties :
#
#
# Convention : Reuss Voigt Hill
#
# Bulk Modulus (GPa) = 33.97488 59.95189 46.96339
# Shear Modulus (GPa) = 42.90017 25.06152 33.98085
#
# Velocity S-wave (km/s) = 4.06787 3.10914 3.62038
# Velocity P-wave (km/s) = 5.93028 6.00115 5.96582
#
# Compressibility (1/GPa) = 0.02943351
#
# Stress axis : x y z
#
# Youngs Moduli (GPa) = 60.06376 116.54294 143.27118
#
# Poissons Ratio (x) = -0.03556 0.07096
# Poissons Ratio (y) = -0.01833 0.17159
# Poissons Ratio (z) = 0.02975 0.13958
#
# Static dielectric constant tensor:
#      x y z
#    x 2.309990 0.000000 -0.006280 
#    y 0.000000 2.121310 0.000000 
#    z -0.006280 0.000000 2.210670 
# 
# From -- ./inp_files/369206.got.cif
#   From: 2010.05.17/outbox.cif.g08.bks.cpg/sg12_185_cif.got.tgz:369206.got - 2010.06.03 13:09:07.
