data_PCOD9170615
_publ_section_title
;
Structure prediction by ZEFSAII (Michael W. Deem and Ramdas Pophale) SiO2 
 PCOD9170615
Probable space group: C 2/M
;
_chemical_formula_sum "Si O2"
_cell_formula_units_Z 64
_cell_length_a 15.225708
_cell_length_b 31.210615
_cell_length_c 11.513425
_cell_angle_alpha 90.000000
_cell_angle_beta 140.331615
_cell_angle_gamma 90.000000
_cell_volume 3492.517410
_symmetry_space_group_name_H-M "C 2/M"
_symmetry_group_IT_number 12
_symmetry_cell_setting 'monoclinic'
loop_
_space_group_symop_operation_xyz
x,y,z
-x,y,-z
-x,-y,-z
x,-y,z
1/2+x,1/2+y,z
1/2-x,1/2+y,-z
1/2-x,1/2-y,-z
1/2+x,1/2-y,z
loop_
_atom_site_type_symbol
_atom_site_label
_atom_site_fract_x
_atom_site_fract_y
_atom_site_fract_z
Si Si1 0.805480 0.703558 0.028660
Si Si2 0.231806 0.550607 0.499136
Si Si3 0.577848 0.804604 0.197239
Si Si4 0.726060 0.614430 0.994734
Si Si5 0.950881 0.101059 0.568908
Si Si6 0.499210 0.096319 0.130155
Si Si7 0.848969 0.807326 0.373278
Si Si8 0.337535 0.449407 0.861789
O O1 0.760514 0.663785 0.063396
O O2 0.736351 0.690853 0.833882
O O3 0.750000 0.750000 0.000000
O O4 0.970706 0.707631 0.188113
O O5 0.243715 0.500000 0.496153
O O6 0.346001 0.573792 0.537179
O O7 0.258163 0.559786 0.661249
O O8 0.087232 0.567687 0.306211
O O9 0.569801 0.856576 0.191693
O O10 0.735109 0.789183 0.347740
O O11 0.500000 0.790331 0.000000
O O12 0.582060 0.611966 0.780849
O O13 0.848132 0.601946 0.029992
O O14 0.713983 0.581798 0.089402
O O15 0.883144 0.145439 0.456540
O O16 0.000000 0.078529 0.500000
O O17 0.500000 0.078666 0.000000
O O18 0.000000 0.787485 0.500000
O O19 0.320475 0.500000 0.874643
O O20 0.500000 0.442869 0.000000
#
# Coordination Sequence:
#
# PCOD9170615 Si02
#       8
#     8   8   8   8   8   8   8   8
#     4  10  20  36  59  88 122 157 199 252 315 385
#     4  11  23  38  59  87 124 163 204 266 315 369
#     4   8  16  31  55  82 111 154 188 234 306 371
#     4  11  21  37  65  89 115 169 208 255 314 374
#     4  11  19  34  62  91 115 152 206 255 315 381
#     4  10  20  36  59  88 121 155 201 249 321 377
#     4  10  17  32  61  87 113 151 198 245 306 376
#     4  10  22  41  61  84 120 166 216 259 305 369
#
# _framework density 18.324891000000001
#
# number of rings (size 3 to 8) (size 9 to 14) (size 15 to 20)
#    0.000    1.875    5.000    1.500    0.000    1.500 
#    0.000    5.000    5.500    0.000    0.000    0.000 
#    0.000    0.000    0.000    0.000    0.000    0.000 
#
# Total GULP energy -178282.584059 kJ/mol
# GULP energy per Si atom -5571.330752 kJ/mol
# Density = 1.828318 g / cm^3
# Si number density = 18.324891 Si / 1000 Ang^3
#
#
#
# Elastic Constant Matrix: (Units=GPa)
#
#
# Indices 1 2 3 4 5 6 
#
# 1 94.1812 57.3990 43.4938 0.0000 13.4772 0.0000
# 2 57.3990 80.9352 37.9468 0.0000 -8.6978 0.0000
# 3 43.4938 37.9468 88.5165 0.0000 10.8683 0.0000
# 4 0.0000 0.0000 0.0000 4.9199 0.0000 4.6376
# 5 13.4772 -8.6978 10.8683 0.0000 37.3510 0.0000
# 6 0.0000 0.0000 0.0000 4.6376 0.0000 13.6742
#
#
#
# Elastic Compliance Matrix: (Units=1/GPa)
#
#
# Indices 1 2 3 4 5 6 
#
# 1 0.023951 -0.016754 -0.003159 0.000000 -0.011624 0.000000
# 2 -0.016754 0.028466 -0.005732 0.000000 0.014342 0.000000
# 3 -0.003159 -0.005732 0.015899 0.000000 -0.004821 0.000000
# 4 0.000000 0.000000 0.000000 0.298767 0.000000 -0.101326
# 5 -0.011624 0.014342 -0.004821 0.000000 0.035710 0.000000
# 6 0.000000 0.000000 0.000000 -0.101326 0.000000 0.107495
#
#
# Mechanical properties :
#
#
# Convention : Reuss Voigt Hill
#
# Bulk Modulus (GPa) = 58.73397 60.14580 59.43989
# Shear Modulus (GPa) = 8.81441 19.50858 14.16150
#
# Velocity S-wave (km/s) = 2.19557 3.26635 2.78295
# Velocity P-wave (km/s) = 6.20874 6.86430 6.54473
#
# Compressibility (1/GPa) = 0.01702592
#
# Stress axis : x y z
#
# Youngs Moduli (GPa) = 41.75215 35.12929 62.89799
#
# Poissons Ratio (x) = 0.58856 0.19869
# Poissons Ratio (y) = 0.69952 0.36053
# Poissons Ratio (z) = 0.13189 0.20136
#
# Static dielectric constant tensor:
#      x y z
#    x 1.675350 0.000000 0.020620 
#    y 0.000000 1.621500 0.000000 
#    z 0.020620 0.000000 1.641400 
# 
# From -- ./inp_files/150278.got.cif
#   From: 2010.05.17/outbox.cif.g08.bks.cpg/sg12_76_cif.got.tgz:150278.got - 2010.06.03 13:09:07.
