data_PCOD9170663
_publ_section_title
;
Structure prediction by ZEFSAII (Michael W. Deem and Ramdas Pophale) SiO2 
 PCOD9170663
Probable space group: C 2/M
;
_chemical_formula_sum "Si O2"
_cell_formula_units_Z 64
_cell_length_a 16.847417
_cell_length_b 20.197854
_cell_length_c 11.994657
_cell_angle_alpha 90.000000
_cell_angle_beta 125.663988
_cell_angle_gamma 90.000000
_cell_volume 3316.065532
_symmetry_space_group_name_H-M "C 2/M"
_symmetry_group_IT_number 12
_symmetry_cell_setting 'monoclinic'
loop_
_space_group_symop_operation_xyz
x,y,z
-x,y,-z
-x,-y,-z
x,-y,z
1/2+x,1/2+y,z
1/2-x,1/2+y,-z
1/2-x,1/2-y,-z
1/2+x,1/2-y,z
loop_
_atom_site_type_symbol
_atom_site_label
_atom_site_fract_x
_atom_site_fract_y
_atom_site_fract_z
Si Si1 0.549858 0.773541 0.220872
Si Si2 0.658151 0.328111 0.770483
Si Si3 0.056012 0.684400 0.661283
Si Si4 0.084442 0.075018 0.899138
Si Si5 0.882751 0.874881 0.700965
Si Si6 0.888543 0.075171 0.454076
Si Si7 0.737585 0.374228 0.194232
Si Si8 0.646707 0.770093 0.078194
O O1 0.522185 0.818931 0.302374
O O2 0.598136 0.703964 0.296932
O O3 0.614100 0.799949 0.170564
O O4 0.445309 0.760799 0.076283
O O5 0.600348 0.259495 0.704736
O O6 0.607043 0.374853 0.817580
O O7 0.665217 0.368843 0.661802
O O8 0.766131 0.311565 0.903041
O O9 0.148566 0.634798 0.741296
O O10 0.000000 0.676792 0.500000
O O11 0.975770 0.096816 0.846540
O O12 0.079044 0.000000 0.853469
O O13 0.171316 0.081093 0.059502
O O14 0.883024 0.907887 0.580098
O O15 0.787443 0.889320 0.697294
O O16 0.000000 0.078551 0.500000
O O17 0.853804 0.000000 0.406210
O O18 0.690195 0.301662 0.138557
#
# Coordination Sequence:
#
# PCOD9170663 Si02
#       8
#     8   8   8   8   8   8   8   8
#     4  10  17  33  54  79 109 139 177 219 276 327
#     4  11  20  34  53  82 113 142 180 222 267 325
#     4  11  21  35  57  79 109 147 179 224 277 316
#     4  12  22  34  57  82 112 150 177 214 271 327
#     4  11  20  34  54  77 115 146 176 217 266 322
#     4  11  21  34  50  73 108 149 181 208 252 320
#     4  10  22  36  52  81 111 141 187 224 263 324
#     4   9  19  32  55  80 108 144 173 227 280 313
#
# _framework density 19.299980000000001
#
# number of rings (size 3 to 8) (size 9 to 14) (size 15 to 20)
#    0.000    1.375    3.750    3.000    0.000    4.500 
#    0.000    3.750    0.000    0.375    0.000   20.125 
#    0.000    0.000    0.000    0.000    0.000    0.000 
#
# Total GULP energy -178627.525979 kJ/mol
# GULP energy per Si atom -5582.110187 kJ/mol
# Density = 1.925605 g / cm^3
# Si number density = 19.299980 Si / 1000 Ang^3
#
#
#
# Elastic Constant Matrix: (Units=GPa)
#
#
# Indices 1 2 3 4 5 6 
#
# 1 39.7847 9.3333 8.4317 0.0000 -7.6902 0.0000
# 2 9.3333 39.7237 -4.3480 0.0000 0.8767 0.0000
# 3 8.4317 -4.3480 44.3410 0.0000 -15.0582 0.0000
# 4 0.0000 0.0000 0.0000 12.0327 0.0000 3.2178
# 5 -7.6902 0.8767 -15.0582 0.0000 31.5457 0.0000
# 6 0.0000 0.0000 0.0000 3.2178 0.0000 5.3722
#
#
#
# Elastic Compliance Matrix: (Units=1/GPa)
#
#
# Indices 1 2 3 4 5 6 
#
# 1 0.028795 -0.007367 -0.004469 0.000000 0.005091 0.000000
# 2 -0.007367 0.027341 0.003836 0.000000 -0.000725 0.000000
# 3 -0.004469 0.003836 0.027894 0.000000 0.012119 0.000000
# 4 0.000000 0.000000 0.000000 0.098958 0.000000 -0.059274
# 5 0.005091 -0.000725 0.012119 0.000000 0.038746 0.000000
# 6 0.000000 0.000000 0.000000 -0.059274 0.000000 0.221649
#
#
# Mechanical properties :
#
#
# Convention : Reuss Voigt Hill
#
# Bulk Modulus (GPa) = 14.69962 16.74259 15.72111
# Shear Modulus (GPa) = 10.37215 17.15226 13.76221
#
# Velocity S-wave (km/s) = 2.32074 2.98437 2.67323
# Velocity P-wave (km/s) = 3.84890 4.53531 4.20613
#
# Compressibility (1/GPa) = 0.06802895
#
# Stress axis : x y z
#
# Youngs Moduli (GPa) = 34.72851 36.57561 35.84992
#
# Poissons Ratio (x) = 0.26945 0.16021
# Poissons Ratio (y) = 0.25585 -0.13751
# Poissons Ratio (z) = 0.15520 -0.14029
#
# Static dielectric constant tensor:
#      x y z
#    x 1.723160 0.000000 -0.017690 
#    y 0.000000 1.651990 0.000000 
#    z -0.017690 0.000000 1.700010 
# 
# From -- ./inp_files/159578.got.cif
#   From: 2010.05.17/outbox.cif.g08.bks.cpg/sg12_80_cif.got.tgz:159578.got - 2010.06.03 13:09:07.
