data_PCOD9170436
_publ_section_title
;
Structure prediction by ZEFSAII (Michael W. Deem and Ramdas Pophale) SiO2 
 PCOD9170436
Probable space group: C 2/M
;
_chemical_formula_sum "Si O2"
_cell_formula_units_Z 44
_cell_length_a 16.153000
_cell_length_b 17.490076
_cell_length_c 8.763579
_cell_angle_alpha 90.000000
_cell_angle_beta 75.241372
_cell_angle_gamma 90.000000
_cell_volume 2394.177129
_symmetry_space_group_name_H-M "C 2/M"
_symmetry_group_IT_number 12
_symmetry_cell_setting 'monoclinic'
loop_
_space_group_symop_operation_xyz
x,y,z
-x,y,-z
-x,-y,-z
x,-y,z
1/2+x,1/2+y,z
1/2-x,1/2+y,-z
1/2-x,1/2-y,-z
1/2+x,1/2-y,z
loop_
_atom_site_type_symbol
_atom_site_label
_atom_site_fract_x
_atom_site_fract_y
_atom_site_fract_z
Si Si1 0.774061 0.914615 0.020886
Si Si2 0.000000 0.261323 0.500000
Si Si3 0.268288 0.671343 0.316664
Si Si4 0.097562 0.637952 0.986247
Si Si5 0.367051 0.275207 0.807593
Si Si6 0.141519 0.317860 0.634442
O O1 0.792971 0.894638 0.188997
O O2 0.800944 0.000000 0.968679
O O3 0.670790 0.907668 0.044144
O O4 0.823454 0.849948 0.899769
O O5 0.061229 0.214367 0.356720
O O6 0.054797 0.317238 0.581282
O O7 0.207105 0.726833 0.243237
O O8 0.214479 0.648948 0.490664
O O9 0.341032 0.727771 0.342814
O O10 0.136241 0.644477 0.799590
O O11 0.096334 0.720126 0.075051
O O12 0.000000 0.611450 0.000000
#
# Coordination Sequence:
#
# PCOD9170436 Si02
#       6
#     8   4   8   8   8   8
#     4  11  22  37  54  79 117 154 181 216 273 339
#     4  10  20  28  55  90 109 130 176 246 284 304
#     4   9  18  33  57  78 108 140 189 232 269 316
#     4  11  19  34  60  84 109 137 189 234 271 318
#     4  10  18  34  55  85 106 141 188 232 273 317
#     4  10  17  31  56  86 104 132 178 242 277 308
#
# _framework density 18.377922999999999
#
# number of rings (size 3 to 8) (size 9 to 14) (size 15 to 20)
#    0.000    1.818    5.455    1.091    0.000    0.364 
#    0.000    1.364    0.000    6.000    0.000    0.000 
#    0.000    0.000    0.000    0.000    0.000    0.000 
#
# Total GULP energy -122529.384329 kJ/mol
# GULP energy per Si atom -5569.517469 kJ/mol
# Density = 1.833609 g / cm^3
# Si number density = 18.377923 Si / 1000 Ang^3
#
#
#
# Elastic Constant Matrix: (Units=GPa)
#
#
# Indices 1 2 3 4 5 6 
#
# 1 25.9695 -8.3993 -13.5758 0.0000 14.3197 0.0000
# 2 -8.3993 48.1544 23.3352 0.0000 -10.9507 0.0000
# 3 -13.5758 23.3352 102.2690 0.0000 3.6087 0.0000
# 4 0.0000 0.0000 0.0000 9.3833 0.0000 -1.0460
# 5 14.3197 -10.9507 3.6087 0.0000 31.0830 0.0000
# 6 0.0000 0.0000 0.0000 -1.0460 0.0000 7.4622
#
#
#
# Elastic Compliance Matrix: (Units=1/GPa)
#
#
# Indices 1 2 3 4 5 6 
#
# 1 0.058514 -0.000499 0.008875 0.000000 -0.028163 0.000000
# 2 -0.000499 0.026079 -0.006375 0.000000 0.010158 0.000000
# 3 0.008875 -0.006375 0.012686 0.000000 -0.007808 0.000000
# 4 0.000000 0.000000 0.000000 0.108264 0.000000 0.015175
# 5 -0.028163 0.010158 -0.007808 0.000000 0.049632 0.000000
# 6 0.000000 0.000000 0.000000 0.015175 0.000000 0.136136
#
#
# Mechanical properties :
#
#
# Convention : Reuss Voigt Hill
#
# Bulk Modulus (GPa) = 9.87347 19.90146 14.88747
# Shear Modulus (GPa) = 11.87449 21.25454 16.56451
#
# Velocity S-wave (km/s) = 2.54466 3.40446 3.00547
# Velocity P-wave (km/s) = 3.74404 5.12897 4.49022
#
# Compressibility (1/GPa) = 0.10128153
#
# Stress axis : x y z
#
# Youngs Moduli (GPa) = 17.08979 38.34529 78.82422
#
# Poissons Ratio (x) = 0.01914 -0.69958
# Poissons Ratio (y) = 0.00853 0.50252
# Poissons Ratio (z) = -0.15168 0.24446
#
# Static dielectric constant tensor:
#      x y z
#    x 1.677660 0.000000 -0.014090 
#    y 0.000000 1.623070 0.000000 
#    z -0.014090 0.000000 1.661320 
# 
# From -- ./inp_files/74408.got.cif
#   From: 2010.05.17/outbox.cif.g08.bks.cpg/sg12_38_cif.got.tgz:74408.got - 2010.06.03 13:09:07.
