data_PCOD9170959
_publ_section_title
;
Structure prediction by ZEFSAII (Michael W. Deem and Ramdas Pophale) SiO2 
 PCOD9170959
Probable space group: C 2/M
;
_chemical_formula_sum "Si O2"
_cell_formula_units_Z 60
_cell_length_a 30.543102
_cell_length_b 9.353419
_cell_length_c 17.305111
_cell_angle_alpha 90.000000
_cell_angle_beta 132.224197
_cell_angle_gamma 90.000000
_cell_volume 3660.961933
_symmetry_space_group_name_H-M "C 2/M"
_symmetry_group_IT_number 12
_symmetry_cell_setting 'monoclinic'
loop_
_space_group_symop_operation_xyz
x,y,z
-x,y,-z
-x,-y,-z
x,-y,z
1/2+x,1/2+y,z
1/2-x,1/2+y,-z
1/2-x,1/2-y,-z
1/2+x,1/2-y,z
loop_
_atom_site_type_symbol
_atom_site_label
_atom_site_fract_x
_atom_site_fract_y
_atom_site_fract_z
Si Si1 0.295151 0.171705 0.496687
Si Si2 0.738434 0.829887 0.107089
Si Si3 0.339849 0.828847 0.130967
Si Si4 0.119844 0.151960 0.600268
Si Si5 0.000000 0.741840 0.500000
Si Si6 0.477990 0.162344 0.302545
Si Si7 0.913813 0.161861 0.619792
Si Si8 0.227349 0.666845 0.710670
O O1 0.250000 0.250000 0.500000
O O2 0.360282 0.239842 0.586945
O O3 0.273742 0.198602 0.382376
O O4 0.296618 0.000000 0.508892
O O5 0.796341 0.760396 0.134846
O O6 0.732232 0.759674 0.184270
O O7 0.743915 0.000000 0.118070
O O8 0.684555 0.800552 0.984338
O O9 0.409137 0.793407 0.220067
O O10 0.333248 0.000000 0.139224
O O11 0.102516 0.148430 0.490109
O O12 0.161445 0.287548 0.659336
O O13 0.059343 0.166616 0.573726
O O14 0.149649 0.000000 0.653918
O O15 0.999910 0.661277 0.581671
O O16 0.522275 0.262595 0.306648
O O17 0.481416 0.000000 0.277259
O O18 0.914394 0.000000 0.652764
O O19 0.238057 0.500000 0.734411
#
# Coordination Sequence:
#
# PCOD9170959 Si02
#       8
#     8   8   8   8   4   8   8   8
#     4  10  20  34  53  76 101 127 154 187 234 290
#     4  10  19  31  48  68  92 127 170 210 246 282
#     4   9  19  33  47  66  95 131 169 209 246 280
#     4   9  17  28  41  59  86 119 154 190 225 267
#     4  10  18  24  40  64  88 120 158 194 232 274
#     4  10  19  30  43  62  91 125 161 197 236 282
#     4   9  18  31  46  66  93 122 153 188 226 274
#     4  10  20  32  47  68  94 123 154 193 239 284
#
# _framework density 16.389135
#
# number of rings (size 3 to 8) (size 9 to 14) (size 15 to 20)
#    0.000    2.400    0.000    2.800    0.000    8.000 
#    0.000    0.000    0.000    0.000    0.000    0.933 
#    0.000    7.467    0.000    0.000    0.000    0.000 
#
# Total GULP energy -167039.874381 kJ/mol
# GULP energy per Si atom -5567.995813 kJ/mol
# Density = 1.635183 g / cm^3
# Si number density = 16.389135 Si / 1000 Ang^3
#
#
#
# Elastic Constant Matrix: (Units=GPa)
#
#
# Indices 1 2 3 4 5 6 
#
# 1 81.7668 50.8641 33.4877 0.0000 7.9891 0.0000
# 2 50.8641 96.7070 38.5724 0.0000 1.2116 0.0000
# 3 33.4877 38.5724 87.5681 0.0000 7.7117 0.0000
# 4 0.0000 0.0000 0.0000 21.0884 0.0000 0.9317
# 5 7.9891 1.2116 7.7117 0.0000 18.8234 0.0000
# 6 0.0000 0.0000 0.0000 0.9317 0.0000 20.2494
#
#
#
# Elastic Compliance Matrix: (Units=1/GPa)
#
#
# Indices 1 2 3 4 5 6 
#
# 1 0.019767 -0.009135 -0.002955 0.000000 -0.006591 0.000000
# 2 -0.009135 0.016808 -0.004312 0.000000 0.004562 0.000000
# 3 -0.002955 -0.004312 0.014850 0.000000 -0.004552 0.000000
# 4 0.000000 0.000000 0.000000 0.047516 0.000000 -0.002186
# 5 -0.006591 0.004562 -0.004552 0.000000 0.057494 0.000000
# 6 0.000000 0.000000 0.000000 -0.002186 0.000000 0.049485
#
#
# Mechanical properties :
#
#
# Convention : Reuss Voigt Hill
#
# Bulk Modulus (GPa) = 53.70403 56.87670 55.29036
# Shear Modulus (GPa) = 20.41394 21.57342 20.99368
#
# Velocity S-wave (km/s) = 3.53310 3.63205 3.58292
# Velocity P-wave (km/s) = 7.03441 7.23660 7.13622
#
# Compressibility (1/GPa) = 0.01862058
#
# Stress axis : x y z
#
# Youngs Moduli (GPa) = 50.58971 59.49517 67.34086
#
# Poissons Ratio (x) = 0.54352 0.19898
# Poissons Ratio (y) = 0.46216 0.29036
# Poissons Ratio (z) = 0.14948 0.25653
#
# Static dielectric constant tensor:
#      x y z
#    x 1.546000 0.000000 0.003320 
#    y 0.000000 1.581780 0.000000 
#    z 0.003320 0.000000 1.577080 
# 
# From -- ./inp_files/294816.got.cif
#   From: 2010.05.17/outbox.cif.g08.bks.cpg/sg12_148_cif.got.tgz:294816.got - 2010.06.03 13:09:07.
