data_PCOD9170694
_publ_section_title
;
Structure prediction by ZEFSAII (Michael W. Deem and Ramdas Pophale) SiO2 
 PCOD9170694
Probable space group: C 2/M
;
_chemical_formula_sum "Si O2"
_cell_formula_units_Z 56
_cell_length_a 21.677386
_cell_length_b 17.955655
_cell_length_c 14.616669
_cell_angle_alpha 90.000000
_cell_angle_beta 31.239622
_cell_angle_gamma 90.000000
_cell_volume 2950.560309
_symmetry_space_group_name_H-M "C 2/M"
_symmetry_group_IT_number 12
_symmetry_cell_setting 'monoclinic'
loop_
_space_group_symop_operation_xyz
x,y,z
-x,y,-z
-x,-y,-z
x,-y,z
1/2+x,1/2+y,z
1/2-x,1/2+y,-z
1/2-x,1/2-y,-z
1/2+x,1/2-y,z
loop_
_atom_site_type_symbol
_atom_site_label
_atom_site_fract_x
_atom_site_fract_y
_atom_site_fract_z
Si Si1 0.142461 0.582973 0.318603
Si Si2 0.460503 0.206092 0.153181
Si Si3 0.264596 0.916198 0.357233
Si Si4 0.723404 0.661688 0.015895
Si Si5 0.387991 0.770556 0.571984
Si Si6 0.213424 0.645175 0.867074
Si Si7 0.953045 0.822409 0.312624
O O1 0.193321 0.500000 0.265089
O O2 0.163204 0.646100 0.368741
O O3 0.000000 0.575340 0.500000
O O4 0.188095 0.622652 0.167959
O O5 0.356563 0.145399 0.277578
O O6 0.426624 0.278808 0.252830
O O7 0.500000 0.224986 0.000000
O O8 0.576241 0.168238 0.052170
O O9 0.272318 0.909927 0.236639
O O10 0.135193 0.890294 0.555036
O O11 0.293673 0.000000 0.348322
O O12 0.735215 0.623094 0.099961
O O13 0.590825 0.655873 0.144546
O O14 0.750000 0.750000 0.000000
O O15 0.500000 0.768187 0.500000
O O16 0.286626 0.717706 0.741548
O O17 0.428998 0.736829 0.424519
#
# Coordination Sequence:
#
# PCOD9170694 Si02
#       7
#     8   8   8   8   8   8   8
#     4  10  21  33  47  75 121 159 183 227 283 352
#     4  10  21  38  60  86 114 154 212 256 288 339
#     4  10  24  42  58  84 126 162 202 253 300 350
#     4  12  19  35  61  92 120 150 203 245 303 369
#     4  10  17  33  56  86 122 149 190 238 295 366
#     4  10  20  34  61  90 113 155 197 250 303 355
#     4  11  21  36  67  90 114 158 202 248 302 358
#
# _framework density 18.979445999999999
#
# number of rings (size 3 to 8) (size 9 to 14) (size 15 to 20)
#    0.000    1.571    4.286    1.286    0.000    3.714 
#    0.000    1.429    0.000    0.429    0.000    0.000 
#    0.000    0.000    0.000    0.000    0.000    0.000 
#
# Total GULP energy -156224.211865 kJ/mol
# GULP energy per Si atom -5579.436138 kJ/mol
# Density = 1.893625 g / cm^3
# Si number density = 18.979446 Si / 1000 Ang^3
#
#
#
# Elastic Constant Matrix: (Units=GPa)
#
#
# Indices 1 2 3 4 5 6 
#
# 1 56.8251 11.9069 17.0979 0.0000 -1.5348 0.0000
# 2 11.9069 54.8860 24.1280 0.0000 3.9667 0.0000
# 3 17.0979 24.1280 103.5705 0.0000 -2.6349 0.0000
# 4 0.0000 0.0000 0.0000 76.3869 0.0000 49.1714
# 5 -1.5348 3.9667 -2.6349 0.0000 25.1518 0.0000
# 6 0.0000 0.0000 0.0000 49.1714 0.0000 43.2168
#
#
#
# Elastic Compliance Matrix: (Units=1/GPa)
#
#
# Indices 1 2 3 4 5 6 
#
# 1 0.019015 -0.003190 -0.002360 0.000000 0.001416 0.000000
# 2 -0.003190 0.021184 -0.004510 0.000000 -0.004008 0.000000
# 3 -0.002360 -0.004510 0.011140 0.000000 0.001734 0.000000
# 4 0.000000 0.000000 0.000000 0.048923 0.000000 -0.055664
# 5 0.001416 -0.004008 0.001734 0.000000 0.040659 0.000000
# 6 0.000000 0.000000 0.000000 -0.055664 0.000000 0.086472
#
#
# Mechanical properties :
#
#
# Convention : Reuss Voigt Hill
#
# Bulk Modulus (GPa) = 32.03293 35.72746 33.88020
# Shear Modulus (GPa) = 19.38595 39.76102 29.57349
#
# Velocity S-wave (km/s) = 3.19943 4.58203 3.95167
# Velocity P-wave (km/s) = 5.52836 6.84533 6.22179
#
# Compressibility (1/GPa) = 0.03121787
#
# Stress axis : x y z
#
# Youngs Moduli (GPa) = 52.59128 47.20531 89.76890
#
# Poissons Ratio (x) = 0.15058 0.21184
# Poissons Ratio (y) = 0.16776 0.40490
# Poissons Ratio (z) = 0.12411 0.21292
#
# Static dielectric constant tensor:
#      x y z
#    x 1.686580 0.000000 -0.000520 
#    y 0.000000 1.670080 0.000000 
#    z -0.000520 0.000000 1.680040 
# 
# From -- ./inp_files/216423.got.cif
#   From: 2010.05.17/outbox.cif.g08.bks.cpg/sg12_109_cif.got.tgz:216423.got - 2010.06.03 13:09:07.
