data_PCOD9170330
_publ_section_title
;
Structure prediction by ZEFSAII (Michael W. Deem and Ramdas Pophale) SiO2 
 PCOD9170330
Probable space group: C 2/M
;
_chemical_formula_sum "Si O2"
_cell_formula_units_Z 52
_cell_length_a 19.251105
_cell_length_b 27.801454
_cell_length_c 19.818159
_cell_angle_alpha 90.000000
_cell_angle_beta 158.558897
_cell_angle_gamma 90.000000
_cell_volume 3877.277367
_symmetry_space_group_name_H-M "C 2/M"
_symmetry_group_IT_number 12
_symmetry_cell_setting 'monoclinic'
loop_
_space_group_symop_operation_xyz
x,y,z
-x,y,-z
-x,-y,-z
x,-y,z
1/2+x,1/2+y,z
1/2-x,1/2+y,-z
1/2-x,1/2-y,-z
1/2+x,1/2-y,z
loop_
_atom_site_type_symbol
_atom_site_label
_atom_site_fract_x
_atom_site_fract_y
_atom_site_fract_z
Si Si1 0.050107 0.149653 0.907214
Si Si2 0.948445 0.775114 0.201481
Si Si3 0.419795 0.833871 0.322242
Si Si4 0.826610 0.750610 0.473906
Si Si5 0.500000 0.083857 0.500000
Si Si6 0.415255 0.554140 0.849775
Si Si7 0.669238 0.271711 0.197663
O O1 0.040721 0.173308 0.825231
O O2 0.975523 0.096088 0.852952
O O3 0.933805 0.185440 0.852638
O O4 0.267693 0.153528 0.128061
O O5 0.006048 0.776600 0.332545
O O6 0.124389 0.745051 0.328415
O O7 0.750000 0.750000 0.000000
O O8 0.600633 0.804924 0.459134
O O9 0.468605 0.880922 0.408232
O O10 0.316528 0.797174 0.280786
O O11 0.777974 0.760154 0.351514
O O12 0.689637 0.055020 0.656329
O O13 0.478819 0.500000 0.889898
O O14 0.500000 0.567335 0.000000
O O15 0.500000 0.248968 0.000000
#
# Coordination Sequence:
#
# PCOD9170330 Si02
#       7
#     8   8   8   8   4   8   8
#     4  10  17  31  42  55  80 108 135 174 211 246
#     4  10  19  29  41  55  78 103 135 174 207 239
#     4  11  16  25  45  60  79 105 134 169 208 253
#     4  10  18  27  39  60  78 101 136 171 200 243
#     4  12  17  28  42  60  78 108 132 168 219 252
#     4  11  21  31  42  59  80 103 138 182 221 248
#     4   9  16  25  41  59  78 105 133 164 203 246
#
# _framework density 13.411473000000001
#
# number of rings (size 3 to 8) (size 9 to 14) (size 15 to 20)
#    0.000    1.692    6.154    1.615    0.000    0.000 
#    0.000    0.000    0.000    0.000    0.000    0.000 
#    0.000    0.000    0.000    0.000    0.000    3.846 
#
# Total GULP energy -144736.413371 kJ/mol
# GULP energy per Si atom -5566.785130 kJ/mol
# Density = 1.338095 g / cm^3
# Si number density = 13.411473 Si / 1000 Ang^3
#
#
#
# Elastic Constant Matrix: (Units=GPa)
#
#
# Indices 1 2 3 4 5 6 
#
# 1 32.9867 23.6903 24.9093 0.0001 -10.5631 0.0002
# 2 23.6903 53.5230 20.7979 0.0000 -12.0814 0.0002
# 3 24.9093 20.7979 107.5108 0.0005 -11.1730 0.0002
# 4 0.0001 0.0000 0.0005 6.1848 0.0002 2.7599
# 5 -10.5631 -12.0814 -11.1730 0.0002 31.7984 0.0004
# 6 0.0002 0.0002 0.0002 2.7599 0.0004 12.2000
#
#
#
# Elastic Compliance Matrix: (Units=1/GPa)
#
#
# Indices 1 2 3 4 5 6 
#
# 1 0.051527 -0.018134 -0.007647 0.000000 0.007540 -0.000001
# 2 -0.018134 0.027986 -0.000761 0.000000 0.004342 0.000000
# 3 -0.007647 -0.000761 0.011340 -0.000001 0.001155 0.000000
# 4 0.000000 0.000000 -0.000001 0.179843 -0.000001 -0.040685
# 5 0.007540 0.004342 0.001155 -0.000001 0.036008 -0.000001
# 6 -0.000001 0.000000 0.000000 -0.040685 -0.000001 0.091171
#
#
# Mechanical properties :
#
#
# Convention : Reuss Voigt Hill
#
# Bulk Modulus (GPa) = 26.47603 36.97951 31.72777
# Shear Modulus (GPa) = 10.78634 18.34484 14.56559
#
# Velocity S-wave (km/s) = 2.83903 3.70245 3.29911
# Velocity P-wave (km/s) = 5.52548 6.77573 6.18229
#
# Compressibility (1/GPa) = 0.03777001
#
# Stress axis : x y z
#
# Youngs Moduli (GPa) = 19.40720 35.73272 88.18008
#
# Poissons Ratio (x) = 0.64796 0.67430
# Poissons Ratio (y) = 0.35192 0.06712
# Poissons Ratio (z) = 0.14840 0.02720
#
# Static dielectric constant tensor:
#      x y z
#    x 1.473110 0.000000 -0.008790 
#    y 0.000000 1.423260 0.000000 
#    z -0.008790 0.000000 1.515560 
# 
# From -- ./inp_files/323097.got.cif
#   From: 2010.05.17/outbox.cif.g08.bks.cpg/sg12_162_cif.got.tgz:323097.got - 2010.06.03 13:09:07.
