data_PCOD9170788
_publ_section_title
;
Structure prediction by ZEFSAII (Michael W. Deem and Ramdas Pophale) SiO2 
 PCOD9170788
Probable space group: C 2/M
;
_chemical_formula_sum "Si O2"
_cell_formula_units_Z 44
_cell_length_a 16.388886
_cell_length_b 16.559247
_cell_length_c 11.549642
_cell_angle_alpha 90.000000
_cell_angle_beta 44.654901
_cell_angle_gamma 90.000000
_cell_volume 2202.986924
_symmetry_space_group_name_H-M "C 2/M"
_symmetry_group_IT_number 12
_symmetry_cell_setting 'monoclinic'
loop_
_space_group_symop_operation_xyz
x,y,z
-x,y,-z
-x,-y,-z
x,-y,z
1/2+x,1/2+y,z
1/2-x,1/2+y,-z
1/2-x,1/2-y,-z
1/2+x,1/2-y,z
loop_
_atom_site_type_symbol
_atom_site_label
_atom_site_fract_x
_atom_site_fract_y
_atom_site_fract_z
Si Si1 0.915327 0.765617 0.196351
Si Si2 0.465618 0.411759 0.787859
Si Si3 0.469970 0.913792 0.166998
Si Si4 0.697394 0.137664 0.049312
Si Si5 0.787962 0.745489 0.759678
Si Si6 0.000000 0.139502 0.500000
O O1 0.790579 0.784053 0.266348
O O2 0.967489 0.835574 0.224323
O O3 0.913245 0.674035 0.249278
O O4 0.000000 0.763889 0.000000
O O5 0.494853 0.500000 0.808522
O O6 0.495057 0.410079 0.622546
O O7 0.326066 0.398492 0.936315
O O8 0.591512 0.914816 0.112068
O O9 0.407282 0.000000 0.252904
O O10 0.500000 0.912848 0.000000
O O11 0.662772 0.176789 0.206478
O O12 0.711732 0.203429 0.930724
O O13 0.887266 0.803861 0.614487
#
# Coordination Sequence:
#
# PCOD9170788 Si02
#       6
#     8   8   8   8   8   4
#     4  11  19  37  59  88 121 147 196 254 295 343
#     4  11  23  38  59  88 121 160 199 241 293 352
#     4  10  18  29  50  84 114 143 183 240 298 335
#     4  10  17  34  57  81 116 153 198 242 285 343
#     4  10  19  35  59  84 114 158 194 239 294 350
#     4  10  23  38  58  84 121 160 199 240 292 360
#
# _framework density 19.972881000000001
#
# number of rings (size 3 to 8) (size 9 to 14) (size 15 to 20)
#    0.000    1.636    5.455    3.000    0.000    1.091 
#    0.000    0.909    0.000    0.000    0.000   17.818 
#    0.000    0.000    0.000    0.000    0.000    0.000 
#
# Total GULP energy -122621.465526 kJ/mol
# GULP energy per Si atom -5573.702978 kJ/mol
# Density = 1.992742 g / cm^3
# Si number density = 19.972881 Si / 1000 Ang^3
#
#
#
# Elastic Constant Matrix: (Units=GPa)
#
#
# Indices 1 2 3 4 5 6 
#
# 1 111.7044 50.4007 -2.3340 0.0000 -3.4396 0.0000
# 2 50.4007 131.8861 1.2768 0.0000 14.7448 0.0000
# 3 -2.3340 1.2768 17.9872 0.0000 3.5289 0.0000
# 4 0.0000 0.0000 0.0000 -4.5830 0.0000 22.5928
# 5 -3.4396 14.7448 3.5289 0.0000 9.4350 0.0000
# 6 0.0000 0.0000 0.0000 22.5928 0.0000 6.1625
#
#
#
# Elastic Compliance Matrix: (Units=1/GPa)
#
#
# Indices 1 2 3 4 5 6 
#
# 1 0.012226 -0.006298 -0.000833 0.000000 0.014610 0.000000
# 2 -0.006298 0.012523 0.002789 0.000000 -0.022910 0.000000
# 3 -0.000833 0.002789 0.060654 0.000000 -0.027348 0.000000
# 4 0.000000 0.000000 0.000000 -0.011440 0.000000 0.041941
# 5 0.014610 -0.022910 -0.027348 0.000000 0.157347 0.000000
# 6 0.000000 0.000000 0.000000 0.041941 0.000000 0.008508
#
#
# Mechanical properties :
#
#
# Convention : Reuss Voigt Hill
#
# Bulk Modulus (GPa) = 13.03442 40.02941 26.53192
# Shear Modulus (GPa) = 18.24314 16.35186 17.29750
#
# Velocity S-wave (km/s) = 3.02552 2.86440 2.94606
# Velocity P-wave (km/s) = 4.32958 5.57002 4.98851
#
# Compressibility (1/GPa) = 0.07671993
#
# Stress axis : x y z
#
# Youngs Moduli (GPa) = 81.79189 79.85128 16.48683
#
# Poissons Ratio (x) = 0.50287 0.01373
# Poissons Ratio (y) = 0.51510 -0.04597
# Poissons Ratio (z) = 0.06812 -0.22267
#
# Static dielectric constant tensor:
#      x y z
#    x 1.718400 0.000000 -0.032850 
#    y 0.000000 1.789400 0.000000 
#    z -0.032850 0.000000 1.737770 
# 
# From -- ./inp_files/145330.got.cif
#   From: 2010.05.17/outbox.cif.g08.bks.cpg/sg12_73_cif.got.tgz:145330.got - 2010.06.03 13:09:07.
