data_PCOD9170932
_publ_section_title
;
Structure prediction by ZEFSAII (Michael W. Deem and Ramdas Pophale) SiO2 
 PCOD9170932
Probable space group: C 2/M
;
_chemical_formula_sum "Si O2"
_cell_formula_units_Z 64
_cell_length_a 32.902587
_cell_length_b 14.834342
_cell_length_c 23.721747
_cell_angle_alpha 90.000000
_cell_angle_beta 16.369228
_cell_angle_gamma 90.000000
_cell_volume 3263.069771
_symmetry_space_group_name_H-M "C 2/M"
_symmetry_group_IT_number 12
_symmetry_cell_setting 'monoclinic'
loop_
_space_group_symop_operation_xyz
x,y,z
-x,y,-z
-x,-y,-z
x,-y,z
1/2+x,1/2+y,z
1/2-x,1/2+y,-z
1/2-x,1/2-y,-z
1/2+x,1/2-y,z
loop_
_atom_site_type_symbol
_atom_site_label
_atom_site_fract_x
_atom_site_fract_y
_atom_site_fract_z
Si Si1 0.742526 0.098910 0.416772
Si Si2 0.962574 0.604798 0.208110
Si Si3 0.586207 0.728891 0.110483
Si Si4 0.122465 0.710329 0.790471
Si Si5 0.636733 0.594978 0.198220
Si Si6 0.050452 0.644476 0.257884
Si Si7 0.906086 0.281810 0.680900
Si Si8 0.399033 0.398152 0.416381
O O1 0.679822 0.103887 0.563436
O O2 0.837721 0.186972 0.278928
O O3 0.595846 0.105083 0.573869
O O4 0.809068 0.000000 0.318905
O O5 0.014214 0.500000 0.137311
O O6 0.929298 0.648740 0.192589
O O7 0.061183 0.680189 0.107935
O O8 0.579039 0.763848 0.184663
O O9 0.461420 0.654166 0.278395
O O10 0.740800 0.688806 0.890507
O O11 0.270054 0.661829 0.612777
O O12 0.000000 0.710614 0.000000
O O13 0.620750 0.500000 0.251034
O O14 0.609106 0.679840 0.275093
O O15 0.523344 0.594456 0.297954
O O16 0.798252 0.596846 0.957392
O O17 0.034660 0.661834 0.344934
O O18 0.000000 0.287255 0.500000
O O19 0.351175 0.500000 0.466381
#
# Coordination Sequence:
#
# PCOD9170932 Si02
#       8
#     8   8   8   8   8   8   8   8
#     4  10  21  39  68  94 117 158 212 256 295 360
#     4  10  22  40  65  91 116 157 211 258 304 360
#     4  10  19  38  61  84 118 158 214 253 290 358
#     4  12  25  42  61  89 131 162 196 255 321 364
#     4  10  19  34  60  88 117 159 206 248 291 362
#     4  10  17  37  61  86 119 159 204 245 298 360
#     4  11  21  33  55  89 128 160 191 245 313 364
#     4  11  21  37  62  88 117 160 212 251 298 365
#
# _framework density 19.613433000000001
#
# number of rings (size 3 to 8) (size 9 to 14) (size 15 to 20)
#    0.000    1.500    5.000    1.875    0.000    6.500 
#    0.000    1.250    0.000    4.875    0.000    0.000 
#    0.000    0.000    0.000    0.000    0.000    0.000 
#
# Total GULP energy -178393.061870 kJ/mol
# GULP energy per Si atom -5574.783183 kJ/mol
# Density = 1.956879 g / cm^3
# Si number density = 19.613433 Si / 1000 Ang^3
#
#
#
# Elastic Constant Matrix: (Units=GPa)
#
#
# Indices 1 2 3 4 5 6 
#
# 1 71.2005 13.1974 42.8886 0.0010 18.3879 -0.0005
# 2 13.1974 116.4444 42.4288 0.0030 15.5291 -0.0021
# 3 42.8886 42.4288 79.6117 0.0011 24.5891 -0.0009
# 4 0.0010 0.0030 0.0011 4.0034 -0.0007 1.7205
# 5 18.3879 15.5291 24.5891 -0.0007 20.3446 0.0001
# 6 -0.0005 -0.0021 -0.0009 1.7205 0.0001 9.9036
#
#
#
# Elastic Compliance Matrix: (Units=1/GPa)
#
#
# Indices 1 2 3 4 5 6 
#
# 1 0.022316 0.002542 -0.010449 -0.000007 -0.009482 0.000002
# 2 0.002542 0.011000 -0.006269 -0.000009 -0.003117 0.000004
# 3 -0.010449 -0.006269 0.027344 -0.000004 -0.018819 0.000001
# 4 -0.000007 -0.000009 -0.000004 0.269939 0.000028 -0.046894
# 5 -0.009482 -0.003117 -0.018819 0.000028 0.082848 -0.000008
# 6 0.000002 0.000004 0.000001 -0.046894 -0.000008 0.109120
#
#
# Mechanical properties :
#
#
# Convention : Reuss Voigt Hill
#
# Bulk Modulus (GPa) = 30.95131 51.58737 41.26934
# Shear Modulus (GPa) = 8.90176 18.09977 13.50077
#
# Velocity S-wave (km/s) = 2.13271 3.04110 2.62648
# Velocity P-wave (km/s) = 4.67756 6.22015 5.50317
#
# Compressibility (1/GPa) = 0.03230881
#
# Stress axis : x y z
#
# Youngs Moduli (GPa) = 44.81049 90.91237 36.57165
#
# Poissons Ratio (x) = -0.23114 0.38212
# Poissons Ratio (y) = -0.11393 0.22928
# Poissons Ratio (z) = 0.46820 0.56995
#
# Static dielectric constant tensor:
#      x y z
#    x 1.732790 0.000000 -0.061970 
#    y 0.000000 1.766600 0.000000 
#    z -0.061970 0.000000 1.672860 
# 
# From -- ./inp_files/330337.got.cif
#   From: 2010.05.17/outbox.cif.g08.bks.cpg/sg12_166_cif.got.tgz:330337.got - 2010.06.03 13:09:07.
