data_PCOD9170359
_publ_section_title
;
Structure prediction by ZEFSAII (Michael W. Deem and Ramdas Pophale) SiO2 
 PCOD9170359
Probable space group: C 2/M
;
_chemical_formula_sum "Si O2"
_cell_formula_units_Z 56
_cell_length_a 17.150459
_cell_length_b 21.525770
_cell_length_c 12.134837
_cell_angle_alpha 90.000000
_cell_angle_beta 47.793454
_cell_angle_gamma 90.000000
_cell_volume 3318.387224
_symmetry_space_group_name_H-M "C 2/M"
_symmetry_group_IT_number 12
_symmetry_cell_setting 'monoclinic'
loop_
_space_group_symop_operation_xyz
x,y,z
-x,y,-z
-x,-y,-z
x,-y,z
1/2+x,1/2+y,z
1/2-x,1/2+y,-z
1/2-x,1/2-y,-z
1/2+x,1/2-y,z
loop_
_atom_site_type_symbol
_atom_site_label
_atom_site_fract_x
_atom_site_fract_y
_atom_site_fract_z
Si Si1 0.877506 0.129004 0.860271
Si Si2 0.705995 0.250049 0.417861
Si Si3 0.747102 0.699053 0.843847
Si Si4 0.170124 0.000000 0.381516
Si Si5 0.025089 0.740573 0.288997
Si Si6 0.966802 0.000000 0.716075
Si Si7 0.427869 0.199982 0.976676
Si Si8 0.738341 0.874002 0.769718
O O1 0.954211 0.188288 0.769963
O O2 0.808741 0.127119 0.813669
O O3 0.936923 0.063229 0.808106
O O4 0.802234 0.143892 0.036442
O O5 0.750000 0.250000 0.500000
O O6 0.757104 0.199867 0.285126
O O7 0.580636 0.239978 0.540961
O O8 0.729790 0.316385 0.338243
O O9 0.867509 0.715268 0.759017
O O10 0.674241 0.757436 0.949122
O O11 0.102156 0.000000 0.331931
O O12 0.239257 0.938086 0.312155
O O13 0.086555 0.000000 0.559911
O O14 0.009620 0.697951 0.195423
O O15 0.379958 0.138432 0.075914
O O16 0.500000 0.231489 0.000000
#
# Coordination Sequence:
#
# PCOD9170359 Si02
#       8
#     8   8   8   4   8   4   8   8
#     4  10  17  31  50  75  99 130 163 206 251 300
#     4  11  22  31  47  77 105 131 163 209 259 300
#     4  10  19  32  49  73  99 133 168 201 252 301
#     4   9  18  30  49  75 102 131 158 210 257 295
#     4  11  17  30  50  72 100 132 165 202 249 302
#     4   9  18  28  48  79 103 124 163 211 260 285
#     4  10  18  30  47  70 103 134 160 201 246 301
#     4  10  18  33  48  72 104 127 166 204 252 304
#
# _framework density 16.875668000000001
#
# number of rings (size 3 to 8) (size 9 to 14) (size 15 to 20)
#    0.000    1.857    4.286    3.857    0.000    1.143 
#    0.000    0.357    0.000    0.857    0.000   21.000 
#    0.000    0.000    0.000    0.000    0.000    0.000 
#
# Total GULP energy -155906.168696 kJ/mol
# GULP energy per Si atom -5568.077453 kJ/mol
# Density = 1.683726 g / cm^3
# Si number density = 16.875668 Si / 1000 Ang^3
#
#
#
# Elastic Constant Matrix: (Units=GPa)
#
#
# Indices 1 2 3 4 5 6 
#
# 1 43.4466 13.5355 21.0562 0.0000 10.9160 0.0000
# 2 13.5355 98.2356 69.9013 0.0000 -4.1288 0.0000
# 3 21.0562 69.9013 129.7968 0.0000 9.0360 0.0000
# 4 0.0000 0.0000 0.0000 28.0239 0.0000 -1.2442
# 5 10.9160 -4.1288 9.0360 0.0000 30.0560 0.0000
# 6 0.0000 0.0000 0.0000 -1.2442 0.0000 6.5150
#
#
#
# Elastic Compliance Matrix: (Units=1/GPa)
#
#
# Indices 1 2 3 4 5 6 
#
# 1 0.027361 -0.002405 -0.002480 0.000000 -0.009522 0.000000
# 2 -0.002405 0.017500 -0.009461 0.000000 0.006122 0.000000
# 3 -0.002480 -0.009461 0.013512 0.000000 -0.004461 0.000000
# 4 0.000000 0.000000 0.000000 0.035989 0.000000 0.006873
# 5 -0.009522 0.006122 -0.004461 0.000000 0.038912 0.000000
# 6 0.000000 0.000000 0.000000 0.006873 0.000000 0.154806
#
#
# Mechanical properties :
#
#
# Convention : Reuss Voigt Hill
#
# Bulk Modulus (GPa) = 33.69200 53.38501 43.53850
# Shear Modulus (GPa) = 15.30620 24.05137 19.67878
#
# Velocity S-wave (km/s) = 3.01491 3.77929 3.41853
# Velocity P-wave (km/s) = 5.66813 7.12370 6.43719
#
# Compressibility (1/GPa) = 0.02968064
#
# Stress axis : x y z
#
# Youngs Moduli (GPa) = 36.54904 57.14239 74.00695
#
# Poissons Ratio (x) = 0.13743 0.18357
# Poissons Ratio (y) = 0.08790 0.70015
# Poissons Ratio (z) = 0.09066 0.54060
#
# Static dielectric constant tensor:
#      x y z
#    x 1.615170 0.000000 0.007110 
#    y 0.000000 1.568680 0.000000 
#    z 0.007110 0.000000 1.606450 
# 
# From -- ./inp_files/159211.got.cif
#   From: 2010.05.17/outbox.cif.g08.bks.cpg/sg12_80_cif.got.tgz:159211.got - 2010.06.03 13:09:07.
