data_PCOD9170451
_publ_section_title
;
Structure prediction by ZEFSAII (Michael W. Deem and Ramdas Pophale) SiO2 
 PCOD9170451
Probable space group: C 2/M
;
_chemical_formula_sum "Si O2"
_cell_formula_units_Z 64
_cell_length_a 16.207950
_cell_length_b 15.607767
_cell_length_c 25.602037
_cell_angle_alpha 90.000000
_cell_angle_beta 26.922748
_cell_angle_gamma 90.000000
_cell_volume 2932.506627
_symmetry_space_group_name_H-M "C 2/M"
_symmetry_group_IT_number 12
_symmetry_cell_setting 'monoclinic'
loop_
_space_group_symop_operation_xyz
x,y,z
-x,y,-z
-x,-y,-z
x,-y,z
1/2+x,1/2+y,z
1/2-x,1/2+y,-z
1/2-x,1/2-y,-z
1/2+x,1/2-y,z
loop_
_atom_site_type_symbol
_atom_site_label
_atom_site_fract_x
_atom_site_fract_y
_atom_site_fract_z
Si Si1 0.448933 0.591086 0.240278
Si Si2 0.233610 0.591676 0.253035
Si Si3 0.145176 0.267622 0.112112
Si Si4 0.425382 0.400977 0.679124
Si Si5 0.816717 0.400479 0.288474
Si Si6 0.248060 0.831844 0.438911
Si Si7 0.332776 0.227858 0.788834
Si Si8 0.108527 0.645662 0.493138
O O1 0.547291 0.500000 0.190519
O O2 0.355763 0.592171 0.235880
O O3 0.557895 0.678076 0.179649
O O4 0.291175 0.597956 0.372652
O O5 0.256723 0.500000 0.212650
O O6 0.269882 0.673243 0.197010
O O7 0.028424 0.598551 0.391192
O O8 0.988889 0.337063 0.188396
O O9 0.248031 0.290136 0.107966
O O10 0.250000 0.250000 0.000000
O O11 0.399224 0.500000 0.710372
O O12 0.315914 0.388321 0.686104
O O13 0.637069 0.383637 0.545091
O O14 0.354656 0.326384 0.757691
O O15 0.872262 0.500000 0.257936
O O16 0.725312 0.377308 0.395567
O O17 0.462435 0.813522 0.325036
O O18 0.156220 0.738603 0.488263
O O19 0.000000 0.658760 0.500000
#
# Coordination Sequence:
#
# PCOD9170451 Si02
#       8
#     8   8   8   8   8   8   8   8
#     4  10  20  38  61  86 114 153 196 229 272 338
#     4  10  21  35  58  88 122 157 184 222 278 339
#     4  11  25  44  64  83 105 143 193 251 303 338
#     4  11  22  36  57  87 124 160 189 224 274 340
#     4  10  21  39  62  85 114 156 199 232 272 337
#     4  11  20  33  54  88 123 163 193 219 269 327
#     4  11  23  38  54  84 120 150 189 238 292 337
#     4  10  17  31  57  85 119 155 190 223 260 330
#
# _framework density 21.824331999999998
#
# number of rings (size 3 to 8) (size 9 to 14) (size 15 to 20)
#    0.000    1.500    3.750    3.000    0.000    6.000 
#    0.000    2.500    0.000    3.000    0.000    0.000 
#    0.000    0.000    0.000    0.000    0.000    0.000 
#
# Total GULP energy -178853.302530 kJ/mol
# GULP energy per Si atom -5589.165704 kJ/mol
# Density = 2.177466 g / cm^3
# Si number density = 21.824332 Si / 1000 Ang^3
#
#
#
# Elastic Constant Matrix: (Units=GPa)
#
#
# Indices 1 2 3 4 5 6 
#
# 1 78.6268 38.3405 23.6866 0.0010 31.1866 0.0323
# 2 38.3405 124.2240 11.8361 0.0072 9.5187 -0.0332
# 3 23.6866 11.8361 57.6325 0.0033 30.2496 0.1181
# 4 0.0010 0.0072 0.0033 2.0507 0.0102 -19.9277
# 5 31.1866 9.5187 30.2496 0.0102 28.8656 -0.1153
# 6 0.0323 -0.0332 0.1181 -19.9277 -0.1153 343.1855
#
#
#
# Elastic Compliance Matrix: (Units=1/GPa)
#
#
# Indices 1 2 3 4 5 6 
#
# 1 0.028570 -0.006780 0.010397 -0.000015 -0.039528 -0.000021
# 2 -0.006780 0.009877 -0.003061 -0.000030 0.007275 0.000003
# 3 0.010397 -0.003061 0.042388 -0.000282 -0.054644 -0.000051
# 4 -0.000015 -0.000030 -0.000282 1.119084 0.000187 0.064982
# 5 -0.039528 0.007275 -0.054644 0.000187 0.132214 0.000079
# 6 -0.000021 0.000003 -0.000051 0.064982 0.000079 0.006687
#
#
# Mechanical properties :
#
#
# Convention : Reuss Voigt Hill
#
# Bulk Modulus (GPa) = 12.20281 45.35663 28.77972
# Shear Modulus (GPa) = 3.66294 87.26170 45.46232
#
# Velocity S-wave (km/s) = 1.29693 6.33012 4.56905
# Velocity P-wave (km/s) = 2.80111 8.61714 6.40708
#
# Compressibility (1/GPa) = 0.08194831
#
# Stress axis : x y z
#
# Youngs Moduli (GPa) = 35.00117 101.24916 23.59162
#
# Poissons Ratio (x) = 0.68645 -0.24528
# Poissons Ratio (y) = 0.23730 0.07220
# Poissons Ratio (z) = -0.36391 0.30987
#
# Static dielectric constant tensor:
#      x y z
#    x 1.867370 -0.000040 0.015460 
#    y -0.000040 1.776370 0.000040 
#    z 0.015460 0.000040 1.787100 
# 
# From -- ./inp_files/278152.got.cif
#   From: 2010.05.17/outbox.cif.g08.bks.cpg/sg12_140_cif.got.tgz:278152.got - 2010.06.03 13:09:07.
