data_PCOD9170475
_publ_section_title
;
Structure prediction by ZEFSAII (Michael W. Deem and Ramdas Pophale) SiO2 
 PCOD9170475
Probable space group: C 2/M
;
_chemical_formula_sum "Si O2"
_cell_formula_units_Z 64
_cell_length_a 18.441862
_cell_length_b 21.675928
_cell_length_c 9.842438
_cell_angle_alpha 90.000000
_cell_angle_beta 97.301418
_cell_angle_gamma 90.000000
_cell_volume 3902.556824
_symmetry_space_group_name_H-M "C 2/M"
_symmetry_group_IT_number 12
_symmetry_cell_setting 'monoclinic'
loop_
_space_group_symop_operation_xyz
x,y,z
-x,y,-z
-x,-y,-z
x,-y,z
1/2+x,1/2+y,z
1/2-x,1/2+y,-z
1/2-x,1/2-y,-z
1/2+x,1/2-y,z
loop_
_atom_site_type_symbol
_atom_site_label
_atom_site_fract_x
_atom_site_fract_y
_atom_site_fract_z
Si Si1 0.675224 0.930589 0.049288
Si Si2 0.884891 0.566753 0.259529
Si Si3 0.778145 0.192062 0.420564
Si Si4 0.947109 0.741141 0.865344
Si Si5 0.957438 0.601713 0.788922
Si Si6 0.427158 0.281265 0.566559
Si Si7 0.721745 0.793494 0.114133
Si Si8 0.633407 0.141534 0.479183
O O1 0.597089 0.923381 0.108717
O O2 0.718733 0.867715 0.092238
O O3 0.703193 0.000000 0.089682
O O4 0.664398 0.927465 0.885045
O O5 0.872376 0.500000 0.321623
O O6 0.872101 0.617877 0.369678
O O7 0.966540 0.569350 0.219412
O O8 0.750000 0.250000 0.500000
O O9 0.859300 0.179013 0.493306
O O10 0.769823 0.212522 0.262260
O O11 0.715804 0.142229 0.440534
O O12 0.975511 0.673053 0.829234
O O13 0.944027 0.784055 0.731260
O O14 0.862362 0.727945 0.882585
O O15 0.000000 0.762538 0.000000
O O16 0.913921 0.601727 0.636724
O O17 0.500000 0.292839 0.500000
O O18 0.400658 0.210295 0.536766
O O19 0.750000 0.750000 0.000000
#
# Coordination Sequence:
#
# PCOD9170475 Si02
#       8
#     8   8   8   8   8   8   8   8
#     4  10  21  35  48  70 107 144 185 227 269 313
#     4  11  22  30  46  73 102 147 189 221 251 294
#     4  10  19  37  50  72 103 134 179 218 276 324
#     4  10  19  32  46  76 105 136 178 214 265 316
#     4  10  17  32  47  68 100 144 189 219 249 296
#     4  10  20  31  52  71  96 137 167 218 274 321
#     4  11  22  35  55  81 101 147 184 224 273 319
#     4  10  19  33  48  68 102 136 179 218 262 306
#
# _framework density 16.399505000000001
#
# number of rings (size 3 to 8) (size 9 to 14) (size 15 to 20)
#    0.000    1.750    5.000    4.125    5.250    2.500 
#    0.000    0.000    0.000    0.000    0.000    0.000 
#    0.000    2.500    0.000    0.125    0.000    0.125 
#
# Total GULP energy -178249.132526 kJ/mol
# GULP energy per Si atom -5570.285391 kJ/mol
# Density = 1.636218 g / cm^3
# Si number density = 16.399505 Si / 1000 Ang^3
#
#
#
# Elastic Constant Matrix: (Units=GPa)
#
#
# Indices 1 2 3 4 5 6 
#
# 1 67.5968 8.7346 22.0212 0.0000 9.2447 0.0000
# 2 8.7346 39.8985 26.9923 0.0000 0.2173 0.0000
# 3 22.0212 26.9923 105.0775 0.0000 9.4564 0.0000
# 4 0.0000 0.0000 0.0000 11.5390 0.0000 0.1927
# 5 9.2447 0.2173 9.4564 0.0000 27.3900 0.0000
# 6 0.0000 0.0000 0.0000 0.1927 0.0000 8.8932
#
#
#
# Elastic Compliance Matrix: (Units=1/GPa)
#
#
# Indices 1 2 3 4 5 6 
#
# 1 0.016507 -0.001855 -0.002562 0.000000 -0.004672 0.000000
# 2 -0.001855 0.030714 -0.007777 0.000000 0.003067 0.000000
# 3 -0.002562 -0.007777 0.012352 0.000000 -0.003338 0.000000
# 4 0.000000 0.000000 0.000000 0.086694 0.000000 -0.001878
# 5 -0.004672 0.003067 -0.003338 0.000000 0.039215 0.000000
# 6 0.000000 0.000000 0.000000 -0.001878 0.000000 0.112487
#
#
# Mechanical properties :
#
#
# Convention : Reuss Voigt Hill
#
# Bulk Modulus (GPa) = 28.42158 36.45211 32.43685
# Shear Modulus (GPa) = 14.96620 19.88607 17.42613
#
# Velocity S-wave (km/s) = 3.02421 3.48602 3.26329
# Velocity P-wave (km/s) = 5.43717 6.20314 5.83274
#
# Compressibility (1/GPa) = 0.03518453
#
# Stress axis : x y z
#
# Youngs Moduli (GPa) = 60.58029 32.55795 80.95827
#
# Poissons Ratio (x) = 0.06039 0.20745
# Poissons Ratio (y) = 0.11236 0.62964
# Poissons Ratio (z) = 0.15524 0.25321
#
# Static dielectric constant tensor:
#      x y z
#    x 1.582670 0.000000 0.022520 
#    y 0.000000 1.565350 0.000000 
#    z 0.022520 0.000000 1.585070 
# 
# From -- ./inp_files/78789.got.cif
#   From: 2010.05.17/outbox.cif.g08.bks.cpg/sg12_40_cif.got.tgz:78789.got - 2010.06.03 13:09:07.
