data_PCOD9170654
_publ_section_title
;
Structure prediction by ZEFSAII (Michael W. Deem and Ramdas Pophale) SiO2 
 PCOD9170654
Probable space group: C 2/M
;
_chemical_formula_sum "Si O2"
_cell_formula_units_Z 64
_cell_length_a 21.375208
_cell_length_b 19.466438
_cell_length_c 20.512443
_cell_angle_alpha 90.000000
_cell_angle_beta 151.783493
_cell_angle_gamma 90.000000
_cell_volume 4035.487133
_symmetry_space_group_name_H-M "C 2/M"
_symmetry_group_IT_number 12
_symmetry_cell_setting 'monoclinic'
loop_
_space_group_symop_operation_xyz
x,y,z
-x,y,-z
-x,-y,-z
x,-y,z
1/2+x,1/2+y,z
1/2-x,1/2+y,-z
1/2-x,1/2-y,-z
1/2+x,1/2-y,z
loop_
_atom_site_type_symbol
_atom_site_label
_atom_site_fract_x
_atom_site_fract_y
_atom_site_fract_z
Si Si1 0.408855 0.078630 0.689631
Si Si2 0.030205 0.784461 0.952990
Si Si3 0.801980 0.801453 0.491297
Si Si4 0.045549 0.578800 0.423815
Si Si5 0.380505 0.823383 0.070027
Si Si6 0.313298 0.178056 0.239544
Si Si7 0.238062 0.692166 0.657326
Si Si8 0.905112 0.218672 0.213611
O O1 0.290796 0.132010 0.595564
O O2 0.439911 0.081677 0.640964
O O3 0.538616 0.107550 0.844958
O O4 0.378319 0.000000 0.678675
O O5 0.065530 0.718357 0.942481
O O6 0.896685 0.817709 0.802607
O O7 0.162390 0.830777 0.076029
O O8 0.000000 0.765378 0.000000
O O9 0.750000 0.750000 0.500000
O O10 0.793423 0.757807 0.416657
O O11 0.954109 0.816986 0.648432
O O12 0.056599 0.500000 0.455154
O O13 0.159180 0.627332 0.557159
O O14 0.906186 0.612230 0.316613
O O15 0.410446 0.773887 0.159528
O O16 0.222285 0.828291 0.917950
O O17 0.305775 0.200407 0.307876
O O18 0.375300 0.237200 0.251111
#
# Coordination Sequence:
#
# PCOD9170654 Si02
#       8
#     8   8   8   8   8   8   8   8
#     4  11  22  36  54  78 109 143 178 217 265 319
#     4   9  19  31  51  80 104 126 175 229 255 302
#     4  12  18  33  53  80 103 134 176 225 260 306
#     4  11  22  35  50  75 112 146 178 213 259 318
#     4  10  17  33  53  74 104 135 168 213 269 306
#     4  10  19  33  48  79 108 131 176 218 260 310
#     4  11  19  31  54  76 105 139 175 215 265 307
#     4  10  19  29  53  81 101 129 171 222 259 304
#
# _framework density 15.859299999999999
#
# number of rings (size 3 to 8) (size 9 to 14) (size 15 to 20)
#    0.000    1.500    6.250    0.375    0.000    1.000 
#    0.000    1.250    0.000    5.625    0.000    1.750 
#    0.000    0.000    0.000    0.000    0.000    0.000 
#
# Total GULP energy -178448.006001 kJ/mol
# GULP energy per Si atom -5576.500188 kJ/mol
# Density = 1.582320 g / cm^3
# Si number density = 15.859300 Si / 1000 Ang^3
#
#
#
# Elastic Constant Matrix: (Units=GPa)
#
#
# Indices 1 2 3 4 5 6 
#
# 1 62.7632 34.8956 37.2186 0.0006 7.3978 0.0002
# 2 34.8956 101.8178 63.4809 0.0007 7.3125 0.0006
# 3 37.2186 63.4809 133.9437 0.0004 18.2726 0.0003
# 4 0.0006 0.0007 0.0004 20.0615 0.0004 3.7170
# 5 7.3978 7.3125 18.2726 0.0004 24.6302 0.0003
# 6 0.0002 0.0006 0.0003 3.7170 0.0003 18.2340
#
#
#
# Elastic Compliance Matrix: (Units=1/GPa)
#
#
# Indices 1 2 3 4 5 6 
#
# 1 0.020853 -0.005064 -0.003054 0.000000 -0.002494 0.000000
# 2 -0.005064 0.015186 -0.005989 0.000000 0.001455 0.000000
# 3 -0.003054 -0.005989 0.012000 0.000000 -0.006207 0.000000
# 4 0.000000 0.000000 0.000000 0.051803 -0.000001 -0.010560
# 5 -0.002494 0.001455 -0.006207 -0.000001 0.045522 0.000000
# 6 0.000000 0.000000 0.000000 -0.010560 0.000000 0.056995
#
#
# Mechanical properties :
#
#
# Convention : Reuss Voigt Hill
#
# Bulk Modulus (GPa) = 50.43968 63.30166 56.87067
# Shear Modulus (GPa) = 21.08083 23.44713 22.26398
#
# Velocity S-wave (km/s) = 3.64983 3.84923 3.75085
# Velocity P-wave (km/s) = 7.04523 7.73024 7.39567
#
# Compressibility (1/GPa) = 0.01982566
#
# Stress axis : x y z
#
# Youngs Moduli (GPa) = 47.95372 65.84896 83.33589
#
# Poissons Ratio (x) = 0.33343 0.25455
# Poissons Ratio (y) = 0.24281 0.49909
# Poissons Ratio (z) = 0.14647 0.39436
#
# Static dielectric constant tensor:
#      x y z
#    x 1.542660 0.000000 0.005210 
#    y 0.000000 1.488830 0.000000 
#    z 0.005210 0.000000 1.566630 
# 
# From -- ./inp_files/322448.got.cif
#   From: 2010.05.17/outbox.cif.g08.bks.cpg/sg12_162_cif.got.tgz:322448.got - 2010.06.03 13:09:07.
