data_PCOD9170770
_publ_section_title
;
Structure prediction by ZEFSAII (Michael W. Deem and Ramdas Pophale) SiO2 
 PCOD9170770
Probable space group: C 2/M
;
_chemical_formula_sum "Si O2"
_cell_formula_units_Z 52
_cell_length_a 12.123120
_cell_length_b 19.176747
_cell_length_c 17.855327
_cell_angle_alpha 90.000000
_cell_angle_beta 40.844281
_cell_angle_gamma 90.000000
_cell_volume 2714.804244
_symmetry_space_group_name_H-M "C 2/M"
_symmetry_group_IT_number 12
_symmetry_cell_setting 'monoclinic'
loop_
_space_group_symop_operation_xyz
x,y,z
-x,y,-z
-x,-y,-z
x,-y,z
1/2+x,1/2+y,z
1/2-x,1/2+y,-z
1/2-x,1/2-y,-z
1/2+x,1/2-y,z
loop_
_atom_site_type_symbol
_atom_site_label
_atom_site_fract_x
_atom_site_fract_y
_atom_site_fract_z
Si Si1 0.822284 0.344681 0.749405
Si Si2 0.865376 0.726829 0.872946
Si Si3 0.440195 0.500000 0.300433
Si Si4 0.731809 0.210196 0.709065
Si Si5 0.677692 0.000000 0.301389
Si Si6 0.219082 0.346964 0.560165
Si Si7 0.972646 0.851230 0.708500
Si Si8 0.698473 0.000000 0.559767
O O1 0.775251 0.321347 0.857468
O O2 0.746030 0.289804 0.730217
O O3 0.780402 0.425282 0.757276
O O4 0.025320 0.332211 0.638592
O O5 0.930374 0.792982 0.791410
O O6 0.035168 0.689938 0.814444
O O7 0.750000 0.750000 0.000000
O O8 0.283371 0.500000 0.323563
O O9 0.538257 0.427078 0.247746
O O10 0.358693 0.500000 0.424250
O O11 0.780193 0.200209 0.597384
O O12 0.844366 0.163266 0.706035
O O13 0.472406 0.000000 0.403118
O O14 0.343131 0.343367 0.425500
O O15 0.208538 0.426701 0.596276
#
# Coordination Sequence:
#
# PCOD9170770 Si02
#       8
#     8   8   4   8   4   8   8   4
#     4   9  20  34  56  84 108 141 182 219 265 325
#     4  10  22  40  57  75 104 140 183 231 271 312
#     4  10  19  33  51  80 116 143 173 216 267 322
#     4  10  20  34  54  79 107 142 175 219 273 319
#     4  10  17  34  55  76 109 144 181 222 265 308
#     4   9  18  33  52  81 114 140 173 216 261 321
#     4  10  21  34  54  82 110 142 178 214 265 329
#     4   8  17  31  50  77 111 149 180 207 256 324
#
# _framework density 19.154236000000001
#
# number of rings (size 3 to 8) (size 9 to 14) (size 15 to 20)
#    0.000    2.462    0.000    1.615    0.000    9.846 
#    0.000   13.077    0.000    2.769    0.000    0.000 
#    0.000    0.000    0.000    0.000    0.000    0.000 
#
# Total GULP energy -144922.247147 kJ/mol
# GULP energy per Si atom -5573.932583 kJ/mol
# Density = 1.911064 g / cm^3
# Si number density = 19.154236 Si / 1000 Ang^3
#
#
#
# Elastic Constant Matrix: (Units=GPa)
#
#
# Indices 1 2 3 4 5 6 
#
# 1 75.8772 36.5213 10.0761 -0.0031 9.8766 0.0010
# 2 36.5213 122.7757 12.7050 -0.0033 16.3224 0.0014
# 3 10.0761 12.7050 71.8302 -0.0100 18.8803 0.0043
# 4 -0.0031 -0.0033 -0.0100 13.7140 0.0047 -2.1197
# 5 9.8766 16.3224 18.8803 0.0047 14.6726 -0.0017
# 6 0.0010 0.0014 0.0043 -2.1197 -0.0017 21.3275
#
#
#
# Elastic Compliance Matrix: (Units=1/GPa)
#
#
# Indices 1 2 3 4 5 6 
#
# 1 0.015876 -0.003859 0.000206 0.000005 -0.006659 -0.000001
# 2 -0.003859 0.010631 0.001642 0.000007 -0.011341 -0.000001
# 3 0.000206 0.001642 0.021335 0.000026 -0.029418 -0.000004
# 4 0.000005 0.000007 0.000026 0.074056 -0.000067 0.007360
# 5 -0.006659 -0.011341 -0.029418 -0.000067 0.123107 0.000010
# 6 -0.000001 -0.000001 -0.000004 0.007360 0.000010 0.047619
#
#
# Mechanical properties :
#
#
# Convention : Reuss Voigt Hill
#
# Bulk Modulus (GPa) = 22.82078 43.23201 33.02639
# Shear Modulus (GPa) = 16.06416 24.02154 20.04285
#
# Velocity S-wave (km/s) = 2.89913 3.54518 3.23831
# Velocity P-wave (km/s) = 4.81110 6.27513 5.59124
#
# Compressibility (1/GPa) = 0.04381970
#
# Stress axis : x y z
#
# Youngs Moduli (GPa) = 62.98899 94.06831 46.87167
#
# Poissons Ratio (x) = 0.36296 -0.00964
# Poissons Ratio (y) = 0.24304 -0.07696
# Poissons Ratio (z) = -0.01296 -0.15446
#
# Static dielectric constant tensor:
#      x y z
#    x 1.688700 0.000000 -0.011910 
#    y 0.000000 1.752520 0.000000 
#    z -0.011910 0.000000 1.651520 
# 
# From -- ./inp_files/265036.got.cif
#   From: 2010.05.17/outbox.cif.g08.bks.cpg/sg12_133_cif.got.tgz:265036.got - 2010.06.03 13:09:07.
