data_PCOD9170012
_publ_section_title
;
Structure prediction by ZEFSAII (Michael W. Deem and Ramdas Pophale) SiO2 
 PCOD9170012
Probable space group: C 2/M
;
_chemical_formula_sum "Si O2"
_cell_formula_units_Z 60
_cell_length_a 12.614662
_cell_length_b 28.800817
_cell_length_c 11.586094
_cell_angle_alpha 90.000000
_cell_angle_beta 36.846418
_cell_angle_gamma 90.000000
_cell_volume 2524.243961
_symmetry_space_group_name_H-M "C 2/M"
_symmetry_group_IT_number 12
_symmetry_cell_setting 'monoclinic'
loop_
_space_group_symop_operation_xyz
x,y,z
-x,y,-z
-x,-y,-z
x,-y,z
1/2+x,1/2+y,z
1/2-x,1/2+y,-z
1/2-x,1/2-y,-z
1/2+x,1/2-y,z
loop_
_atom_site_type_symbol
_atom_site_label
_atom_site_fract_x
_atom_site_fract_y
_atom_site_fract_z
Si Si1 0.794768 0.149276 0.053324
Si Si2 0.000000 0.719068 0.000000
Si Si3 0.362972 0.694591 0.246118
Si Si4 0.094839 0.652041 0.635582
Si Si5 0.290057 0.450610 0.707491
Si Si6 0.707945 0.650714 0.291776
Si Si7 0.301651 0.948711 0.478035
Si Si8 0.428355 0.550262 0.931508
O O1 0.818384 0.167623 0.164792
O O2 0.606643 0.165574 0.176566
O O3 0.803619 0.094123 0.033047
O O4 0.971668 0.168336 0.839153
O O5 0.069484 0.754337 0.841551
O O6 0.173220 0.688571 0.876330
O O7 0.193417 0.689341 0.471340
O O8 0.197053 0.649328 0.666472
O O9 0.109362 0.600181 0.566063
O O10 0.500000 0.451522 0.500000
O O11 0.242388 0.500000 0.806235
O O12 0.261101 0.400613 0.790126
O O13 0.200551 0.450128 0.659323
O O14 0.500000 0.658649 0.500000
O O15 0.366385 0.000000 0.462442
O O16 0.098815 0.945287 0.699953
O O17 0.345033 0.500000 0.982933
O O18 0.500000 0.550813 0.000000
#
# Coordination Sequence:
#
# PCOD9170012 Si02
#       8
#     8   4   8   8   8   8   8   8
#     4  10  19  35  57  86 118 154 200 243 286 350
#     4  10  24  44  63  86 119 150 194 252 306 354
#     4  10  22  41  60  83 116 154 193 248 301 350
#     4  11  21  36  63  89 113 158 205 237 292 361
#     4   8  15  32  58  84 110 150 192 229 282 343
#     4  10  23  42  62  89 122 154 189 248 299 352
#     4   9  17  30  51  81 119 155 193 236 284 342
#     4  10  17  29  50  80 123 164 194 234 291 347
#
# _framework density 23.769492
#
# number of rings (size 3 to 8) (size 9 to 14) (size 15 to 20)
#    0.000    2.400    2.667    0.400    0.000    4.267 
#    2.400    3.667    0.000    4.000    0.000    0.000 
#    0.000    0.000    0.000    0.000    0.000    0.000 
#
# Total GULP energy -167522.197542 kJ/mol
# GULP energy per Si atom -5584.073251 kJ/mol
# Density = 2.371539 g / cm^3
# Si number density = 23.769492 Si / 1000 Ang^3
#
#
#
# Elastic Constant Matrix: (Units=GPa)
#
#
# Indices 1 2 3 4 5 6 
#
# 1 65.5250 16.5858 45.2062 0.0000 -10.5176 0.0000
# 2 16.5858 176.2761 64.0936 0.0000 -5.2202 0.0000
# 3 45.2062 64.0936 107.8122 0.0000 -19.6913 0.0000
# 4 0.0000 0.0000 0.0000 -6.8988 0.0000 22.5024
# 5 -10.5176 -5.2202 -19.6913 0.0000 36.0696 0.0000
# 6 0.0000 0.0000 0.0000 22.5024 0.0000 -24.1349
#
#
#
# Elastic Compliance Matrix: (Units=1/GPa)
#
#
# Indices 1 2 3 4 5 6 
#
# 1 0.021879 0.001572 -0.009888 0.000000 0.001209 0.000000
# 2 0.001572 0.007419 -0.005320 0.000000 -0.001372 0.000000
# 3 -0.009888 -0.005320 0.017680 0.000000 0.005999 0.000000
# 4 0.000000 0.000000 0.000000 0.071015 0.000000 0.066212
# 5 0.001209 -0.001372 0.005999 0.000000 0.031153 0.000000
# 6 0.000000 0.000000 0.000000 0.066212 0.000000 0.020299
#
#
# Mechanical properties :
#
#
# Convention : Reuss Voigt Hill
#
# Bulk Modulus (GPa) = 50.74553 66.82051 58.78302
# Shear Modulus (GPa) = 24.59581 15.92234 20.25907
#
# Velocity S-wave (km/s) = 3.22026 2.59098 2.92261
# Velocity P-wave (km/s) = 5.93483 6.09293 6.01440
#
# Compressibility (1/GPa) = 0.01970617
#
# Stress axis : x y z
#
# Youngs Moduli (GPa) = 45.70532 134.79220 56.56075
#
# Poissons Ratio (x) = -0.21196 0.55928
# Poissons Ratio (y) = -0.07187 0.30093
# Poissons Ratio (z) = 0.45194 0.71715
#
# Static dielectric constant tensor:
#      x y z
#    x 1.908960 0.000000 0.029280 
#    y 0.000000 1.964510 0.000000 
#    z 0.029280 0.000000 1.865340 
# 
# From -- ./inp_files/219447.got.cif
#   From: 2010.05.17/outbox.cif.g08.bks.cpg/sg12_110_cif.got.tgz:219447.got - 2010.06.03 13:09:07.
