data_PCOD9170476
_publ_section_title
;
Structure prediction by ZEFSAII (Michael W. Deem and Ramdas Pophale) SiO2 
 PCOD9170476
Probable space group: C 2/M
;
_chemical_formula_sum "Si O2"
_cell_formula_units_Z 52
_cell_length_a 16.311514
_cell_length_b 13.849820
_cell_length_c 14.159346
_cell_angle_alpha 90.000000
_cell_angle_beta 115.812708
_cell_angle_gamma 90.000000
_cell_volume 2879.594420
_symmetry_space_group_name_H-M "C 2/M"
_symmetry_group_IT_number 12
_symmetry_cell_setting 'monoclinic'
loop_
_space_group_symop_operation_xyz
x,y,z
-x,y,-z
-x,-y,-z
x,-y,z
1/2+x,1/2+y,z
1/2-x,1/2+y,-z
1/2-x,1/2-y,-z
1/2+x,1/2-y,z
loop_
_atom_site_type_symbol
_atom_site_label
_atom_site_fract_x
_atom_site_fract_y
_atom_site_fract_z
Si Si1 0.306079 0.806958 0.695591
Si Si2 0.713380 0.895182 0.669333
Si Si3 0.596084 0.826947 0.445695
Si Si4 0.136554 0.106514 0.722151
Si Si5 0.590255 0.181505 0.764449
Si Si6 0.500000 0.657014 0.500000
Si Si7 0.484556 0.885566 0.881895
O O1 0.278430 0.694869 0.682243
O O2 0.328568 0.831693 0.598357
O O3 0.226033 0.867243 0.705513
O O4 0.397187 0.828150 0.800085
O O5 0.632535 0.890273 0.550503
O O6 0.669304 0.874382 0.749220
O O7 0.756984 0.000000 0.686939
O O8 0.500741 0.843584 0.343158
O O9 0.575138 0.725101 0.486468
O O10 0.113290 0.203761 0.770089
O O11 0.053134 0.102113 0.607070
O O12 0.147233 0.000000 0.772537
O O13 0.568486 0.147533 0.858580
O O14 0.469228 0.000000 0.859280
O O15 0.500000 0.868908 0.000000
#
# Coordination Sequence:
#
# PCOD9170476 Si02
#       7
#     8   8   8   8   8   4   8
#     4  10  21  35  52  77 113 137 177 230 263 305
#     4  11  20  31  50  77 111 147 176 206 257 320
#     4  10  17  33  48  72 111 147 180 216 254 300
#     4  10  19  32  51  75 108 150 183 210 255 308
#     4   9  19  35  54  77 110 137 176 227 261 308
#     4  10  17  32  47  70 106 150 191 218 239 300
#     4  10  21  39  63  83  97 128 176 225 278 320
#
# _framework density 18.058098000000001
#
# number of rings (size 3 to 8) (size 9 to 14) (size 15 to 20)
#    0.000    2.000    4.615    1.615    0.000    4.308 
#    0.000   10.000    0.000    3.692    0.000    0.000 
#    0.000    0.000    0.000    0.000    0.000    0.000 
#
# Total GULP energy -144829.064577 kJ/mol
# GULP energy per Si atom -5570.348638 kJ/mol
# Density = 1.801700 g / cm^3
# Si number density = 18.058098 Si / 1000 Ang^3
#
#
#
# Elastic Constant Matrix: (Units=GPa)
#
#
# Indices 1 2 3 4 5 6 
#
# 1 74.1371 15.9385 23.8715 0.0000 -17.8901 0.0000
# 2 15.9385 96.2775 23.8585 0.0000 -5.0014 0.0000
# 3 23.8715 23.8585 44.1941 0.0000 -22.2420 0.0000
# 4 0.0000 0.0000 0.0000 -5.8324 0.0000 -17.7054
# 5 -17.8901 -5.0014 -22.2420 0.0000 26.1139 0.0000
# 6 0.0000 0.0000 0.0000 -17.7054 0.0000 -17.4463
#
#
#
# Elastic Compliance Matrix: (Units=1/GPa)
#
#
# Indices 1 2 3 4 5 6 
#
# 1 0.017092 -0.001240 -0.004882 0.000000 0.007314 0.000000
# 2 -0.001240 0.012573 -0.009335 0.000000 -0.006392 0.000000
# 3 -0.004882 -0.009335 0.048519 0.000000 0.036193 0.000000
# 4 0.000000 0.000000 0.000000 0.082400 0.000000 -0.083623
# 5 0.007314 -0.006392 0.036193 0.000000 0.072906 0.000000
# 6 0.000000 0.000000 0.000000 -0.083623 0.000000 0.027547
#
#
# Mechanical properties :
#
#
# Convention : Reuss Voigt Hill
#
# Bulk Modulus (GPa) = 21.15500 37.99396 29.57448
# Shear Modulus (GPa) = 16.24917 10.62971 13.43944
#
# Velocity S-wave (km/s) = 3.00297 2.42882 2.73102
# Velocity P-wave (km/s) = 4.87485 5.38062 5.13397
#
# Compressibility (1/GPa) = 0.04727015
#
# Stress axis : x y z
#
# Youngs Moduli (GPa) = 58.50723 79.53443 20.61037
#
# Poissons Ratio (x) = 0.09860 0.10062
# Poissons Ratio (y) = 0.07254 0.19240
# Poissons Ratio (z) = 0.28564 0.74247
#
# Static dielectric constant tensor:
#      x y z
#    x 1.643590 0.000000 0.009580 
#    y 0.000000 1.649500 0.000000 
#    z 0.009580 0.000000 1.610200 
# 
# From -- ./inp_files/214937.got.cif
#   From: 2010.05.17/outbox.cif.g08.bks.cpg/sg12_108_cif.got.tgz:214937.got - 2010.06.03 13:09:07.
