data_PCOD9170363
_publ_section_title
;
Structure prediction by ZEFSAII (Michael W. Deem and Ramdas Pophale) SiO2 
 PCOD9170363
Probable space group: C 2/M
;
_chemical_formula_sum "Si O2"
_cell_formula_units_Z 56
_cell_length_a 17.208940
_cell_length_b 24.791372
_cell_length_c 8.835076
_cell_angle_alpha 90.000000
_cell_angle_beta 52.611612
_cell_angle_gamma 90.000000
_cell_volume 2994.880381
_symmetry_space_group_name_H-M "C 2/M"
_symmetry_group_IT_number 12
_symmetry_cell_setting 'monoclinic'
loop_
_space_group_symop_operation_xyz
x,y,z
-x,y,-z
-x,-y,-z
x,-y,z
1/2+x,1/2+y,z
1/2-x,1/2+y,-z
1/2-x,1/2-y,-z
1/2+x,1/2-y,z
loop_
_atom_site_type_symbol
_atom_site_label
_atom_site_fract_x
_atom_site_fract_y
_atom_site_fract_z
Si Si1 0.469163 0.803914 0.863808
Si Si2 0.054106 0.195534 0.781631
Si Si3 0.748052 0.278699 0.728925
Si Si4 0.616501 0.937430 0.351011
Si Si5 0.186274 0.156552 0.381193
Si Si6 0.269014 0.150088 0.984529
Si Si7 0.351853 0.129639 0.419705
O O1 0.495537 0.744453 0.770496
O O2 0.358801 0.818907 0.960318
O O3 0.536517 0.854626 0.742082
O O4 0.500000 0.795987 0.000000
O O5 0.152784 0.221662 0.736017
O O6 0.094244 0.154671 0.605597
O O7 0.000000 0.174626 0.000000
O O8 0.796182 0.220395 0.670086
O O9 0.725932 0.307185 0.915069
O O10 0.819628 0.321138 0.565431
O O11 0.500000 0.924505 0.500000
O O12 0.678535 0.899254 0.165318
O O13 0.656155 0.923978 0.472327
O O14 0.626051 0.000000 0.299864
O O15 0.279718 0.133023 0.362805
O O16 0.192063 0.132955 0.204872
#
# Coordination Sequence:
#
# PCOD9170363 Si02
#       7
#     8   8   8   8   8   8   8
#     4  11  17  29  47  72  99 138 181 199 233 297
#     4  10  19  32  48  67 100 142 175 207 244 296
#     4  10  19  32  45  72 104 134 172 208 245 297
#     4  10  21  35  50  71 101 134 174 219 256 294
#     4  11  18  32  49  71 101 130 174 214 245 297
#     4  11  22  31  51  74 105 141 174 207 251 301
#     4  10  17  31  51  67  97 135 177 207 237 293
#
# _framework density 18.698577
#
# number of rings (size 3 to 8) (size 9 to 14) (size 15 to 20)
#    0.000    1.571    5.714    2.143    0.000    0.000 
#    0.000    2.857    0.000    2.571    0.000    0.000 
#    0.000   67.429    0.000    0.000    0.000    0.571 
#
# Total GULP energy -155939.715280 kJ/mol
# GULP energy per Si atom -5569.275546 kJ/mol
# Density = 1.865602 g / cm^3
# Si number density = 18.698577 Si / 1000 Ang^3
#
#
#
# Elastic Constant Matrix: (Units=GPa)
#
#
# Indices 1 2 3 4 5 6 
#
# 1 19.8548 10.1876 2.2515 0.0000 11.9908 0.0000
# 2 10.1876 51.2555 22.0077 0.0000 4.6480 0.0000
# 3 2.2515 22.0077 117.1803 0.0000 10.3431 0.0000
# 4 0.0000 0.0000 0.0000 15.1758 0.0000 -3.6803
# 5 11.9908 4.6480 10.3431 0.0000 28.8856 0.0000
# 6 0.0000 0.0000 0.0000 -3.6803 0.0000 14.1128
#
#
#
# Elastic Compliance Matrix: (Units=1/GPa)
#
#
# Indices 1 2 3 4 5 6 
#
# 1 0.075453 -0.013886 0.003847 0.000000 -0.030465 0.000000
# 2 -0.013886 0.023896 -0.004534 0.000000 0.003543 0.000000
# 3 0.003847 -0.004534 0.009694 0.000000 -0.004339 0.000000
# 4 0.000000 0.000000 0.000000 0.070343 0.000000 0.018344
# 5 -0.030465 0.003543 -0.004339 0.000000 0.048249 0.000000
# 6 0.000000 0.000000 0.000000 0.018344 0.000000 0.075641
#
#
# Mechanical properties :
#
#
# Convention : Reuss Voigt Hill
#
# Bulk Modulus (GPa) = 12.51612 28.57604 20.54608
# Shear Modulus (GPa) = 13.92547 21.89111 17.90829
#
# Velocity S-wave (km/s) = 2.73194 3.42531 3.09809
# Velocity P-wave (km/s) = 4.08160 5.56411 4.87949
#
# Compressibility (1/GPa) = 0.07989699
#
# Stress axis : x y z
#
# Youngs Moduli (GPa) = 13.25331 41.84872 103.15238
#
# Poissons Ratio (x) = 0.58113 -0.39686
# Poissons Ratio (y) = 0.18404 0.46767
# Poissons Ratio (z) = -0.05099 0.18973
#
# Static dielectric constant tensor:
#      x y z
#    x 1.688320 0.000000 -0.015320 
#    y 0.000000 1.644580 0.000000 
#    z -0.015320 0.000000 1.842490 
# 
# From -- ./inp_files/79578.got.cif
#   From: 2010.05.17/outbox.cif.g08.bks.cpg/sg12_40_cif.got.tgz:79578.got - 2010.06.03 13:09:07.
