data_PCOD9170254
_publ_section_title
;
Structure prediction by ZEFSAII (Michael W. Deem and Ramdas Pophale) SiO2 
 PCOD9170254
Probable space group: C 2/M
;
_chemical_formula_sum "Si O2"
_cell_formula_units_Z 56
_cell_length_a 19.833037
_cell_length_b 8.668395
_cell_length_c 25.158712
_cell_angle_alpha 90.000000
_cell_angle_beta 47.178061
_cell_angle_gamma 90.000000
_cell_volume 3172.476875
_symmetry_space_group_name_H-M "C 2/M"
_symmetry_group_IT_number 12
_symmetry_cell_setting 'monoclinic'
loop_
_space_group_symop_operation_xyz
x,y,z
-x,y,-z
-x,-y,-z
x,-y,z
1/2+x,1/2+y,z
1/2-x,1/2+y,-z
1/2-x,1/2-y,-z
1/2+x,1/2-y,z
loop_
_atom_site_type_symbol
_atom_site_label
_atom_site_fract_x
_atom_site_fract_y
_atom_site_fract_z
Si Si1 0.191586 0.313631 0.197392
Si Si2 0.642979 0.686612 0.397458
Si Si3 0.513241 0.684789 0.687964
Si Si4 0.051690 0.187074 0.552382
Si Si5 0.695745 0.315880 0.760219
Si Si6 0.187192 0.685142 0.080018
Si Si7 0.023633 0.315618 0.796772
O O1 0.178341 0.500000 0.206529
O O2 0.093328 0.235139 0.260445
O O3 0.263419 0.269478 0.204337
O O4 0.220146 0.273222 0.121954
O O5 0.651488 0.500000 0.391371
O O6 0.623625 0.736191 0.468650
O O7 0.550256 0.728174 0.414448
O O8 0.730346 0.760696 0.323004
O O9 0.518713 0.500000 0.688249
O O10 0.562737 0.738560 0.607166
O O11 0.547285 0.755591 0.724951
O O12 0.053813 0.000000 0.551430
O O13 0.688915 0.500000 0.762640
O O14 0.598074 0.244414 0.798183
O O15 0.187928 0.500000 0.076034
O O16 0.080466 0.736362 0.134262
O O17 0.250000 0.750000 0.000000
O O18 0.023959 0.500000 0.795260
#
# Coordination Sequence:
#
# PCOD9170254 Si02
#       7
#     8   8   8   8   8   8   8
#     4   9  19  34  52  77 109 139 169 209 257 305
#     4   9  16  30  49  72 104 140 173 215 268 310
#     4  10  17  30  53  79 101 132 181 223 254 305
#     4   8  15  27  48  75 102 134 176 219 262 309
#     4  11  21  34  52  78 107 138 178 219 256 304
#     4   9  19  37  59  81 104 132 166 205 251 306
#     4  10  22  38  54  75 107 142 170 208 263 312
#
# _framework density 17.651821999999999
#
# number of rings (size 3 to 8) (size 9 to 14) (size 15 to 20)
#    0.000    2.571    1.429    3.000    0.000    3.429 
#    0.000    4.286    0.000    4.286    0.000    0.000 
#    0.000    0.000    0.000    0.000    0.000    0.000 
#
# Total GULP energy -156113.519092 kJ/mol
# GULP energy per Si atom -5575.482825 kJ/mol
# Density = 1.761165 g / cm^3
# Si number density = 17.651822 Si / 1000 Ang^3
#
#
#
# Elastic Constant Matrix: (Units=GPa)
#
#
# Indices 1 2 3 4 5 6 
#
# 1 110.9022 27.7826 49.5987 0.0000 8.8347 0.0002
# 2 27.7826 24.7421 19.9761 0.0001 4.1094 0.0003
# 3 49.5987 19.9761 120.0496 0.0000 18.6171 0.0000
# 4 0.0000 0.0001 0.0000 25.2777 0.0000 0.8846
# 5 8.8347 4.1094 18.6171 0.0000 17.7888 0.0000
# 6 0.0002 0.0003 0.0000 0.8846 0.0000 24.4228
#
#
#
# Elastic Compliance Matrix: (Units=1/GPa)
#
#
# Indices 1 2 3 4 5 6 
#
# 1 0.013774 -0.012550 -0.003571 0.000000 -0.000205 0.000000
# 2 -0.012550 0.058274 -0.004048 0.000000 -0.002993 -0.000001
# 3 -0.003571 -0.004048 0.012007 0.000000 -0.009858 0.000000
# 4 0.000000 0.000000 0.000000 0.039611 0.000000 -0.001435
# 5 -0.000205 -0.002993 -0.009858 0.000000 0.067325 0.000000
# 6 0.000000 -0.000001 0.000000 -0.001435 0.000000 0.040997
#
#
# Mechanical properties :
#
#
# Convention : Reuss Voigt Hill
#
# Bulk Modulus (GPa) = 22.87326 50.04540 36.45933
# Shear Modulus (GPa) = 17.42779 24.05365 20.74072
#
# Velocity S-wave (km/s) = 3.14556 3.69544 3.43153
# Velocity P-wave (km/s) = 5.11653 6.82798 6.03325
#
# Compressibility (1/GPa) = 0.04371918
#
# Stress axis : x y z
#
# Youngs Moduli (GPa) = 72.59980 17.16033 83.28171
#
# Poissons Ratio (x) = 0.21536 0.29738
# Poissons Ratio (y) = 0.91112 0.33708
# Poissons Ratio (z) = 0.25924 0.06946
#
# Static dielectric constant tensor:
#      x y z
#    x 1.604600 0.000000 0.022180 
#    y 0.000000 1.596050 0.000000 
#    z 0.022180 0.000000 1.597400 
# 
# From -- ./inp_files/280169.got.cif
#   From: 2010.05.17/outbox.cif.g08.bks.cpg/sg12_141_cif.got.tgz:280169.got - 2010.06.03 13:09:07.
