data_PCOD9170442
_publ_section_title
;
Structure prediction by ZEFSAII (Michael W. Deem and Ramdas Pophale) SiO2 
 PCOD9170442
Probable space group: C 2/M
;
_chemical_formula_sum "Si O2"
_cell_formula_units_Z 36
_cell_length_a 11.201997
_cell_length_b 25.314449
_cell_length_c 7.776113
_cell_angle_alpha 90.000000
_cell_angle_beta 45.477694
_cell_angle_gamma 90.000000
_cell_volume 1572.180234
_symmetry_space_group_name_H-M "C 2/M"
_symmetry_group_IT_number 12
_symmetry_cell_setting 'monoclinic'
loop_
_space_group_symop_operation_xyz
x,y,z
-x,y,-z
-x,-y,-z
x,-y,z
1/2+x,1/2+y,z
1/2-x,1/2+y,-z
1/2-x,1/2-y,-z
1/2+x,1/2-y,z
loop_
_atom_site_type_symbol
_atom_site_label
_atom_site_fract_x
_atom_site_fract_y
_atom_site_fract_z
Si Si1 0.691934 0.616381 0.757886
Si Si2 0.104290 0.719348 0.545719
Si Si3 0.000000 0.680035 0.000000
Si Si4 0.696683 0.000000 0.752208
Si Si5 0.702141 0.500000 0.758119
Si Si6 0.320909 0.390849 0.631660
O O1 0.814548 0.667329 0.631114
O O2 0.751361 0.559473 0.777742
O O3 0.677781 0.603502 0.572534
O O4 0.500000 0.630089 0.000000
O O5 0.250000 0.750000 0.500000
O O6 0.988849 0.708145 0.827386
O O7 0.000000 0.746900 0.500000
O O8 0.165964 0.645400 0.829287
O O9 0.784864 0.948647 0.741254
O O10 0.729755 0.000000 0.510407
O O11 0.500000 0.000000 0.000000
O O12 0.500000 0.500000 0.000000
O O13 0.500000 0.369833 0.500000
#
# Coordination Sequence:
#
# PCOD9170442 Si02
#       6
#     8   8   4   4   4   8
#     4   9  20  39  65  97 133 178 228 287 352 432
#     4  11  27  47  72 103 140 189 242 299 369 428
#     4  10  24  45  66 100 138 173 240 304 352 436
#     4  10  17  31  56  90 138 183 234 283 349 431
#     4   8  16  35  61  93 137 178 230 282 357 435
#     4  10  20  35  62  94 132 184 229 286 356 422
#
# _framework density 22.898136000000001
#
# number of rings (size 3 to 8) (size 9 to 14) (size 15 to 20)
#    0.000    2.222    1.111    0.333    4.667    4.444 
#    0.000    0.556    0.000    0.000    0.000    0.000 
#    0.000    0.000    0.000    0.000    0.000    0.000 
#
# Total GULP energy -100226.929669 kJ/mol
# GULP energy per Si atom -5568.162759 kJ/mol
# Density = 2.284602 g / cm^3
# Si number density = 22.898136 Si / 1000 Ang^3
#
#
#
# Elastic Constant Matrix: (Units=GPa)
#
#
# Indices 1 2 3 4 5 6 
#
# 1 111.2834 40.3795 38.4499 0.0000 -10.2306 0.0000
# 2 40.3795 79.5865 22.4498 0.0000 1.4436 0.0000
# 3 38.4499 22.4498 162.3697 0.0000 1.6846 0.0000
# 4 0.0000 0.0000 0.0000 -7.1754 0.0000 -0.8916
# 5 -10.2306 1.4436 1.6846 0.0000 31.3822 0.0000
# 6 0.0000 0.0000 0.0000 -0.8916 0.0000 25.5483
#
#
#
# Elastic Compliance Matrix: (Units=1/GPa)
#
#
# Indices 1 2 3 4 5 6 
#
# 1 0.012178 -0.005652 -0.002148 0.000000 0.004345 0.000000
# 2 -0.005652 0.015706 -0.000807 0.000000 -0.002522 0.000000
# 3 -0.002148 -0.000807 0.006790 0.000000 -0.001027 0.000000
# 4 0.000000 0.000000 0.000000 -0.138764 0.000000 -0.004843
# 5 0.004345 -0.002522 -0.001027 0.000000 0.033453 0.000000
# 6 0.000000 0.000000 0.000000 -0.004843 0.000000 0.038972
#
#
# Mechanical properties :
#
#
# Convention : Reuss Voigt Hill
#
# Bulk Modulus (GPa) = 57.27062 61.75532 59.51297
# Shear Modulus (GPa) = -579.26749 26.74840 -276.25954
#
# Velocity S-wave (km/s) = -15.92247 3.42153 -10.99587
# Velocity P-wave (km/s) = 17.69090 6.52972 11.62606
#
# Compressibility (1/GPa) = 0.01746096
#
# Stress axis : x y z
#
# Youngs Moduli (GPa) = 82.11280 63.67023 147.28482
#
# Poissons Ratio (x) = 0.35986 0.31630
# Poissons Ratio (y) = 0.46410 0.11886
# Poissons Ratio (z) = 0.17634 0.05138
#
# Static dielectric constant tensor:
#      x y z
#    x 1.863200 0.000000 -0.041920 
#    y 0.000000 22.888780 0.000000 
#    z -0.041920 0.000000 1.750850 
# 
# From -- ./inp_files/52289.got.cif
#   From: 2010.05.17/outbox.cif.g08.bks.cpg/sg12_27_cif.got.tgz:52289.got - 2010.06.03 13:09:07.
