data_PCOD9170430
_publ_section_title
;
Structure prediction by ZEFSAII (Michael W. Deem and Ramdas Pophale) SiO2 
 PCOD9170430
Probable space group: C 2/M
;
_chemical_formula_sum "Si O2"
_cell_formula_units_Z 56
_cell_length_a 24.668260
_cell_length_b 16.115784
_cell_length_c 23.725002
_cell_angle_alpha 90.000000
_cell_angle_beta 19.818233
_cell_angle_gamma 90.000000
_cell_volume 3197.744154
_symmetry_space_group_name_H-M "C 2/M"
_symmetry_group_IT_number 12
_symmetry_cell_setting 'monoclinic'
loop_
_space_group_symop_operation_xyz
x,y,z
-x,y,-z
-x,-y,-z
x,-y,z
1/2+x,1/2+y,z
1/2-x,1/2+y,-z
1/2-x,1/2-y,-z
1/2+x,1/2-y,z
loop_
_atom_site_type_symbol
_atom_site_label
_atom_site_fract_x
_atom_site_fract_y
_atom_site_fract_z
Si Si1 0.648852 0.404139 0.811187
Si Si2 0.411532 0.200110 0.854670
Si Si3 0.490744 0.247410 0.358087
Si Si4 0.912365 0.354207 0.033614
Si Si5 0.211065 0.908176 0.128258
Si Si6 0.623065 0.260113 0.748611
Si Si7 0.648031 0.219833 0.320051
O O1 0.679264 0.500000 0.767295
O O2 0.613203 0.347383 0.791495
O O3 0.794104 0.360882 0.702794
O O4 0.500000 0.400476 0.000000
O O5 0.497184 0.193636 0.710743
O O6 0.520739 0.251540 0.791538
O O7 0.250000 0.250000 0.000000
O O8 0.345301 0.118861 0.951188
O O9 0.576507 0.336259 0.262500
O O10 0.307870 0.257260 0.554968
O O11 0.588361 0.207157 0.314559
O O12 0.044842 0.307946 0.866215
O O13 0.801611 0.405312 0.099736
O O14 0.796952 0.282267 0.171295
O O15 0.000000 0.396967 0.000000
O O16 0.148470 0.000000 0.178142
O O17 0.500000 0.256901 0.500000
#
# Coordination Sequence:
#
# PCOD9170430 Si02
#       7
#     8   8   8   8   8   8   8
#     4  11  22  35  54  84 119 152 186 230 281 323
#     4   9  20  36  59  80 104 144 194 222 273 336
#     4  10  20  34  59  83 104 150 191 222 273 339
#     4  10  17  31  56  79 105 147 183 212 269 336
#     4   9  20  36  54  79 111 137 177 237 280 316
#     4  11  18  36  57  79 113 145 189 229 265 337
#     4  11  18  33  56  82 115 146 185 223 270 330
#
# _framework density 17.512346000000001
#
# number of rings (size 3 to 8) (size 9 to 14) (size 15 to 20)
#    0.000    1.857    4.286    1.286    0.000    0.571 
#    0.000    7.143    0.000   14.571    0.000    0.000 
#    0.000    0.000    0.000    0.000    0.000    0.000 
#
# Total GULP energy -156016.555433 kJ/mol
# GULP energy per Si atom -5572.019837 kJ/mol
# Density = 1.747249 g / cm^3
# Si number density = 17.512346 Si / 1000 Ang^3
#
#
#
# Elastic Constant Matrix: (Units=GPa)
#
#
# Indices 1 2 3 4 5 6 
#
# 1 118.5298 16.1968 13.7237 0.0005 -4.8720 -0.0006
# 2 16.1968 68.7561 7.7135 -0.0019 2.7293 0.0002
# 3 13.7237 7.7135 93.5186 -0.0041 4.7868 0.0029
# 4 0.0005 -0.0019 -0.0041 9.0243 0.0021 -1.9947
# 5 -4.8720 2.7293 4.7868 0.0021 33.6032 0.0001
# 6 -0.0006 0.0002 0.0029 -1.9947 0.0001 12.0545
#
#
#
# Elastic Compliance Matrix: (Units=1/GPa)
#
#
# Indices 1 2 3 4 5 6 
#
# 1 0.008923 -0.002029 -0.001226 -0.000002 0.001633 0.000000
# 2 -0.002029 0.015177 -0.000882 0.000003 -0.001401 0.000000
# 3 -0.001226 -0.000882 0.011032 0.000005 -0.001677 -0.000002
# 4 -0.000002 0.000003 0.000005 0.115019 -0.000008 0.019032
# 5 0.001633 -0.001401 -0.001677 -0.000008 0.030349 -0.000001
# 6 0.000000 0.000000 -0.000002 0.019032 -0.000001 0.086106
#
#
# Mechanical properties :
#
#
# Convention : Reuss Voigt Hill
#
# Bulk Modulus (GPa) = 37.23435 39.56360 38.39897
# Shear Modulus (GPa) = 17.61608 27.14776 22.38192
#
# Velocity S-wave (km/s) = 3.17507 3.94154 3.57888
# Velocity P-wave (km/s) = 5.89486 6.58446 6.24918
#
# Compressibility (1/GPa) = 0.02685692
#
# Stress axis : x y z
#
# Youngs Moduli (GPa) = 112.06953 65.89003 90.64901
#
# Poissons Ratio (x) = 0.13371 0.11110
# Poissons Ratio (y) = 0.22742 0.07998
# Poissons Ratio (z) = 0.13736 0.05813
#
# Static dielectric constant tensor:
#      x y z
#    x 1.633700 0.000000 0.008100 
#    y 0.000000 1.581520 0.000000 
#    z 0.008100 0.000000 1.607180 
# 
# From -- ./inp_files/349702.got.cif
#   From: 2010.05.17/outbox.cif.g08.bks.cpg/sg12_175_cif.got.tgz:349702.got - 2010.06.03 13:09:07.
