data_PCOD9170551
_publ_section_title
;
Structure prediction by ZEFSAII (Michael W. Deem and Ramdas Pophale) SiO2 
 PCOD9170551
Probable space group: C 2/M
;
_chemical_formula_sum "Si O2"
_cell_formula_units_Z 48
_cell_length_a 15.809315
_cell_length_b 13.641988
_cell_length_c 16.517026
_cell_angle_alpha 90.000000
_cell_angle_beta 130.034342
_cell_angle_gamma 90.000000
_cell_volume 2727.457411
_symmetry_space_group_name_H-M "C 2/M"
_symmetry_group_IT_number 12
_symmetry_cell_setting 'monoclinic'
loop_
_space_group_symop_operation_xyz
x,y,z
-x,y,-z
-x,-y,-z
x,-y,z
1/2+x,1/2+y,z
1/2-x,1/2+y,-z
1/2-x,1/2-y,-z
1/2+x,1/2-y,z
loop_
_atom_site_type_symbol
_atom_site_label
_atom_site_fract_x
_atom_site_fract_y
_atom_site_fract_z
Si Si1 0.915802 0.387070 0.024801
Si Si2 0.659853 0.387783 0.371751
Si Si3 0.906212 0.695886 0.756689
Si Si4 0.996526 0.186214 0.404340
Si Si5 0.241734 0.882113 0.792872
Si Si6 0.411469 0.111530 0.581409
O O1 0.906983 0.500000 0.047908
O O2 0.974996 0.322567 0.128998
O O3 0.801053 0.353943 0.913966
O O4 0.000000 0.388232 0.000000
O O5 0.637228 0.500000 0.335215
O O6 0.617067 0.307711 0.282036
O O7 0.596634 0.362083 0.416186
O O8 0.790390 0.376233 0.467318
O O9 0.814550 0.659782 0.763869
O O10 0.899338 0.634074 0.669580
O O11 0.011189 0.303354 0.405712
O O12 0.000000 0.156859 0.500000
O O13 0.882486 0.153629 0.293614
O O14 0.246411 0.000000 0.791563
O O15 0.448847 0.000000 0.591540
#
# Coordination Sequence:
#
# PCOD9170551 Si02
#       6
#     8   8   8   8   8   8
#     4   8  15  28  49  76 100 125 159 199 243 287
#     4  10  21  35  50  71 100 133 166 201 244 293
#     4  10  17  32  55  74  96 128 169 204 237 289
#     4  11  21  33  50  75 102 127 161 204 251 293
#     4  10  19  31  51  79 104 125 158 207 252 284
#     4  10  20  34  51  71  99 134 168 199 236 293
#
# _framework density 17.598807999999998
#
# number of rings (size 3 to 8) (size 9 to 14) (size 15 to 20)
#    0.000    2.167    0.000    7.000    0.000    3.000 
#    0.000    4.167    0.000    7.500    0.000    0.000 
#    0.000    0.000    0.000    0.000    0.000    0.000 
#
# Total GULP energy -133910.981830 kJ/mol
# GULP energy per Si atom -5579.624243 kJ/mol
# Density = 1.755875 g / cm^3
# Si number density = 17.598808 Si / 1000 Ang^3
#
#
#
# Elastic Constant Matrix: (Units=GPa)
#
#
# Indices 1 2 3 4 5 6 
#
# 1 24.0426 13.5481 6.5627 0.0000 3.2149 0.0000
# 2 13.5481 117.0254 61.0295 0.0000 3.5749 0.0000
# 3 6.5627 61.0295 113.0817 0.0000 5.3921 0.0000
# 4 0.0000 0.0000 0.0000 29.9157 0.0000 8.8920
# 5 3.2149 3.5749 5.3921 0.0000 18.8341 0.0000
# 6 0.0000 0.0000 0.0000 8.8920 0.0000 11.4909
#
#
#
# Elastic Compliance Matrix: (Units=1/GPa)
#
#
# Indices 1 2 3 4 5 6 
#
# 1 0.045368 -0.005344 0.000580 0.000000 -0.006896 0.000000
# 2 -0.005344 0.012525 -0.006468 0.000000 0.000387 0.000000
# 3 0.000580 -0.006468 0.012416 0.000000 -0.002426 0.000000
# 4 0.000000 0.000000 0.000000 0.043413 0.000000 -0.033594
# 5 -0.006896 0.000387 -0.002426 0.000000 0.054893 0.000000
# 6 0.000000 0.000000 0.000000 -0.033594 0.000000 0.113022
#
#
# Mechanical properties :
#
#
# Convention : Reuss Voigt Hill
#
# Bulk Modulus (GPa) = 20.90091 46.27006 33.58548
# Shear Modulus (GPa) = 15.62259 23.58210 19.60234
#
# Velocity S-wave (km/s) = 2.98267 3.66455 3.34105
# Velocity P-wave (km/s) = 4.87482 6.65236 5.83171
#
# Compressibility (1/GPa) = 0.04784482
#
# Stress axis : x y z
#
# Youngs Moduli (GPa) = 22.04199 79.83921 80.54160
#
# Poissons Ratio (x) = 0.42667 -0.04672
# Poissons Ratio (y) = 0.11780 0.52095
# Poissons Ratio (z) = -0.01279 0.51640
#
# Static dielectric constant tensor:
#      x y z
#    x 1.599510 0.000000 0.007860 
#    y 0.000000 1.599290 0.000000 
#    z 0.007860 0.000000 1.608920 
# 
# From -- ./inp_files/215006.got.cif
#   From: 2010.05.17/outbox.cif.g08.bks.cpg/sg12_108_cif.got.tgz:215006.got - 2010.06.03 13:09:07.
