data_PCOD9170377
_publ_section_title
;
Structure prediction by ZEFSAII (Michael W. Deem and Ramdas Pophale) SiO2 
 PCOD9170377
Probable space group: C 2/M
;
_chemical_formula_sum "Si O2"
_cell_formula_units_Z 48
_cell_length_a 22.912530
_cell_length_b 12.653499
_cell_length_c 20.224357
_cell_angle_alpha 90.000000
_cell_angle_beta 158.881314
_cell_angle_gamma 90.000000
_cell_volume 2112.632412
_symmetry_space_group_name_H-M "C 2/M"
_symmetry_group_IT_number 12
_symmetry_cell_setting 'monoclinic'
loop_
_space_group_symop_operation_xyz
x,y,z
-x,y,-z
-x,-y,-z
x,-y,z
1/2+x,1/2+y,z
1/2-x,1/2+y,-z
1/2-x,1/2-y,-z
1/2+x,1/2-y,z
loop_
_atom_site_type_symbol
_atom_site_label
_atom_site_fract_x
_atom_site_fract_y
_atom_site_fract_z
Si Si1 0.823722 0.765644 0.787499
Si Si2 0.721345 0.382294 0.784550
Si Si3 0.745276 0.000000 0.740658
Si Si4 0.062546 0.500000 0.675995
Si Si5 0.907185 0.383938 0.767947
Si Si6 0.965301 0.657179 0.234291
Si Si7 0.597028 0.382588 0.795077
O O1 0.703354 0.708184 0.711316
O O2 0.819876 0.890727 0.793273
O O3 0.814706 0.711916 0.706074
O O4 0.000000 0.731672 0.000000
O O5 0.704136 0.500000 0.737456
O O6 0.604656 0.372302 0.723989
O O7 0.903458 0.377548 0.008629
O O8 0.721109 0.000000 0.795461
O O9 0.577099 0.000000 0.524587
O O10 0.035407 0.599545 0.695782
O O11 0.846672 0.500000 0.725401
O O12 0.915190 0.380054 0.697127
O O13 0.989591 0.782077 0.266355
O O14 0.783034 0.629981 0.016546
O O15 0.539946 0.500000 0.752775
#
# Coordination Sequence:
#
# PCOD9170377 Si02
#       7
#     8   8   4   4   8   8   8
#     4  10  19  34  52  80 111 138 169 227 270 308
#     4   8  14  26  48  76 107 131 162 213 269 316
#     4  11  25  38  52  76 103 147 195 209 259 322
#     4  11  22  40  58  70 103 152 187 220 246 321
#     4   9  16  29  51  78 103 131 172 209 268 329
#     4  10  17  31  52  75 104 143 173 216 264 310
#     4   9  16  27  47  83 109 130 173 216 269 317
#
# _framework density 22.720468
#
# number of rings (size 3 to 8) (size 9 to 14) (size 15 to 20)
#    0.000    2.500    1.667    2.750    0.000    3.333 
#    1.500    0.833    0.000    2.000    0.000    8.167 
#    0.000    0.000    0.000    0.000    0.000    0.000 
#
# Total GULP energy -133849.961627 kJ/mol
# GULP energy per Si atom -5577.081734 kJ/mol
# Density = 2.266876 g / cm^3
# Si number density = 22.720468 Si / 1000 Ang^3
#
#
#
# Elastic Constant Matrix: (Units=GPa)
#
#
# Indices 1 2 3 4 5 6 
#
# 1 121.3481 73.6763 12.2989 0.0031 -25.8443 0.0014
# 2 73.6763 184.8465 -11.2190 0.0058 -10.3633 0.0032
# 3 12.2989 -11.2190 39.3120 0.0042 -6.4263 0.0028
# 4 0.0031 0.0058 0.0042 -14.2867 0.0029 -3.7457
# 5 -25.8443 -10.3633 -6.4263 0.0029 16.0994 0.0014
# 6 0.0014 0.0032 0.0028 -3.7457 0.0014 36.8073
#
#
#
# Elastic Compliance Matrix: (Units=1/GPa)
#
#
# Indices 1 2 3 4 5 6 
#
# 1 0.016596 -0.005591 -0.003232 0.000005 0.021752 0.000000
# 2 -0.005591 0.007706 0.003522 0.000003 -0.002610 0.000000
# 3 -0.003232 0.003522 0.028859 0.000011 0.008598 -0.000002
# 4 0.000005 0.000003 0.000011 -0.068176 0.000027 -0.006938
# 5 0.021752 -0.002610 0.008598 0.000027 0.098784 -0.000002
# 6 0.000000 0.000000 -0.000002 -0.006938 -0.000002 0.026462
#
#
# Mechanical properties :
#
#
# Convention : Reuss Voigt Hill
#
# Bulk Modulus (GPa) = 23.49737 55.00208 39.24973
# Shear Modulus (GPa) = 37.03136 25.77403 31.40269
#
# Velocity S-wave (km/s) = 4.04154 3.37173 3.72174
# Velocity P-wave (km/s) = 5.66949 6.27844 5.98172
#
# Compressibility (1/GPa) = 0.04255796
#
# Stress axis : x y z
#
# Youngs Moduli (GPa) = 60.25639 129.76957 34.65084
#
# Poissons Ratio (x) = 0.72560 0.11199
# Poissons Ratio (y) = 0.33692 -0.12203
# Poissons Ratio (z) = 0.19475 -0.45703
#
# Static dielectric constant tensor:
#      x y z
#    x 1.874030 0.000000 0.027780 
#    y 0.000000 1.846620 0.000000 
#    z 0.027780 0.000000 1.901280 
# 
# From -- ./inp_files/325001.got.cif
#   From: 2010.05.17/outbox.cif.g08.bks.cpg/sg12_163_cif.got.tgz:325001.got - 2010.06.03 13:09:07.
