data_PCOD9170432
_publ_section_title
;
Structure prediction by ZEFSAII (Michael W. Deem and Ramdas Pophale) SiO2 
 PCOD9170432
Probable space group: C 2/M
;
_chemical_formula_sum "Si O2"
_cell_formula_units_Z 64
_cell_length_a 30.167546
_cell_length_b 7.365629
_cell_length_c 14.890541
_cell_angle_alpha 90.000000
_cell_angle_beta 46.974991
_cell_angle_gamma 90.000000
_cell_volume 2418.861013
_symmetry_space_group_name_H-M "C 2/M"
_symmetry_group_IT_number 12
_symmetry_cell_setting 'monoclinic'
loop_
_space_group_symop_operation_xyz
x,y,z
-x,y,-z
-x,-y,-z
x,-y,z
1/2+x,1/2+y,z
1/2-x,1/2+y,-z
1/2-x,1/2-y,-z
1/2+x,1/2-y,z
loop_
_atom_site_type_symbol
_atom_site_label
_atom_site_fract_x
_atom_site_fract_y
_atom_site_fract_z
Si Si1 0.253131 0.716618 0.601690
Si Si2 0.628568 0.720676 0.215918
Si Si3 0.944784 0.721787 0.300086
Si Si4 0.993365 0.710104 0.411203
Si Si5 0.378748 0.221337 0.221371
Si Si6 0.432811 0.218867 0.968434
Si Si7 0.194503 0.788955 0.953040
Si Si8 0.315565 0.293942 0.682673
O O1 0.255737 0.500000 0.609548
O O2 0.250000 0.750000 0.500000
O O3 0.186585 0.782232 0.722592
O O4 0.303289 0.790624 0.601471
O O5 0.629180 0.500000 0.214673
O O6 0.561961 0.782348 0.278632
O O7 0.642101 0.787090 0.298217
O O8 0.679083 0.780890 0.074557
O O9 0.943948 0.500000 0.304058
O O10 0.892796 0.781342 0.303214
O O11 0.948889 0.785778 0.396826
O O12 0.007107 0.779877 0.165160
O O13 0.976424 0.500000 0.447049
O O14 0.000000 0.796668 0.500000
O O15 0.427376 0.275581 0.079856
O O16 0.377993 0.000000 0.224994
O O17 0.370283 0.272243 0.006997
O O18 0.435133 0.000000 0.964808
O O19 0.249299 0.700200 0.822932
O O20 0.210662 0.000000 0.936441
O O21 0.336588 0.500000 0.641567
#
# Coordination Sequence:
#
# PCOD9170432 Si02
#       8
#     8   8   8   8   8   8   8   8
#     4  10  21  37  57  79 107 142 182 226 268 317
#     4  10  22  38  57  81 112 147 183 224 272 333
#     4   9  17  30  53  82 108 135 173 222 269 317
#     4  10  21  36  55  81 110 142 184 231 273 317
#     4   9  17  31  53  81 105 134 179 222 263 317
#     4  10  17  31  56  80 105 141 177 217 272 332
#     4  11  21  33  54  85 115 142 177 225 277 327
#     4  10  21  39  59  81 109 146 187 222 269 331
#
# _framework density 26.458735000000001
#
# number of rings (size 3 to 8) (size 9 to 14) (size 15 to 20)
#    0.000    2.125    2.500    1.125    0.000    4.250 
#    0.000    1.250    0.000    3.750    0.000    0.000 
#    0.000    0.000    0.000    0.000    0.000    0.000 
#
# Total GULP energy -179004.980847 kJ/mol
# GULP energy per Si atom -5593.905651 kJ/mol
# Density = 2.639851 g / cm^3
# Si number density = 26.458735 Si / 1000 Ang^3
#
#
#
# Elastic Constant Matrix: (Units=GPa)
#
#
# Indices 1 2 3 4 5 6 
#
# 1 179.7706 3.5693 23.8739 0.0001 37.7159 -0.0011
# 2 3.5693 110.9456 9.5471 0.0002 4.9278 -0.0029
# 3 23.8739 9.5471 86.7580 -0.0001 24.1542 0.0000
# 4 0.0001 0.0002 -0.0001 9.0672 0.0001 -1.4280
# 5 37.7159 4.9278 24.1542 0.0001 61.2204 0.0000
# 6 -0.0011 -0.0029 0.0000 -1.4280 0.0000 5.9102
#
#
#
# Elastic Compliance Matrix: (Units=1/GPa)
#
#
# Indices 1 2 3 4 5 6 
#
# 1 0.006431 0.000021 -0.000751 0.000000 -0.003668 0.000001
# 2 0.000021 0.009107 -0.000899 0.000001 -0.000391 0.000005
# 3 -0.000751 -0.000899 0.013125 0.000000 -0.004643 -0.000001
# 4 0.000000 0.000001 0.000000 0.114650 0.000000 0.027700
# 5 -0.003668 -0.000391 -0.004643 0.000000 0.020457 -0.000001
# 6 0.000001 0.000005 -0.000001 0.027700 -0.000001 0.175892
#
#
# Mechanical properties :
#
#
# Convention : Reuss Voigt Hill
#
# Bulk Modulus (GPa) = 39.36266 50.16166 44.76216
# Shear Modulus (GPa) = 14.22924 37.93848 26.08386
#
# Velocity S-wave (km/s) = 2.32155 3.79076 3.14320
# Velocity P-wave (km/s) = 4.70057 6.17733 5.48884
#
# Compressibility (1/GPa) = 0.02540479
#
# Stress axis : x y z
#
# Youngs Moduli (GPa) = 155.48667 109.79971 76.19268
#
# Poissons Ratio (x) = -0.00226 0.05722
# Poissons Ratio (y) = -0.00320 0.06850
# Poissons Ratio (z) = 0.11677 0.09871
#
# Static dielectric constant tensor:
#      x y z
#    x 2.073640 0.000000 0.048120 
#    y 0.000000 1.982410 0.000000 
#    z 0.048120 0.000000 2.105900 
# 
# From -- ./inp_files/249663.got.cif
#   From: 2010.05.17/outbox.cif.g08.bks.cpg/sg12_125_cif.got.tgz:249663.got - 2010.06.03 13:09:07.
