data_PCOD9170802
_publ_section_title
;
Structure prediction by ZEFSAII (Michael W. Deem and Ramdas Pophale) SiO2 
 PCOD9170802
Probable space group: C 2/M
;
_chemical_formula_sum "Si O2"
_cell_formula_units_Z 56
_cell_length_a 31.807966
_cell_length_b 16.543444
_cell_length_c 9.368505
_cell_angle_alpha 90.000000
_cell_angle_beta 36.897547
_cell_angle_gamma 90.000000
_cell_volume 2959.802039
_symmetry_space_group_name_H-M "C 2/M"
_symmetry_group_IT_number 12
_symmetry_cell_setting 'monoclinic'
loop_
_space_group_symop_operation_xyz
x,y,z
-x,y,-z
-x,-y,-z
x,-y,z
1/2+x,1/2+y,z
1/2-x,1/2+y,-z
1/2-x,1/2-y,-z
1/2+x,1/2-y,z
loop_
_atom_site_type_symbol
_atom_site_label
_atom_site_fract_x
_atom_site_fract_y
_atom_site_fract_z
Si Si1 0.917099 0.746429 0.735590
Si Si2 0.617609 0.091653 0.999309
Si Si3 0.134440 0.219720 0.432040
Si Si4 0.420334 0.815004 0.171374
Si Si5 0.282574 0.405517 0.609495
Si Si6 0.481641 0.414727 0.216925
Si Si7 0.882467 0.842244 0.092515
O O1 0.873943 0.748663 0.705602
O O2 0.000000 0.772255 0.500000
O O3 0.919243 0.657897 0.801134
O O4 0.872643 0.802739 0.965304
O O5 0.605746 0.117362 0.867003
O O6 0.699975 0.097785 0.809544
O O7 0.594159 0.000000 0.087261
O O8 0.125506 0.294599 0.564909
O O9 0.193824 0.158761 0.332434
O O10 0.066862 0.161221 0.626948
O O11 0.414956 0.731498 0.096880
O O12 0.500000 0.829890 0.000000
O O13 0.301558 0.500000 0.587166
O O14 0.321396 0.377796 0.357206
O O15 0.447583 0.500000 0.348854
O O16 0.500000 0.416212 0.000000
O O17 0.555601 0.406036 0.092569
#
# Coordination Sequence:
#
# PCOD9170802 Si02
#       7
#     8   8   8   8   8   8   8
#     4  11  22  38  58  83 121 150 184 237 286 344
#     4  10  24  42  60  82 109 147 194 244 291 333
#     4  11  19  33  56  85 117 153 185 224 284 338
#     4  10  17  34  59  82 108 139 187 242 278 325
#     4  10  21  39  59  82 115 153 196 235 271 330
#     4  11  17  27  51  85 115 151 189 225 267 323
#     4  10  18  33  57  83 116 152 187 223 274 330
#
# _framework density 18.920183999999999
#
# number of rings (size 3 to 8) (size 9 to 14) (size 15 to 20)
#    0.000    1.571    5.714    1.714    0.000    6.286 
#    0.000    4.286    0.000    3.429    0.000    0.000 
#    0.000    0.000    0.000    0.000    0.000    0.000 
#
# Total GULP energy -155987.036106 kJ/mol
# GULP energy per Si atom -5570.965575 kJ/mol
# Density = 1.887712 g / cm^3
# Si number density = 18.920184 Si / 1000 Ang^3
#
#
#
# Elastic Constant Matrix: (Units=GPa)
#
#
# Indices 1 2 3 4 5 6 
#
# 1 108.3620 22.6129 23.4379 0.0000 32.3255 0.0000
# 2 22.6129 67.6640 7.9287 0.0000 17.7156 0.0000
# 3 23.4379 7.9287 27.0176 0.0000 7.9251 0.0000
# 4 0.0000 0.0000 0.0000 20.4225 0.0000 -7.4994
# 5 32.3255 17.7156 7.9251 0.0000 31.5796 0.0000
# 6 0.0000 0.0000 0.0000 -7.4994 0.0000 59.3203
#
#
#
# Elastic Compliance Matrix: (Units=1/GPa)
#
#
# Indices 1 2 3 4 5 6 
#
# 1 0.015199 -0.000623 -0.009220 0.000000 -0.012895 0.000000
# 2 -0.000623 0.017495 -0.002053 0.000000 -0.008662 0.000000
# 3 -0.009220 -0.002053 0.045885 0.000000 -0.000926 0.000000
# 4 0.000000 0.000000 0.000000 0.051350 0.000000 0.006492
# 5 -0.012895 -0.008662 -0.000926 0.000000 0.049957 0.000000
# 6 0.000000 0.000000 0.000000 0.006492 0.000000 0.017678
#
#
# Mechanical properties :
#
#
# Convention : Reuss Voigt Hill
#
# Bulk Modulus (GPa) = 18.25226 34.55582 26.40404
# Shear Modulus (GPa) = 20.86640 32.20210 26.53425
#
# Velocity S-wave (km/s) = 3.32454 4.13000 3.74897
# Velocity P-wave (km/s) = 4.94011 6.40673 5.72062
#
# Compressibility (1/GPa) = 0.05478774
#
# Stress axis : x y z
#
# Youngs Moduli (GPa) = 65.79268 57.15764 21.79347
#
# Poissons Ratio (x) = 0.03561 0.20094
# Poissons Ratio (y) = 0.04099 0.04474
# Poissons Ratio (z) = 0.60661 0.11735
#
# Static dielectric constant tensor:
#      x y z
#    x 1.698290 0.000000 0.017450 
#    y 0.000000 1.679260 0.000000 
#    z 0.017450 0.000000 1.678210 
# 
# From -- ./inp_files/88096.got.cif
#   From: 2010.05.17/outbox.cif.g08.bks.cpg/sg12_45_cif.got.tgz:88096.got - 2010.06.03 13:09:07.
