data_PCOD9170506
_publ_section_title
;
Structure prediction by ZEFSAII (Michael W. Deem and Ramdas Pophale) SiO2 
 PCOD9170506
Probable space group: C 2/M
;
_chemical_formula_sum "Si O2"
_cell_formula_units_Z 48
_cell_length_a 21.563704
_cell_length_b 10.363268
_cell_length_c 21.542952
_cell_angle_alpha 90.000000
_cell_angle_beta 141.938101
_cell_angle_gamma 90.000000
_cell_volume 2968.022211
_symmetry_space_group_name_H-M "C 2/M"
_symmetry_group_IT_number 12
_symmetry_cell_setting 'monoclinic'
loop_
_space_group_symop_operation_xyz
x,y,z
-x,y,-z
-x,-y,-z
x,-y,z
1/2+x,1/2+y,z
1/2-x,1/2+y,-z
1/2-x,1/2-y,-z
1/2+x,1/2-y,z
loop_
_atom_site_type_symbol
_atom_site_label
_atom_site_fract_x
_atom_site_fract_y
_atom_site_fract_z
Si Si1 0.614366 0.500000 0.015131
Si Si2 0.428503 0.148806 0.504791
Si Si3 0.749710 0.754811 0.706384
Si Si4 0.612866 0.000000 0.011259
Si Si5 0.377453 0.157599 0.273119
Si Si6 0.269365 0.747677 0.942365
Si Si7 0.378832 0.500000 0.830087
Si Si8 0.623323 0.000000 0.169221
O O1 0.496371 0.500000 0.910393
O O2 0.663615 0.625919 0.024787
O O3 0.631934 0.500000 0.103276
O O4 0.500000 0.149204 0.500000
O O5 0.333511 0.236622 0.413487
O O6 0.505425 0.184371 0.620095
O O7 0.394897 0.000000 0.486133
O O8 0.688362 0.783996 0.721998
O O9 0.813961 0.625355 0.760804
O O10 0.825534 0.874212 0.761470
O O11 0.671263 0.125013 0.032128
O O12 0.619442 0.000000 0.091176
O O13 0.493460 0.000000 0.901081
O O14 0.333439 0.222630 0.176969
O O15 0.366441 0.000000 0.263892
O O16 0.250000 0.750000 0.000000
#
# Coordination Sequence:
#
# PCOD9170506 Si02
#       8
#     4   8   8   4   8   8   4   4
#     4  11  21  34  49  81  95 136 178 215 253 295
#     4   8  15  26  49  74 103 129 167 215 258 300
#     4  11  16  31  48  80 102 137 163 204 268 308
#     4  11  23  38  47  75 109 144 176 201 261 313
#     4  10  17  32  51  77 102 133 177 218 250 297
#     4  12  22  36  54  73 104 140 177 214 250 299
#     4  11  18  30  58  72 105 126 173 224 251 298
#     4  11  22  32  52  72 115 148 157 202 263 330
#
# _framework density 16.172384999999998
#
# number of rings (size 3 to 8) (size 9 to 14) (size 15 to 20)
#    0.000    1.500    5.833    2.500    0.000    2.667 
#    0.000    4.583    0.000    0.000    0.000    7.000 
#    0.000    0.000    0.000    0.000    0.000    0.000 
#
# Total GULP energy -133823.461746 kJ/mol
# GULP energy per Si atom -5575.977573 kJ/mol
# Density = 1.613558 g / cm^3
# Si number density = 16.172385 Si / 1000 Ang^3
#
#
#
# Elastic Constant Matrix: (Units=GPa)
#
#
# Indices 1 2 3 4 5 6 
#
# 1 49.3300 35.7349 48.6856 0.0000 -1.8132 0.0000
# 2 35.7349 143.8618 73.0111 0.0000 14.8859 0.0000
# 3 48.6856 73.0111 178.8332 0.0000 16.9422 0.0000
# 4 0.0000 0.0000 0.0000 33.0882 0.0000 -2.0334
# 5 -1.8132 14.8859 16.9422 0.0000 21.6576 0.0000
# 6 0.0000 0.0000 0.0000 -2.0334 0.0000 -0.7026
#
#
#
# Elastic Compliance Matrix: (Units=1/GPa)
#
#
# Indices 1 2 3 4 5 6 
#
# 1 0.032300 -0.005363 -0.007786 0.000000 0.012481 0.000000
# 2 -0.005363 0.009909 -0.002049 0.000000 -0.005656 0.000000
# 3 -0.007786 -0.002049 0.009155 0.000000 -0.006405 0.000000
# 4 0.000000 0.000000 0.000000 0.025659 0.000000 -0.074260
# 5 0.012481 -0.005656 -0.006405 0.000000 0.056116 0.000000
# 6 0.000000 0.000000 0.000000 -0.074260 0.000000 -1.208390
#
#
# Mechanical properties :
#
#
# Convention : Reuss Voigt Hill
#
# Bulk Modulus (GPa) = 47.69607 76.32090 62.00848
# Shear Modulus (GPa) = -4.81758 25.11489 10.14866
#
# Velocity S-wave (km/s) = -1.72782 3.94502 2.50777
# Velocity P-wave (km/s) = 5.05726 8.24897 6.84183
#
# Compressibility (1/GPa) = 0.02096609
#
# Stress axis : x y z
#
# Youngs Moduli (GPa) = 30.95977 100.92156 109.22960
#
# Poissons Ratio (x) = 0.54126 0.85049
# Poissons Ratio (y) = 0.16604 0.22386
# Poissons Ratio (z) = 0.24106 0.20683
#
# Static dielectric constant tensor:
#      x y z
#    x 1.507660 0.000000 0.004360 
#    y 0.000000 1.528650 0.000000 
#    z 0.004360 0.000000 1.588870 
# 
# From -- ./inp_files/320364.got.cif
#   From: 2010.05.17/outbox.cif.g08.bks.cpg/sg12_161_cif.got.tgz:320364.got - 2010.06.03 13:09:07.
