data_PCOD9170497
_publ_section_title
;
Structure prediction by ZEFSAII (Michael W. Deem and Ramdas Pophale) SiO2 
 PCOD9170497
Probable space group: C 2/M
;
_chemical_formula_sum "Si O2"
_cell_formula_units_Z 60
_cell_length_a 22.142226
_cell_length_b 12.579156
_cell_length_c 25.202797
_cell_angle_alpha 90.000000
_cell_angle_beta 149.354333
_cell_angle_gamma 90.000000
_cell_volume 3578.157205
_symmetry_space_group_name_H-M "C 2/M"
_symmetry_group_IT_number 12
_symmetry_cell_setting 'monoclinic'
loop_
_space_group_symop_operation_xyz
x,y,z
-x,y,-z
-x,-y,-z
x,-y,z
1/2+x,1/2+y,z
1/2-x,1/2+y,-z
1/2-x,1/2-y,-z
1/2+x,1/2-y,z
loop_
_atom_site_type_symbol
_atom_site_label
_atom_site_fract_x
_atom_site_fract_y
_atom_site_fract_z
Si Si1 0.464193 0.373557 0.316041
Si Si2 0.874204 0.121098 0.934576
Si Si3 0.344629 0.624894 0.461106
Si Si4 0.389817 0.223813 0.046166
Si Si5 0.193283 0.267929 0.723253
Si Si6 0.147597 0.625512 0.235495
Si Si7 0.500000 0.232356 0.500000
Si Si8 0.137494 0.875343 0.874603
O O1 0.440077 0.500000 0.304185
O O2 0.598774 0.353662 0.438411
O O3 0.377697 0.306836 0.288962
O O4 0.436973 0.347842 0.234556
O O5 0.772364 0.150756 0.815863
O O6 0.860883 0.000000 0.943480
O O7 0.870830 0.203295 0.980237
O O8 0.000000 0.130487 0.000000
O O9 0.365146 0.500000 0.466747
O O10 0.210752 0.645216 0.340664
O O11 0.424253 0.692392 0.481236
O O12 0.511871 0.160284 0.133129
O O13 0.396831 0.301209 0.102274
O O14 0.275524 0.148836 0.966623
O O15 0.279118 0.193979 0.752214
O O16 0.096554 0.322170 0.610980
O O17 0.158082 0.500000 0.231605
O O18 0.121171 0.000000 0.874094
#
# Coordination Sequence:
#
# PCOD9170497 Si02
#       8
#     8   8   8   8   8   8   4   8
#     4   9  16  29  51  78 105 130 160 200 243 293
#     4  11  22  36  52  71  99 134 168 202 247 301
#     4   8  14  25  44  72 104 133 159 190 239 296
#     4  11  21  36  51  72 101 130 169 207 249 294
#     4  10  17  32  50  79 104 132 160 201 244 297
#     4  10  19  31  50  77 106 133 161 201 250 294
#     4   8  15  24  47  72 104 130 160 190 244 288
#     4  10  21  35  53  73  96 129 168 210 251 291
#
# _framework density 16.768408000000001
#
# number of rings (size 3 to 8) (size 9 to 14) (size 15 to 20)
#    0.000    2.267    2.667    1.400    0.000    3.200 
#    0.000    1.667    0.000    0.000    0.000    0.000 
#    0.000    0.000    0.000    0.000    0.000    0.000 
#
# Total GULP energy -167061.932061 kJ/mol
# GULP energy per Si atom -5568.731069 kJ/mol
# Density = 1.673024 g / cm^3
# Si number density = 16.768408 Si / 1000 Ang^3
#
#
#
# Elastic Constant Matrix: (Units=GPa)
#
#
# Indices 1 2 3 4 5 6 
#
# 1 26.8204 -1.4274 9.6227 -0.0003 -8.6457 -0.0001
# 2 -1.4274 19.7930 6.5689 -0.0008 -1.4267 -0.0003
# 3 9.6227 6.5689 103.3256 -0.0011 -16.9498 -0.0004
# 4 -0.0003 -0.0008 -0.0011 20.4138 -0.0001 -9.1851
# 5 -8.6457 -1.4267 -16.9498 -0.0001 25.2951 0.0000
# 6 -0.0001 -0.0003 -0.0004 -9.1851 0.0000 11.0533
#
#
#
# Elastic Compliance Matrix: (Units=1/GPa)
#
#
# Indices 1 2 3 4 5 6 
#
# 1 0.042612 0.004727 -0.002063 0.000001 0.013449 0.000001
# 2 0.004727 0.052151 -0.003380 0.000004 0.002293 0.000004
# 3 -0.002063 -0.003380 0.011166 0.000001 0.006586 0.000001
# 4 0.000001 0.000004 0.000001 0.078240 0.000002 0.065017
# 5 0.013449 0.002293 0.006586 0.000002 0.048673 0.000002
# 6 0.000001 0.000004 0.000001 0.065017 0.000002 0.144499
#
#
# Mechanical properties :
#
#
# Convention : Reuss Voigt Hill
#
# Bulk Modulus (GPa) = 9.56960 19.94082 14.75521
# Shear Modulus (GPa) = 12.08888 20.36410 16.22649
#
# Velocity S-wave (km/s) = 2.68793 3.48865 3.11413
# Velocity P-wave (km/s) = 3.91824 5.30521 4.66358
#
# Compressibility (1/GPa) = 0.10449753
#
# Stress axis : x y z
#
# Youngs Moduli (GPa) = 23.46755 19.17520 89.56148
#
# Poissons Ratio (x) = -0.09064 0.18475
# Poissons Ratio (y) = -0.11093 0.30268
# Poissons Ratio (z) = 0.04841 0.06480
#
# Static dielectric constant tensor:
#      x y z
#    x 1.533170 0.000000 -0.021790 
#    y 0.000000 1.528790 0.000000 
#    z -0.021790 0.000000 1.611840 
# 
# From -- ./inp_files/347149.got.cif
#   From: 2010.05.17/outbox.cif.g08.bks.cpg/sg12_174_cif.got.tgz:347149.got - 2010.06.03 13:09:07.
