data_PCOD9170243
_publ_section_title
;
Structure prediction by ZEFSAII (Michael W. Deem and Ramdas Pophale) SiO2 
 PCOD9170243
Probable space group: C 2/M
;
_chemical_formula_sum "Si O2"
_cell_formula_units_Z 52
_cell_length_a 14.715472
_cell_length_b 29.917025
_cell_length_c 7.668476
_cell_angle_alpha 90.000000
_cell_angle_beta 142.191759
_cell_angle_gamma 90.000000
_cell_volume 2069.554185
_symmetry_space_group_name_H-M "C 2/M"
_symmetry_group_IT_number 12
_symmetry_cell_setting 'monoclinic'
loop_
_space_group_symop_operation_xyz
x,y,z
-x,y,-z
-x,-y,-z
x,-y,z
1/2+x,1/2+y,z
1/2-x,1/2+y,-z
1/2-x,1/2-y,-z
1/2+x,1/2-y,z
loop_
_atom_site_type_symbol
_atom_site_label
_atom_site_fract_x
_atom_site_fract_y
_atom_site_fract_z
Si Si1 0.632825 0.573642 0.424962
Si Si2 0.815476 0.245185 0.904627
Si Si3 0.555753 0.802736 0.383067
Si Si4 0.560348 0.655686 0.784226
Si Si5 0.781993 0.578282 0.027785
Si Si6 0.625714 0.500000 0.980117
Si Si7 0.082016 0.599906 0.309917
O O1 0.559849 0.622586 0.314644
O O2 0.695272 0.566323 0.715570
O O3 0.505779 0.538350 0.198305
O O4 0.770186 0.571749 0.501754
O O5 0.906282 0.199101 0.053425
O O6 0.921057 0.287748 0.054409
O O7 0.750000 0.250000 0.000000
O O8 0.678682 0.236193 0.571367
O O9 0.500000 0.806424 0.500000
O O10 0.619661 0.849917 0.423102
O O11 0.500000 0.668771 0.500000
O O12 0.707226 0.625144 0.974389
O O13 0.742786 0.539334 0.099605
O O14 0.954177 0.582826 0.244143
O O15 0.000000 0.602193 0.000000
#
# Coordination Sequence:
#
# PCOD9170243 Si02
#       7
#     8   8   8   8   8   4   8
#     4   9  18  30  49  78 117 151 184 239 300 349
#     4  10  19  33  57  85 111 150 204 253 287 339
#     4  10  21  37  59  86 115 155 204 249 292 350
#     4   9  16  30  52  79 111 152 195 239 292 349
#     4   9  16  28  51  79 111 150 192 238 288 346
#     4  10  17  30  52  86 119 148 192 240 290 350
#     4  10  21  36  53  82 121 156 189 241 305 352
#
# _framework density 25.126183999999999
#
# number of rings (size 3 to 8) (size 9 to 14) (size 15 to 20)
#    0.000    2.462    0.000    5.538    0.000    3.077 
#    0.000    6.154    0.000    0.000    0.000   33.385 
#    0.000    0.000    0.000    0.000    0.000    0.000 
#
# Total GULP energy -145136.459632 kJ/mol
# GULP energy per Si atom -5582.171524 kJ/mol
# Density = 2.506900 g / cm^3
# Si number density = 25.126184 Si / 1000 Ang^3
#
#
#
# Elastic Constant Matrix: (Units=GPa)
#
#
# Indices 1 2 3 4 5 6 
#
# 1 129.4027 23.1993 52.2176 0.0000 18.0805 0.0000
# 2 23.1993 56.5867 6.5000 0.0000 0.3700 0.0000
# 3 52.2176 6.5000 64.7538 0.0000 13.5216 0.0000
# 4 0.0000 0.0000 0.0000 148.2623 0.0000 -219.7182
# 5 18.0805 0.3700 13.5216 0.0000 37.9818 0.0000
# 6 0.0000 0.0000 0.0000 -219.7182 0.0000 324.4291
#
#
#
# Elastic Compliance Matrix: (Units=1/GPa)
#
#
# Indices 1 2 3 4 5 6 
#
# 1 0.012511 -0.004064 -0.009124 0.000000 -0.002668 0.000000
# 2 -0.004064 0.019207 0.001063 0.000000 0.001369 0.000000
# 3 -0.009124 0.001063 0.023539 0.000000 -0.004047 0.000000
# 4 0.000000 0.000000 0.000000 -1.848760 0.000000 -1.252065
# 5 -0.002668 0.001369 -0.004047 0.000000 0.029026 0.000000
# 6 0.000000 0.000000 0.000000 -1.252065 0.000000 -0.844873
#
#
# Mechanical properties :
#
#
# Convention : Reuss Voigt Hill
#
# Bulk Modulus (GPa) = 32.24967 46.06411 39.15689
# Shear Modulus (GPa) = -1.94192 113.38971 55.72389
#
# Velocity S-wave (km/s) = -0.88008 6.72503 4.71442
# Velocity P-wave (km/s) = 3.43951 8.86986 6.72698
#
# Compressibility (1/GPa) = 0.03100807
#
# Stress axis : x y z
#
# Youngs Moduli (GPa) = 79.93102 52.06445 42.48298
#
# Poissons Ratio (x) = 0.21157 0.38760
# Poissons Ratio (y) = 0.32482 -0.04517
# Poissons Ratio (z) = 0.72927 -0.05535
#
# Static dielectric constant tensor:
#      x y z
#    x 2.024120 0.000000 -0.032380 
#    y 0.000000 1.884940 0.000000 
#    z -0.032380 0.000000 2.001900 
# 
# From -- ./inp_files/68689.got.cif
#   From: 2010.05.17/outbox.cif.g08.bks.cpg/sg12_35_cif.got.tgz:68689.got - 2010.06.03 13:09:07.
