data_PCOD9170258
_publ_section_title
;
Structure prediction by ZEFSAII (Michael W. Deem and Ramdas Pophale) SiO2 
 PCOD9170258
Probable space group: C 2/M
;
_chemical_formula_sum "Si O2"
_cell_formula_units_Z 56
_cell_length_a 22.182510
_cell_length_b 16.421435
_cell_length_c 9.991383
_cell_angle_alpha 90.000000
_cell_angle_beta 55.589186
_cell_angle_gamma 90.000000
_cell_volume 3002.651673
_symmetry_space_group_name_H-M "C 2/M"
_symmetry_group_IT_number 12
_symmetry_cell_setting 'monoclinic'
loop_
_space_group_symop_operation_xyz
x,y,z
-x,y,-z
-x,-y,-z
x,-y,z
1/2+x,1/2+y,z
1/2-x,1/2+y,-z
1/2-x,1/2-y,-z
1/2+x,1/2-y,z
loop_
_atom_site_type_symbol
_atom_site_label
_atom_site_fract_x
_atom_site_fract_y
_atom_site_fract_z
Si Si1 0.459472 0.906745 0.252311
Si Si2 0.814292 0.901670 0.468882
Si Si3 0.316631 0.900788 0.564835
Si Si4 0.240812 0.901021 0.177948
Si Si5 0.901371 0.347435 0.052659
Si Si6 0.793006 0.902153 0.074544
Si Si7 0.084607 0.161360 0.882504
O O1 0.398342 0.872512 0.429784
O O2 0.420575 0.904888 0.154944
O O3 0.476484 0.000000 0.266472
O O4 0.534971 0.859832 0.136483
O O5 0.739561 0.878658 0.483930
O O6 0.806056 0.877167 0.633178
O O7 0.880372 0.863633 0.302924
O O8 0.820277 0.000000 0.453417
O O9 0.276994 0.873484 0.750458
O O10 0.320161 0.000000 0.561233
O O11 0.322234 0.867358 0.095914
O O12 0.245090 0.000000 0.173206
O O13 0.209538 0.873440 0.074708
O O14 0.907440 0.257390 0.104047
O O15 0.864758 0.878833 0.067194
O O16 0.789111 0.000000 0.077353
O O17 0.000000 0.138058 0.000000
#
# Coordination Sequence:
#
# PCOD9170258 Si02
#       7
#     8   8   8   8   8   8   8
#     4  10  17  30  53  82 110 141 177 219 258 306
#     4   9  18  33  56  80 100 136 183 227 268 312
#     4   8  14  29  52  79 105 132 177 221 255 302
#     4  10  19  36  58  82 109 137 179 223 265 321
#     4  11  20  31  51  81 114 142 175 213 266 314
#     4   9  20  37  58  80 105 141 180 224 270 314
#     4  11  22  37  54  77 111 139 180 225 266 321
#
# _framework density 18.650182999999998
#
# number of rings (size 3 to 8) (size 9 to 14) (size 15 to 20)
#    0.000    2.286    2.857    3.000    0.000    2.286 
#    0.000    1.429    0.000    7.714    0.000    0.000 
#    0.000    0.000    0.000    0.000    0.000    0.000 
#
# Total GULP energy -156173.336138 kJ/mol
# GULP energy per Si atom -5577.619148 kJ/mol
# Density = 1.860773 g / cm^3
# Si number density = 18.650183 Si / 1000 Ang^3
#
#
#
# Elastic Constant Matrix: (Units=GPa)
#
#
# Indices 1 2 3 4 5 6 
#
# 1 84.8035 10.0851 89.3695 0.0000 -13.7849 0.0000
# 2 10.0851 20.2189 38.2268 0.0000 -4.7948 0.0000
# 3 89.3695 38.2268 192.2865 0.0000 -12.2811 0.0000
# 4 0.0000 0.0000 0.0000 65.8766 0.0000 -39.0991
# 5 -13.7849 -4.7948 -12.2811 0.0000 35.0272 0.0000
# 6 0.0000 0.0000 0.0000 -39.0991 0.0000 28.0261
#
#
#
# Elastic Compliance Matrix: (Units=1/GPa)
#
#
# Indices 1 2 3 4 5 6 
#
# 1 0.027843 0.018409 -0.016100 0.000000 0.007833 0.000000
# 2 0.018409 0.092444 -0.026251 0.000000 0.010695 0.000000
# 3 -0.016100 -0.026251 0.017664 0.000000 -0.003737 0.000000
# 4 0.000000 0.000000 0.000000 0.088265 0.000000 0.123138
# 5 0.007833 0.010695 -0.003737 0.000000 0.031786 0.000000
# 6 0.000000 0.000000 0.000000 0.123138 0.000000 0.207471
#
#
# Mechanical properties :
#
#
# Convention : Reuss Voigt Hill
#
# Bulk Modulus (GPa) = 11.10292 63.63017 37.36654
# Shear Modulus (GPa) = 9.20171 36.42780 22.81476
#
# Velocity S-wave (km/s) = 2.22364 4.42431 3.50136
# Velocity P-wave (km/s) = 3.54386 7.76474 6.03532
#
# Compressibility (1/GPa) = 0.09006643
#
# Stress axis : x y z
#
# Youngs Moduli (GPa) = 35.91588 10.81739 56.61391
#
# Poissons Ratio (x) = -0.19914 0.91149
# Poissons Ratio (y) = -0.66118 1.48616
# Poissons Ratio (z) = 0.57825 0.28397
#
# Static dielectric constant tensor:
#      x y z
#    x 1.623620 0.000000 -0.003190 
#    y 0.000000 1.666310 0.000000 
#    z -0.003190 0.000000 1.676730 
# 
# From -- ./inp_files/96750.got.cif
#   From: 2010.05.17/outbox.cif.g08.bks.cpg/sg12_49_cif.got.tgz:96750.got - 2010.06.03 13:09:07.
