data_PCOD9170862
_publ_section_title
;
Structure prediction by ZEFSAII (Michael W. Deem and Ramdas Pophale) SiO2 
 PCOD9170862
Probable space group: C 2/M
;
_chemical_formula_sum "Si O2"
_cell_formula_units_Z 42
_cell_length_a 8.726509
_cell_length_b 17.004018
_cell_length_c 14.159214
_cell_angle_alpha 90.000000
_cell_angle_beta 103.165811
_cell_angle_gamma 90.000000
_cell_volume 2045.799641
_symmetry_space_group_name_H-M "C 2/M"
_symmetry_group_IT_number 12
_symmetry_cell_setting 'monoclinic'
loop_
_space_group_symop_operation_xyz
x,y,z
-x,y,-z
-x,-y,-z
x,-y,z
1/2+x,1/2+y,z
1/2-x,1/2+y,-z
1/2-x,1/2-y,-z
1/2+x,1/2-y,z
loop_
_atom_site_type_symbol
_atom_site_label
_atom_site_fract_x
_atom_site_fract_y
_atom_site_fract_z
Si Si1 0.000000 0.000000 0.500000
Si Si2 0.950572 0.287233 0.376915
Si Si3 0.124114 0.824539 0.248699
Si Si4 0.846946 0.282934 0.926878
Si Si5 0.727165 0.363348 0.573203
Si Si6 0.825982 0.912993 0.219843
O O1 0.866884 0.071059 0.498639
O O2 0.035385 0.237487 0.305126
O O3 0.094663 0.342441 0.430976
O O4 0.801751 0.332629 0.310877
O O5 0.866563 0.219526 0.429129
O O6 0.120564 0.786258 0.144285
O O7 0.013674 0.900240 0.239649
O O8 0.754662 0.348159 0.855642
O O9 0.750000 0.250000 0.000000
O O10 0.000000 0.316055 0.000000
O O11 0.724180 0.398746 0.678938
O O12 0.781852 0.000000 0.184765
#
# Coordination Sequence:
#
# PCOD9170862 Si02
#       6
#     2   8   8   8   8   8
#     4  12  24  40  60  98 126 156 182 270 308 348
#     4   9  17  36  65  86 110 162 206 232 282 381
#     4  10  17  35  60  86 112 158 206 238 288 350
#     4  12  21  34  60  88 117 157 207 252 283 348
#     4  10  21  38  65  88 123 152 202 243 307 360
#     4  11  22  39  58  86 122 164 192 252 316 352
#
# _framework density 20.529869000000001
#
# number of rings (size 3 to 8) (size 9 to 14) (size 15 to 20)
#    0.000    1.524    8.571    0.000    0.000    1.143 
#    1.714    1.905    0.000   10.286    0.000    0.000 
#    0.000    0.000    0.000    0.000    0.000    0.000 
#
# Total GULP energy -116976.047004 kJ/mol
# GULP energy per Si atom -5570.287953 kJ/mol
# Density = 2.048314 g / cm^3
# Si number density = 20.529869 Si / 1000 Ang^3
#
#
#
# Elastic Constant Matrix: (Units=GPa)
#
#
# Indices 1 2 3 4 5 6 
#
# 1 146.2897 23.3878 29.0766 0.0000 9.9048 0.0000
# 2 23.3878 71.5785 6.7532 0.0000 -3.8688 0.0000
# 3 29.0766 6.7532 53.7070 0.0000 -0.5503 0.0000
# 4 0.0000 0.0000 0.0000 2.7225 0.0000 -2.5369
# 5 9.9048 -3.8688 -0.5503 0.0000 46.8518 0.0000
# 6 0.0000 0.0000 0.0000 -2.5369 0.0000 11.2143
#
#
#
# Elastic Compliance Matrix: (Units=1/GPa)
#
#
# Indices 1 2 3 4 5 6 
#
# 1 0.008175 -0.002387 -0.004146 0.000000 -0.001974 0.000000
# 2 -0.002387 0.014897 -0.000563 0.000000 0.001728 0.000000
# 3 -0.004146 -0.000563 0.020946 0.000000 0.001076 0.000000
# 4 0.000000 0.000000 0.000000 0.465423 0.000000 0.105289
# 5 -0.001974 0.001728 0.001076 0.000000 0.021917 0.000000
# 6 0.000000 0.000000 0.000000 0.105289 0.000000 0.112991
#
#
# Mechanical properties :
#
#
# Convention : Reuss Voigt Hill
#
# Bulk Modulus (GPa) = 33.52774 43.33449 38.43112
# Shear Modulus (GPa) = 7.47963 26.31489 16.89726
#
# Velocity S-wave (km/s) = 1.91081 3.58409 2.87201
# Velocity P-wave (km/s) = 4.60814 6.18720 5.45510
#
# Compressibility (1/GPa) = 0.02982605
#
# Stress axis : x y z
#
# Youngs Moduli (GPa) = 122.32360 67.12738 47.74171
#
# Poissons Ratio (x) = 0.16021 0.19794
# Poissons Ratio (y) = 0.29195 0.02689
# Poissons Ratio (z) = 0.50716 0.03782
#
# Static dielectric constant tensor:
#      x y z
#    x 1.687430 0.000000 -0.019980 
#    y 0.000000 1.709440 0.000000 
#    z -0.019980 0.000000 1.775190 
# 
# From -- ./inp_files/195362.got.cif
#   From: 2010.05.17/outbox.cif.g08.bks.cpg/sg12_98_cif.got.tgz:195362.got - 2010.06.03 13:09:07.
