data_PCOD9170958
_publ_section_title
;
Structure prediction by ZEFSAII (Michael W. Deem and Ramdas Pophale) SiO2 
 PCOD9170958
Probable space group: C 2/M
;
_chemical_formula_sum "Si O2"
_cell_formula_units_Z 44
_cell_length_a 25.859833
_cell_length_b 10.727731
_cell_length_c 6.821191
_cell_angle_alpha 90.000000
_cell_angle_beta 74.705838
_cell_angle_gamma 90.000000
_cell_volume 1825.298892
_symmetry_space_group_name_H-M "C 2/M"
_symmetry_group_IT_number 12
_symmetry_cell_setting 'monoclinic'
loop_
_space_group_symop_operation_xyz
x,y,z
-x,y,-z
-x,-y,-z
x,-y,z
1/2+x,1/2+y,z
1/2-x,1/2+y,-z
1/2-x,1/2-y,-z
1/2+x,1/2-y,z
loop_
_atom_site_type_symbol
_atom_site_label
_atom_site_fract_x
_atom_site_fract_y
_atom_site_fract_z
Si Si1 0.562121 0.000000 0.388970
Si Si2 0.632791 0.227073 0.353062
Si Si3 0.750000 0.228416 0.237797
Si Si4 0.871496 0.000000 0.683369
Si Si5 0.750000 0.000000 0.786457
Si Si6 0.371497 0.000000 0.073640
Si Si7 0.367209 0.272927 0.118645
Si Si8 0.437879 0.500000 0.013213
O O1 0.500000 0.000000 0.500000
O O2 0.588203 0.126696 0.442968
O O3 0.583077 0.000000 0.140557
O O4 0.691969 0.175341 0.342859
O O5 0.624848 0.368828 0.433875
O O6 0.632199 0.250000 0.117800
O O7 0.750000 0.369113 0.323815
O O8 0.808031 0.175341 0.226798
O O9 0.750000 0.250000 0.000000
O O10 0.916923 0.000000 0.806711
O O11 0.809187 0.000000 0.829431
O O12 0.690813 0.000000 0.947805
O O13 0.375152 0.868828 0.183572
O O14 0.411797 0.373304 0.119375
O O15 0.500000 0.500000 0.000000
#
# Coordination Sequence:
#
# PCOD9170958 Si02
#       8
#     4   8   8   4   4   4   8   4
#     4  10  18  24  30  47  75 101 121 148 173 191
#     4   8  14  23  36  51  69  93 118 142 172 211
#     4   8  12  18  32  52  68  85 111 138 168 211
#     4   8  14  26  41  54  69  95 122 142 170 215
#     4   8  12  20  36  58  72  80 110 146 170 208
#     4   8  14  26  41  54  69  95 122 142 170 215
#     4   8  14  23  36  51  69  93 118 142 172 211
#     4  10  18  24  30  47  75 101 121 148 173 191
#
# _framework density 24.105640999999999
#
# number of rings (size 3 to 8) (size 9 to 14) (size 15 to 20)
#    0.000    3.636    0.000    2.182    0.000    0.727 
#    0.000    0.909    0.000    0.000    0.000    0.000 
#    0.000    0.000    0.000  132.545    0.000    0.000 
#
# Total GULP energy -122575.056433 kJ/mol
# GULP energy per Si atom -5571.593474 kJ/mol
# Density = 2.405078 g / cm^3
# Si number density = 24.105641 Si / 1000 Ang^3
#
#
#
# Elastic Constant Matrix: (Units=GPa)
#
#
# Indices 1 2 3 4 5 6 
#
# 1 233.3149 97.4203 66.1218 0.0000 -55.8007 0.0000
# 2 97.4203 184.7613 2.0597 0.0000 -42.3852 0.0000
# 3 66.1218 2.0597 98.7357 0.0000 -4.0167 0.0000
# 4 0.0000 0.0000 0.0000 -16.8974 0.0000 -21.9131
# 5 -55.8007 -42.3852 -4.0167 0.0000 43.8420 0.0000
# 6 0.0000 0.0000 0.0000 -21.9131 0.0000 32.4041
#
#
#
# Elastic Compliance Matrix: (Units=1/GPa)
#
#
# Indices 1 2 3 4 5 6 
#
# 1 0.009040 -0.002805 -0.005659 0.000000 0.008276 0.000000
# 2 -0.002805 0.007827 0.001885 0.000000 0.004169 0.000000
# 3 -0.005659 0.001885 0.013711 0.000000 -0.004124 0.000000
# 4 0.000000 0.000000 0.000000 -0.031530 0.000000 -0.021322
# 5 0.008276 0.004169 -0.004124 0.000000 0.036995 0.000000
# 6 0.000000 0.000000 0.000000 -0.021322 0.000000 0.016441
#
#
# Mechanical properties :
#
#
# Convention : Reuss Voigt Hill
#
# Bulk Modulus (GPa) = 57.40708 94.22392 75.81550
# Shear Modulus (GPa) = 69.97879 35.28376 52.63127
#
# Velocity S-wave (km/s) = 5.39380 3.83000 4.67771
# Velocity P-wave (km/s) = 7.91563 7.66364 7.79065
#
# Compressibility (1/GPa) = 0.01741946
#
# Stress axis : x y z
#
# Youngs Moduli (GPa) = 110.61384 127.76421 72.93557
#
# Poissons Ratio (x) = 0.35840 0.41275
# Poissons Ratio (y) = 0.31029 -0.13748
# Poissons Ratio (z) = 0.62597 -0.24083
#
# Static dielectric constant tensor:
#      x y z
#    x 1.870730 0.000000 0.096090 
#    y 0.000000 2.002010 0.000000 
#    z 0.096090 0.000000 2.086920 
# 
# From -- ./inp_files/94271.got.cif
#   From: 2010.05.17/outbox.cif.g08.bks.cpg/sg12_48_cif.got.tgz:94271.got - 2010.06.03 13:09:07.
