data_PCOD9170167
_publ_section_title
;
Structure prediction by ZEFSAII (Michael W. Deem and Ramdas Pophale) SiO2 
 PCOD9170167
Probable space group: C 2/M
;
_chemical_formula_sum "Si O2"
_cell_formula_units_Z 56
_cell_length_a 20.252126
_cell_length_b 8.588774
_cell_length_c 21.115973
_cell_angle_alpha 90.000000
_cell_angle_beta 127.757936
_cell_angle_gamma 90.000000
_cell_volume 2903.837592
_symmetry_space_group_name_H-M "C 2/M"
_symmetry_group_IT_number 12
_symmetry_cell_setting 'monoclinic'
loop_
_space_group_symop_operation_xyz
x,y,z
-x,y,-z
-x,-y,-z
x,-y,z
1/2+x,1/2+y,z
1/2-x,1/2+y,-z
1/2-x,1/2-y,-z
1/2+x,1/2-y,z
loop_
_atom_site_type_symbol
_atom_site_label
_atom_site_fract_x
_atom_site_fract_y
_atom_site_fract_z
Si Si1 0.193852 0.814965 0.525245
Si Si2 0.571377 0.685486 0.132963
Si Si3 0.448788 0.813834 0.634768
Si Si4 0.120598 0.310161 0.791071
Si Si5 0.306015 0.312494 0.903961
Si Si6 0.664834 0.683693 0.319150
Si Si7 0.395728 0.184927 0.072762
O O1 0.250000 0.750000 0.500000
O O2 0.101102 0.759636 0.453289
O O3 0.241840 0.746211 0.613895
O O4 0.198071 0.000000 0.528499
O O5 0.553798 0.500000 0.115986
O O6 0.621196 0.741065 0.100561
O O7 0.631045 0.705920 0.228820
O O8 0.485151 0.770637 0.096016
O O9 0.543542 0.759304 0.702226
O O10 0.397360 0.768479 0.668159
O O11 0.446801 0.000000 0.627132
O O12 0.118639 0.500000 0.789281
O O13 0.214045 0.260370 0.828422
O O14 0.106008 0.260796 0.855393
O O15 0.306511 0.500000 0.902489
O O16 0.326564 0.259876 0.986888
O O17 0.663025 0.500000 0.332949
O O18 0.384408 0.000000 0.066169
#
# Coordination Sequence:
#
# PCOD9170167 Si02
#       7
#     8   8   8   8   8   8   8
#     4  10  18  28  45  73 104 133 162 203 251 297
#     4  10  21  35  54  76 102 136 173 212 253 301
#     4  10  17  30  50  74 101 132 165 205 253 298
#     4   9  19  34  54  76 102 135 171 212 255 300
#     4  10  21  38  54  73 102 137 174 211 255 304
#     4  10  18  30  48  74 101 130 167 207 250 297
#     4  11  21  35  54  78 103 131 171 216 260 304
#
# _framework density 19.284825999999999
#
# number of rings (size 3 to 8) (size 9 to 14) (size 15 to 20)
#    0.000    2.000    1.429    5.143    0.000    2.857 
#    0.000    2.143    0.000    0.857    0.000    6.000 
#    0.000    0.000    0.000    0.000    0.000    0.000 
#
# Total GULP energy -156275.436860 kJ/mol
# GULP energy per Si atom -5581.265602 kJ/mol
# Density = 1.924093 g / cm^3
# Si number density = 19.284826 Si / 1000 Ang^3
#
#
#
# Elastic Constant Matrix: (Units=GPa)
#
#
# Indices 1 2 3 4 5 6 
#
# 1 35.1826 -2.2628 -14.1712 0.0000 11.1448 0.0000
# 2 -2.2628 39.9962 11.6007 0.0000 4.1825 0.0000
# 3 -14.1712 11.6007 65.0361 0.0000 22.1957 0.0000
# 4 0.0000 0.0000 0.0000 29.2052 0.0000 2.3370
# 5 11.1448 4.1825 22.1957 0.0000 23.5485 0.0000
# 6 0.0000 0.0000 0.0000 2.3370 0.0000 12.5997
#
#
#
# Elastic Compliance Matrix: (Units=1/GPa)
#
#
# Indices 1 2 3 4 5 6 
#
# 1 0.062090 -0.000068 0.034741 0.000000 -0.062119 0.000000
# 2 -0.000068 0.026369 -0.004616 0.000000 -0.000301 0.000000
# 3 0.034741 -0.004616 0.042902 0.000000 -0.056059 0.000000
# 4 0.000000 0.000000 0.000000 0.034756 0.000000 -0.006446
# 5 -0.062119 -0.000301 -0.056059 0.000000 0.124757 0.000000
# 6 0.000000 0.000000 0.000000 -0.006446 0.000000 0.080562
#
#
# Mechanical properties :
#
#
# Convention : Reuss Voigt Hill
#
# Bulk Modulus (GPa) = 5.22260 14.50537 9.86399
# Shear Modulus (GPa) = 13.32817 22.74055 18.03436
#
# Velocity S-wave (km/s) = 2.63177 3.43766 3.06135
# Velocity P-wave (km/s) = 3.45673 4.82646 4.19784
#
# Compressibility (1/GPa) = 0.19147547
#
# Stress axis : x y z
#
# Youngs Moduli (GPa) = 16.10574 37.92368 23.30916
#
# Poissons Ratio (x) = 0.00258 -0.80979
# Poissons Ratio (y) = 0.00110 0.10759
# Poissons Ratio (z) = -0.55954 0.17504
#
# Static dielectric constant tensor:
#      x y z
#    x 1.671820 0.000000 0.019840 
#    y 0.000000 1.659130 0.000000 
#    z 0.019840 0.000000 1.714070 
# 
# From -- ./inp_files/345666.got.cif
#   From: 2010.05.17/outbox.cif.g08.bks.cpg/sg12_173_cif.got.tgz:345666.got - 2010.06.03 13:09:07.
