data_PCOD9170963
_publ_section_title
;
Structure prediction by ZEFSAII (Michael W. Deem and Ramdas Pophale) SiO2 
 PCOD9170963
Probable space group: C 2/M
;
_chemical_formula_sum "Si O2"
_cell_formula_units_Z 56
_cell_length_a 24.362240
_cell_length_b 7.360614
_cell_length_c 15.603067
_cell_angle_alpha 90.000000
_cell_angle_beta 89.084367
_cell_angle_gamma 90.000000
_cell_volume 2797.601004
_symmetry_space_group_name_H-M "C 2/M"
_symmetry_group_IT_number 12
_symmetry_cell_setting 'monoclinic'
loop_
_space_group_symop_operation_xyz
x,y,z
-x,y,-z
-x,-y,-z
x,-y,z
1/2+x,1/2+y,z
1/2-x,1/2+y,-z
1/2-x,1/2-y,-z
1/2+x,1/2-y,z
loop_
_atom_site_type_symbol
_atom_site_label
_atom_site_fract_x
_atom_site_fract_y
_atom_site_fract_z
Si Si1 0.169538 0.217578 0.664520
Si Si2 0.939907 0.777698 0.255273
Si Si3 0.611642 0.710473 0.203940
Si Si4 0.032339 0.789926 0.374170
Si Si5 0.514609 0.277450 0.095163
Si Si6 0.630939 0.722914 0.478922
Si Si7 0.203275 0.215630 0.316791
O O1 0.122687 0.279260 0.731459
O O2 0.151722 0.283054 0.570693
O O3 0.232008 0.259345 0.685088
O O4 0.166125 0.000000 0.661404
O O5 0.976093 0.715107 0.336412
O O6 0.969678 0.721862 0.167183
O O7 0.942377 0.000000 0.256390
O O8 0.621258 0.500000 0.180375
O O9 0.572859 0.712806 0.289974
O O10 0.573666 0.786335 0.129556
O O11 0.668872 0.789374 0.236563
O O12 0.070243 0.716108 0.449622
O O13 0.020956 0.000000 0.396475
O O14 0.515528 0.500000 0.095871
O O15 0.500000 0.219886 0.000000
O O16 0.629195 0.500000 0.479267
O O17 0.674736 0.781193 0.405309
O O18 0.193111 0.000000 0.316809
#
# Coordination Sequence:
#
# PCOD9170963 Si02
#       7
#     8   8   8   8   8   8   8
#     4  10  18  25  35  55  81 103 125 156 190 220
#     4   8  14  22  32  52  80 101 117 147 194 236
#     4   7  11  20  35  54  72  92 122 157 185 213
#     4   7  10  19  33  49  71  94 118 153 193 225
#     4   8  12  20  37  59  79  96 116 149 193 232
#     4   8  14  23  36  54  73  97 131 165 189 212
#     4   9  16  27  40  52  72 104 137 159 177 210
#
# _framework density 20.017150000000001
#
# number of rings (size 3 to 8) (size 9 to 14) (size 15 to 20)
#    0.000    3.857    0.000    3.857    0.000    0.571 
#    0.000    2.857    0.000    0.857    0.000   11.000 
#    0.000    1.143    0.000    0.000    0.000    0.000 
#
# Total GULP energy -155971.943179 kJ/mol
# GULP energy per Si atom -5570.426542 kJ/mol
# Density = 1.997159 g / cm^3
# Si number density = 20.017150 Si / 1000 Ang^3
#
#
#
# Elastic Constant Matrix: (Units=GPa)
#
#
# Indices 1 2 3 4 5 6 
#
# 1 130.0375 1.8501 87.4848 0.0000 13.7020 0.0000
# 2 1.8501 70.1855 5.6332 0.0000 2.2480 0.0000
# 3 87.4848 5.6332 130.5737 0.0000 31.6903 0.0000
# 4 0.0000 0.0000 0.0000 -13.7902 0.0000 -1.8688
# 5 13.7020 2.2480 31.6903 0.0000 24.8111 0.0000
# 6 0.0000 0.0000 0.0000 -1.8688 0.0000 9.7364
#
#
#
# Elastic Compliance Matrix: (Units=1/GPa)
#
#
# Indices 1 2 3 4 5 6 
#
# 1 0.014689 0.000323 -0.011420 0.000000 0.006445 0.000000
# 2 0.000323 0.014314 -0.000690 0.000000 -0.000594 0.000000
# 3 -0.011420 -0.000690 0.019991 0.000000 -0.019164 0.000000
# 4 0.000000 0.000000 0.000000 -0.070677 0.000000 -0.013566
# 5 0.006445 -0.000594 -0.019164 0.000000 0.061277 0.000000
# 6 0.000000 0.000000 0.000000 -0.013566 0.000000 0.100104
#
#
# Mechanical properties :
#
#
# Convention : Reuss Voigt Hill
#
# Bulk Modulus (GPa) = 39.33806 57.85923 48.59865
# Shear Modulus (GPa) = 29.11288 19.87336 24.49312
#
# Velocity S-wave (km/s) = 3.81779 3.15432 3.50180
# Velocity P-wave (km/s) = 6.25531 6.49876 6.37820
#
# Compressibility (1/GPa) = 0.02542068
#
# Stress axis : x y z
#
# Youngs Moduli (GPa) = 68.07616 69.86252 50.02265
#
# Poissons Ratio (x) = -0.02256 0.57126
# Poissons Ratio (y) = -0.02199 0.03450
# Poissons Ratio (z) = 0.77743 0.04818
#
# Static dielectric constant tensor:
#      x y z
#    x 1.735070 0.000000 0.026080 
#    y 0.000000 1.819410 0.000000 
#    z 0.026080 0.000000 1.686590 
# 
# From -- ./inp_files/276086.got.cif
#   From: 2010.05.17/outbox.cif.g08.bks.cpg/sg12_139_cif.got.tgz:276086.got - 2010.06.03 13:09:07.
