data_PCOD9170462
_publ_section_title
;
Structure prediction by ZEFSAII (Michael W. Deem and Ramdas Pophale) SiO2 
 PCOD9170462
Probable space group: C 2/M
;
_chemical_formula_sum "Si O2"
_cell_formula_units_Z 64
_cell_length_a 14.819696
_cell_length_b 30.703266
_cell_length_c 11.839005
_cell_angle_alpha 90.000000
_cell_angle_beta 148.966911
_cell_angle_gamma 90.000000
_cell_volume 2777.125816
_symmetry_space_group_name_H-M "C 2/M"
_symmetry_group_IT_number 12
_symmetry_cell_setting 'monoclinic'
loop_
_space_group_symop_operation_xyz
x,y,z
-x,y,-z
-x,-y,-z
x,-y,z
1/2+x,1/2+y,z
1/2-x,1/2+y,-z
1/2-x,1/2-y,-z
1/2+x,1/2-y,z
loop_
_atom_site_type_symbol
_atom_site_label
_atom_site_fract_x
_atom_site_fract_y
_atom_site_fract_z
Si Si1 0.952483 0.193765 0.135439
Si Si2 0.509667 0.862057 0.881550
Si Si3 0.422344 0.374319 0.290785
Si Si4 0.429814 0.952231 0.702258
Si Si5 0.727087 0.825086 0.693076
Si Si6 0.686762 0.073319 0.652769
Si Si7 0.078848 0.722334 0.350758
Si Si8 0.166115 0.950623 0.957878
O O1 0.989097 0.165615 0.286164
O O2 0.106282 0.183611 0.210400
O O3 0.936054 0.244053 0.152316
O O4 0.782299 0.179790 0.882186
O O5 0.713937 0.867287 0.073831
O O6 0.500000 0.848524 0.000000
O O7 0.416144 0.908745 0.762326
O O8 0.432191 0.823676 0.723436
O O9 0.500000 0.376661 0.500000
O O10 0.442234 0.417900 0.236973
O O11 0.299851 0.947843 0.455746
O O12 0.407421 0.000000 0.731954
O O13 0.630893 0.950256 0.869745
O O14 0.672383 0.874966 0.618739
O O15 0.593486 0.790496 0.496804
O O16 0.500000 0.057257 0.500000
O O17 0.823270 0.064145 0.899481
O O18 0.250000 0.750000 0.500000
O O19 0.103882 0.000000 0.883901
#
# Coordination Sequence:
#
# PCOD9170462 Si02
#       8
#     8   8   8   8   8   8   8   8
#     4  10  23  40  60  89 122 167 210 252 314 369
#     4  11  25  41  64  91 126 168 213 262 312 376
#     4  11  25  41  63  91 127 171 215 266 308 372
#     4   9  18  34  58  93 124 156 200 256 322 373
#     4  10  20  37  64  89 122 162 201 265 310 374
#     4  10  17  31  60  93 122 154 197 257 319 371
#     4  10  23  39  66  93 123 165 208 257 318 379
#     4   9  18  35  58  88 126 163 205 253 310 381
#
# _framework density 23.04541
#
# number of rings (size 3 to 8) (size 9 to 14) (size 15 to 20)
#    0.000    2.000    2.500    0.375    7.000    2.500 
#    0.000    0.625    0.000    3.750    0.000    0.000 
#    0.000    0.000    0.000    0.000    0.000    0.000 
#
# Total GULP energy -178765.476721 kJ/mol
# GULP energy per Si atom -5586.421148 kJ/mol
# Density = 2.299296 g / cm^3
# Si number density = 23.045410 Si / 1000 Ang^3
#
#
#
# Elastic Constant Matrix: (Units=GPa)
#
#
# Indices 1 2 3 4 5 6 
#
# 1 61.5743 8.5729 31.6316 0.0000 -8.3871 0.0000
# 2 8.5729 147.7370 48.4943 0.0000 -19.4161 0.0000
# 3 31.6316 48.4943 110.4729 0.0000 -34.3654 0.0000
# 4 0.0000 0.0000 0.0000 35.5919 0.0000 -13.1128
# 5 -8.3871 -19.4161 -34.3654 0.0000 40.5155 0.0000
# 6 0.0000 0.0000 0.0000 -13.1128 0.0000 21.9248
#
#
#
# Elastic Compliance Matrix: (Units=1/GPa)
#
#
# Indices 1 2 3 4 5 6 
#
# 1 0.019143 0.000776 -0.006077 0.000000 -0.000820 0.000000
# 2 0.000776 0.007979 -0.003376 0.000000 0.001121 0.000000
# 3 -0.006077 -0.003376 0.015458 0.000000 0.010236 0.000000
# 4 0.000000 0.000000 0.000000 0.036037 0.000000 0.021553
# 5 -0.000820 0.001121 0.010236 0.000000 0.033731 0.000000
# 6 0.000000 0.000000 0.000000 0.021553 0.000000 0.058501
#
#
# Mechanical properties :
#
#
# Convention : Reuss Voigt Hill
#
# Bulk Modulus (GPa) = 39.64131 55.24241 47.44186
# Shear Modulus (GPa) = 25.43091 35.01215 30.22153
#
# Velocity S-wave (km/s) = 3.32552 3.90201 3.62524
# Velocity P-wave (km/s) = 5.65546 6.65763 6.17690
#
# Compressibility (1/GPa) = 0.02522621
#
# Stress axis : x y z
#
# Youngs Moduli (GPa) = 52.23964 125.32444 64.69109
#
# Poissons Ratio (x) = -0.09727 0.39311
# Poissons Ratio (y) = -0.04055 0.21841
# Poissons Ratio (z) = 0.31745 0.42313
#
# Static dielectric constant tensor:
#      x y z
#    x 3.165460 0.000000 1.055950 
#    y 0.000000 1.834740 0.000000 
#    z 1.055950 0.000000 2.665870 
# 
# From -- ./inp_files/161223.got.cif
#   From: 2010.05.17/outbox.cif.g08.bks.cpg/sg12_81_cif.got.tgz:161223.got - 2010.06.03 13:09:07.
