data_PCOD9170560
_publ_section_title
;
Structure prediction by ZEFSAII (Michael W. Deem and Ramdas Pophale) SiO2 
 PCOD9170560
Probable space group: C 2/M
;
_chemical_formula_sum "Si O2"
_cell_formula_units_Z 56
_cell_length_a 19.250167
_cell_length_b 19.948200
_cell_length_c 16.258751
_cell_angle_alpha 90.000000
_cell_angle_beta 26.249681
_cell_angle_gamma 90.000000
_cell_volume 2761.380961
_symmetry_space_group_name_H-M "C 2/M"
_symmetry_group_IT_number 12
_symmetry_cell_setting 'monoclinic'
loop_
_space_group_symop_operation_xyz
x,y,z
-x,y,-z
-x,-y,-z
x,-y,z
1/2+x,1/2+y,z
1/2-x,1/2+y,-z
1/2-x,1/2-y,-z
1/2+x,1/2-y,z
loop_
_atom_site_type_symbol
_atom_site_label
_atom_site_fract_x
_atom_site_fract_y
_atom_site_fract_z
Si Si1 0.320339 0.741221 0.262116
Si Si2 0.343551 0.818955 0.713777
Si Si3 0.567006 0.000000 0.838804
Si Si4 0.916665 0.637670 0.250161
Si Si5 0.998447 0.740091 0.297735
Si Si6 0.446496 0.500000 0.459565
Si Si7 0.966279 0.891801 0.945698
Si Si8 0.946076 0.891091 0.324710
O O1 0.240674 0.732085 0.258985
O O2 0.393975 0.813656 0.196378
O O3 0.438183 0.679458 0.151259
O O4 0.180006 0.736108 0.477545
O O5 0.500000 0.842683 0.500000
O O6 0.390707 0.781893 0.746235
O O7 0.218446 0.876915 0.861793
O O8 0.514408 0.066509 0.846899
O O9 0.756252 0.000000 0.652114
O O10 0.500000 0.000000 0.000000
O O11 0.741799 0.620598 0.469631
O O12 0.007591 0.685067 0.216935
O O13 0.022755 0.816925 0.246350
O O14 0.500000 0.500000 0.500000
O O15 0.495407 0.435521 0.351483
O O16 0.017725 0.921707 0.803577
O O17 0.000000 0.923116 0.000000
#
# Coordination Sequence:
#
# PCOD9170560 Si02
#       8
#     8   8   4   8   8   4   8   8
#     4   9  16  32  54  79 110 147 188 238 291 342
#     4   9  20  30  47  84 118 143 177 239 304 346
#     4  10  24  40  56  83 114 160 201 225 282 360
#     4  10  18  35  59  79 113 154 199 239 285 342
#     4  10  17  32  55  83 115 144 191 246 298 326
#     4  10  24  44  63  83 120 159 193 240 293 341
#     4  10  18  32  54  83 113 145 186 237 289 347
#     4  10  19  36  60  84 110 153 201 237 289 354
#
# _framework density 20.279709
#
# number of rings (size 3 to 8) (size 9 to 14) (size 15 to 20)
#    0.000    2.286    2.857    0.857    0.000    6.286 
#    2.571    0.357    0.000    0.000    0.000    6.000 
#    0.000    0.000    0.000    0.000    0.000    0.000 
#
# Total GULP energy -156140.492162 kJ/mol
# GULP energy per Si atom -5576.446149 kJ/mol
# Density = 2.023355 g / cm^3
# Si number density = 20.279709 Si / 1000 Ang^3
#
#
#
# Elastic Constant Matrix: (Units=GPa)
#
#
# Indices 1 2 3 4 5 6 
#
# 1 136.3627 58.4781 41.5838 0.0025 27.2126 -0.0014
# 2 58.4781 135.1373 22.9495 0.0017 15.8011 -0.0014
# 3 41.5838 22.9495 60.3234 0.0029 16.1332 -0.0030
# 4 0.0025 0.0017 0.0029 4.0135 -0.0031 10.4014
# 5 27.2126 15.8011 16.1332 -0.0031 33.1008 0.0024
# 6 -0.0014 -0.0014 -0.0030 10.4014 0.0024 20.1899
#
#
#
# Elastic Compliance Matrix: (Units=1/GPa)
#
#
# Indices 1 2 3 4 5 6 
#
# 1 0.011437 -0.003460 -0.005169 0.000020 -0.005232 -0.000010
# 2 -0.003460 0.009166 -0.000796 0.000009 -0.001143 -0.000004
# 3 -0.005169 -0.000796 0.022084 0.000079 -0.006134 -0.000037
# 4 0.000020 0.000009 0.000079 -0.743457 -0.000156 0.383012
# 5 -0.005232 -0.001143 -0.006134 -0.000156 0.038047 0.000075
# 6 -0.000010 -0.000004 -0.000037 0.383012 0.000075 -0.147790
#
#
# Mechanical properties :
#
#
# Convention : Reuss Voigt Hill
#
# Bulk Modulus (GPa) = 41.95120 64.20513 53.07817
# Shear Modulus (GPa) = -6.37986 25.38164 9.50089
#
# Velocity S-wave (km/s) = -1.77560 3.54160 2.16682
# Velocity P-wave (km/s) = 4.06540 6.96078 5.70000
#
# Compressibility (1/GPa) = 0.02383722
#
# Stress axis : x y z
#
# Youngs Moduli (GPa) = 87.43224 109.09965 45.28176
#
# Poissons Ratio (x) = 0.37746 0.23405
# Poissons Ratio (y) = 0.30250 0.03606
# Poissons Ratio (z) = 0.45192 0.08689
#
# Static dielectric constant tensor:
#      x y z
#    x 1.727620 0.000000 0.021750 
#    y 0.000000 1.723930 0.000000 
#    z 0.021750 0.000000 1.760770 
# 
# From -- ./inp_files/227628.got.cif
#   From: 2010.05.17/outbox.cif.g08.bks.cpg/sg12_114_cif.got.tgz:227628.got - 2010.06.03 13:09:07.
