data_PCOD9170534
_publ_section_title
;
Structure prediction by ZEFSAII (Michael W. Deem and Ramdas Pophale) SiO2 
 PCOD9170534
Probable space group: C 2/M
;
_chemical_formula_sum "Si O2"
_cell_formula_units_Z 56
_cell_length_a 8.107618
_cell_length_b 21.829807
_cell_length_c 20.496609
_cell_angle_alpha 90.000000
_cell_angle_beta 58.218812
_cell_angle_gamma 90.000000
_cell_volume 3083.739365
_symmetry_space_group_name_H-M "C 2/M"
_symmetry_group_IT_number 12
_symmetry_cell_setting 'monoclinic'
loop_
_space_group_symop_operation_xyz
x,y,z
-x,y,-z
-x,-y,-z
x,-y,z
1/2+x,1/2+y,z
1/2-x,1/2+y,-z
1/2-x,1/2-y,-z
1/2+x,1/2-y,z
loop_
_atom_site_type_symbol
_atom_site_label
_atom_site_fract_x
_atom_site_fract_y
_atom_site_fract_z
Si Si1 0.453631 0.754331 0.172290
Si Si2 0.301137 0.184307 0.080128
Si Si3 0.062458 0.621647 0.748068
Si Si4 0.471432 0.797527 0.582416
Si Si5 0.708620 0.630783 0.729985
Si Si6 0.796318 0.928660 0.821412
Si Si7 0.845134 0.164713 0.585135
O O1 0.314397 0.786594 0.149660
O O2 0.627694 0.726912 0.091219
O O3 0.486548 0.808873 0.217290
O O4 0.366173 0.694579 0.223549
O O5 0.249854 0.113979 0.106163
O O6 0.500000 0.187750 0.000000
O O7 0.870327 0.602849 0.746496
O O8 0.140957 0.586552 0.795897
O O9 0.244764 0.622718 0.660281
O O10 0.500000 0.804761 0.500000
O O11 0.316425 0.845495 0.642769
O O12 0.668195 0.811318 0.578565
O O13 0.424506 0.725952 0.603691
O O14 0.518085 0.590238 0.756970
O O15 0.786898 0.000000 0.838099
O O16 0.000000 0.140106 0.500000
#
# Coordination Sequence:
#
# PCOD9170534 Si02
#       7
#     8   8   8   8   8   8   8
#     4  10  17  32  53  82 118 138 170 208 277 328
#     4  10  20  33  56  83 112 140 170 218 272 334
#     4  10  20  34  56  81 111 146 180 227 265 324
#     4  10  19  27  45  77 115 146 170 213 275 330
#     4  10  20  34  56  81 111 146 180 227 265 324
#     4  10  24  39  58  78 102 148 192 228 268 312
#     4  10  19  27  45  77 115 146 170 213 275 330
#
# _framework density 18.159770999999999
#
# number of rings (size 3 to 8) (size 9 to 14) (size 15 to 20)
#    0.000    2.000    2.857    2.143    4.000    0.857 
#    0.000    0.000    0.000    0.857    0.000    4.000 
#    0.000    0.000    0.000    0.000    0.000    0.000 
#
# Total GULP energy -155873.593015 kJ/mol
# GULP energy per Si atom -5566.914036 kJ/mol
# Density = 1.811844 g / cm^3
# Si number density = 18.159771 Si / 1000 Ang^3
#
#
#
# Elastic Constant Matrix: (Units=GPa)
#
#
# Indices 1 2 3 4 5 6 
#
# 1 49.8484 13.2764 0.8381 0.0000 -7.7186 0.0000
# 2 13.2764 69.9626 8.5935 0.0000 -8.5705 0.0000
# 3 0.8381 8.5935 63.6007 0.0000 -23.0623 0.0000
# 4 0.0000 0.0000 0.0000 9.8237 0.0000 -1.4262
# 5 -7.7186 -8.5705 -23.0623 0.0000 25.0101 0.0000
# 6 0.0000 0.0000 0.0000 -1.4262 0.0000 25.8620
#
#
#
# Elastic Compliance Matrix: (Units=1/GPa)
#
#
# Indices 1 2 3 4 5 6 
#
# 1 0.022314 -0.003574 0.003368 0.000000 0.008767 0.000000
# 2 -0.003574 0.015495 -0.000783 0.000000 0.003485 0.000000
# 3 0.003368 -0.000783 0.024134 0.000000 0.023025 0.000000
# 4 0.000000 0.000000 0.000000 0.102616 0.000000 0.005659
# 5 0.008767 0.003485 0.023025 0.000000 0.065116 0.000000
# 6 0.000000 0.000000 0.000000 0.005659 0.000000 0.038979
#
#
# Mechanical properties :
#
#
# Convention : Reuss Voigt Hill
#
# Bulk Modulus (GPa) = 16.67659 25.42528 21.05093
# Shear Modulus (GPa) = 17.20470 22.85274 20.02872
#
# Velocity S-wave (km/s) = 3.08134 3.55128 3.32462
# Velocity P-wave (km/s) = 4.67576 5.55398 5.13368
#
# Compressibility (1/GPa) = 0.05996431
#
# Stress axis : x y z
#
# Youngs Moduli (GPa) = 44.81564 64.53848 41.43583
#
# Poissons Ratio (x) = 0.23066 -0.13956
# Poissons Ratio (y) = 0.16017 0.03244
# Poissons Ratio (z) = -0.15094 0.05052
#
# Static dielectric constant tensor:
#      x y z
#    x 1.687880 0.000000 -0.022800 
#    y 0.000000 1.619930 0.000000 
#    z -0.022800 0.000000 1.669280 
# 
# From -- ./inp_files/301394.got.cif
#   From: 2010.05.17/outbox.cif.g08.bks.cpg/sg12_151_cif.got.tgz:301394.got - 2010.06.03 13:09:07.
