data_PCOD9170002
_publ_section_title
;
Structure prediction by ZEFSAII (Michael W. Deem and Ramdas Pophale) SiO2 
 PCOD9170002
Probable space group: C 2/M
;
_chemical_formula_sum "Si O2"
_cell_formula_units_Z 64
_cell_length_a 30.989302
_cell_length_b 8.166995
_cell_length_c 15.259669
_cell_angle_alpha 90.000000
_cell_angle_beta 99.263806
_cell_angle_gamma 90.000000
_cell_volume 3811.691076
_symmetry_space_group_name_H-M "C 2/M"
_symmetry_group_IT_number 12
_symmetry_cell_setting 'monoclinic'
loop_
_space_group_symop_operation_xyz
x,y,z
-x,y,-z
-x,-y,-z
x,-y,z
1/2+x,1/2+y,z
1/2-x,1/2+y,-z
1/2-x,1/2-y,-z
1/2+x,1/2-y,z
loop_
_atom_site_type_symbol
_atom_site_label
_atom_site_fract_x
_atom_site_fract_y
_atom_site_fract_z
Si Si1 0.564083 0.800160 0.578536
Si Si2 0.064222 0.190924 0.866323
Si Si3 0.710565 0.800920 0.873433
Si Si4 0.531176 0.801888 0.381498
Si Si5 0.807773 0.804838 0.934393
Si Si6 0.370166 0.806604 0.259027
Si Si7 0.464542 0.693985 0.810697
Si Si8 0.901964 0.687759 0.941250
O O1 0.559156 0.750908 0.475740
O O2 0.519055 0.753572 0.613188
O O3 0.605481 0.739052 0.647119
O O4 0.564628 0.000000 0.579311
O O5 0.096087 0.283506 0.810240
O O6 0.014370 0.251843 0.843936
O O7 0.064620 0.000000 0.840792
O O8 0.081400 0.207764 0.970700
O O9 0.761103 0.751124 0.879390
O O10 0.676415 0.741012 0.789311
O O11 0.709403 0.000000 0.875878
O O12 0.694889 0.739157 0.963337
O O13 0.545421 0.729656 0.293902
O O14 0.532214 0.000000 0.376261
O O15 0.851043 0.725397 0.909400
O O16 0.811265 0.000000 0.926887
O O17 0.364084 0.000000 0.271879
O O18 0.463339 0.500000 0.826999
O O19 0.431067 0.776706 0.866143
O O20 0.906844 0.500000 0.969540
#
# Coordination Sequence:
#
# PCOD9170002 Si02
#       8
#     8   8   8   8   8   8   8   8
#     4   8  15  27  48  73  99 127 161 201 236 276
#     4  11  22  34  47  69 100 131 162 199 241 283
#     4   9  18  30  48  73  98 128 164 197 238 291
#     4   9  16  30  49  71  96 129 166 198 236 280
#     4  10  19  32  48  69  99 128 158 203 248 283
#     4  10  17  29  50  74  99 131 166 197 231 281
#     4  11  23  36  49  69  98 130 164 203 246 287
#     4  12  24  36  51  69  91 128 173 205 238 289
#
# _framework density 16.790447
#
# number of rings (size 3 to 8) (size 9 to 14) (size 15 to 20)
#    0.000    2.000    2.500    3.375    0.000    3.500 
#    0.000    1.875    0.000    0.000    0.000    0.875 
#    0.000    0.000    0.000    0.000    0.000    0.000 
#
# Total GULP energy -178538.132914 kJ/mol
# GULP energy per Si atom -5579.316654 kJ/mol
# Density = 1.675223 g / cm^3
# Si number density = 16.790447 Si / 1000 Ang^3
#
#
#
# Elastic Constant Matrix: (Units=GPa)
#
#
# Indices 1 2 3 4 5 6 
#
# 1 87.1068 0.6017 46.2848 0.0000 21.9099 0.0000
# 2 0.6017 14.3104 -8.6063 0.0000 3.4277 0.0000
# 3 46.2848 -8.6063 80.2997 0.0000 26.0251 0.0000
# 4 0.0000 0.0000 0.0000 9.8578 0.0000 6.0884
# 5 21.9099 3.4277 26.0251 0.0000 29.1912 0.0000
# 6 0.0000 0.0000 0.0000 6.0884 0.0000 8.3233
#
#
#
# Elastic Compliance Matrix: (Units=1/GPa)
#
#
# Indices 1 2 3 4 5 6 
#
# 1 0.017522 -0.005310 -0.009294 0.000000 -0.004242 0.000000
# 2 -0.005310 0.088371 0.020538 0.000000 -0.024702 0.000000
# 3 -0.009294 0.020538 0.026063 0.000000 -0.018672 0.000000
# 4 0.000000 0.000000 0.000000 0.185041 0.000000 -0.135356
# 5 -0.004242 -0.024702 -0.018672 0.000000 0.056988 0.000000
# 6 0.000000 0.000000 0.000000 -0.135356 0.000000 0.219155
#
#
# Mechanical properties :
#
#
# Convention : Reuss Voigt Hill
#
# Bulk Modulus (GPa) = 6.95295 28.69746 17.82520
# Shear Modulus (GPa) = 7.94640 19.03691 13.49165
#
# Velocity S-wave (km/s) = 2.17783 3.37084 2.83774
# Velocity P-wave (km/s) = 3.23635 5.68144 4.62346
#
# Compressibility (1/GPa) = 0.14382390
#
# Stress axis : x y z
#
# Youngs Moduli (GPa) = 57.06988 11.31592 38.36799
#
# Poissons Ratio (x) = 0.06009 0.35660
# Poissons Ratio (y) = 0.30305 -0.78800
# Poissons Ratio (z) = 0.53042 -0.23241
#
# Static dielectric constant tensor:
#      x y z
#    x 1.568510 0.000000 0.040700 
#    y 0.000000 1.587880 0.000000 
#    z 0.040700 0.000000 1.561020 
# 
# From -- ./inp_files/248255.got.cif
#   From: 2010.05.17/outbox.cif.g08.bks.cpg/sg12_125_cif.got.tgz:248255.got - 2010.06.03 13:09:07.
