data_PCOD9170203
_publ_section_title
;
Structure prediction by ZEFSAII (Michael W. Deem and Ramdas Pophale) SiO2 
 PCOD9170203
Probable space group: C 2/M
;
_chemical_formula_sum "Si O2"
_cell_formula_units_Z 64
_cell_length_a 30.623815
_cell_length_b 8.805036
_cell_length_c 15.475052
_cell_angle_alpha 90.000000
_cell_angle_beta 79.341540
_cell_angle_gamma 90.000000
_cell_volume 4100.759860
_symmetry_space_group_name_H-M "C 2/M"
_symmetry_group_IT_number 12
_symmetry_cell_setting 'monoclinic'
loop_
_space_group_symop_operation_xyz
x,y,z
-x,y,-z
-x,-y,-z
x,-y,z
1/2+x,1/2+y,z
1/2-x,1/2+y,-z
1/2-x,1/2-y,-z
1/2+x,1/2-y,z
loop_
_atom_site_type_symbol
_atom_site_label
_atom_site_fract_x
_atom_site_fract_y
_atom_site_fract_z
Si Si1 0.399728 0.681944 0.577180
Si Si2 0.628106 0.683115 0.745071
Si Si3 0.460586 0.819329 0.703539
Si Si4 0.212440 0.318729 0.628363
Si Si5 0.194033 0.318472 0.434859
Si Si6 0.564086 0.315835 0.916774
Si Si7 0.056087 0.817724 0.622787
Si Si8 0.465893 0.316253 0.886811
O O1 0.398840 0.500000 0.583691
O O2 0.426288 0.750631 0.647477
O O3 0.349973 0.745064 0.588060
O O4 0.425208 0.721494 0.478521
O O5 0.633193 0.500000 0.744329
O O6 0.674851 0.758308 0.706175
O O7 0.604948 0.734033 0.842704
O O8 0.593117 0.719218 0.681210
O O9 0.509922 0.763214 0.659821
O O10 0.451464 0.758191 0.803160
O O11 0.458718 0.000000 0.702376
O O12 0.216351 0.500000 0.631766
O O13 0.196952 0.278536 0.536072
O O14 0.260529 0.243674 0.622931
O O15 0.192187 0.500000 0.428362
O O16 0.564561 0.500000 0.916730
O O17 0.517275 0.274480 0.888774
O O18 0.561548 0.269415 0.017733
O O19 0.048682 0.000000 0.629157
O O20 0.464214 0.500000 0.879629
#
# Coordination Sequence:
#
# PCOD9170203 Si02
#       8
#     8   8   8   8   8   8   8   8
#     4  11  22  36  53  71  95 132 174 211 247 291
#     4  10  17  30  51  76 101 130 166 205 247 294
#     4  12  24  34  47  70 101 136 171 209 249 290
#     4  10  20  32  49  73 102 133 164 200 247 298
#     4  10  20  34  51  72  99 130 166 208 248 289
#     4   8  15  28  52  75  95 125 165 207 248 294
#     4  10  20  34  51  70  97 134 174 207 240 288
#     4   9  16  32  52  71  94 128 169 207 246 293
#
# _framework density 15.606863000000001
#
# number of rings (size 3 to 8) (size 9 to 14) (size 15 to 20)
#    0.000    2.000    2.500    3.375    0.000    4.000 
#    0.000    1.875    0.000    0.000    0.000    0.875 
#    0.000    0.000    0.000    0.000    0.000    0.000 
#
# Total GULP energy -178591.958890 kJ/mol
# GULP energy per Si atom -5580.998715 kJ/mol
# Density = 1.557134 g / cm^3
# Si number density = 15.606863 Si / 1000 Ang^3
#
#
#
# Elastic Constant Matrix: (Units=GPa)
#
#
# Indices 1 2 3 4 5 6 
#
# 1 94.2030 40.3769 74.0356 0.0000 -10.8271 0.0000
# 2 40.3769 39.5978 43.7347 0.0000 -2.0808 0.0000
# 3 74.0356 43.7347 133.6973 0.0000 -14.0507 0.0000
# 4 0.0000 0.0000 0.0000 11.7462 0.0000 -3.5797
# 5 -10.8271 -2.0808 -14.0507 0.0000 25.2275 0.0000
# 6 0.0000 0.0000 0.0000 -3.5797 0.0000 27.5653
#
#
#
# Elastic Compliance Matrix: (Units=1/GPa)
#
#
# Indices 1 2 3 4 5 6 
#
# 1 0.023832 -0.015696 -0.007567 0.000000 0.004719 0.000000
# 2 -0.015696 0.050297 -0.008533 0.000000 -0.007340 0.000000
# 3 -0.007567 -0.008533 0.014919 0.000000 0.004358 0.000000
# 4 0.000000 0.000000 0.000000 0.088642 0.000000 0.011511
# 5 0.004719 -0.007340 0.004358 0.000000 0.043486 0.000000
# 6 0.000000 0.000000 0.000000 0.011511 0.000000 0.037772
#
#
# Mechanical properties :
#
#
# Convention : Reuss Voigt Hill
#
# Bulk Modulus (GPa) = 39.28133 64.86581 52.07357
# Shear Modulus (GPa) = 15.10459 20.19786 17.65123
#
# Velocity S-wave (km/s) = 3.11435 3.60135 3.36667
# Velocity P-wave (km/s) = 6.17707 7.67760 6.96785
#
# Compressibility (1/GPa) = 0.02545738
#
# Stress axis : x y z
#
# Youngs Moduli (GPa) = 41.96030 19.88192 67.02841
#
# Poissons Ratio (x) = 0.31206 0.50720
# Poissons Ratio (y) = 0.65859 0.57195
# Poissons Ratio (z) = 0.31751 0.16965
#
# Static dielectric constant tensor:
#      x y z
#    x 1.491490 0.000000 -0.011540 
#    y 0.000000 1.519660 0.000000 
#    z -0.011540 0.000000 1.524510 
# 
# From -- ./inp_files/248318.got.cif
#   From: 2010.05.17/outbox.cif.g08.bks.cpg/sg12_125_cif.got.tgz:248318.got - 2010.06.03 13:09:07.
