data_PCOD9170986
_publ_section_title
;
Structure prediction by ZEFSAII (Michael W. Deem and Ramdas Pophale) SiO2 
 PCOD9170986
Probable space group: C 2/M
;
_chemical_formula_sum "Si O2"
_cell_formula_units_Z 64
_cell_length_a 25.660660
_cell_length_b 7.572252
_cell_length_c 17.195364
_cell_angle_alpha 90.000000
_cell_angle_beta 111.081332
_cell_angle_gamma 90.000000
_cell_volume 3117.588877
_symmetry_space_group_name_H-M "C 2/M"
_symmetry_group_IT_number 12
_symmetry_cell_setting 'monoclinic'
loop_
_space_group_symop_operation_xyz
x,y,z
-x,y,-z
-x,-y,-z
x,-y,z
1/2+x,1/2+y,z
1/2-x,1/2+y,-z
1/2-x,1/2-y,-z
1/2+x,1/2-y,z
loop_
_atom_site_type_symbol
_atom_site_label
_atom_site_fract_x
_atom_site_fract_y
_atom_site_fract_z
Si Si1 0.059004 0.715005 0.797394
Si Si2 0.884707 0.715929 0.753351
Si Si3 0.265958 0.799946 0.739281
Si Si4 0.853344 0.290013 0.273086
Si Si5 0.093182 0.302600 0.539670
Si Si6 0.706046 0.301973 0.540822
Si Si7 0.005302 0.284625 0.090889
Si Si8 0.049712 0.715588 0.360674
O O1 0.059716 0.500000 0.800676
O O2 0.115735 0.775550 0.787266
O O3 0.042896 0.774411 0.875162
O O4 0.007990 0.763342 0.712538
O O5 0.881220 0.500000 0.748123
O O6 0.826814 0.783364 0.758765
O O7 0.936371 0.762652 0.836627
O O8 0.901617 0.770708 0.674416
O O9 0.213186 0.734391 0.760351
O O10 0.239867 0.799367 0.639146
O O11 0.275847 0.000000 0.771064
O O12 0.861644 0.500000 0.282603
O O13 0.885846 0.218625 0.367853
O O14 0.071647 0.500000 0.545784
O O15 0.151599 0.314338 0.523228
O O16 0.054095 0.220236 0.452063
O O17 0.685712 0.500000 0.515533
O O18 0.750000 0.250000 0.500000
O O19 0.004019 0.500000 0.088244
O O20 0.000000 0.221690 0.000000
O O21 0.051358 0.500000 0.365316
#
# Coordination Sequence:
#
# PCOD9170986 Si02
#       8
#     8   8   8   8   8   8   8   8
#     4   8  14  24  38  58  83 107 131 164 206 245
#     4   8  13  22  37  57  79 102 131 167 204 239
#     4   9  17  28  41  56  78 111 143 167 196 239
#     4   9  17  27  39  58  83 110 140 171 200 232
#     4   9  16  25  37  54  77 106 140 171 200 237
#     4  10  18  26  37  53  75 105 141 177 210 239
#     4   8  13  22  39  63  86 104 124 158 206 251
#     4   8  13  22  37  56  77 101 132 172 211 242
#
# _framework density 20.528686
#
# number of rings (size 3 to 8) (size 9 to 14) (size 15 to 20)
#    0.000    3.375    0.000    2.625    0.000    3.000 
#    0.000    2.500    0.000    1.500    0.000    6.125 
#    0.000    1.000    0.000    0.000    0.000    0.000 
#
# Total GULP energy -178195.899065 kJ/mol
# GULP energy per Si atom -5568.621846 kJ/mol
# Density = 2.048196 g / cm^3
# Si number density = 20.528686 Si / 1000 Ang^3
#
#
#
# Elastic Constant Matrix: (Units=GPa)
#
#
# Indices 1 2 3 4 5 6 
#
# 1 126.8574 4.6267 36.6283 0.0000 -33.8114 0.0000
# 2 4.6267 49.2165 3.3425 0.0000 -1.5937 0.0000
# 3 36.6283 3.3425 73.4991 0.0000 -19.1743 0.0000
# 4 0.0000 0.0000 0.0000 -3.0722 0.0000 -1.0786
# 5 -33.8114 -1.5937 -19.1743 0.0000 23.6740 0.0000
# 6 0.0000 0.0000 0.0000 -1.0786 0.0000 10.0038
#
#
#
# Elastic Compliance Matrix: (Units=1/GPa)
#
#
# Indices 1 2 3 4 5 6 
#
# 1 0.012985 -0.000536 -0.002052 0.000000 0.016848 0.000000
# 2 -0.000536 0.020415 -0.000637 0.000000 0.000093 0.000000
# 3 -0.002052 -0.000637 0.017600 0.000000 0.011282 0.000000
# 4 0.000000 0.000000 0.000000 -0.313631 0.000000 -0.033815
# 5 0.016848 0.000093 0.011282 0.000000 0.075447 0.000000
# 6 0.000000 0.000000 0.000000 -0.033815 0.000000 0.096316
#
#
# Mechanical properties :
#
#
# Convention : Reuss Voigt Hill
#
# Bulk Modulus (GPa) = 22.44594 37.64088 30.04341
# Shear Modulus (GPa) = -71.87137 19.78616 -26.04260
#
# Velocity S-wave (km/s) = -5.92336 3.10793 -3.56560
# Velocity P-wave (km/s) = 5.98531 5.59057 1.51153
#
# Compressibility (1/GPa) = 0.04455148
#
# Stress axis : x y z
#
# Youngs Moduli (GPa) = 77.01020 48.98352 56.81748
#
# Poissons Ratio (x) = 0.02625 0.11657
# Poissons Ratio (y) = 0.04126 0.03620
# Poissons Ratio (z) = 0.15799 0.03121
#
# Static dielectric constant tensor:
#      x y z
#    x 1.787480 0.000000 -0.011160 
#    y 0.000000 1.815960 0.000000 
#    z -0.011160 0.000000 1.738430 
# 
# From -- ./inp_files/288733.got.cif
#   From: 2010.05.17/outbox.cif.g08.bks.cpg/sg12_145_cif.got.tgz:288733.got - 2010.06.03 13:09:07.
