data_PCOD9170892
_publ_section_title
;
Structure prediction by ZEFSAII (Michael W. Deem and Ramdas Pophale) SiO2 
 PCOD9170892
Probable space group: C 2/M
;
_chemical_formula_sum "Si O2"
_cell_formula_units_Z 44
_cell_length_a 15.722621
_cell_length_b 19.270270
_cell_length_c 11.776704
_cell_angle_alpha 90.000000
_cell_angle_beta 138.131449
_cell_angle_gamma 90.000000
_cell_volume 2381.432445
_symmetry_space_group_name_H-M "C 2/M"
_symmetry_group_IT_number 12
_symmetry_cell_setting 'monoclinic'
loop_
_space_group_symop_operation_xyz
x,y,z
-x,y,-z
-x,-y,-z
x,-y,z
1/2+x,1/2+y,z
1/2-x,1/2+y,-z
1/2-x,1/2-y,-z
1/2+x,1/2-y,z
loop_
_atom_site_type_symbol
_atom_site_label
_atom_site_fract_x
_atom_site_fract_y
_atom_site_fract_z
Si Si1 0.000000 0.338779 0.500000
Si Si2 0.685226 0.083666 0.516734
Si Si3 0.361783 0.381882 0.364265
Si Si4 0.139774 0.807387 0.396863
Si Si5 0.595218 0.921788 0.181751
Si Si6 0.377681 0.733394 0.194852
O O1 0.101733 0.386599 0.535628
O O2 0.074293 0.290944 0.665922
O O3 0.816472 0.126601 0.634003
O O4 0.613655 0.104549 0.327516
O O5 0.700846 0.000000 0.534923
O O6 0.500000 0.418174 0.500000
O O7 0.367573 0.330787 0.478845
O O8 0.234005 0.423582 0.261774
O O9 0.350855 0.336182 0.240840
O O10 0.250000 0.750000 0.500000
O O11 0.998889 0.779240 0.232970
O O12 0.546228 0.000000 0.150088
O O13 0.500000 0.884728 0.000000
O O14 0.250000 0.750000 0.000000
#
# Coordination Sequence:
#
# PCOD9170892 Si02
#       6
#     4   8   8   8   8   8
#     4  12  21  40  58  86 127 152 206 258 295 370
#     4  10  21  36  61  86 118 166 199 240 312 364
#     4   9  18  32  49  76 110 141 179 235 288 342
#     4  10  17  36  58  80 116 151 194 249 285 346
#     4   9  19  33  52  81 111 144 195 241 283 350
#     4  11  22  35  58  89 117 153 199 250 304 352
#
# _framework density 18.476275000000001
#
# number of rings (size 3 to 8) (size 9 to 14) (size 15 to 20)
#    0.000    2.000    4.545    0.273    2.545    0.364 
#    0.000    5.455    0.000    3.273    0.000    0.000 
#    0.000    0.000    0.000    0.000    0.000    0.000 
#
# Total GULP energy -122503.306798 kJ/mol
# GULP energy per Si atom -5568.332127 kJ/mol
# Density = 1.843422 g / cm^3
# Si number density = 18.476275 Si / 1000 Ang^3
#
#
#
# Elastic Constant Matrix: (Units=GPa)
#
#
# Indices 1 2 3 4 5 6 
#
# 1 123.3953 38.6108 45.7305 0.0000 16.2590 0.0000
# 2 38.6108 89.1988 34.7864 0.0000 4.3340 0.0000
# 3 45.7305 34.7864 113.2435 0.0000 24.2445 0.0000
# 4 0.0000 0.0000 0.0000 8.5572 0.0000 6.3220
# 5 16.2590 4.3340 24.2445 0.0000 20.5892 0.0000
# 6 0.0000 0.0000 0.0000 6.3220 0.0000 27.9203
#
#
#
# Elastic Compliance Matrix: (Units=1/GPa)
#
#
# Indices 1 2 3 4 5 6 
#
# 1 0.010682 -0.003548 -0.002109 0.000000 -0.005204 0.000000
# 2 -0.003548 0.014018 -0.003799 0.000000 0.004325 0.000000
# 3 -0.002109 -0.003799 0.013801 0.000000 -0.013785 0.000000
# 4 0.000000 0.000000 0.000000 0.140337 0.000000 -0.031777
# 5 -0.005204 0.004325 -0.013785 0.000000 0.068001 0.000000
# 6 0.000000 0.000000 0.000000 -0.031777 0.000000 0.043012
#
#
# Mechanical properties :
#
#
# Convention : Reuss Voigt Hill
#
# Bulk Modulus (GPa) = 51.05385 62.67699 56.86542
# Shear Modulus (GPa) = 15.85822 25.19400 20.52611
#
# Velocity S-wave (km/s) = 2.93286 3.69668 3.33670
# Velocity P-wave (km/s) = 6.25787 7.22615 6.75937
#
# Compressibility (1/GPa) = 0.01958716
#
# Stress axis : x y z
#
# Youngs Moduli (GPa) = 93.61727 71.33520 72.45981
#
# Poissons Ratio (x) = 0.25311 0.15284
# Poissons Ratio (y) = 0.33218 0.27529
# Poissons Ratio (z) = 0.19747 0.27102
#
# Static dielectric constant tensor:
#      x y z
#    x 1.649000 0.000000 0.018970 
#    y 0.000000 1.674490 0.000000 
#    z 0.018970 0.000000 1.684090 
# 
# From -- ./inp_files/147510.got.cif
#   From: 2010.05.17/outbox.cif.g08.bks.cpg/sg12_74_cif.got.tgz:147510.got - 2010.06.03 13:09:07.
