data_PCOD9170382
_publ_section_title
;
Structure prediction by ZEFSAII (Michael W. Deem and Ramdas Pophale) SiO2 
 PCOD9170382
Probable space group: C 2/M
;
_chemical_formula_sum "Si O2"
_cell_formula_units_Z 36
_cell_length_a 15.461068
_cell_length_b 12.756569
_cell_length_c 7.206508
_cell_angle_alpha 90.000000
_cell_angle_beta 93.210335
_cell_angle_gamma 90.000000
_cell_volume 1419.110335
_symmetry_space_group_name_H-M "C 2/M"
_symmetry_group_IT_number 12
_symmetry_cell_setting 'monoclinic'
loop_
_space_group_symop_operation_xyz
x,y,z
-x,y,-z
-x,-y,-z
x,-y,z
1/2+x,1/2+y,z
1/2-x,1/2+y,-z
1/2-x,1/2-y,-z
1/2+x,1/2-y,z
loop_
_atom_site_type_symbol
_atom_site_label
_atom_site_fract_x
_atom_site_fract_y
_atom_site_fract_z
Si Si1 0.378779 0.000000 0.106385
Si Si2 0.981330 0.348790 0.706714
Si Si3 0.456817 0.384548 0.793574
Si Si4 0.219678 0.614648 0.316692
Si Si5 0.247917 0.158102 0.243385
O O1 0.451648 0.908821 0.158559
O O2 0.303083 0.908982 0.109553
O O3 0.000000 0.383583 0.500000
O O4 0.991317 0.223323 0.710786
O O5 0.882776 0.380830 0.742647
O O6 0.472727 0.500000 0.709740
O O7 0.353371 0.366983 0.789233
O O8 0.500000 0.387056 0.000000
O O9 0.254727 0.500000 0.273815
O O10 0.263439 0.717206 0.237091
O O11 0.225349 0.626259 0.542106
#
# Coordination Sequence:
#
# PCOD9170382 Si02
#       5
#     4   8   8   8   8
#     4  12  19  36  56  92 112 150 181 245 288 345
#     4  11  20  33  61  91 116 144 184 244 293 330
#     4  10  22  41  59  78 114 163 196 223 278 350
#     4  10  17  31  52  86 116 144 187 232 285 343
#     4  10  19  30  57  80 110 154 188 225 282 344
#
# _framework density 25.368009000000001
#
# number of rings (size 3 to 8) (size 9 to 14) (size 15 to 20)
#    0.000    1.556    5.556    0.333    0.000    0.444 
#    0.000    2.778    0.000    0.000    0.000    0.000 
#    0.000    0.000    0.000    0.000    0.000    0.000 
#
# Total GULP energy -100374.257907 kJ/mol
# GULP energy per Si atom -5576.347662 kJ/mol
# Density = 2.531027 g / cm^3
# Si number density = 25.368009 Si / 1000 Ang^3
#
#
#
# Elastic Constant Matrix: (Units=GPa)
#
#
# Indices 1 2 3 4 5 6 
#
# 1 50.1714 37.7511 31.7726 0.0000 7.2084 0.0000
# 2 37.7511 306.5880 23.7128 0.0000 -3.7768 0.0000
# 3 31.7726 23.7128 103.2112 0.0000 13.8213 0.0000
# 4 0.0000 0.0000 0.0000 59.1700 0.0000 -22.4263
# 5 7.2084 -3.7768 13.8213 0.0000 43.7155 0.0000
# 6 0.0000 0.0000 0.0000 -22.4263 0.0000 104.9647
#
#
#
# Elastic Compliance Matrix: (Units=1/GPa)
#
#
# Indices 1 2 3 4 5 6 
#
# 1 0.027034 -0.002788 -0.007364 0.000000 -0.002370 0.000000
# 2 -0.002788 0.003621 -0.000080 0.000000 0.000798 0.000000
# 3 -0.007364 -0.000080 0.012335 0.000000 -0.002692 0.000000
# 4 0.000000 0.000000 0.000000 0.018390 0.000000 0.003929
# 5 -0.002370 0.000798 -0.002692 0.000000 0.024186 0.000000
# 6 0.000000 0.000000 0.000000 0.003929 0.000000 0.010366
#
#
# Mechanical properties :
#
#
# Convention : Reuss Voigt Hill
#
# Bulk Modulus (GPa) = 44.39701 71.82706 58.11203
# Shear Modulus (GPa) = 40.35317 66.01900 53.18608
#
# Velocity S-wave (km/s) = 3.99270 5.10696 4.58381
# Velocity P-wave (km/s) = 6.22854 7.94671 7.13950
#
# Compressibility (1/GPa) = 0.02252404
#
# Stress axis : x y z
#
# Youngs Moduli (GPa) = 36.99064 276.15911 81.07099
#
# Poissons Ratio (x) = 0.77004 0.59701
# Poissons Ratio (y) = 0.10314 0.00652
# Poissons Ratio (z) = 0.27240 0.02221
#
# Static dielectric constant tensor:
#      x y z
#    x 1.910010 0.000000 -0.065940 
#    y 0.000000 2.004330 0.000000 
#    z -0.065940 0.000000 2.035020 
# 
# From -- ./inp_files/152318.got.cif
#   From: 2010.05.17/outbox.cif.g08.bks.cpg/sg12_77_cif.got.tgz:152318.got - 2010.06.03 13:09:07.
