data_PCOD9170992
_publ_section_title
;
Structure prediction by ZEFSAII (Michael W. Deem and Ramdas Pophale) SiO2 
 PCOD9170992
Probable space group: C 2/M
;
_chemical_formula_sum "Si O2"
_cell_formula_units_Z 64
_cell_length_a 28.586131
_cell_length_b 7.737508
_cell_length_c 24.925429
_cell_angle_alpha 90.000000
_cell_angle_beta 136.056877
_cell_angle_gamma 90.000000
_cell_volume 3825.811109
_symmetry_space_group_name_H-M "C 2/M"
_symmetry_group_IT_number 12
_symmetry_cell_setting 'monoclinic'
loop_
_space_group_symop_operation_xyz
x,y,z
-x,y,-z
-x,-y,-z
x,-y,z
1/2+x,1/2+y,z
1/2-x,1/2+y,-z
1/2-x,1/2-y,-z
1/2+x,1/2-y,z
loop_
_atom_site_type_symbol
_atom_site_label
_atom_site_fract_x
_atom_site_fract_y
_atom_site_fract_z
Si Si1 0.105358 0.291284 0.825200
Si Si2 0.283824 0.210882 0.829314
Si Si3 0.336382 0.297529 0.337390
Si Si4 0.552247 0.708748 0.496047
Si Si5 0.439207 0.203481 0.328136
Si Si6 0.251730 0.703802 0.922214
Si Si7 0.099482 0.795026 0.935832
Si Si8 0.065595 0.704133 0.024830
O O1 0.107032 0.500000 0.825027
O O2 0.072458 0.232649 0.742052
O O3 0.182668 0.223100 0.888688
O O4 0.072024 0.240808 0.853934
O O5 0.235404 0.272816 0.741486
O O6 0.250273 0.272543 0.857019
O O7 0.361369 0.272084 0.895317
O O8 0.283633 0.000000 0.829842
O O9 0.325932 0.500000 0.339558
O O10 0.376187 0.226197 0.422087
O O11 0.387887 0.285438 0.329132
O O12 0.500000 0.758898 0.500000
O O13 0.554303 0.500000 0.495759
O O14 0.515442 0.769913 0.412017
O O15 0.424035 0.000000 0.316684
O O16 0.252484 0.500000 0.935416
O O17 0.323795 0.779109 0.998995
O O18 0.103430 0.000000 0.946844
O O19 0.062597 0.725021 0.958026
O O20 0.067383 0.500000 0.038138
O O21 0.000000 0.778405 0.000000
#
# Coordination Sequence:
#
# PCOD9170992 Si02
#       8
#     8   8   8   8   8   8   8   8
#     4  10  19  29  40  56  84 114 141 173 205 241
#     4   9  16  26  43  64  82 107 143 174 203 246
#     4   9  16  26  39  56  80 109 141 175 206 238
#     4   8  15  26  37  51  76 109 141 173 206 238
#     4  10  18  26  38  56  79 111 145 174 204 238
#     4   9  17  29  40  56  83 111 139 173 208 238
#     4  10  20  30  44  63  81 106 141 175 207 245
#     4   9  18  33  50  65  84 109 135 169 214 256
#
# _framework density 16.728479
#
# number of rings (size 3 to 8) (size 9 to 14) (size 15 to 20)
#    0.000    2.750    1.250    1.875    0.000    4.500 
#    0.000    0.000    0.000    0.000    0.000    0.000 
#    0.000    1.000    0.000    2.000    0.000    2.625 
#
# Total GULP energy -178174.582925 kJ/mol
# GULP energy per Si atom -5567.955716 kJ/mol
# Density = 1.669040 g / cm^3
# Si number density = 16.728479 Si / 1000 Ang^3
#
#
#
# Elastic Constant Matrix: (Units=GPa)
#
#
# Indices 1 2 3 4 5 6 
#
# 1 75.3984 -4.2006 45.6951 0.0000 0.7566 0.0000
# 2 -4.2006 20.0650 -8.9744 0.0000 2.8541 -0.0001
# 3 45.6951 -8.9744 83.0425 0.0000 -7.3511 0.0000
# 4 0.0000 0.0000 0.0000 14.4621 0.0000 -4.5707
# 5 0.7566 2.8541 -7.3511 0.0000 11.6774 0.0000
# 6 0.0000 -0.0001 0.0000 -4.5707 0.0000 8.0016
#
#
#
# Elastic Compliance Matrix: (Units=1/GPa)
#
#
# Indices 1 2 3 4 5 6 
#
# 1 0.020763 0.000177 -0.012209 0.000000 -0.009075 0.000000
# 2 0.000177 0.053448 0.004788 0.000000 -0.010060 0.000001
# 3 -0.012209 0.004788 0.020380 0.000000 0.012450 0.000000
# 4 0.000000 0.000000 0.000000 0.084380 0.000000 0.048200
# 5 -0.009075 -0.010060 0.012450 0.000000 0.096520 0.000000
# 6 0.000000 0.000001 0.000000 0.048200 0.000000 0.152509
#
#
# Mechanical properties :
#
#
# Convention : Reuss Voigt Hill
#
# Bulk Modulus (GPa) = 12.48410 27.06069 19.77239
# Shear Modulus (GPa) = 10.65670 16.56061 13.60866
#
# Velocity S-wave (km/s) = 2.52670 3.14978 2.85529
# Velocity P-wave (km/s) = 3.99891 5.42584 4.76608
#
# Compressibility (1/GPa) = 0.08010191
#
# Stress axis : x y z
#
# Youngs Moduli (GPa) = 48.16182 18.70993 49.06769
#
# Poissons Ratio (x) = -0.00331 0.59909
# Poissons Ratio (y) = -0.00851 -0.23495
# Poissons Ratio (z) = 0.58803 -0.08959
#
# Static dielectric constant tensor:
#      x y z
#    x 1.541450 0.000000 0.022830 
#    y 0.000000 1.608040 0.000000 
#    z 0.022830 0.000000 1.641080 
# 
# From -- ./inp_files/323733.got.cif
#   From: 2010.05.17/outbox.cif.g08.bks.cpg/sg12_162_cif.got.tgz:323733.got - 2010.06.03 13:09:07.
