data_PCOD9170050
_publ_section_title
;
Structure prediction by ZEFSAII (Michael W. Deem and Ramdas Pophale) SiO2 
 PCOD9170050
Probable space group: C 2/M
;
_chemical_formula_sum "Si O2"
_cell_formula_units_Z 64
_cell_length_a 19.453034
_cell_length_b 19.532557
_cell_length_c 8.529671
_cell_angle_alpha 90.000000
_cell_angle_beta 82.699952
_cell_angle_gamma 90.000000
_cell_volume 3214.727289
_symmetry_space_group_name_H-M "C 2/M"
_symmetry_group_IT_number 12
_symmetry_cell_setting 'monoclinic'
loop_
_space_group_symop_operation_xyz
x,y,z
-x,y,-z
-x,-y,-z
x,-y,z
1/2+x,1/2+y,z
1/2-x,1/2+y,-z
1/2-x,1/2-y,-z
1/2+x,1/2-y,z
loop_
_atom_site_type_symbol
_atom_site_label
_atom_site_fract_x
_atom_site_fract_y
_atom_site_fract_z
Si Si1 0.306785 0.922166 0.525155
Si Si2 0.461197 0.180457 0.177245
Si Si3 0.728299 0.689768 0.336941
Si Si4 0.697794 0.424090 0.123195
Si Si5 0.636998 0.926308 0.950318
Si Si6 0.851878 0.220851 0.340192
Si Si7 0.173733 0.075144 0.768577
Si Si8 0.434881 0.921236 0.694445
O O1 0.273915 0.866947 0.418603
O O2 0.253812 0.922725 0.687873
O O3 0.383689 0.906941 0.564252
O O4 0.305656 0.000000 0.460553
O O5 0.399944 0.130623 0.139067
O O6 0.422181 0.241536 0.275344
O O7 0.509414 0.136440 0.279980
O O8 0.500000 0.198166 0.000000
O O9 0.685297 0.644183 0.226884
O O10 0.785590 0.745419 0.265795
O O11 0.675536 0.725533 0.473244
O O12 0.678584 0.500000 0.194390
O O13 0.781013 0.423751 0.082068
O O14 0.668632 0.419441 0.956693
O O15 0.611637 0.000000 0.899202
O O16 0.612675 0.920937 0.136040
O O17 0.859445 0.141077 0.299777
O O18 0.147304 0.000000 0.727279
O O19 0.461402 0.000000 0.672049
#
# Coordination Sequence:
#
# PCOD9170050 Si02
#       8
#     8   8   8   8   8   8   8   8
#     4   9  16  30  50  76 109 146 180 209 253 305
#     4  10  19  32  50  74 106 140 187 223 251 297
#     4  10  20  33  49  74 111 145 173 211 261 322
#     4  10  17  29  52  82 107 132 167 211 264 316
#     4   9  15  26  46  74 106 135 170 211 248 291
#     4  10  21  36  50  73 105 142 178 216 267 315
#     4   9  18  33  56  79 102 129 171 229 273 317
#     4   9  16  28  49  76 107 148 183 209 243 290
#
# _framework density 19.908377000000002
#
# number of rings (size 3 to 8) (size 9 to 14) (size 15 to 20)
#    0.000    2.500    2.500    0.750    0.000    2.500 
#    0.000    1.875    0.000    1.875    0.000    0.000 
#    0.000    4.000    0.000    0.000    0.000    0.000 
#
# Total GULP energy -178466.868834 kJ/mol
# GULP energy per Si atom -5577.089651 kJ/mol
# Density = 1.986306 g / cm^3
# Si number density = 19.908377 Si / 1000 Ang^3
#
#
#
# Elastic Constant Matrix: (Units=GPa)
#
#
# Indices 1 2 3 4 5 6 
#
# 1 50.6098 29.9738 13.0050 0.0000 -12.2803 0.0000
# 2 29.9738 103.9322 17.1453 0.0000 -11.8195 0.0000
# 3 13.0050 17.1453 46.7432 0.0000 -11.8051 0.0000
# 4 0.0000 0.0000 0.0000 16.5365 0.0000 -18.1213
# 5 -12.2803 -11.8195 -11.8051 0.0000 21.4241 0.0000
# 6 0.0000 0.0000 0.0000 -18.1213 0.0000 10.7019
#
#
#
# Elastic Compliance Matrix: (Units=1/GPa)
#
#
# Indices 1 2 3 4 5 6 
#
# 1 0.026529 -0.006043 -0.002516 0.000000 0.010486 0.000000
# 2 -0.006043 0.011947 -0.002220 0.000000 0.001904 0.000000
# 3 -0.002516 -0.002220 0.025829 0.000000 0.011565 0.000000
# 4 0.000000 0.000000 0.000000 -0.070682 0.000000 -0.119684
# 5 0.010486 0.001904 0.011565 0.000000 0.060110 0.000000
# 6 0.000000 0.000000 0.000000 -0.119684 0.000000 -0.109217
#
#
# Mechanical properties :
#
#
# Convention : Reuss Voigt Hill
#
# Bulk Modulus (GPa) = 23.39389 35.72595 29.55992
# Shear Modulus (GPa) = -254.12029 19.14324 -117.48853
#
# Velocity S-wave (km/s) = -11.31026 3.10428 -7.69043
# Velocity P-wave (km/s) = 12.60105 5.55274 7.99855
#
# Compressibility (1/GPa) = 0.04274621
#
# Stress axis : x y z
#
# Youngs Moduli (GPa) = 37.69440 83.70092 38.71678
#
# Poissons Ratio (x) = 0.50584 0.09741
# Poissons Ratio (y) = 0.22780 0.08595
# Poissons Ratio (z) = 0.09484 0.18582
#
# Static dielectric constant tensor:
#      x y z
#    x 1.679980 0.000000 -0.019370 
#    y 0.000000 1.750870 0.000000 
#    z -0.019370 0.000000 1.761420 
# 
# From -- ./inp_files/89172.got.cif
#   From: 2010.05.17/outbox.cif.g08.bks.cpg/sg12_45_cif.got.tgz:89172.got - 2010.06.03 13:09:07.
