data_PCOD9170247
_publ_section_title
;
Structure prediction by ZEFSAII (Michael W. Deem and Ramdas Pophale) SiO2 
 PCOD9170247
Probable space group: C 2/M
;
_chemical_formula_sum "Si O2"
_cell_formula_units_Z 48
_cell_length_a 14.709233
_cell_length_b 7.838121
_cell_length_c 19.834141
_cell_angle_alpha 90.000000
_cell_angle_beta 124.495174
_cell_angle_gamma 90.000000
_cell_volume 1884.665329
_symmetry_space_group_name_H-M "C 2/M"
_symmetry_group_IT_number 12
_symmetry_cell_setting 'monoclinic'
loop_
_space_group_symop_operation_xyz
x,y,z
-x,y,-z
-x,-y,-z
x,-y,z
1/2+x,1/2+y,z
1/2-x,1/2+y,-z
1/2-x,1/2-y,-z
1/2+x,1/2-y,z
loop_
_atom_site_type_symbol
_atom_site_label
_atom_site_fract_x
_atom_site_fract_y
_atom_site_fract_z
Si Si1 0.037125 0.301146 0.945248
Si Si2 0.303926 0.291756 0.817413
Si Si3 0.152028 0.291794 0.868417
Si Si4 0.373499 0.303182 0.528176
Si Si5 0.294784 0.804621 0.357606
Si Si6 0.442564 0.801823 0.691717
O O1 0.063567 0.500000 0.968508
O O2 0.922835 0.288544 0.855616
O O3 0.127889 0.224992 0.933217
O O4 0.000000 0.217446 0.000000
O O5 0.310991 0.500000 0.817406
O O6 0.259974 0.239887 0.872697
O O7 0.219381 0.235149 0.723739
O O8 0.152765 0.500000 0.871907
O O9 0.049980 0.243601 0.776970
O O10 0.389629 0.500000 0.548273
O O11 0.250000 0.250000 0.500000
O O12 0.371043 0.276435 0.446914
O O13 0.452208 0.209936 0.614432
O O14 0.168051 0.794601 0.331760
O O15 0.328512 0.000000 0.367534
O O16 0.423523 0.000000 0.699888
#
# Coordination Sequence:
#
# PCOD9170247 Si02
#       6
#     8   8   8   8   8   8
#     4  10  21  39  62  86 113 145 181 224 277 336
#     4  10  21  37  58  83 113 147 186 229 272 327
#     4   9  19  36  57  82 113 149 184 223 277 333
#     4  10  18  28  46  74 108 143 183 229 274 320
#     4  10  18  30  50  76 106 141 185 230 272 319
#     4  10  17  30  53  75 104 146 187 226 271 323
#
# _framework density 25.468713000000001
#
# number of rings (size 3 to 8) (size 9 to 14) (size 15 to 20)
#    0.000    2.167    1.667    4.500    0.000    1.667 
#    0.000    3.333    0.000    5.000    0.000    0.000 
#    0.000    0.000    0.000    0.000    0.000    0.000 
#
# Total GULP energy -134153.057143 kJ/mol
# GULP energy per Si atom -5589.710714 kJ/mol
# Density = 2.541075 g / cm^3
# Si number density = 25.468713 Si / 1000 Ang^3
#
#
#
# Elastic Constant Matrix: (Units=GPa)
#
#
# Indices 1 2 3 4 5 6 
#
# 1 108.7969 -2.3409 35.5002 0.0000 -13.6188 0.0000
# 2 -2.3409 58.5488 2.5481 0.0000 -3.5302 0.0000
# 3 35.5002 2.5481 112.5027 0.0000 -26.1736 0.0000
# 4 0.0000 0.0000 0.0000 19.5407 0.0000 1.8197
# 5 -13.6188 -3.5302 -26.1736 0.0000 50.7037 0.0000
# 6 0.0000 0.0000 0.0000 1.8197 0.0000 10.2547
#
#
#
# Elastic Compliance Matrix: (Units=1/GPa)
#
#
# Indices 1 2 3 4 5 6 
#
# 1 0.010337 0.000620 -0.002977 0.000000 0.001283 0.000000
# 2 0.000620 0.017191 -0.000304 0.000000 0.001206 0.000000
# 3 -0.002977 -0.000304 0.010960 0.000000 0.004837 0.000000
# 4 0.000000 0.000000 0.000000 0.052035 0.000000 -0.009234
# 5 0.001283 0.001206 0.004837 0.000000 0.022648 0.000000
# 6 0.000000 0.000000 0.000000 -0.009234 0.000000 0.099155
#
#
# Mechanical properties :
#
#
# Convention : Reuss Voigt Hill
#
# Bulk Modulus (GPa) = 30.15266 39.02925 34.59096
# Shear Modulus (GPa) = 21.86232 32.37587 27.11910
#
# Velocity S-wave (km/s) = 2.93302 3.56926 3.26667
# Velocity P-wave (km/s) = 4.83063 5.68716 5.27630
#
# Compressibility (1/GPa) = 0.03316457
#
# Stress axis : x y z
#
# Youngs Moduli (GPa) = 96.74104 58.17145 91.23748
#
# Poissons Ratio (x) = -0.03608 0.27165
# Poissons Ratio (y) = -0.06000 0.02777
# Poissons Ratio (z) = 0.28804 0.01771
#
# Static dielectric constant tensor:
#      x y z
#    x 2.015000 0.000000 -0.051330 
#    y 0.000000 1.864720 0.000000 
#    z -0.051330 0.000000 2.091600 
# 
# From -- ./inp_files/308601.got.cif
#   From: 2010.05.17/outbox.cif.g08.bks.cpg/sg12_155_cif.got.tgz:308601.got - 2010.06.03 13:09:07.
