data_PCOD9170086
_publ_section_title
;
Structure prediction by ZEFSAII (Michael W. Deem and Ramdas Pophale) SiO2 
 PCOD9170086
Probable space group: C 2/M
;
_chemical_formula_sum "Si O2"
_cell_formula_units_Z 40
_cell_length_a 8.526496
_cell_length_b 17.441991
_cell_length_c 10.151018
_cell_angle_alpha 90.000000
_cell_angle_beta 101.494245
_cell_angle_gamma 90.000000
_cell_volume 1479.373476
_symmetry_space_group_name_H-M "C 2/M"
_symmetry_group_IT_number 12
_symmetry_cell_setting 'monoclinic'
loop_
_space_group_symop_operation_xyz
x,y,z
-x,y,-z
-x,-y,-z
x,-y,z
1/2+x,1/2+y,z
1/2-x,1/2+y,-z
1/2-x,1/2-y,-z
1/2+x,1/2-y,z
loop_
_atom_site_type_symbol
_atom_site_label
_atom_site_fract_x
_atom_site_fract_y
_atom_site_fract_z
Si Si1 0.500000 0.286665 0.500000
Si Si2 0.525283 0.000000 0.695371
Si Si3 0.350037 0.886997 0.068140
Si Si4 0.981644 0.744991 0.787458
Si Si5 0.262625 0.876087 0.642742
Si Si6 0.957154 0.084492 0.162321
O O1 0.524827 0.243040 0.639295
O O2 0.662201 0.335954 0.511369
O O3 0.624796 0.066910 0.792825
O O4 0.398752 0.066556 0.621001
O O5 0.386287 0.797780 0.103206
O O6 0.500000 0.912842 0.000000
O O7 0.186230 0.906595 0.967771
O O8 0.832687 0.686916 0.757219
O O9 0.954019 0.833112 0.822154
O O10 0.130103 0.916989 0.710269
O O11 0.030675 0.000000 0.158691
#
# Coordination Sequence:
#
# PCOD9170086 Si02
#       6
#     4   4   8   8   8   8
#     4  10  22  37  54  77 114 156 194 230 269 344
#     4  10  17  29  56  87 114 139 172 239 291 319
#     4  11  17  32  58  85 114 147 184 225 284 343
#     4  10  22  34  55  85 116 152 183 232 282 335
#     4  10  19  35  56  85 115 142 187 234 289 317
#     4  11  19  34  58  94 114 138 185 240 288 330
#
# _framework density 27.038471999999999
#
# number of rings (size 3 to 8) (size 9 to 14) (size 15 to 20)
#    0.000    1.600    6.000    1.500    0.000    0.400 
#    1.800    0.000    0.000   10.200   41.600    0.000 
#    0.000    0.000    0.000    0.000    0.000    0.000 
#
# Total GULP energy -111401.442163 kJ/mol
# GULP energy per Si atom -5570.072108 kJ/mol
# Density = 2.697693 g / cm^3
# Si number density = 27.038472 Si / 1000 Ang^3
#
#
#
# Elastic Constant Matrix: (Units=GPa)
#
#
# Indices 1 2 3 4 5 6 
#
# 1 64.5131 40.4261 14.7215 0.0000 8.8880 0.0000
# 2 40.4261 242.6887 20.7696 0.0000 17.4431 0.0000
# 3 14.7215 20.7696 68.5818 0.0000 13.8227 0.0000
# 4 0.0000 0.0000 0.0000 -15.5407 0.0000 3.8870
# 5 8.8880 17.4431 13.8227 0.0000 45.5180 0.0000
# 6 0.0000 0.0000 0.0000 3.8870 0.0000 32.2881
#
#
#
# Elastic Compliance Matrix: (Units=1/GPa)
#
#
# Indices 1 2 3 4 5 6 
#
# 1 0.018012 -0.002647 -0.002727 0.000000 -0.001675 0.000000
# 2 -0.002647 0.004694 -0.000634 0.000000 -0.001090 0.000000
# 3 -0.002727 -0.000634 0.016193 0.000000 -0.004142 0.000000
# 4 0.000000 0.000000 0.000000 -0.062466 0.000000 0.007520
# 5 -0.001675 -0.001090 -0.004142 0.000000 0.023972 0.000000
# 6 0.000000 0.000000 0.000000 0.007520 0.000000 0.030066
#
#
# Mechanical properties :
#
#
# Convention : Reuss Voigt Hill
#
# Bulk Modulus (GPa) = 37.19701 58.62423 47.91062
# Shear Modulus (GPa) = 97.18544 32.44418 64.81481
#
# Velocity S-wave (km/s) = 6.00178 3.46775 4.90136
# Velocity P-wave (km/s) = 7.86228 6.14513 7.05614
#
# Compressibility (1/GPa) = 0.02688388
#
# Stress axis : x y z
#
# Youngs Moduli (GPa) = 55.51759 213.04148 61.75363
#
# Poissons Ratio (x) = 0.56384 0.16843
# Poissons Ratio (y) = 0.14694 0.03914
# Poissons Ratio (z) = 0.15142 0.13503
#
# Static dielectric constant tensor:
#      x y z
#    x 2.256470 0.000000 -0.056210 
#    y 0.000000 2.149710 0.000000 
#    z -0.056210 0.000000 2.076330 
# 
# From -- ./inp_files/131395.got.cif
#   From: 2010.05.17/outbox.cif.g08.bks.cpg/sg12_66_cif.got.tgz:131395.got - 2010.06.03 13:09:07.
