data_PCOD9170726
_publ_section_title
;
Structure prediction by ZEFSAII (Michael W. Deem and Ramdas Pophale) SiO2 
 PCOD9170726
Probable space group: C 2/M
;
_chemical_formula_sum "Si O2"
_cell_formula_units_Z 44
_cell_length_a 13.543239
_cell_length_b 23.481611
_cell_length_c 11.774225
_cell_angle_alpha 90.000000
_cell_angle_beta 33.863786
_cell_angle_gamma 90.000000
_cell_volume 2086.458538
_symmetry_space_group_name_H-M "C 2/M"
_symmetry_group_IT_number 12
_symmetry_cell_setting 'monoclinic'
loop_
_space_group_symop_operation_xyz
x,y,z
-x,y,-z
-x,-y,-z
x,-y,z
1/2+x,1/2+y,z
1/2-x,1/2+y,-z
1/2-x,1/2-y,-z
1/2+x,1/2-y,z
loop_
_atom_site_type_symbol
_atom_site_label
_atom_site_fract_x
_atom_site_fract_y
_atom_site_fract_z
Si Si1 0.911843 0.000000 0.816124
Si Si2 0.938945 0.373543 0.683333
Si Si3 0.789145 0.878677 0.722165
Si Si4 0.737880 0.184679 0.547689
Si Si5 0.896425 0.125925 0.870866
Si Si6 0.238268 0.000000 0.351001
Si Si7 0.031670 0.500000 0.256378
O O1 0.950077 0.940104 0.838903
O O2 0.032540 0.000000 0.588968
O O3 0.699100 0.000000 0.010186
O O4 0.950967 0.441881 0.689753
O O5 0.000000 0.357982 0.500000
O O6 0.074243 0.344859 0.641357
O O7 0.737153 0.355554 0.903327
O O8 0.721484 0.831456 0.697499
O O9 0.778217 0.870517 0.867535
O O10 0.000000 0.880071 0.500000
O O11 0.720382 0.940843 0.750890
O O12 0.750000 0.250000 0.500000
O O13 0.922684 0.158194 0.325948
O O14 0.351624 0.000000 0.358146
#
# Coordination Sequence:
#
# PCOD9170726 Si02
#       7
#     4   8   8   8   8   4   4
#     4  10  17  33  60  94 128 157 191 240 323 382
#     4  11  24  43  63  88 125 169 213 255 305 367
#     4  10  19  35  64  93 126 155 193 256 321 373
#     4  11  24  42  63  91 121 164 211 254 314 369
#     4  10  22  40  63  96 127 158 203 259 316 374
#     4  12  16  35  62  93 131 157 189 257 318 380
#     4  10  21  37  60  93 126 164 205 252 304 379
#
# _framework density 21.088366000000001
#
# number of rings (size 3 to 8) (size 9 to 14) (size 15 to 20)
#    0.000    1.455    5.455    1.091    0.000    4.364 
#    0.000    3.636    0.000    6.545    0.000    0.000 
#    0.000    0.000    0.000    0.000    0.000    0.000 
#
# Total GULP energy -122840.085903 kJ/mol
# GULP energy per Si atom -5583.640268 kJ/mol
# Density = 2.104037 g / cm^3
# Si number density = 21.088366 Si / 1000 Ang^3
#
#
#
# Elastic Constant Matrix: (Units=GPa)
#
#
# Indices 1 2 3 4 5 6 
#
# 1 12.5685 4.1351 3.9060 0.0018 -10.1562 -0.0024
# 2 4.1351 112.1469 15.1115 -0.0001 -11.1474 0.0001
# 3 3.9060 15.1115 115.7557 0.0009 3.1354 -0.0014
# 4 0.0018 -0.0001 0.0009 -33.2917 -0.0008 49.0078
# 5 -10.1562 -11.1474 3.1354 -0.0008 24.8995 0.0010
# 6 -0.0024 0.0001 -0.0014 49.0078 0.0010 -45.9863
#
#
#
# Elastic Compliance Matrix: (Units=1/GPa)
#
#
# Indices 1 2 3 4 5 6 
#
# 1 0.122246 0.001346 -0.005687 0.000004 0.051182 -0.000001
# 2 0.001346 0.009558 -0.001429 0.000000 0.005008 0.000000
# 3 -0.005687 -0.001429 0.009129 0.000000 -0.004109 0.000000
# 4 0.000004 0.000000 0.000000 0.052809 0.000001 0.056279
# 5 0.051182 0.005008 -0.004109 0.000001 0.063797 0.000000
# 6 -0.000001 0.000000 0.000000 0.056279 0.000000 0.038231
#
#
# Mechanical properties :
#
#
# Convention : Reuss Voigt Hill
#
# Bulk Modulus (GPa) = 7.72838 31.86405 19.79622
# Shear Modulus (GPa) = 14.26779 3.61220 8.94000
#
# Velocity S-wave (km/s) = 2.60392 1.31019 2.06119
# Velocity P-wave (km/s) = 3.56556 4.17509 3.88231
#
# Compressibility (1/GPa) = 0.12939323
#
# Stress axis : x y z
#
# Youngs Moduli (GPa) = 8.18020 104.62941 109.54583
#
# Poissons Ratio (x) = -0.14086 0.62300
# Poissons Ratio (y) = -0.01101 0.15652
# Poissons Ratio (z) = 0.04652 0.14949
#
# Static dielectric constant tensor:
#      x y z
#    x 1.775330 0.000000 0.024770 
#    y 0.000000 1.769170 0.000000 
#    z 0.024770 0.000000 1.771360 
# 
# From -- ./inp_files/135784.got.cif
#   From: 2010.05.17/outbox.cif.g08.bks.cpg/sg12_68_cif.got.tgz:135784.got - 2010.06.03 13:09:07.
