data_PCOD9170276
_publ_section_title
;
Structure prediction by ZEFSAII (Michael W. Deem and Ramdas Pophale) SiO2 
 PCOD9170276
Probable space group: C 2/M
;
_chemical_formula_sum "Si O2"
_cell_formula_units_Z 64
_cell_length_a 29.363646
_cell_length_b 7.551762
_cell_length_c 14.625948
_cell_angle_alpha 90.000000
_cell_angle_beta 119.352662
_cell_angle_gamma 90.000000
_cell_volume 2826.890834
_symmetry_space_group_name_H-M "C 2/M"
_symmetry_group_IT_number 12
_symmetry_cell_setting 'monoclinic'
loop_
_space_group_symop_operation_xyz
x,y,z
-x,y,-z
-x,-y,-z
x,-y,z
1/2+x,1/2+y,z
1/2-x,1/2+y,-z
1/2-x,1/2-y,-z
1/2+x,1/2-y,z
loop_
_atom_site_type_symbol
_atom_site_label
_atom_site_fract_x
_atom_site_fract_y
_atom_site_fract_z
Si Si1 0.297825 0.787806 0.613899
Si Si2 0.382723 0.208504 0.966364
Si Si3 0.089099 0.287288 0.341385
Si Si4 0.039974 0.710666 0.113478
Si Si5 0.796540 0.787609 0.117581
Si Si6 0.412138 0.293033 0.186350
Si Si7 0.493337 0.712624 0.596691
Si Si8 0.274272 0.217175 0.795933
O O1 0.250000 0.750000 0.500000
O O2 0.352649 0.721784 0.624938
O O3 0.282983 0.722177 0.700899
O O4 0.303382 0.000000 0.627877
O O5 0.405794 0.228417 0.887961
O O6 0.324155 0.278359 0.904600
O O7 0.381199 0.000000 0.982497
O O8 0.417836 0.281600 0.082389
O O9 0.090600 0.500000 0.333324
O O10 0.049717 0.217710 0.223639
O O11 0.062572 0.249354 0.411913
O O12 0.027064 0.500000 0.109770
O O13 0.000000 0.786508 0.000000
O O14 0.854096 0.717448 0.149329
O O15 0.776677 0.727950 0.198063
O O16 0.800534 0.000000 0.123631
O O17 0.750000 0.750000 0.000000
O O18 0.410042 0.500000 0.207775
O O19 0.460205 0.217434 0.291567
O O20 0.500000 0.779255 0.500000
O O21 0.497713 0.500000 0.597807
O O22 0.275241 0.000000 0.795986
#
# Coordination Sequence:
#
# PCOD9170276 Si02
#       8
#     8   8   8   8   8   8   8   8
#     4  10  21  38  59  85 116 149 188 232 276 329
#     4  10  17  30  54  80 106 141 182 220 267 331
#     4  10  20  37  60  86 113 141 182 238 284 322
#     4   9  16  27  49  81 110 138 175 218 267 323
#     4  10  19  32  52  78 109 145 181 223 274 328
#     4  10  21  35  52  80 114 144 181 233 281 323
#     4  10  23  42  60  79 108 149 194 233 276 338
#     4   9  17  32  54  78 107 144 183 222 267 325
#
# _framework density 22.639714000000001
#
# number of rings (size 3 to 8) (size 9 to 14) (size 15 to 20)
#    0.000    2.250    2.500    0.750    0.000    3.250 
#    0.000    4.375    0.000    2.250    0.000    0.000 
#    0.000    0.000    0.000    0.000    0.000    0.000 
#
# Total GULP energy -178591.465585 kJ/mol
# GULP energy per Si atom -5580.983300 kJ/mol
# Density = 2.258818 g / cm^3
# Si number density = 22.639714 Si / 1000 Ang^3
#
#
#
# Elastic Constant Matrix: (Units=GPa)
#
#
# Indices 1 2 3 4 5 6 
#
# 1 110.2636 10.8849 69.0765 0.0000 -14.9787 0.0000
# 2 10.8849 47.7510 -7.0067 0.0000 -5.7950 0.0000
# 3 69.0765 -7.0067 128.3698 0.0000 -19.9229 0.0000
# 4 0.0000 0.0000 0.0000 14.7761 0.0000 1.0792
# 5 -14.9787 -5.7950 -19.9229 0.0000 31.0460 0.0000
# 6 0.0000 0.0000 0.0000 1.0792 0.0000 9.6745
#
#
#
# Elastic Compliance Matrix: (Units=1/GPa)
#
#
# Indices 1 2 3 4 5 6 
#
# 1 0.014622 -0.004356 -0.007927 0.000000 0.001155 0.000000
# 2 -0.004356 0.023192 0.004393 0.000000 0.005046 0.000000
# 3 -0.007927 0.004393 0.013137 0.000000 0.005426 0.000000
# 4 0.000000 0.000000 0.000000 0.068233 0.000000 -0.007611
# 5 0.001155 0.005046 0.005426 0.000000 0.037191 0.000000
# 6 0.000000 0.000000 0.000000 -0.007611 0.000000 0.104214
#
#
# Mechanical properties :
#
#
# Convention : Reuss Voigt Hill
#
# Bulk Modulus (GPa) = 28.43177 48.03265 38.23221
# Shear Modulus (GPa) = 17.35557 25.32797 21.34177
#
# Velocity S-wave (km/s) = 2.77176 3.34839 3.07362
# Velocity P-wave (km/s) = 4.77798 6.01756 5.43324
#
# Compressibility (1/GPa) = 0.03517193
#
# Stress axis : x y z
#
# Youngs Moduli (GPa) = 68.39084 43.11833 76.11924
#
# Poissons Ratio (x) = 0.18783 0.60337
# Poissons Ratio (y) = 0.29791 -0.33440
# Poissons Ratio (z) = 0.54211 -0.18942
#
# Static dielectric constant tensor:
#      x y z
#    x 1.875680 0.000000 0.003580 
#    y 0.000000 1.861860 0.000000 
#    z 0.003580 0.000000 1.830950 
# 
# From -- ./inp_files/249148.got.cif
#   From: 2010.05.17/outbox.cif.g08.bks.cpg/sg12_125_cif.got.tgz:249148.got - 2010.06.03 13:09:07.
