data_PCOD9170922
_publ_section_title
;
Structure prediction by ZEFSAII (Michael W. Deem and Ramdas Pophale) SiO2 
 PCOD9170922
Probable space group: C 2/M
;
_chemical_formula_sum "Si O2"
_cell_formula_units_Z 64
_cell_length_a 14.538601
_cell_length_b 19.057153
_cell_length_c 13.283428
_cell_angle_alpha 90.000000
_cell_angle_beta 126.635002
_cell_angle_gamma 90.000000
_cell_volume 2953.319679
_symmetry_space_group_name_H-M "C 2/M"
_symmetry_group_IT_number 12
_symmetry_cell_setting 'monoclinic'
loop_
_space_group_symop_operation_xyz
x,y,z
-x,y,-z
-x,-y,-z
x,-y,z
1/2+x,1/2+y,z
1/2-x,1/2+y,-z
1/2-x,1/2-y,-z
1/2+x,1/2-y,z
loop_
_atom_site_type_symbol
_atom_site_label
_atom_site_fract_x
_atom_site_fract_y
_atom_site_fract_z
Si Si1 0.689180 0.083133 0.384298
Si Si2 0.496331 0.698610 0.713554
Si Si3 0.865992 0.698902 0.947050
Si Si4 0.666788 0.320880 0.652241
Si Si5 0.952764 0.640301 0.194401
Si Si6 0.223506 0.422342 0.780651
Si Si7 0.764000 0.677385 0.398702
Si Si8 0.098912 0.146241 0.980247
O O1 0.798436 0.114439 0.396107
O O2 0.573963 0.104636 0.249089
O O3 0.678341 0.127641 0.480661
O O4 0.696647 0.000000 0.404542
O O5 0.552415 0.676771 0.644622
O O6 0.530219 0.779067 0.760171
O O7 0.360469 0.696263 0.639105
O O8 0.548222 0.649228 0.835628
O O9 0.772329 0.683454 0.801697
O O10 0.840244 0.778134 0.965972
O O11 0.870459 0.645948 0.043581
O O12 0.000000 0.700328 0.000000
O O13 0.672423 0.248617 0.592026
O O14 0.896562 0.597320 0.247732
O O15 0.224627 0.500000 0.739239
O O16 0.251964 0.366942 0.713123
O O17 0.314597 0.413572 0.929981
O O18 0.000000 0.143885 0.000000
#
# Coordination Sequence:
#
# PCOD9170922 Si02
#       8
#     8   8   8   8   8   8   8   8
#     4  12  28  48  66  95 140 184 224 276 339 399
#     4  11  22  40  73 105 125 168 231 286 331 389
#     4  10  17  36  70 102 129 165 215 278 340 389
#     4  12  22  43  72 101 132 170 228 283 334 402
#     4  11  22  41  70 100 136 168 218 285 338 400
#     4  12  24  40  63  99 141 180 219 272 344 408
#     4  12  24  47  67  97 131 181 232 281 323 391
#     4  10  18  37  64  98 138 171 214 274 338 392
#
# _framework density 21.670529999999999
#
# number of rings (size 3 to 8) (size 9 to 14) (size 15 to 20)
#    0.000    0.750    6.250    2.625    0.000    3.250 
#    0.000    6.875    0.000    0.000    0.000    0.000 
#    0.000    0.000    0.000    0.000    0.000    0.000 
#
# Total GULP energy -178973.308267 kJ/mol
# GULP energy per Si atom -5592.915883 kJ/mol
# Density = 2.162121 g / cm^3
# Si number density = 21.670530 Si / 1000 Ang^3
#
#
#
# Elastic Constant Matrix: (Units=GPa)
#
#
# Indices 1 2 3 4 5 6 
#
# 1 141.4270 36.1184 7.0600 0.0000 -8.2215 0.0000
# 2 36.1184 95.3229 25.3585 0.0000 -10.3553 0.0000
# 3 7.0600 25.3585 57.7327 0.0000 -15.9683 0.0000
# 4 0.0000 0.0000 0.0000 14.2025 0.0000 -3.0589
# 5 -8.2215 -10.3553 -15.9683 0.0000 32.3975 0.0000
# 6 0.0000 0.0000 0.0000 -3.0589 0.0000 15.4908
#
#
#
# Elastic Compliance Matrix: (Units=1/GPa)
#
#
# Indices 1 2 3 4 5 6 
#
# 1 0.007891 -0.003039 0.000759 0.000000 0.001405 0.000000
# 2 -0.003039 0.013106 -0.005140 0.000000 0.000884 0.000000
# 3 0.000759 -0.005140 0.022098 0.000000 0.009441 0.000000
# 4 0.000000 0.000000 0.000000 0.073537 0.000000 0.014521
# 5 0.001405 0.000884 0.009441 0.000000 0.036159 0.000000
# 6 0.000000 0.000000 0.000000 0.014521 0.000000 0.067422
#
#
# Mechanical properties :
#
#
# Convention : Reuss Voigt Hill
#
# Bulk Modulus (GPa) = 35.39534 47.95070 41.67302
# Shear Modulus (GPa) = 20.45227 27.48122 23.96674
#
# Velocity S-wave (km/s) = 3.07544 3.56496 3.32921
# Velocity P-wave (km/s) = 5.38330 6.25463 5.83525
#
# Compressibility (1/GPa) = 0.02825230
#
# Stress axis : x y z
#
# Youngs Moduli (GPa) = 126.73128 76.30279 45.25379
#
# Poissons Ratio (x) = 0.23188 -0.03433
# Poissons Ratio (y) = 0.38514 0.23262
# Poissons Ratio (z) = -0.09613 0.39222
#
# Static dielectric constant tensor:
#      x y z
#    x 1.844860 0.000000 0.012120 
#    y 0.000000 1.722660 0.000000 
#    z 0.012120 0.000000 1.854090 
# 
# From -- ./inp_files/216860.got.cif
#   From: 2010.05.17/outbox.cif.g08.bks.cpg/sg12_109_cif.got.tgz:216860.got - 2010.06.03 13:09:07.
