data_PCOD9170198
_publ_section_title
;
Structure prediction by ZEFSAII (Michael W. Deem and Ramdas Pophale) SiO2 
 PCOD9170198
Probable space group: C 2/M
;
_chemical_formula_sum "Si O2"
_cell_formula_units_Z 64
_cell_length_a 18.483157
_cell_length_b 13.375312
_cell_length_c 22.689809
_cell_angle_alpha 90.000000
_cell_angle_beta 41.610549
_cell_angle_gamma 90.000000
_cell_volume 3724.952799
_symmetry_space_group_name_H-M "C 2/M"
_symmetry_group_IT_number 12
_symmetry_cell_setting 'monoclinic'
loop_
_space_group_symop_operation_xyz
x,y,z
-x,y,-z
-x,-y,-z
x,-y,z
1/2+x,1/2+y,z
1/2-x,1/2+y,-z
1/2-x,1/2-y,-z
1/2+x,1/2-y,z
loop_
_atom_site_type_symbol
_atom_site_label
_atom_site_fract_x
_atom_site_fract_y
_atom_site_fract_z
Si Si1 0.905027 0.878284 0.915855
Si Si2 0.115731 0.880629 0.857203
Si Si3 0.687077 0.887599 0.577665
Si Si4 0.845228 0.618637 0.651265
Si Si5 0.249077 0.318255 0.409672
Si Si6 0.954663 0.694912 0.697679
Si Si7 0.240371 0.121191 0.893777
Si Si8 0.492800 0.617399 0.267261
O O1 0.925567 0.852834 0.835485
O O2 0.009964 0.840292 0.888718
O O3 0.907382 0.000000 0.915516
O O4 0.798013 0.848922 0.017618
O O5 0.225322 0.864471 0.752817
O O6 0.145028 0.848651 0.905583
O O7 0.099305 0.000000 0.870685
O O8 0.740629 0.799894 0.583745
O O9 0.720088 0.868668 0.489616
O O10 0.557558 0.868869 0.656900
O O11 0.714809 0.000000 0.578410
O O12 0.866966 0.500000 0.638595
O O13 0.834762 0.656198 0.590967
O O14 0.927390 0.671197 0.646488
O O15 0.369372 0.360692 0.320948
O O16 0.850564 0.665122 0.800243
O O17 0.985007 0.809897 0.691606
O O18 0.249595 0.000000 0.885753
O O19 0.503341 0.500000 0.273461
#
# Coordination Sequence:
#
# PCOD9170198 Si02
#       8
#     8   8   8   8   8   8   8   8
#     4   9  15  24  43  67  91 124 160 193 237 283
#     4   8  13  22  40  66  95 120 147 191 240 280
#     4  10  20  35  52  74 102 130 158 193 237 286
#     4  10  17  30  51  74  99 124 156 200 243 284
#     4  10  20  33  55  77  94 125 166 199 235 281
#     4  10  21  32  46  70 101 131 159 192 247 299
#     4   9  16  26  41  66  99 126 150 190 241 291
#     4  10  19  33  49  68  94 126 166 208 239 280
#
# _framework density 17.181425999999998
#
# number of rings (size 3 to 8) (size 9 to 14) (size 15 to 20)
#    0.000    2.500    1.250    3.375    0.000    2.500 
#    0.000    1.875    0.000    0.000    0.000    5.250 
#    0.000    2.250    0.000    0.000    0.000    0.000 
#
# Total GULP energy -178324.051263 kJ/mol
# GULP energy per Si atom -5572.626602 kJ/mol
# Density = 1.714232 g / cm^3
# Si number density = 17.181426 Si / 1000 Ang^3
#
#
#
# Elastic Constant Matrix: (Units=GPa)
#
#
# Indices 1 2 3 4 5 6 
#
# 1 31.8182 13.8710 -3.6628 0.0000 6.2400 0.0000
# 2 13.8710 74.2154 4.1998 0.0000 6.3087 0.0000
# 3 -3.6628 4.1998 46.3043 0.0000 5.0188 0.0000
# 4 0.0000 0.0000 0.0000 16.6920 0.0000 2.6814
# 5 6.2400 6.3087 5.0188 0.0000 17.8837 0.0000
# 6 0.0000 0.0000 0.0000 2.6814 0.0000 15.5522
#
#
#
# Elastic Compliance Matrix: (Units=1/GPa)
#
#
# Indices 1 2 3 4 5 6 
#
# 1 0.037042 -0.006167 0.004801 0.000000 -0.012097 0.000000
# 2 -0.006167 0.014943 -0.001552 0.000000 -0.002684 0.000000
# 3 0.004801 -0.001552 0.022937 0.000000 -0.007564 0.000000
# 4 0.000000 0.000000 0.000000 0.061616 0.000000 -0.010623
# 5 -0.012097 -0.002684 -0.007564 0.000000 0.063207 0.000000
# 6 0.000000 0.000000 0.000000 -0.010623 0.000000 0.066131
#
#
# Mechanical properties :
#
#
# Convention : Reuss Voigt Hill
#
# Bulk Modulus (GPa) = 14.47496 20.12823 17.30159
# Shear Modulus (GPa) = 16.96410 19.22090 18.09250
#
# Velocity S-wave (km/s) = 3.14562 3.34833 3.24856
# Velocity P-wave (km/s) = 4.65149 5.16613 4.91555
#
# Compressibility (1/GPa) = 0.06908481
#
# Stress axis : x y z
#
# Youngs Moduli (GPa) = 26.99652 66.92175 43.59831
#
# Poissons Ratio (x) = 0.41268 -0.20930
# Poissons Ratio (y) = 0.16648 0.06767
# Poissons Ratio (z) = -0.12960 0.10388
#
# Static dielectric constant tensor:
#      x y z
#    x 1.589030 0.000000 0.000410 
#    y 0.000000 1.561930 0.000000 
#    z 0.000410 0.000000 1.641270 
# 
# From -- ./inp_files/346829.got.cif
#   From: 2010.05.17/outbox.cif.g08.bks.cpg/sg12_174_cif.got.tgz:346829.got - 2010.06.03 13:09:07.
