data_PCOD9170630
_publ_section_title
;
Structure prediction by ZEFSAII (Michael W. Deem and Ramdas Pophale) SiO2 
 PCOD9170630
Probable space group: C 2/M
;
_chemical_formula_sum "Si O2"
_cell_formula_units_Z 60
_cell_length_a 18.832370
_cell_length_b 27.601090
_cell_length_c 5.404439
_cell_angle_alpha 90.000000
_cell_angle_beta 75.017821
_cell_angle_gamma 90.000000
_cell_volume 2713.699665
_symmetry_space_group_name_H-M "C 2/M"
_symmetry_group_IT_number 12
_symmetry_cell_setting 'monoclinic'
loop_
_space_group_symop_operation_xyz
x,y,z
-x,y,-z
-x,-y,-z
x,-y,z
1/2+x,1/2+y,z
1/2-x,1/2+y,-z
1/2-x,1/2-y,-z
1/2+x,1/2-y,z
loop_
_atom_site_type_symbol
_atom_site_label
_atom_site_fract_x
_atom_site_fract_y
_atom_site_fract_z
Si Si1 0.085358 0.903203 0.358974
Si Si2 0.547017 0.145987 0.713187
Si Si3 0.088226 0.203414 0.177706
Si Si4 0.417549 0.743451 0.315111
Si Si5 0.714077 0.942383 0.995085
Si Si6 0.412219 0.946222 0.549812
Si Si7 0.951471 0.000000 0.797685
Si Si8 0.204239 0.059146 0.579223
O O1 0.101592 0.852978 0.212547
O O2 0.128842 0.914752 0.571109
O O3 0.000000 0.899222 0.500000
O O4 0.095101 0.951021 0.181233
O O5 0.500000 0.151119 0.500000
O O6 0.579620 0.199149 0.723289
O O7 0.598431 0.099911 0.614891
O O8 0.500000 0.135491 0.000000
O O9 0.117695 0.230801 0.391707
O O10 0.001064 0.220103 0.248161
O O11 0.119467 0.219590 0.888289
O O12 0.629575 0.935392 0.155959
O O13 0.759241 0.925261 0.196625
O O14 0.723823 0.000000 0.979397
O O15 0.745051 0.926523 0.703794
O O16 0.500000 0.949815 0.500000
O O17 0.386040 0.000000 0.486137
O O18 0.000000 0.000000 0.500000
O O19 0.000000 0.000000 0.000000
O O20 0.194275 0.000000 0.591047
#
# Coordination Sequence:
#
# PCOD9170630 Si02
#       8
#     8   8   8   8   8   8   4   8
#     4  11  22  37  54  84 114 151 193 255 293 329
#     4  11  19  32  54  82 120 147 177 221 287 342
#     4  10  19  30  52  71 109 140 188 234 288 321
#     4  10  17  33  47  75 109 143 182 230 286 336
#     4   9  20  39  58  77 113 156 194 223 270 351
#     4   9  20  37  61  95 125 148 181 232 287 343
#     4  10  24  34  46  72 114 144 173 232 307 336
#     4  10  21  38  56  77 110 161 198 228 277 348
#
# _framework density 22.110036999999998
#
# number of rings (size 3 to 8) (size 9 to 14) (size 15 to 20)
#    0.000    2.000    4.667    0.000    1.867    5.600 
#    0.000    4.000    0.000    0.000    0.000    5.600 
#    0.000    0.000    0.000    0.000    0.000    0.000 
#
# Total GULP energy -167399.658563 kJ/mol
# GULP energy per Si atom -5579.988619 kJ/mol
# Density = 2.205971 g / cm^3
# Si number density = 22.110037 Si / 1000 Ang^3
#
#
#
# Elastic Constant Matrix: (Units=GPa)
#
#
# Indices 1 2 3 4 5 6 
#
# 1 72.2635 -7.7589 20.5853 0.0000 1.4792 0.0000
# 2 -7.7589 136.8625 8.3215 0.0000 6.7141 0.0000
# 3 20.5853 8.3215 128.2350 0.0000 12.0567 0.0000
# 4 0.0000 0.0000 0.0000 19.1210 0.0000 6.5236
# 5 1.4792 6.7141 12.0567 0.0000 31.3126 0.0000
# 6 0.0000 0.0000 0.0000 6.5236 0.0000 3.1802
#
#
#
# Elastic Compliance Matrix: (Units=1/GPa)
#
#
# Indices 1 2 3 4 5 6 
#
# 1 0.014630 0.000975 -0.002415 0.000000 0.000030 0.000000
# 2 0.000975 0.007464 -0.000504 0.000000 -0.001452 0.000000
# 3 -0.002415 -0.000504 0.008506 0.000000 -0.003053 0.000000
# 4 0.000000 0.000000 0.000000 0.174243 0.000000 -0.357423
# 5 0.000030 -0.001452 -0.003053 0.000000 0.033421 0.000000
# 6 0.000000 0.000000 0.000000 -0.357423 0.000000 1.047622
#
#
# Mechanical properties :
#
#
# Convention : Reuss Voigt Hill
#
# Bulk Modulus (GPa) = 37.43739 42.18407 39.81073
# Shear Modulus (GPa) = 3.85007 31.80365 17.82686
#
# Velocity S-wave (km/s) = 1.32102 3.79677 2.84259
# Velocity P-wave (km/s) = 4.39271 6.19203 5.36829
#
# Compressibility (1/GPa) = 0.02671126
#
# Stress axis : x y z
#
# Youngs Moduli (GPa) = 68.35206 133.98052 117.57036
#
# Poissons Ratio (x) = -0.13060 0.28388
# Poissons Ratio (y) = -0.06663 0.05929
# Poissons Ratio (z) = 0.16504 0.06756
#
# Static dielectric constant tensor:
#      x y z
#    x 1.882860 0.000000 0.005530 
#    y 0.000000 1.827620 0.000000 
#    z 0.005530 0.000000 1.882200 
# 
# From -- ./inp_files/22674.got.cif
#   From: 2010.05.17/outbox.cif.g08.bks.cpg/sg12_12_cif.got.tgz:22674.got - 2010.06.03 13:09:07.
