data_PCOD9170123
_publ_section_title
;
Structure prediction by ZEFSAII (Michael W. Deem and Ramdas Pophale) SiO2 
 PCOD9170123
Probable space group: C 2/M
;
_chemical_formula_sum "Si O2"
_cell_formula_units_Z 56
_cell_length_a 22.516331
_cell_length_b 18.223989
_cell_length_c 12.615852
_cell_angle_alpha 90.000000
_cell_angle_beta 27.665190
_cell_angle_gamma 90.000000
_cell_volume 2403.588497
_symmetry_space_group_name_H-M "C 2/M"
_symmetry_group_IT_number 12
_symmetry_cell_setting 'monoclinic'
loop_
_space_group_symop_operation_xyz
x,y,z
-x,y,-z
-x,-y,-z
x,-y,z
1/2+x,1/2+y,z
1/2-x,1/2+y,-z
1/2-x,1/2-y,-z
1/2+x,1/2-y,z
loop_
_atom_site_type_symbol
_atom_site_label
_atom_site_fract_x
_atom_site_fract_y
_atom_site_fract_z
Si Si1 0.655285 0.840190 0.662351
Si Si2 0.121478 0.700156 0.373098
Si Si3 0.787416 0.417110 0.636806
Si Si4 0.609775 0.703585 0.602993
Si Si5 0.023248 0.085585 0.290832
Si Si6 0.554966 0.918903 0.115873
Si Si7 0.810051 0.143379 0.796508
O O1 0.741643 0.876632 0.429656
O O2 0.611114 0.758506 0.699734
O O3 0.748282 0.833203 0.615335
O O4 0.526277 0.886696 0.853008
O O5 0.221616 0.638420 0.251188
O O6 0.089176 0.742248 0.535540
O O7 0.169532 0.769614 0.229751
O O8 0.000000 0.671133 0.500000
O O9 0.735668 0.500000 0.727502
O O10 0.942305 0.423776 0.381020
O O11 0.507773 0.639033 0.757706
O O12 0.907462 0.108444 0.555293
O O13 0.148691 0.105488 0.159789
O O14 0.018062 0.000000 0.274780
O O15 0.603802 0.000000 0.013478
O O16 0.668233 0.871806 0.982858
#
# Coordination Sequence:
#
# PCOD9170123 Si02
#       7
#     8   8   8   8   8   8   8
#     4   8  16  30  49  67  97 126 157 201 249 292
#     4  10  17  31  48  67  99 131 167 196 232 296
#     4   8  17  31  49  73  97 123 159 205 250 286
#     4   9  16  30  47  69  94 128 164 201 234 294
#     4  10  18  27  44  65  92 129 167 196 232 291
#     4   9  17  30  50  74 101 125 155 206 258 289
#     4  10  17  30  47  67 100 130 160 194 242 298
#
# _framework density 23.298496
#
# number of rings (size 3 to 8) (size 9 to 14) (size 15 to 20)
#    0.857    2.000    2.857    1.714    0.000    1.429 
#    0.000    5.714    0.000    4.286    0.000    1.000 
#    0.000   10.286    0.000    0.000    0.000    0.000 
#
# Total GULP energy -156001.707039 kJ/mol
# GULP energy per Si atom -5571.489537 kJ/mol
# Density = 2.324547 g / cm^3
# Si number density = 23.298496 Si / 1000 Ang^3
#
#
#
# Elastic Constant Matrix: (Units=GPa)
#
#
# Indices 1 2 3 4 5 6 
#
# 1 103.5257 38.0245 31.4953 0.0000 -31.1528 0.0000
# 2 38.0245 153.4937 -9.7352 -0.0001 -8.1304 0.0000
# 3 31.4953 -9.7352 51.8019 -0.0002 -8.6578 0.0001
# 4 0.0000 -0.0001 -0.0002 -11.5938 0.0000 -14.4126
# 5 -31.1528 -8.1304 -8.6578 0.0000 29.8560 0.0000
# 6 0.0000 0.0000 0.0001 -14.4126 0.0000 4.4746
#
#
#
# Elastic Compliance Matrix: (Units=1/GPa)
#
#
# Indices 1 2 3 4 5 6 
#
# 1 0.019047 -0.004502 -0.009784 0.000000 0.015812 0.000000
# 2 -0.004502 0.007806 0.003967 0.000000 -0.001421 0.000000
# 3 -0.009784 0.003967 0.025719 0.000000 -0.001671 0.000000
# 4 0.000000 0.000000 0.000000 -0.017236 0.000000 -0.055518
# 5 0.015812 -0.001421 -0.001671 0.000000 0.049121 0.000000
# 6 0.000000 0.000000 0.000000 -0.055518 0.000000 0.044660
#
#
# Mechanical properties :
#
#
# Convention : Reuss Voigt Hill
#
# Bulk Modulus (GPa) = 31.31394 47.59895 39.45645
# Shear Modulus (GPa) = 31.17182 21.14979 26.16081
#
# Velocity S-wave (km/s) = 3.66174 3.01620 3.35454
# Velocity P-wave (km/s) = 5.59887 5.71002 5.65472
#
# Compressibility (1/GPa) = 0.03193466
#
# Stress axis : x y z
#
# Youngs Moduli (GPa) = 52.50034 128.10020 38.88141
#
# Poissons Ratio (x) = 0.57665 0.38042
# Poissons Ratio (y) = 0.23634 -0.15422
# Poissons Ratio (z) = 0.51367 -0.50811
#
# Static dielectric constant tensor:
#      x y z
#    x 2.127680 0.000000 0.123930 
#    y 0.000000 1.913200 0.000000 
#    z 0.123930 0.000000 1.962790 
# 
# From -- ./inp_files/290302.got.cif
#   From: 2010.05.17/outbox.cif.g08.bks.cpg/sg12_146_cif.got.tgz:290302.got - 2010.06.03 13:09:07.
