data_PCOD9170044
_publ_section_title
;
Structure prediction by ZEFSAII (Michael W. Deem and Ramdas Pophale) SiO2 
 PCOD9170044
Probable space group: C 2/M
;
_chemical_formula_sum "Si O2"
_cell_formula_units_Z 64
_cell_length_a 20.625853
_cell_length_b 8.799314
_cell_length_c 30.956257
_cell_angle_alpha 90.000000
_cell_angle_beta 138.064513
_cell_angle_gamma 90.000000
_cell_volume 3754.709725
_symmetry_space_group_name_H-M "C 2/M"
_symmetry_group_IT_number 12
_symmetry_cell_setting 'monoclinic'
loop_
_space_group_symop_operation_xyz
x,y,z
-x,y,-z
-x,-y,-z
x,-y,z
1/2+x,1/2+y,z
1/2-x,1/2+y,-z
1/2-x,1/2-y,-z
1/2+x,1/2-y,z
loop_
_atom_site_type_symbol
_atom_site_label
_atom_site_fract_x
_atom_site_fract_y
_atom_site_fract_z
Si Si1 0.689771 0.682400 0.174898
Si Si2 0.166101 0.825730 0.691012
Si Si3 0.010422 0.683300 0.554822
Si Si4 0.015687 0.184518 0.958839
Si Si5 0.230615 0.816593 0.037315
Si Si6 0.827424 0.816395 0.168430
Si Si7 0.857197 0.681169 0.552516
Si Si8 0.505777 0.325494 0.688342
O O1 0.696528 0.500000 0.175479
O O2 0.741607 0.739800 0.243873
O O3 0.577653 0.729563 0.115315
O O4 0.748432 0.751411 0.163238
O O5 0.109823 0.746035 0.624263
O O6 0.087951 0.824921 0.691569
O O7 0.189187 0.000000 0.692448
O O8 0.012925 0.500000 0.557270
O O9 0.922032 0.731428 0.542931
O O10 0.000000 0.731949 0.500000
O O11 0.015957 0.000000 0.959719
O O12 0.120933 0.230979 0.995149
O O13 0.000000 0.237495 0.000000
O O14 0.301575 0.749365 0.108984
O O15 0.236610 0.000000 0.040547
O O16 0.250000 0.750000 0.000000
O O17 0.933904 0.772868 0.239831
O O18 0.822679 0.000000 0.166448
O O19 0.850403 0.500000 0.547536
O O20 0.750000 0.750000 0.500000
O O21 0.917893 0.730289 0.625078
O O22 0.474218 0.500000 0.679009
#
# Coordination Sequence:
#
# PCOD9170044 Si02
#       8
#     8   8   8   8   8   8   8   8
#     4  10  17  29  52  77 102 133 171 214 256 300
#     4   9  17  29  46  74 107 134 164 207 259 304
#     4   9  18  33  53  76 101 133 175 210 243 300
#     4   9  17  32  53  78 102 131 171 211 254 304
#     4  11  22  37  55  75 104 138 175 213 257 312
#     4  10  19  32  51  78 106 133 168 213 263 306
#     4  10  19  31  51  77 104 132 165 208 253 297
#     4   8  16  30  48  71 101 131 165 206 248 299
#
# _framework density 17.045259000000001
#
# number of rings (size 3 to 8) (size 9 to 14) (size 15 to 20)
#    0.000    2.500    1.250    2.625    0.000    4.250 
#    0.000    3.125    2.750    0.000    0.000    0.000 
#    0.000    0.000    0.000    0.000    0.000    0.000 
#
# Total GULP energy -178332.054357 kJ/mol
# GULP energy per Si atom -5572.876699 kJ/mol
# Density = 1.700646 g / cm^3
# Si number density = 17.045259 Si / 1000 Ang^3
#
#
#
# Elastic Constant Matrix: (Units=GPa)
#
#
# Indices 1 2 3 4 5 6 
#
# 1 74.9596 26.9360 69.7311 0.0000 -8.6884 0.0000
# 2 26.9360 49.2356 52.4704 0.0000 -0.8111 -0.0001
# 3 69.7311 52.4704 190.6496 0.0000 -11.4374 0.0000
# 4 0.0000 0.0000 0.0000 29.3968 0.0000 -2.1514
# 5 -8.6884 -0.8111 -11.4374 0.0000 28.6308 0.0000
# 6 0.0000 -0.0001 0.0000 -2.1514 0.0000 17.2840
#
#
#
# Elastic Compliance Matrix: (Units=1/GPa)
#
#
# Indices 1 2 3 4 5 6 
#
# 1 0.021357 -0.005013 -0.006200 0.000000 0.003862 0.000000
# 2 -0.005013 0.030079 -0.006644 0.000000 -0.003323 0.000000
# 3 -0.006200 -0.006644 0.009444 0.000000 0.001703 0.000000
# 4 0.000000 0.000000 0.000000 0.034330 0.000000 0.004273
# 5 0.003862 -0.003323 0.001703 0.000000 0.036686 0.000000
# 6 0.000000 0.000000 0.000000 0.004273 0.000000 0.058389
#
#
# Mechanical properties :
#
#
# Convention : Reuss Voigt Hill
#
# Bulk Modulus (GPa) = 39.73734 68.12443 53.93088
# Shear Modulus (GPa) = 21.33220 26.10947 23.72084
#
# Velocity S-wave (km/s) = 3.54150 3.91803 3.73451
# Velocity P-wave (km/s) = 6.33138 7.77956 7.09253
#
# Compressibility (1/GPa) = 0.02516525
#
# Stress axis : x y z
#
# Youngs Moduli (GPa) = 46.82254 33.24583 105.89071
#
# Poissons Ratio (x) = 0.16666 0.65654
# Poissons Ratio (y) = 0.23473 0.70355
# Poissons Ratio (z) = 0.29031 0.22089
#
# Static dielectric constant tensor:
#      x y z
#    x 1.560320 0.000000 -0.002800 
#    y 0.000000 1.578400 0.000000 
#    z -0.002800 0.000000 1.590300 
# 
# From -- ./inp_files/378471.got.cif
#   From: 2010.05.17/outbox.cif.g08.bks.cpg/sg12_190_cif.got.tgz:378471.got - 2010.06.03 13:09:07.
