data_PCOD9170375
_publ_section_title
;
Structure prediction by ZEFSAII (Michael W. Deem and Ramdas Pophale) SiO2 
 PCOD9170375
Probable space group: C 2/M
;
_chemical_formula_sum "Si O2"
_cell_formula_units_Z 48
_cell_length_a 20.176046
_cell_length_b 17.717489
_cell_length_c 12.368534
_cell_angle_alpha 90.000000
_cell_angle_beta 36.635459
_cell_angle_gamma 90.000000
_cell_volume 2638.324564
_symmetry_space_group_name_H-M "C 2/M"
_symmetry_group_IT_number 12
_symmetry_cell_setting 'monoclinic'
loop_
_space_group_symop_operation_xyz
x,y,z
-x,y,-z
-x,-y,-z
x,-y,z
1/2+x,1/2+y,z
1/2-x,1/2+y,-z
1/2-x,1/2-y,-z
1/2+x,1/2-y,z
loop_
_atom_site_type_symbol
_atom_site_label
_atom_site_fract_x
_atom_site_fract_y
_atom_site_fract_z
Si Si1 0.027024 0.919292 0.306367
Si Si2 0.722147 0.914957 0.938216
Si Si3 0.765391 0.257285 0.188443
Si Si4 0.091491 0.774320 0.582547
Si Si5 0.919091 0.335316 0.702705
Si Si6 0.021250 0.150350 0.093081
O O1 0.148593 0.912530 0.196804
O O2 0.950700 0.847653 0.431313
O O3 0.977278 0.000000 0.401784
O O4 0.039762 0.912981 0.159600
O O5 0.705875 0.843018 0.881659
O O6 0.698398 0.000000 0.928954
O O7 0.647218 0.897048 0.141971
O O8 0.708830 0.253662 0.380006
O O9 0.672406 0.222085 0.228556
O O10 0.872426 0.204734 0.043231
O O11 0.000675 0.710798 0.675268
O O12 0.079373 0.801353 0.721366
O O13 0.000000 0.362441 0.500000
O O14 0.000000 0.124669 0.000000
#
# Coordination Sequence:
#
# PCOD9170375 Si02
#       6
#     8   8   8   8   8   8
#     4   9  18  32  47  73 107 125 157 200 246 304
#     4  11  19  30  51  76 104 133 156 194 257 308
#     4  11  18  33  52  74 103 126 165 209 241 295
#     4   9  19  31  52  75  97 130 163 202 253 284
#     4  10  17  31  52  72 100 131 162 206 247 290
#     4  10  20  34  53  73  93 136 173 204 242 276
#
# _framework density 18.193365
#
# number of rings (size 3 to 8) (size 9 to 14) (size 15 to 20)
#    1.000    1.000    5.000    0.500    0.000    2.000 
#    0.000    1.667    0.000    0.500    0.000    0.000 
#    0.000    0.000    0.000    0.000    0.000    0.000 
#
# Total GULP energy -133628.151005 kJ/mol
# GULP energy per Si atom -5567.839625 kJ/mol
# Density = 1.815196 g / cm^3
# Si number density = 18.193365 Si / 1000 Ang^3
#
#
#
# Elastic Constant Matrix: (Units=GPa)
#
#
# Indices 1 2 3 4 5 6 
#
# 1 31.9097 5.1795 1.3610 0.0000 8.1853 0.0000
# 2 5.1795 59.9533 11.9527 0.0000 -10.7766 0.0000
# 3 1.3610 11.9527 81.7436 0.0000 9.2502 0.0000
# 4 0.0000 0.0000 0.0000 -15.4873 0.0000 -25.2466
# 5 8.1853 -10.7766 9.2502 0.0000 16.7837 0.0000
# 6 0.0000 0.0000 0.0000 -25.2466 0.0000 -15.0780
#
#
#
# Elastic Compliance Matrix: (Units=1/GPa)
#
#
# Indices 1 2 3 4 5 6 
#
# 1 0.039629 -0.009061 0.003744 0.000000 -0.027208 0.000000
# 2 -0.009061 0.022539 -0.005634 0.000000 0.021996 0.000000
# 3 0.003744 -0.005634 0.014516 0.000000 -0.013444 0.000000
# 4 0.000000 0.000000 0.000000 0.037334 0.000000 -0.062512
# 5 -0.027208 0.021996 -0.013444 0.000000 0.094383 0.000000
# 6 0.000000 0.000000 0.000000 -0.062512 0.000000 0.038347
#
#
# Mechanical properties :
#
#
# Convention : Reuss Voigt Hill
#
# Bulk Modulus (GPa) = 18.25388 23.39921 20.82655
# Shear Modulus (GPa) = 17.42702 7.58457 12.50579
#
# Velocity S-wave (km/s) = 3.09832 2.04399 2.62464
# Velocity P-wave (km/s) = 4.78063 4.29650 4.54502
#
# Compressibility (1/GPa) = 0.05478287
#
# Stress axis : x y z
#
# Youngs Moduli (GPa) = 25.23429 44.36666 68.88867
#
# Poissons Ratio (x) = 0.40199 -0.25791
# Poissons Ratio (y) = 0.22864 0.38812
# Poissons Ratio (z) = -0.09447 0.24996
#
# Static dielectric constant tensor:
#      x y z
#    x 1.624190 0.000000 0.038570 
#    y 0.000000 1.623800 0.000000 
#    z 0.038570 0.000000 1.648340 
# 
# From -- ./inp_files/241005.got.cif
#   From: 2010.05.17/outbox.cif.g08.bks.cpg/sg12_121_cif.got.tgz:241005.got - 2010.06.03 13:09:07.
