data_PCOD9170835
_publ_section_title
;
Structure prediction by ZEFSAII (Michael W. Deem and Ramdas Pophale) SiO2 
 PCOD9170835
Probable space group: C 2/M
;
_chemical_formula_sum "Si O2"
_cell_formula_units_Z 52
_cell_length_a 18.227847
_cell_length_b 18.333255
_cell_length_c 24.559702
_cell_angle_alpha 90.000000
_cell_angle_beta 20.564367
_cell_angle_gamma 90.000000
_cell_volume 2882.876528
_symmetry_space_group_name_H-M "C 2/M"
_symmetry_group_IT_number 12
_symmetry_cell_setting 'monoclinic'
loop_
_space_group_symop_operation_xyz
x,y,z
-x,y,-z
-x,-y,-z
x,-y,z
1/2+x,1/2+y,z
1/2-x,1/2+y,-z
1/2-x,1/2-y,-z
1/2+x,1/2-y,z
loop_
_atom_site_type_symbol
_atom_site_label
_atom_site_fract_x
_atom_site_fract_y
_atom_site_fract_z
Si Si1 0.975048 0.267301 0.816957
Si Si2 0.500000 0.292912 0.000000
Si Si3 0.009009 0.920755 0.080829
Si Si4 0.502625 0.079704 0.759401
Si Si5 0.710178 0.867878 0.505256
Si Si6 0.938888 0.231127 0.715201
Si Si7 0.773453 0.633334 0.629837
O O1 0.940426 0.252976 0.777274
O O2 0.048369 0.351487 0.766600
O O3 0.152289 0.211115 0.712592
O O4 0.750000 0.250000 0.000000
O O5 0.474267 0.349844 0.067736
O O6 0.296240 0.242307 0.140159
O O7 0.869658 0.914392 0.231211
O O8 0.962220 0.000000 0.087431
O O9 0.252492 0.919289 0.926687
O O10 0.594863 0.090467 0.634176
O O11 0.567467 0.000000 0.734780
O O12 0.581271 0.792011 0.587078
O O13 0.719058 0.897060 0.437506
O O14 0.937073 0.844785 0.371128
O O15 0.000000 0.638975 0.500000
#
# Coordination Sequence:
#
# PCOD9170835 Si02
#       7
#     8   4   8   8   8   8   8
#     4  10  17  35  53  75 102 134 174 224 249 296
#     4  12  17  34  52  78 105 142 170 212 251 316
#     4  11  23  34  48  75 109 145 176 203 250 318
#     4  10  20  36  56  75 100 145 178 205 261 314
#     4   9  18  35  50  75 106 130 168 223 252 302
#     4   9  18  29  53  75 100 134 169 210 261 297
#     4  11  22  34  53  78 105 138 176 218 263 300
#
# _framework density 18.03754
#
# number of rings (size 3 to 8) (size 9 to 14) (size 15 to 20)
#    0.000    1.846    4.615    2.077    0.000    0.923 
#    0.000    0.000    0.000    0.462    0.000    0.538 
#    0.000    0.000    0.000    3.231    0.000    0.000 
#
# Total GULP energy -144831.997897 kJ/mol
# GULP energy per Si atom -5570.461458 kJ/mol
# Density = 1.799649 g / cm^3
# Si number density = 18.037540 Si / 1000 Ang^3
#
#
#
# Elastic Constant Matrix: (Units=GPa)
#
#
# Indices 1 2 3 4 5 6 
#
# 1 33.1854 18.2315 33.0547 -0.0067 1.8445 0.0154
# 2 18.2315 85.6567 32.2204 -0.1147 -4.4768 0.0157
# 3 33.0547 32.2204 125.2550 -0.1224 1.7621 0.0305
# 4 -0.0067 -0.1147 -0.1224 -58.1940 0.0188 5.3940
# 5 1.8445 -4.4768 1.7621 0.0188 41.9694 0.0039
# 6 0.0154 0.0157 0.0305 5.3940 0.0039 14.3641
#
#
#
# Elastic Compliance Matrix: (Units=1/GPa)
#
#
# Indices 1 2 3 4 5 6 
#
# 1 0.043210 -0.005566 -0.009942 0.000024 -0.002075 -0.000028
# 2 -0.005566 0.013740 -0.002091 -0.000021 0.001798 0.000003
# 3 -0.009942 -0.002091 0.011149 -0.000019 -0.000254 -0.000004
# 4 0.000024 -0.000021 -0.000019 -0.016606 0.000004 0.006236
# 5 -0.002075 0.001798 -0.000254 0.000004 0.024121 -0.000007
# 6 -0.000028 0.000003 -0.000004 0.006236 -0.000007 0.067276
#
#
# Mechanical properties :
#
#
# Convention : Reuss Voigt Hill
#
# Bulk Modulus (GPa) = 30.39428 45.67891 38.03659
# Shear Modulus (GPa) = 26.44762 10.33395 18.39079
#
# Velocity S-wave (km/s) = 3.83332 2.39616 3.19656
# Velocity P-wave (km/s) = 6.03984 5.74759 5.89552
#
# Compressibility (1/GPa) = 0.03290093
#
# Stress axis : x y z
#
# Youngs Moduli (GPa) = 23.14303 72.78254 89.69549
#
# Poissons Ratio (x) = 0.40507 0.89176
# Poissons Ratio (y) = 0.12880 0.18755
# Poissons Ratio (z) = 0.23009 0.15218
#
# Static dielectric constant tensor:
#      x y z
#    x 1.620660 -0.000010 0.019110 
#    y -0.000010 1.686210 0.000030 
#    z 0.019110 0.000030 1.656690 
# 
# From -- ./inp_files/344675.got.cif
#   From: 2010.05.17/outbox.cif.g08.bks.cpg/sg12_173_cif.got.tgz:344675.got - 2010.06.03 13:09:07.
