data_PCOD9170870
_publ_section_title
;
Structure prediction by ZEFSAII (Michael W. Deem and Ramdas Pophale) SiO2 
 PCOD9170870
Probable space group: C 2/M
;
_chemical_formula_sum "Si O2"
_cell_formula_units_Z 64
_cell_length_a 24.101205
_cell_length_b 19.968614
_cell_length_c 8.305846
_cell_angle_alpha 90.000000
_cell_angle_beta 130.969725
_cell_angle_gamma 90.000000
_cell_volume 3018.212366
_symmetry_space_group_name_H-M "C 2/M"
_symmetry_group_IT_number 12
_symmetry_cell_setting 'monoclinic'
loop_
_space_group_symop_operation_xyz
x,y,z
-x,y,-z
-x,-y,-z
x,-y,z
1/2+x,1/2+y,z
1/2-x,1/2+y,-z
1/2-x,1/2-y,-z
1/2+x,1/2-y,z
loop_
_atom_site_type_symbol
_atom_site_label
_atom_site_fract_x
_atom_site_fract_y
_atom_site_fract_z
Si Si1 0.478638 0.794545 0.775835
Si Si2 0.167263 0.073012 0.063349
Si Si3 0.400396 0.708934 0.124526
Si Si4 0.711577 0.201647 0.295576
Si Si5 0.837357 0.243751 0.340962
Si Si6 0.692572 0.925359 0.463537
Si Si7 0.949038 0.423912 0.244711
Si Si8 0.310016 0.889124 0.190687
O O1 0.520720 0.740089 0.749297
O O2 0.394336 0.776229 0.577123
O O3 0.512330 0.866877 0.789917
O O4 0.500000 0.783673 0.000000
O O5 0.221163 0.079091 0.321401
O O6 0.228936 0.079080 0.038068
O O7 0.133490 0.000000 0.995453
O O8 0.111789 0.133551 0.954019
O O9 0.378153 0.714160 0.266692
O O10 0.348342 0.756389 0.916065
O O11 0.750000 0.250000 0.500000
O O12 0.780027 0.191713 0.305352
O O13 0.679872 0.134438 0.315274
O O14 0.797163 0.310430 0.196517
O O15 0.656984 0.916276 0.574491
O O16 0.675696 0.000000 0.372356
O O17 0.946383 0.500000 0.173723
O O18 0.867860 0.403018 0.159109
O O19 0.000000 0.425209 0.500000
#
# Coordination Sequence:
#
# PCOD9170870 Si02
#       8
#     8   8   8   8   8   8   8   8
#     4  12  27  41  60  87 123 163 211 262 312 364
#     4   9  19  35  62  95 122 155 197 250 312 367
#     4  12  23  39  65  89 122 164 207 258 307 367
#     4  12  20  35  63  93 119 155 209 254 302 362
#     4  12  23  40  61  89 122 160 211 258 308 366
#     4   9  19  35  58  92 133 161 193 252 312 361
#     4  11  21  36  58  82 117 163 204 243 294 366
#     4  10  17  35  62  85 121 159 203 243 302 357
#
# _framework density 21.204604
#
# number of rings (size 3 to 8) (size 9 to 14) (size 15 to 20)
#    0.750    0.375    6.250    2.250    0.000    0.250 
#    0.000    1.250    0.000    2.625    0.000    0.000 
#    0.000    0.000    0.000    0.000    0.000    0.000 
#
# Total GULP energy -178632.345976 kJ/mol
# GULP energy per Si atom -5582.260812 kJ/mol
# Density = 2.115634 g / cm^3
# Si number density = 21.204604 Si / 1000 Ang^3
#
#
#
# Elastic Constant Matrix: (Units=GPa)
#
#
# Indices 1 2 3 4 5 6 
#
# 1 60.8930 9.3328 -0.2849 0.0000 -1.1780 0.0000
# 2 9.3328 119.4717 6.6745 0.0000 2.0484 0.0000
# 3 -0.2849 6.6745 57.9962 0.0000 -8.2126 0.0000
# 4 0.0000 0.0000 0.0000 17.3677 0.0000 -5.7044
# 5 -1.1780 2.0484 -8.2126 0.0000 28.9556 0.0000
# 6 0.0000 0.0000 0.0000 -5.7044 0.0000 18.2177
#
#
#
# Elastic Compliance Matrix: (Units=1/GPa)
#
#
# Indices 1 2 3 4 5 6 
#
# 1 0.016646 -0.001335 0.000359 0.000000 0.000874 0.000000
# 2 -0.001335 0.008554 -0.001130 0.000000 -0.000980 0.000000
# 3 0.000359 -0.001130 0.018115 0.000000 0.005232 0.000000
# 4 0.000000 0.000000 0.000000 0.064179 0.000000 0.020096
# 5 0.000874 -0.000980 0.005232 0.000000 0.036125 0.000000
# 6 0.000000 0.000000 0.000000 0.020096 0.000000 0.061184
#
#
# Mechanical properties :
#
#
# Convention : Reuss Voigt Hill
#
# Bulk Modulus (GPa) = 25.57339 29.97841 27.77590
# Shear Modulus (GPa) = 22.51755 27.75077 25.13416
#
# Velocity S-wave (km/s) = 3.26224 3.62154 3.44658
# Velocity P-wave (km/s) = 5.12602 5.62635 5.38200
#
# Compressibility (1/GPa) = 0.03910314
#
# Stress axis : x y z
#
# Youngs Moduli (GPa) = 60.07629 116.89864 55.20217
#
# Poissons Ratio (x) = 0.15610 -0.01983
# Poissons Ratio (y) = 0.08022 0.06237
# Poissons Ratio (z) = -0.02158 0.13207
#
# Static dielectric constant tensor:
#      x y z
#    x 1.815770 0.000000 -0.010490 
#    y 0.000000 1.776790 0.000000 
#    z -0.010490 0.000000 1.828170 
# 
# From -- ./inp_files/99139.got.cif
#   From: 2010.05.17/outbox.cif.g08.bks.cpg/sg12_50_cif.got.tgz:99139.got - 2010.06.03 13:09:07.
