data_PCOD9170152
_publ_section_title
;
Structure prediction by ZEFSAII (Michael W. Deem and Ramdas Pophale) SiO2 
 PCOD9170152
Probable space group: C 2/M
;
_chemical_formula_sum "Si O2"
_cell_formula_units_Z 64
_cell_length_a 25.614887
_cell_length_b 8.565476
_cell_length_c 19.754586
_cell_angle_alpha 90.000000
_cell_angle_beta 63.748577
_cell_angle_gamma 90.000000
_cell_volume 3887.204465
_symmetry_space_group_name_H-M "C 2/M"
_symmetry_group_IT_number 12
_symmetry_cell_setting 'monoclinic'
loop_
_space_group_symop_operation_xyz
x,y,z
-x,y,-z
-x,-y,-z
x,-y,z
1/2+x,1/2+y,z
1/2-x,1/2+y,-z
1/2-x,1/2-y,-z
1/2+x,1/2-y,z
loop_
_atom_site_type_symbol
_atom_site_label
_atom_site_fract_x
_atom_site_fract_y
_atom_site_fract_z
Si Si1 0.388071 0.688598 0.585096
Si Si2 0.758317 0.687558 0.156127
Si Si3 0.810091 0.814078 0.997990
Si Si4 0.077515 0.687023 0.579530
Si Si5 0.746200 0.310154 0.315751
Si Si6 0.301262 0.188774 0.422574
Si Si7 0.639098 0.185271 0.158879
Si Si8 0.953376 0.186524 0.686856
O O1 0.390078 0.500000 0.577309
O O2 0.415518 0.762152 0.502490
O O3 0.320531 0.736787 0.631144
O O4 0.422262 0.731147 0.633731
O O5 0.760158 0.500000 0.151827
O O6 0.764482 0.740135 0.230213
O O7 0.694563 0.740630 0.166435
O O8 0.806060 0.755656 0.077232
O O9 0.689951 0.500000 0.004219
O O10 0.858503 0.747892 0.919449
O O11 0.750000 0.750000 0.000000
O O12 0.073152 0.500000 0.585900
O O13 0.136240 0.738266 0.584667
O O14 0.019987 0.762347 0.643694
O O15 0.746136 0.500000 0.314784
O O16 0.786797 0.259652 0.354405
O O17 0.250000 0.250000 0.500000
O O18 0.299744 0.000000 0.424921
O O19 0.581907 0.234347 0.232218
O O20 0.646511 0.000000 0.154049
O O21 0.948489 0.000000 0.696353
#
# Coordination Sequence:
#
# PCOD9170152 Si02
#       8
#     8   8   8   8   8   8   8   8
#     4  10  19  34  53  71  95 133 173 203 245 301
#     4  10  17  30  49  72 100 132 169 204 243 295
#     4  10  18  29  45  69 101 135 166 198 240 295
#     4  11  23  35  49  74 101 129 167 214 255 292
#     4   9  17  31  52  73  97 131 169 206 246 295
#     4  10  20  35  53  72  96 128 168 210 253 295
#     4  11  20  31  48  72 102 133 163 202 248 295
#     4  11  22  36  52  71  97 135 173 205 243 301
#
# _framework density 16.464274
#
# number of rings (size 3 to 8) (size 9 to 14) (size 15 to 20)
#    0.000    1.750    2.500    5.250    0.000    3.000 
#    0.000    1.250    0.000    0.000    0.000    0.875 
#    0.000    7.000    0.000    0.000    0.000    0.000 
#
# Total GULP energy -178600.917589 kJ/mol
# GULP energy per Si atom -5581.278675 kJ/mol
# Density = 1.642680 g / cm^3
# Si number density = 16.464274 Si / 1000 Ang^3
#
#
#
# Elastic Constant Matrix: (Units=GPa)
#
#
# Indices 1 2 3 4 5 6 
#
# 1 62.9924 17.8118 48.3113 -0.0001 -8.9964 -0.0002
# 2 17.8118 60.0045 35.6202 -0.0004 -1.2728 -0.0014
# 3 48.3113 35.6202 158.0167 0.0000 4.1987 -0.0001
# 4 -0.0001 -0.0004 0.0000 29.9295 0.0000 -2.8723
# 5 -8.9964 -1.2728 4.1987 0.0000 17.5273 -0.0001
# 6 -0.0002 -0.0014 -0.0001 -2.8723 -0.0001 15.9148
#
#
#
# Elastic Compliance Matrix: (Units=1/GPa)
#
#
# Indices 1 2 3 4 5 6 
#
# 1 0.024070 -0.002613 -0.007139 0.000000 0.013875 0.000000
# 2 -0.002613 0.019629 -0.003651 0.000000 0.000959 0.000002
# 3 -0.007139 -0.003651 0.009499 0.000000 -0.006205 0.000000
# 4 0.000000 0.000000 0.000000 0.034001 0.000000 0.006137
# 5 0.013875 0.000959 -0.006205 0.000000 0.065732 0.000001
# 6 0.000000 0.000002 0.000000 0.006137 0.000001 0.063942
#
#
# Mechanical properties :
#
#
# Convention : Reuss Voigt Hill
#
# Bulk Modulus (GPa) = 37.89022 53.83335 45.86178
# Shear Modulus (GPa) = 19.80380 24.62567 22.21474
#
# Velocity S-wave (km/s) = 3.47195 3.87163 3.67723
# Velocity P-wave (km/s) = 6.25589 7.26320 6.77828
#
# Compressibility (1/GPa) = 0.02639204
#
# Stress axis : x y z
#
# Youngs Moduli (GPa) = 41.54463 50.94521 105.27411
#
# Poissons Ratio (x) = 0.13312 0.75154
# Poissons Ratio (y) = 0.10856 0.38439
# Poissons Ratio (z) = 0.29658 0.18602
#
# Static dielectric constant tensor:
#      x y z
#    x 1.529110 0.000000 0.016350 
#    y 0.000000 1.558470 0.000000 
#    z 0.016350 0.000000 1.568970 
# 
# From -- ./inp_files/323642.got.cif
#   From: 2010.05.17/outbox.cif.g08.bks.cpg/sg12_162_cif.got.tgz:323642.got - 2010.06.03 13:09:07.
