data_PCOD9170585
_publ_section_title
;
Structure prediction by ZEFSAII (Michael W. Deem and Ramdas Pophale) SiO2 
 PCOD9170585
Probable space group: C 2/M
;
_chemical_formula_sum "Si O2"
_cell_formula_units_Z 56
_cell_length_a 7.933986
_cell_length_b 14.047530
_cell_length_c 20.212053
_cell_angle_alpha 90.000000
_cell_angle_beta 82.700360
_cell_angle_gamma 90.000000
_cell_volume 2234.434524
_symmetry_space_group_name_H-M "C 2/M"
_symmetry_group_IT_number 12
_symmetry_cell_setting 'monoclinic'
loop_
_space_group_symop_operation_xyz
x,y,z
-x,y,-z
-x,-y,-z
x,-y,z
1/2+x,1/2+y,z
1/2-x,1/2+y,-z
1/2-x,1/2-y,-z
1/2+x,1/2-y,z
loop_
_atom_site_type_symbol
_atom_site_label
_atom_site_fract_x
_atom_site_fract_y
_atom_site_fract_z
Si Si1 0.397283 0.900800 0.606161
Si Si2 0.836656 0.111741 0.059614
Si Si3 0.899500 0.888398 0.648221
Si Si4 0.755536 0.139469 0.516632
Si Si5 0.651747 0.163102 0.942834
Si Si6 0.992127 0.604253 0.828528
Si Si7 0.447442 0.778539 0.297862
O O1 0.255419 0.901282 0.556624
O O2 0.578437 0.893218 0.558796
O O3 0.413970 0.817215 0.656504
O O4 0.389662 0.000000 0.643283
O O5 0.881909 0.224902 0.071189
O O6 0.670674 0.108335 0.115583
O O7 0.898037 0.000000 0.064464
O O8 0.807365 0.129028 0.981295
O O9 0.891974 0.876931 0.567840
O O10 0.721001 0.841334 0.681198
O O11 0.044718 0.831814 0.681599
O O12 0.903099 0.000000 0.661883
O O13 0.750000 0.250000 0.500000
O O14 0.646790 0.113463 0.872579
O O15 0.500000 0.133258 0.000000
O O16 0.997711 0.500000 0.795541
O O17 0.993640 0.691137 0.777474
#
# Coordination Sequence:
#
# PCOD9170585 Si02
#       7
#     8   8   8   8   8   8   8
#     4  10  19  34  57  84 113 154 202 250 306 367
#     4   9  18  33  54  82 113 145 189 245 295 352
#     4  11  24  44  65  90 126 167 208 260 316 370
#     4  10  17  32  57  84 114 152 198 253 309 357
#     4   9  18  33  54  80 112 150 191 237 296 357
#     4  10  20  35  57  83 111 151 196 244 300 362
#     4  11  23  40  65  90 123 162 207 254 307 378
#
# _framework density 25.062269000000001
#
# number of rings (size 3 to 8) (size 9 to 14) (size 15 to 20)
#    0.000    2.000    1.429    4.286    2.000    2.000 
#    0.000    2.857    0.000    3.429    0.000    0.000 
#    0.000    0.000    0.000    0.000    0.000    0.000 
#
# Total GULP energy -155973.989911 kJ/mol
# GULP energy per Si atom -5570.499640 kJ/mol
# Density = 2.500523 g / cm^3
# Si number density = 25.062269 Si / 1000 Ang^3
#
#
#
# Elastic Constant Matrix: (Units=GPa)
#
#
# Indices 1 2 3 4 5 6 
#
# 1 52.0559 17.1919 6.1046 0.0000 1.0621 0.0000
# 2 17.1919 193.9658 35.2178 0.0000 -0.7478 0.0000
# 3 6.1046 35.2178 129.2542 0.0000 5.4715 0.0000
# 4 0.0000 0.0000 0.0000 18.1400 0.0000 -4.9416
# 5 1.0621 -0.7478 5.4715 0.0000 18.5994 0.0000
# 6 0.0000 0.0000 0.0000 -4.9416 0.0000 25.0490
#
#
#
# Elastic Compliance Matrix: (Units=1/GPa)
#
#
# Indices 1 2 3 4 5 6 
#
# 1 0.019839 -0.001684 -0.000433 0.000000 -0.001073 0.000000
# 2 -0.001684 0.005575 -0.001471 0.000000 0.000753 0.000000
# 3 -0.000433 -0.001471 0.008262 0.000000 -0.002465 0.000000
# 4 0.000000 0.000000 0.000000 0.058258 0.000000 0.011493
# 5 -0.001073 0.000753 -0.002465 0.000000 0.054582 0.000000
# 6 0.000000 0.000000 0.000000 0.011493 0.000000 0.042189
#
#
# Mechanical properties :
#
#
# Convention : Reuss Voigt Hill
#
# Bulk Modulus (GPa) = 37.73567 54.70049 46.21808
# Shear Modulus (GPa) = 24.42429 33.47512 28.94971
#
# Velocity S-wave (km/s) = 3.12516 3.65866 3.40238
# Velocity P-wave (km/s) = 5.30204 6.30245 5.82377
#
# Compressibility (1/GPa) = 0.02650013
#
# Stress axis : x y z
#
# Youngs Moduli (GPa) = 50.40600 179.37702 121.03063
#
# Poissons Ratio (x) = 0.30206 0.05237
# Poissons Ratio (y) = 0.08488 0.17808
# Poissons Ratio (z) = 0.02181 0.26392
#
# Static dielectric constant tensor:
#      x y z
#    x 2.217900 0.000000 0.033990 
#    y 0.000000 2.155990 0.000000 
#    z 0.033990 0.000000 1.947220 
# 
# From -- ./inp_files/304223.got.cif
#   From: 2010.05.17/outbox.cif.g08.bks.cpg/sg12_153_cif.got.tgz:304223.got - 2010.06.03 13:09:07.
