data_PCOD9170066
_publ_section_title
;
Structure prediction by ZEFSAII (Michael W. Deem and Ramdas Pophale) SiO2 
 PCOD9170066
Probable space group: C 2/M
;
_chemical_formula_sum "Si O2"
_cell_formula_units_Z 40
_cell_length_a 26.019623
_cell_length_b 13.343782
_cell_length_c 18.781915
_cell_angle_alpha 90.000000
_cell_angle_beta 162.007944
_cell_angle_gamma 90.000000
_cell_volume 2014.265935
_symmetry_space_group_name_H-M "C 2/M"
_symmetry_group_IT_number 12
_symmetry_cell_setting 'monoclinic'
loop_
_space_group_symop_operation_xyz
x,y,z
-x,y,-z
-x,-y,-z
x,-y,z
1/2+x,1/2+y,z
1/2-x,1/2+y,-z
1/2-x,1/2-y,-z
1/2+x,1/2-y,z
loop_
_atom_site_type_symbol
_atom_site_label
_atom_site_fract_x
_atom_site_fract_y
_atom_site_fract_z
Si Si1 0.283468 0.881455 0.160337
Si Si2 0.852443 0.119693 0.752233
Si Si3 0.628536 0.803964 0.572296
Si Si4 0.914470 0.120797 0.675008
Si Si5 0.198097 0.383584 0.252526
O O1 0.431790 0.815135 0.323810
O O2 0.294976 0.867151 0.261151
O O3 0.309521 0.000000 0.178694
O O4 0.099600 0.847409 0.896020
O O5 0.685079 0.149101 0.572189
O O6 0.871901 0.158993 0.697828
O O7 0.861472 0.000000 0.760667
O O8 0.000000 0.152999 0.000000
O O9 0.710814 0.693720 0.680384
O O10 0.780164 0.138955 0.437422
O O11 0.926682 0.000000 0.697397
O O12 0.230947 0.500000 0.277585
O O13 0.000000 0.372167 0.000000
#
# Coordination Sequence:
#
# PCOD9170066 Si02
#       5
#     8   8   8   8   8
#     4  10  20  36  59  91 124 146 172 228 305 362
#     4  10  17  29  53  89 120 142 178 231 291 356
#     4  11  20  33  56  87 115 153 185 225 287 351
#     4   9  19  36  59  84 116 151 186 234 289 338
#     4  10  23  42  59  77 110 159 207 245 273 311
#
# _framework density 19.858350999999999
#
# number of rings (size 3 to 8) (size 9 to 14) (size 15 to 20)
#    0.000    2.000    2.000    3.000    0.000    1.600 
#    0.000    2.000    0.000    0.000    0.000    0.000 
#    0.000    0.000    0.000    0.000    0.000    0.000 
#
# Total GULP energy -111591.897071 kJ/mol
# GULP energy per Si atom -5579.594854 kJ/mol
# Density = 1.981315 g / cm^3
# Si number density = 19.858351 Si / 1000 Ang^3
#
#
#
# Elastic Constant Matrix: (Units=GPa)
#
#
# Indices 1 2 3 4 5 6 
#
# 1 66.4832 17.9999 55.3081 0.0000 21.2940 0.0001
# 2 17.9999 91.1840 19.4170 0.0000 10.2221 0.0000
# 3 55.3081 19.4170 157.1801 0.0000 9.1090 0.0002
# 4 0.0000 0.0000 0.0000 9.7772 0.0000 15.7772
# 5 21.2940 10.2221 9.1090 0.0000 24.5320 0.0001
# 6 0.0001 0.0000 0.0002 15.7772 0.0001 20.9706
#
#
#
# Elastic Compliance Matrix: (Units=1/GPa)
#
#
# Indices 1 2 3 4 5 6 
#
# 1 0.030145 -0.001523 -0.009136 0.000001 -0.022139 0.000000
# 2 -0.001523 0.011795 -0.000729 0.000000 -0.003322 0.000000
# 3 -0.009136 -0.000729 0.009392 -0.000001 0.004747 0.000000
# 4 0.000001 0.000000 -0.000001 -0.477843 -0.000002 0.359505
# 5 -0.022139 -0.003322 0.004747 -0.000002 0.059602 0.000001
# 6 0.000000 0.000000 0.000000 0.359505 0.000001 -0.222787
#
#
# Mechanical properties :
#
#
# Convention : Reuss Voigt Hill
#
# Bulk Modulus (GPa) = 35.01882 55.58859 45.30370
# Shear Modulus (GPa) = -8.97021 25.86411 8.44695
#
# Velocity S-wave (km/s) = -2.12765 3.61283 2.06466
# Velocity P-wave (km/s) = 3.41126 6.74216 5.34291
#
# Compressibility (1/GPa) = 0.02855607
#
# Stress axis : x y z
#
# Youngs Moduli (GPa) = 33.17257 84.78102 106.47492
#
# Poissons Ratio (x) = 0.12915 0.97278
# Poissons Ratio (y) = 0.05053 0.07757
# Poissons Ratio (z) = 0.30307 0.06177
#
# Static dielectric constant tensor:
#      x y z
#    x 1.688850 0.000000 0.004550 
#    y 0.000000 1.733350 0.000000 
#    z 0.004550 0.000000 1.741580 
# 
# From -- ./inp_files/289962.got.cif
#   From: 2010.05.17/outbox.cif.g08.bks.cpg/sg12_145_cif.got.tgz:289962.got - 2010.06.03 13:09:07.
