data_PCOD9170317
_publ_section_title
;
Structure prediction by ZEFSAII (Michael W. Deem and Ramdas Pophale) SiO2 
 PCOD9170317
Probable space group: C 2/M
;
_chemical_formula_sum "Si O2"
_cell_formula_units_Z 58
_cell_length_a 25.538147
_cell_length_b 7.463988
_cell_length_c 13.363585
_cell_angle_alpha 90.000000
_cell_angle_beta 100.868091
_cell_angle_gamma 90.000000
_cell_volume 2501.629730
_symmetry_space_group_name_H-M "C 2/M"
_symmetry_group_IT_number 12
_symmetry_cell_setting 'monoclinic'
loop_
_space_group_symop_operation_xyz
x,y,z
-x,y,-z
-x,-y,-z
x,-y,z
1/2+x,1/2+y,z
1/2-x,1/2+y,-z
1/2-x,1/2-y,-z
1/2+x,1/2-y,z
loop_
_atom_site_type_symbol
_atom_site_label
_atom_site_fract_x
_atom_site_fract_y
_atom_site_fract_z
Si Si1 0.423541 0.718307 0.025123
Si Si2 0.904583 0.780948 0.632115
Si Si3 0.014639 0.782518 0.748884
Si Si4 0.697227 0.790945 0.736090
Si Si5 0.087453 0.216360 0.591580
Si Si6 0.283304 0.284986 0.613631
Si Si7 0.000000 0.500000 0.000000
Si Si8 0.689771 0.301917 0.957948
O O1 0.427774 0.500000 0.012660
O O2 0.451884 0.768925 0.141460
O O3 0.455751 0.839867 0.960992
O O4 0.362503 0.783137 0.012884
O O5 0.953269 0.724751 0.720154
O O6 0.920801 0.726974 0.525191
O O7 0.844207 0.719421 0.631288
O O8 0.902901 0.000000 0.633546
O O9 0.045899 0.721806 0.660450
O O10 0.014981 0.000000 0.748402
O O11 0.646475 0.771830 0.646252
O O12 0.748449 0.718938 0.695058
O O13 0.683528 0.701209 0.836083
O O14 0.705937 0.000000 0.762371
O O15 0.085391 0.000000 0.591313
O O16 0.285545 0.500000 0.623897
O O17 0.250000 0.250000 0.500000
O O18 0.685980 0.500000 0.997401
O O19 0.750000 0.250000 0.000000
#
# Coordination Sequence:
#
# PCOD9170317 Si02
#       8
#     8   8   8   8   8   8   2   8
#     4  10  23  44  70 100 132 171 219 275 336 412
#     4   9  17  30  53  84 118 160 206 253 303 367
#     4   9  17  33  58  88 120 155 205 261 310 369
#     4  11  22  35  57  88 123 163 208 258 319 382
#     4  10  17  30  57  86 115 155 206 250 300 365
#     4  10  20  34  53  80 117 161 206 250 306 370
#     4  12  26  44  76  94 134 172 222 262 360 412
#     4  11  24  44  70  98 128 164 217 278 339 402
#
# _framework density 23.184885000000001
#
# number of rings (size 3 to 8) (size 9 to 14) (size 15 to 20)
#    0.000    1.931    2.759    1.448    1.931    2.207 
#    2.483    0.000    3.034    0.828    0.000    0.000 
#    0.000    0.000    0.000    0.000    0.000    0.276 
#
# Total GULP energy -161697.046773 kJ/mol
# GULP energy per Si atom -5575.760234 kJ/mol
# Density = 2.313212 g / cm^3
# Si number density = 23.184885 Si / 1000 Ang^3
#
#
#
# Elastic Constant Matrix: (Units=GPa)
#
#
# Indices 1 2 3 4 5 6 
#
# 1 168.6709 22.3133 23.5169 0.0000 6.6724 0.0000
# 2 22.3133 81.4756 2.7942 0.0000 1.7002 0.0000
# 3 23.5169 2.7942 34.4505 0.0000 10.5986 0.0000
# 4 0.0000 0.0000 0.0000 3.8837 0.0000 7.7177
# 5 6.6724 1.7002 10.5986 0.0000 37.4687 0.0000
# 6 0.0000 0.0000 0.0000 7.7177 0.0000 14.4937
#
#
#
# Elastic Compliance Matrix: (Units=1/GPa)
#
#
# Indices 1 2 3 4 5 6 
#
# 1 0.006781 -0.001705 -0.004538 0.000000 0.000153 0.000000
# 2 -0.001705 0.012740 0.000235 0.000000 -0.000341 0.000000
# 3 -0.004538 0.000235 0.034897 0.000000 -0.009074 0.000000
# 4 0.000000 0.000000 0.000000 -4.426270 0.000000 2.356935
# 5 0.000153 -0.000341 -0.009074 0.000000 0.029244 0.000000
# 6 0.000000 0.000000 0.000000 2.356935 0.000000 -1.186044
#
#
# Mechanical properties :
#
#
# Convention : Reuss Voigt Hill
#
# Bulk Modulus (GPa) = 23.58303 42.42730 33.00517
# Shear Modulus (GPa) = -0.90868 26.90074 12.99603
#
# Velocity S-wave (km/s) = -0.62672 3.40997 2.37014
# Velocity P-wave (km/s) = 3.10968 5.81749 4.66440
#
# Compressibility (1/GPa) = 0.04240337
#
# Stress axis : x y z
#
# Youngs Moduli (GPa) = 147.47516 78.49602 28.65563
#
# Poissons Ratio (x) = 0.13380 0.13003
# Poissons Ratio (y) = 0.25139 -0.00674
# Poissons Ratio (z) = 0.66920 -0.01847
#
# Static dielectric constant tensor:
#      x y z
#    x 1.964790 0.000000 -0.019920 
#    y 0.000000 1.868680 0.000000 
#    z -0.019920 0.000000 1.882840 
# 
# From -- ./inp_files/237730.got.cif
#   From: 2010.05.17/outbox.cif.g08.bks.cpg/sg12_119_cif.got.tgz:237730.got - 2010.06.03 13:09:07.
