data_PCOD9170291
_publ_section_title
;
Structure prediction by ZEFSAII (Michael W. Deem and Ramdas Pophale) SiO2 
 PCOD9170291
Probable space group: C 2/M
;
_chemical_formula_sum "Si O2"
_cell_formula_units_Z 60
_cell_length_a 27.265399
_cell_length_b 13.304965
_cell_length_c 12.562154
_cell_angle_alpha 90.000000
_cell_angle_beta 54.298934
_cell_angle_gamma 90.000000
_cell_volume 3700.706149
_symmetry_space_group_name_H-M "C 2/M"
_symmetry_group_IT_number 12
_symmetry_cell_setting 'monoclinic'
loop_
_space_group_symop_operation_xyz
x,y,z
-x,y,-z
-x,-y,-z
x,-y,z
1/2+x,1/2+y,z
1/2-x,1/2+y,-z
1/2-x,1/2-y,-z
1/2+x,1/2-y,z
loop_
_atom_site_type_symbol
_atom_site_label
_atom_site_fract_x
_atom_site_fract_y
_atom_site_fract_z
Si Si1 0.123868 0.881596 0.782531
Si Si2 0.443383 0.887799 0.650375
Si Si3 0.645125 0.617341 0.108511
Si Si4 0.026315 0.755180 0.202748
Si Si5 0.500000 0.727130 0.000000
Si Si6 0.907437 0.119881 0.416140
Si Si7 0.344137 0.734932 0.689187
Si Si8 0.732459 0.618726 0.797714
O O1 0.061271 0.835245 0.902611
O O2 0.127422 0.864965 0.651608
O O3 0.182864 0.849589 0.772395
O O4 0.118724 0.000000 0.808219
O O5 0.500000 0.890589 0.500000
O O6 0.464574 0.840636 0.734393
O O7 0.394910 0.813910 0.661057
O O8 0.418915 0.000000 0.694543
O O9 0.629077 0.500000 0.142639
O O10 0.586976 0.677781 0.137508
O O11 0.665571 0.665359 0.194527
O O12 0.697959 0.623650 0.954435
O O13 0.971201 0.822958 0.317970
O O14 0.012156 0.723129 0.099420
O O15 0.870761 0.168219 0.559628
O O16 0.916787 0.000000 0.419303
O O17 0.287012 0.802660 0.729430
O O18 0.749466 0.500000 0.758876
#
# Coordination Sequence:
#
# PCOD9170291 Si02
#       8
#     8   8   8   8   4   8   8   8
#     4   9  18  31  51  78 107 137 170 211 256 311
#     4  10  20  36  53  73 101 137 180 220 250 296
#     4  10  20  33  52  78 108 136 169 213 264 315
#     4  10  19  33  54  84 106 135 166 213 267 315
#     4  10  17  30  55  80 108 132 168 206 264 312
#     4  10  20  33  51  80 111 136 168 211 266 318
#     4  11  21  34  52  75 105 143 176 213 260 308
#     4  10  20  35  52  76 102 137 180 217 252 305
#
# _framework density 16.213121999999998
#
# number of rings (size 3 to 8) (size 9 to 14) (size 15 to 20)
#    0.000    2.000    2.667    1.800    0.000    1.600 
#    0.000    2.333    0.000    0.800    0.000    0.933 
#    0.000    0.000    0.000    0.000    0.000    0.000 
#
# Total GULP energy -167194.231788 kJ/mol
# GULP energy per Si atom -5573.141060 kJ/mol
# Density = 1.617622 g / cm^3
# Si number density = 16.213122 Si / 1000 Ang^3
#
#
#
# Elastic Constant Matrix: (Units=GPa)
#
#
# Indices 1 2 3 4 5 6 
#
# 1 73.5503 9.6225 26.0039 0.0000 12.8518 0.0000
# 2 9.6225 58.1412 23.9729 0.0000 12.4443 0.0000
# 3 26.0039 23.9729 62.4372 0.0000 12.6536 0.0000
# 4 0.0000 0.0000 0.0000 20.7364 0.0000 3.1190
# 5 12.8518 12.4443 12.6536 0.0000 23.2110 0.0000
# 6 0.0000 0.0000 0.0000 3.1190 0.0000 22.6288
#
#
#
# Elastic Compliance Matrix: (Units=1/GPa)
#
#
# Indices 1 2 3 4 5 6 
#
# 1 0.016744 0.001142 -0.006081 0.000000 -0.006568 0.000000
# 2 0.001142 0.021747 -0.007121 0.000000 -0.008409 0.000000
# 3 -0.006081 -0.007121 0.022289 0.000000 -0.004966 0.000000
# 4 0.000000 0.000000 0.000000 0.049245 0.000000 -0.006788
# 5 -0.006568 -0.008409 -0.004966 0.000000 0.053936 0.000000
# 6 0.000000 0.000000 0.000000 -0.006788 0.000000 0.045127
#
#
# Mechanical properties :
#
#
# Convention : Reuss Voigt Hill
#
# Bulk Modulus (GPa) = 27.27753 34.81415 31.04584
# Shear Modulus (GPa) = 20.37250 22.28386 21.32818
#
# Velocity S-wave (km/s) = 3.54862 3.71136 3.63090
# Velocity P-wave (km/s) = 5.80096 6.31546 6.06367
#
# Compressibility (1/GPa) = 0.03666021
#
# Stress axis : x y z
#
# Youngs Moduli (GPa) = 59.72138 45.98431 44.86460
#
# Poissons Ratio (x) = -0.05251 0.27282
# Poissons Ratio (y) = -0.06820 0.31948
# Poissons Ratio (z) = 0.36317 0.32745
#
# Static dielectric constant tensor:
#      x y z
#    x 1.548620 0.000000 0.015980 
#    y 0.000000 1.521680 0.000000 
#    z 0.015980 0.000000 1.537150 
# 
# From -- ./inp_files/176464.got.cif
#   From: 2010.05.17/outbox.cif.g08.bks.cpg/sg12_89_cif.got.tgz:176464.got - 2010.06.03 13:09:07.
