data_PCOD9170775
_publ_section_title
;
Structure prediction by ZEFSAII (Michael W. Deem and Ramdas Pophale) SiO2 
 PCOD9170775
Probable space group: C 2/M
;
_chemical_formula_sum "Si O2"
_cell_formula_units_Z 64
_cell_length_a 30.970093
_cell_length_b 22.344080
_cell_length_c 15.971170
_cell_angle_alpha 90.000000
_cell_angle_beta 161.694141
_cell_angle_gamma 90.000000
_cell_volume 3471.324353
_symmetry_space_group_name_H-M "C 2/M"
_symmetry_group_IT_number 12
_symmetry_cell_setting 'monoclinic'
loop_
_space_group_symop_operation_xyz
x,y,z
-x,y,-z
-x,-y,-z
x,-y,z
1/2+x,1/2+y,z
1/2-x,1/2+y,-z
1/2-x,1/2-y,-z
1/2+x,1/2-y,z
loop_
_atom_site_type_symbol
_atom_site_label
_atom_site_fract_x
_atom_site_fract_y
_atom_site_fract_z
Si Si1 0.330319 0.186209 0.564571
Si Si2 0.593102 0.345041 0.909702
Si Si3 0.654658 0.432117 0.515070
Si Si4 0.116666 0.736868 0.085597
Si Si5 0.190020 0.358083 0.076705
Si Si6 0.065016 0.216865 0.529433
Si Si7 0.609312 0.157335 0.518073
Si Si8 0.664093 0.930893 0.317939
O O1 0.216999 0.237856 0.341802
O O2 0.364303 0.167440 0.531619
O O3 0.294224 0.125492 0.547402
O O4 0.473473 0.214007 0.857883
O O5 0.593164 0.291175 0.977192
O O6 0.747616 0.370864 0.187142
O O7 0.478395 0.390552 0.730146
O O8 0.540596 0.317775 0.725785
O O9 0.608922 0.500000 0.431606
O O10 0.740637 0.416333 0.756607
O O11 0.753053 0.424010 0.615990
O O12 0.175712 0.684769 0.133560
O O13 0.295693 0.322302 0.212538
O O14 0.043992 0.369444 0.764130
O O15 0.098257 0.279437 0.545490
O O16 0.000000 0.226054 0.500000
O O17 0.689229 0.000000 0.395103
O O18 0.500000 0.926473 0.000000
#
# Coordination Sequence:
#
# PCOD9170775 Si02
#       8
#     8   8   8   8   8   8   8   8
#     4  10  18  33  57  77 108 147 182 229 281 328
#     4  10  19  36  56  80 118 150 187 227 285 336
#     4  10  22  40  60  78 106 153 200 239 280 331
#     4  10  17  34  56  79 110 151 178 224 276 351
#     4  10  18  35  56  80 117 152 190 224 280 339
#     4  11  19  31  56  89 123 153 180 218 275 345
#     4  10  18  33  52  81 115 152 180 228 277 343
#     4  10  21  38  57  81 108 142 197 248 281 323
#
# _framework density 18.436767
#
# number of rings (size 3 to 8) (size 9 to 14) (size 15 to 20)
#    0.000    1.875    5.000    2.250    0.000    2.000 
#    0.000   12.500    0.000   12.000    0.000    1.750 
#    0.000   11.500    0.000    0.000    0.000    0.000 
#
# Total GULP energy -178433.499352 kJ/mol
# GULP energy per Si atom -5576.046855 kJ/mol
# Density = 1.839480 g / cm^3
# Si number density = 18.436767 Si / 1000 Ang^3
#
#
#
# Elastic Constant Matrix: (Units=GPa)
#
#
# Indices 1 2 3 4 5 6 
#
# 1 47.7938 17.5438 7.7709 0.0000 0.2939 0.0000
# 2 17.5438 54.9391 8.2212 0.0000 -2.4005 0.0000
# 3 7.7709 8.2212 104.4461 0.0000 16.5716 0.0000
# 4 0.0000 0.0000 0.0000 38.6767 0.0000 10.8747
# 5 0.2939 -2.4005 16.5716 0.0000 11.6561 0.0000
# 6 0.0000 0.0000 0.0000 10.8747 0.0000 10.2156
#
#
#
# Elastic Compliance Matrix: (Units=1/GPa)
#
#
# Indices 1 2 3 4 5 6 
#
# 1 0.023849 -0.007478 -0.001092 0.000000 -0.000588 0.000000
# 2 -0.007478 0.021294 -0.002383 0.000000 0.007962 0.000000
# 3 -0.001092 -0.002383 0.012805 0.000000 -0.018668 0.000000
# 4 0.000000 0.000000 0.000000 0.036900 0.000000 -0.039281
# 5 -0.000588 0.007962 -0.018668 0.000000 0.113988 0.000000
# 6 0.000000 0.000000 0.000000 -0.039281 0.000000 0.139706
#
#
# Mechanical properties :
#
#
# Convention : Reuss Voigt Hill
#
# Bulk Modulus (GPa) = 27.74550 30.47229 29.10890
# Shear Modulus (GPa) = 13.07313 23.68588 18.37951
#
# Velocity S-wave (km/s) = 2.66574 3.58817 3.16079
# Velocity P-wave (km/s) = 4.95546 5.80780 5.39848
#
# Compressibility (1/GPa) = 0.03604188
#
# Stress axis : x y z
#
# Youngs Moduli (GPa) = 41.92971 46.96061 78.09367
#
# Poissons Ratio (x) = 0.35118 0.08531
# Poissons Ratio (y) = 0.31355 0.18610
# Poissons Ratio (z) = 0.04581 0.11191
#
# Static dielectric constant tensor:
#      x y z
#    x 1.619940 0.000000 0.009430 
#    y 0.000000 1.636530 0.000000 
#    z 0.009430 0.000000 1.703650 
# 
# From -- ./inp_files/251961.got.cif
#   From: 2010.05.17/outbox.cif.g08.bks.cpg/sg12_126_cif.got.tgz:251961.got - 2010.06.03 13:09:07.
