data_PCOD9170954
_publ_section_title
;
Structure prediction by ZEFSAII (Michael W. Deem and Ramdas Pophale) SiO2 
 PCOD9170954
Probable space group: C 2/M
;
_chemical_formula_sum "Si O2"
_cell_formula_units_Z 44
_cell_length_a 19.876331
_cell_length_b 14.569669
_cell_length_c 9.819621
_cell_angle_alpha 90.000000
_cell_angle_beta 143.513533
_cell_angle_gamma 90.000000
_cell_volume 1690.945336
_symmetry_space_group_name_H-M "C 2/M"
_symmetry_group_IT_number 12
_symmetry_cell_setting 'monoclinic'
loop_
_space_group_symop_operation_xyz
x,y,z
-x,y,-z
-x,-y,-z
x,-y,z
1/2+x,1/2+y,z
1/2-x,1/2+y,-z
1/2-x,1/2-y,-z
1/2+x,1/2-y,z
loop_
_atom_site_type_symbol
_atom_site_label
_atom_site_fract_x
_atom_site_fract_y
_atom_site_fract_z
Si Si1 0.245807 0.500000 0.854439
Si Si2 0.931714 0.895636 0.766259
Si Si3 0.395428 0.321708 0.139962
Si Si4 0.794569 0.500000 0.884878
Si Si5 0.562159 0.000000 0.304159
Si Si6 0.796574 0.661797 0.495917
Si Si7 0.791306 0.804861 0.261354
O O1 0.216055 0.500000 0.966996
O O2 0.140182 0.500000 0.574271
O O3 0.322597 0.408842 0.966155
O O4 0.810397 0.900387 0.640033
O O5 0.978445 0.841477 0.709901
O O6 0.967710 0.000000 0.803196
O O7 0.000000 0.847810 0.000000
O O8 0.371659 0.317269 0.261725
O O9 0.335910 0.228722 0.991543
O O10 0.928242 0.500000 0.085891
O O11 0.733383 0.408568 0.725986
O O12 0.601088 0.095713 0.300635
O O13 0.750000 0.750000 0.500000
O O14 0.823604 0.714098 0.399432
#
# Coordination Sequence:
#
# PCOD9170954 Si02
#       7
#     4   8   8   4   4   8   8
#     4  10  17  39  66 102 127 166 221 285 330 388
#     4  11  20  37  67  98 122 163 220 278 321 388
#     4  10  19  36  71  96 127 165 223 278 332 389
#     4  10  25  39  66  96 137 176 216 270 341 403
#     4  12  23  44  62 100 133 174 217 284 330 397
#     4  12  27  43  65  94 136 176 222 275 339 397
#     4  10  22  43  63  95 130 176 219 269 331 405
#
# _framework density 26.020949000000002
#
# number of rings (size 3 to 8) (size 9 to 14) (size 15 to 20)
#    0.000    1.273    5.455    0.273    2.545    0.727 
#    0.000    1.818    0.000    1.091    0.000    0.000 
#    0.000    0.000    0.000    0.000    0.000    0.000 
#
# Total GULP energy -122639.556250 kJ/mol
# GULP energy per Si atom -5574.525284 kJ/mol
# Density = 2.596172 g / cm^3
# Si number density = 26.020949 Si / 1000 Ang^3
#
#
#
# Elastic Constant Matrix: (Units=GPa)
#
#
# Indices 1 2 3 4 5 6 
#
# 1 158.8301 58.2637 27.5208 0.0000 19.1522 0.0000
# 2 58.2637 191.7388 31.2842 0.0000 15.3778 0.0000
# 3 27.5208 31.2842 50.6170 0.0000 26.5129 0.0000
# 4 0.0000 0.0000 0.0000 30.6272 0.0000 4.4232
# 5 19.1522 15.3778 26.5129 0.0000 57.3736 0.0000
# 6 0.0000 0.0000 0.0000 4.4232 0.0000 44.4243
#
#
#
# Elastic Compliance Matrix: (Units=1/GPa)
#
#
# Indices 1 2 3 4 5 6 
#
# 1 0.007495 -0.001798 -0.002514 0.000000 -0.000858 0.000000
# 2 -0.001798 0.006233 -0.003053 0.000000 0.000340 0.000000
# 3 -0.002514 -0.003053 0.029213 0.000000 -0.011842 0.000000
# 4 0.000000 0.000000 0.000000 0.033127 0.000000 -0.003298
# 5 -0.000858 0.000340 -0.011842 0.000000 0.023097 0.000000
# 6 0.000000 0.000000 0.000000 -0.003298 0.000000 0.022839
#
#
# Mechanical properties :
#
#
# Convention : Reuss Voigt Hill
#
# Bulk Modulus (GPa) = 35.44850 70.59149 53.02000
# Shear Modulus (GPa) = 34.21460 45.42615 39.82038
#
# Velocity S-wave (km/s) = 3.63007 4.18275 3.91617
# Velocity P-wave (km/s) = 5.58771 7.10738 6.39286
#
# Compressibility (1/GPa) = 0.02820994
#
# Stress axis : x y z
#
# Youngs Moduli (GPa) = 133.42509 160.44425 34.23181
#
# Poissons Ratio (x) = 0.28855 0.08606
# Poissons Ratio (y) = 0.23996 0.10450
# Poissons Ratio (z) = 0.33543 0.48978
#
# Static dielectric constant tensor:
#      x y z
#    x 1.874490 0.000000 -0.081230 
#    y 0.000000 1.792450 0.000000 
#    z -0.081230 0.000000 2.207080 
# 
# From -- ./inp_files/167445.got.cif
#   From: 2010.05.17/outbox.cif.g08.bks.cpg/sg12_84_cif.got.tgz:167445.got - 2010.06.03 13:09:07.
