data_PCOD9170376
_publ_section_title
;
Structure prediction by ZEFSAII (Michael W. Deem and Ramdas Pophale) SiO2 
 PCOD9170376
Probable space group: C 2/M
;
_chemical_formula_sum "Si O2"
_cell_formula_units_Z 56
_cell_length_a 19.783164
_cell_length_b 8.494519
_cell_length_c 18.376551
_cell_angle_alpha 90.000000
_cell_angle_beta 82.493042
_cell_angle_gamma 90.000000
_cell_volume 3061.682607
_symmetry_space_group_name_H-M "C 2/M"
_symmetry_group_IT_number 12
_symmetry_cell_setting 'monoclinic'
loop_
_space_group_symop_operation_xyz
x,y,z
-x,y,-z
-x,-y,-z
x,-y,z
1/2+x,1/2+y,z
1/2-x,1/2+y,-z
1/2-x,1/2-y,-z
1/2+x,1/2-y,z
loop_
_atom_site_type_symbol
_atom_site_label
_atom_site_fract_x
_atom_site_fract_y
_atom_site_fract_z
Si Si1 0.530890 0.184579 0.599227
Si Si2 0.766780 0.686806 0.917960
Si Si3 0.958323 0.187526 0.242000
Si Si4 0.195935 0.809019 0.316154
Si Si5 0.679381 0.811433 0.795876
Si Si6 0.110080 0.189849 0.185825
Si Si7 0.104105 0.812967 0.456174
O O1 0.548009 0.230602 0.678732
O O2 0.590726 0.228321 0.534354
O O3 0.464161 0.279471 0.581685
O O4 0.515821 0.000000 0.595553
O O5 0.758827 0.500000 0.916781
O O6 0.717195 0.763703 0.864683
O O7 0.842927 0.733559 0.882032
O O8 0.750000 0.750000 0.000000
O O9 0.893939 0.234681 0.203024
O O10 0.030972 0.233883 0.197209
O O11 0.960141 0.000000 0.252978
O O12 0.269960 0.759245 0.277040
O O13 0.143017 0.764968 0.259327
O O14 0.167020 0.755619 0.397728
O O15 0.196068 0.000000 0.318553
O O16 0.673493 0.000000 0.793715
O O17 0.115880 0.000000 0.178878
O O18 0.109597 0.000000 0.467333
#
# Coordination Sequence:
#
# PCOD9170376 Si02
#       7
#     8   8   8   8   8   8   8
#     4  11  21  31  46  76 111 144 182 236 288 327
#     4  11  22  39  63  90 116 146 182 220 266 323
#     4  11  21  37  57  81 112 150 189 227 277 336
#     4   8  15  31  54  77 103 141 184 228 276 326
#     4  10  21  38  58  84 116 147 180 227 279 328
#     4   9  18  35  58  83 111 144 184 229 273 323
#     4  10  17  31  52  75 102 143 191 234 281 334
#
# _framework density 18.290596000000001
#
# number of rings (size 3 to 8) (size 9 to 14) (size 15 to 20)
#    0.000    2.000    1.429    5.571    0.000    1.143 
#    0.000    3.571    0.000    4.286    0.000    0.000 
#    0.000    0.000    0.000    0.000    0.000    0.000 
#
# Total GULP energy -156288.376533 kJ/mol
# GULP energy per Si atom -5581.727733 kJ/mol
# Density = 1.824897 g / cm^3
# Si number density = 18.290596 Si / 1000 Ang^3
#
#
#
# Elastic Constant Matrix: (Units=GPa)
#
#
# Indices 1 2 3 4 5 6 
#
# 1 101.5087 10.1840 33.7172 0.0000 -17.2860 0.0000
# 2 10.1840 38.7007 9.0290 0.0000 -7.6279 0.0000
# 3 33.7172 9.0290 102.4905 0.0000 -24.9435 0.0000
# 4 0.0000 0.0000 0.0000 23.9279 0.0000 -1.4221
# 5 -17.2860 -7.6279 -24.9435 0.0000 21.6921 0.0000
# 6 0.0000 0.0000 0.0000 -1.4221 0.0000 19.3664
#
#
#
# Elastic Compliance Matrix: (Units=1/GPa)
#
#
# Indices 1 2 3 4 5 6 
#
# 1 0.011809 -0.001330 -0.002210 0.000000 0.006402 0.000000
# 2 -0.001330 0.027914 0.000152 0.000000 0.008931 0.000000
# 3 -0.002210 0.000152 0.013962 0.000000 0.014348 0.000000
# 4 0.000000 0.000000 0.000000 0.041975 0.000000 0.003082
# 5 0.006402 0.008931 0.014348 0.000000 0.070840 0.000000
# 6 0.000000 0.000000 0.000000 0.003082 0.000000 0.051862
#
#
# Mechanical properties :
#
#
# Convention : Reuss Voigt Hill
#
# Bulk Modulus (GPa) = 21.31756 38.72890 30.02323
# Shear Modulus (GPa) = 20.76624 25.64860 23.20742
#
# Velocity S-wave (km/s) = 3.37315 3.74877 3.56591
# Velocity P-wave (km/s) = 5.18180 6.32122 5.77966
#
# Compressibility (1/GPa) = 0.04690969
#
# Stress axis : x y z
#
# Youngs Moduli (GPa) = 84.68154 35.82413 71.62065
#
# Poissons Ratio (x) = 0.04765 0.15826
# Poissons Ratio (y) = 0.11264 -0.01088
# Poissons Ratio (z) = 0.18712 -0.00544
#
# Static dielectric constant tensor:
#      x y z
#    x 1.627010 0.000000 -0.025350 
#    y 0.000000 1.624070 0.000000 
#    z -0.025350 0.000000 1.620470 
# 
# From -- ./inp_files/280167.got.cif
#   From: 2010.05.17/outbox.cif.g08.bks.cpg/sg12_141_cif.got.tgz:280167.got - 2010.06.03 13:09:07.
