data_PCOD9170572
_publ_section_title
;
Structure prediction by ZEFSAII (Michael W. Deem and Ramdas Pophale) SiO2 
 PCOD9170572
Probable space group: C 2/M
;
_chemical_formula_sum "Si O2"
_cell_formula_units_Z 48
_cell_length_a 18.406508
_cell_length_b 20.232956
_cell_length_c 9.193755
_cell_angle_alpha 90.000000
_cell_angle_beta 46.534601
_cell_angle_gamma 90.000000
_cell_volume 2485.047015
_symmetry_space_group_name_H-M "C 2/M"
_symmetry_group_IT_number 12
_symmetry_cell_setting 'monoclinic'
loop_
_space_group_symop_operation_xyz
x,y,z
-x,y,-z
-x,-y,-z
x,-y,z
1/2+x,1/2+y,z
1/2-x,1/2+y,-z
1/2-x,1/2-y,-z
1/2+x,1/2-y,z
loop_
_atom_site_type_symbol
_atom_site_label
_atom_site_fract_x
_atom_site_fract_y
_atom_site_fract_z
Si Si1 0.867805 0.743780 0.807045
Si Si2 0.966239 0.115803 0.695183
Si Si3 0.034405 0.686854 0.794103
Si Si4 0.899451 0.618534 0.566130
Si Si5 0.686384 0.572296 0.847388
Si Si6 0.903792 0.826111 0.239940
O O1 0.911287 0.816432 0.721481
O O2 0.884130 0.692282 0.654325
O O3 0.935766 0.715024 0.845493
O O4 0.750000 0.750000 0.000000
O O5 0.000000 0.081207 0.500000
O O6 0.061190 0.136332 0.663394
O O7 0.888635 0.082040 0.913537
O O8 0.080719 0.630137 0.631010
O O9 0.110899 0.748992 0.704794
O O10 0.000000 0.665104 0.000000
O O11 0.800898 0.578136 0.737762
O O12 0.000000 0.591306 0.500000
O O13 0.665540 0.500000 0.811433
O O14 0.672329 0.630998 0.749594
O O15 0.000000 0.824516 0.000000
#
# Coordination Sequence:
#
# PCOD9170572 Si02
#       6
#     8   8   8   8   8   8
#     4  10  17  32  56  83 115 144 173 223 285 337
#     4  10  19  35  57  84 111 139 178 232 281 328
#     4   9  18  33  53  84 113 135 178 226 282 335
#     4  10  21  37  57  82 113 147 181 227 279 325
#     4  11  23  38  55  78 109 155 196 217 262 328
#     4   8  17  33  53  78 110 139 173 221 275 333
#
# _framework density 19.315529999999999
#
# number of rings (size 3 to 8) (size 9 to 14) (size 15 to 20)
#    0.000    2.333    1.667    3.500    0.000    4.333 
#    3.000    0.000    0.000    0.500    0.000    0.000 
#    0.000    0.000    0.000    0.000    0.000    0.000 
#
# Total GULP energy -133811.966070 kJ/mol
# GULP energy per Si atom -5575.498586 kJ/mol
# Density = 1.927157 g / cm^3
# Si number density = 19.315530 Si / 1000 Ang^3
#
#
#
# Elastic Constant Matrix: (Units=GPa)
#
#
# Indices 1 2 3 4 5 6 
#
# 1 52.1716 7.4144 37.5649 0.0000 1.1707 0.0000
# 2 7.4144 41.0393 4.7110 0.0000 3.7186 0.0000
# 3 37.5649 4.7110 91.4670 0.0000 13.5418 0.0000
# 4 0.0000 0.0000 0.0000 -19.2304 0.0000 30.4958
# 5 1.1707 3.7186 13.5418 0.0000 41.2446 0.0000
# 6 0.0000 0.0000 0.0000 30.4958 0.0000 -30.9057
#
#
#
# Elastic Compliance Matrix: (Units=1/GPa)
#
#
# Indices 1 2 3 4 5 6 
#
# 1 0.028234 -0.004049 -0.011901 0.000000 0.003471 0.000000
# 2 -0.004049 0.025233 0.000718 0.000000 -0.002396 0.000000
# 3 -0.011901 0.000718 0.016547 0.000000 -0.005160 0.000000
# 4 0.000000 0.000000 0.000000 0.092072 0.000000 0.090851
# 5 0.003471 -0.002396 -0.005160 0.000000 0.026057 0.000000
# 6 0.000000 0.000000 0.000000 0.090851 0.000000 0.057290
#
#
# Mechanical properties :
#
#
# Convention : Reuss Voigt Hill
#
# Bulk Modulus (GPa) = 25.28416 31.56205 28.42311
# Shear Modulus (GPa) = 17.29612 7.22088 12.25850
#
# Velocity S-wave (km/s) = 2.99566 1.93559 2.52195
# Velocity P-wave (km/s) = 5.00837 4.62288 4.81948
#
# Compressibility (1/GPa) = 0.03955045
#
# Stress axis : x y z
#
# Youngs Moduli (GPa) = 35.41824 39.63042 60.43219
#
# Poissons Ratio (x) = 0.16048 0.71920
# Poissons Ratio (y) = 0.14342 -0.04340
# Poissons Ratio (z) = 0.42151 -0.02846
#
# Static dielectric constant tensor:
#      x y z
#    x 1.704870 0.000000 0.006370 
#    y 0.000000 1.680470 0.000000 
#    z 0.006370 0.000000 1.696760 
# 
# From -- ./inp_files/77255.got.cif
#   From: 2010.05.17/outbox.cif.g08.bks.cpg/sg12_39_cif.got.tgz:77255.got - 2010.06.03 13:09:07.
