data_PCOD9170683
_publ_section_title
;
Structure prediction by ZEFSAII (Michael W. Deem and Ramdas Pophale) SiO2 
 PCOD9170683
Probable space group: C 2/M
;
_chemical_formula_sum "Si O2"
_cell_formula_units_Z 56
_cell_length_a 23.131613
_cell_length_b 18.210879
_cell_length_c 11.214663
_cell_angle_alpha 90.000000
_cell_angle_beta 39.849523
_cell_angle_gamma 90.000000
_cell_volume 3027.105861
_symmetry_space_group_name_H-M "C 2/M"
_symmetry_group_IT_number 12
_symmetry_cell_setting 'monoclinic'
loop_
_space_group_symop_operation_xyz
x,y,z
-x,y,-z
-x,-y,-z
x,-y,z
1/2+x,1/2+y,z
1/2-x,1/2+y,-z
1/2-x,1/2-y,-z
1/2+x,1/2-y,z
loop_
_atom_site_type_symbol
_atom_site_label
_atom_site_fract_x
_atom_site_fract_y
_atom_site_fract_z
Si Si1 0.637661 0.857901 0.847864
Si Si2 0.449325 0.916227 0.237676
Si Si3 0.634304 0.746963 0.043824
Si Si4 0.819757 0.918204 0.658691
Si Si5 0.091719 0.622355 0.430338
Si Si6 0.257390 0.131367 0.973212
Si Si7 0.949680 0.215822 0.456305
O O1 0.608810 0.863921 0.756507
O O2 0.727837 0.902610 0.732524
O O3 0.553432 0.893782 0.053048
O O4 0.648348 0.777096 0.888295
O O5 0.422474 0.910203 0.417191
O O6 0.436430 0.000000 0.217337
O O7 0.678800 0.810208 0.056780
O O8 0.528797 0.737417 0.239760
O O9 0.686052 0.674478 0.004104
O O10 0.888452 0.852755 0.519914
O O11 0.854025 0.000000 0.580914
O O12 0.793157 0.910630 0.840959
O O13 0.173643 0.590945 0.223580
O O14 0.106660 0.710245 0.426951
O O15 0.000000 0.615209 0.500000
O O16 0.000000 0.196737 0.500000
#
# Coordination Sequence:
#
# PCOD9170683 Si02
#       7
#     8   8   8   8   8   8   8
#     4  10  20  37  56  75 108 147 187 223 271 334
#     4  11  22  35  55  79 111 147 183 227 278 335
#     4  10  17  33  56  77 103 144 184 230 270 320
#     4  11  22  34  54  82 114 151 187 228 282 334
#     4  11  19  33  55  81 110 141 177 228 282 332
#     4  10  18  31  53  79 107 142 184 226 272 323
#     4  11  18  34  54  81 111 142 184 234 277 324
#
# _framework density 18.499517000000001
#
# number of rings (size 3 to 8) (size 9 to 14) (size 15 to 20)
#    0.000    1.429    5.714    4.286    0.000    1.143 
#    0.000    2.857    0.000    0.000    0.000    0.000 
#    0.000    4.571    0.000    0.000    0.000    0.000 
#
# Total GULP energy -156281.168227 kJ/mol
# GULP energy per Si atom -5581.470294 kJ/mol
# Density = 1.845741 g / cm^3
# Si number density = 18.499517 Si / 1000 Ang^3
#
#
#
# Elastic Constant Matrix: (Units=GPa)
#
#
# Indices 1 2 3 4 5 6 
#
# 1 76.3657 28.1532 8.9482 0.0000 6.3815 0.0000
# 2 28.1532 66.1765 8.5139 0.0000 -9.7619 0.0000
# 3 8.9482 8.5139 46.4748 0.0000 6.2119 0.0000
# 4 0.0000 0.0000 0.0000 12.9094 0.0000 1.9059
# 5 6.3815 -9.7619 6.2119 0.0000 25.0052 0.0000
# 6 0.0000 0.0000 0.0000 1.9059 0.0000 8.8157
#
#
#
# Elastic Compliance Matrix: (Units=1/GPa)
#
#
# Indices 1 2 3 4 5 6 
#
# 1 0.016782 -0.008110 -0.000776 0.000000 -0.007256 0.000000
# 2 -0.008110 0.020669 -0.003703 0.000000 0.011059 0.000000
# 3 -0.000776 -0.003703 0.023285 0.000000 -0.007032 0.000000
# 4 0.000000 0.000000 0.000000 0.080017 0.000000 -0.017299
# 5 -0.007256 0.011059 -0.007032 0.000000 0.047908 0.000000
# 6 0.000000 0.000000 0.000000 -0.017299 0.000000 0.117174
#
#
# Mechanical properties :
#
#
# Convention : Reuss Voigt Hill
#
# Bulk Modulus (GPa) = 28.12286 31.13862 29.63074
# Shear Modulus (GPa) = 14.58299 18.90617 16.74458
#
# Velocity S-wave (km/s) = 2.81070 3.20031 3.01181
# Velocity P-wave (km/s) = 5.07625 5.52491 5.30533
#
# Compressibility (1/GPa) = 0.03555826
#
# Stress axis : x y z
#
# Youngs Moduli (GPa) = 59.58748 48.38131 42.94666
#
# Poissons Ratio (x) = 0.39238 0.03331
# Poissons Ratio (y) = 0.48326 0.15904
# Poissons Ratio (z) = 0.04621 0.17916
#
# Static dielectric constant tensor:
#      x y z
#    x 1.633500 0.000000 0.004770 
#    y 0.000000 1.658590 0.000000 
#    z 0.004770 0.000000 1.671580 
# 
# From -- ./inp_files/177067.got.cif
#   From: 2010.05.17/outbox.cif.g08.bks.cpg/sg12_89_cif.got.tgz:177067.got - 2010.06.03 13:09:07.
