data_PCOD9170635
_publ_section_title
;
Structure prediction by ZEFSAII (Michael W. Deem and Ramdas Pophale) SiO2 
 PCOD9170635
Probable space group: C 2/M
;
_chemical_formula_sum "Si O2"
_cell_formula_units_Z 64
_cell_length_a 17.549573
_cell_length_b 22.456121
_cell_length_c 18.313845
_cell_angle_alpha 90.000000
_cell_angle_beta 149.459423
_cell_angle_gamma 90.000000
_cell_volume 3667.511020
_symmetry_space_group_name_H-M "C 2/M"
_symmetry_group_IT_number 12
_symmetry_cell_setting 'monoclinic'
loop_
_space_group_symop_operation_xyz
x,y,z
-x,y,-z
-x,-y,-z
x,-y,z
1/2+x,1/2+y,z
1/2-x,1/2+y,-z
1/2-x,1/2-y,-z
1/2+x,1/2-y,z
loop_
_atom_site_type_symbol
_atom_site_label
_atom_site_fract_x
_atom_site_fract_y
_atom_site_fract_z
Si Si1 0.967654 0.431201 0.892219
Si Si2 0.362121 0.781297 0.431506
Si Si3 0.238073 0.178844 0.475367
Si Si4 0.858054 0.932668 0.330568
Si Si5 0.542122 0.750947 0.115391
Si Si6 0.498847 0.850171 0.792121
Si Si7 0.259871 0.781628 0.086589
Si Si8 0.457253 0.683502 0.328667
O O1 0.008900 0.500000 0.928138
O O2 0.788521 0.424399 0.740558
O O3 0.039625 0.402676 0.880614
O O4 0.000000 0.406680 0.000000
O O5 0.500000 0.807392 0.500000
O O6 0.302986 0.823475 0.447689
O O7 0.214402 0.768906 0.261695
O O8 0.433364 0.719579 0.524370
O O9 0.250000 0.250000 0.500000
O O10 0.345436 0.144816 0.620180
O O11 0.065969 0.165077 0.351227
O O12 0.879669 0.875361 0.296702
O O13 0.000000 0.933092 0.500000
O O14 0.844698 0.000000 0.286113
O O15 0.527532 0.797700 0.169870
O O16 0.500000 0.773417 0.000000
O O17 0.406765 0.704911 0.022222
O O18 0.625074 0.834280 0.836834
O O19 0.339704 0.732921 0.204336
O O20 0.250000 0.750000 0.000000
#
# Coordination Sequence:
#
# PCOD9170635 Si02
#       8
#     8   8   8   8   8   8   8   8
#     4  10  23  39  54  78 110 146 187 222 255 307
#     4  11  21  33  50  71 100 140 176 212 265 333
#     4  10  17  33  49  70  99 134 180 224 263 325
#     4  10  22  36  50  74 104 140 187 226 255 298
#     4  11  22  31  46  75 106 137 174 215 262 322
#     4  11  19  34  53  73 103 142 181 221 267 315
#     4  10  21  32  47  75 103 133 174 223 270 321
#     4  11  19  34  53  71 100 143 177 220 273 319
#
# _framework density 17.450527000000001
#
# number of rings (size 3 to 8) (size 9 to 14) (size 15 to 20)
#    0.000    1.500    5.000    3.000    7.000    0.000 
#    0.000    0.000    0.000    0.000    0.000    0.000 
#    0.000    2.500    0.000    0.000    0.000   10.500 
#
# Total GULP energy -178221.424433 kJ/mol
# GULP energy per Si atom -5569.419514 kJ/mol
# Density = 1.741081 g / cm^3
# Si number density = 17.450527 Si / 1000 Ang^3
#
#
#
# Elastic Constant Matrix: (Units=GPa)
#
#
# Indices 1 2 3 4 5 6 
#
# 1 102.4174 29.1937 26.8153 -0.0005 5.5974 -0.0007
# 2 29.1937 58.6311 11.6366 0.0000 -5.6251 0.0001
# 3 26.8153 11.6366 101.6166 -0.0019 2.9256 -0.0015
# 4 -0.0005 0.0000 -0.0019 10.1658 -0.0012 -6.8572
# 5 5.5974 -5.6251 2.9256 -0.0012 29.9598 -0.0001
# 6 -0.0007 0.0001 -0.0015 -6.8572 -0.0001 38.1193
#
#
#
# Elastic Compliance Matrix: (Units=1/GPa)
#
#
# Indices 1 2 3 4 5 6 
#
# 1 0.012272 -0.005924 -0.002469 0.000000 -0.003164 0.000000
# 2 -0.005924 0.020682 -0.000951 0.000000 0.005083 0.000000
# 3 -0.002469 -0.000951 0.010623 0.000002 -0.000755 0.000001
# 4 0.000000 0.000000 0.000002 0.111954 0.000004 0.020139
# 5 -0.003164 0.005083 -0.000755 0.000004 0.034997 0.000001
# 6 0.000000 0.000000 0.000001 0.020139 0.000001 0.029856
#
#
# Mechanical properties :
#
#
# Convention : Reuss Voigt Hill
#
# Bulk Modulus (GPa) = 40.17960 44.21734 42.19847
# Shear Modulus (GPa) = 20.21271 28.65028 24.43149
#
# Velocity S-wave (km/s) = 3.40705 4.05631 3.74577
# Velocity P-wave (km/s) = 6.20904 6.87982 6.55302
#
# Compressibility (1/GPa) = 0.02488825
#
# Stress axis : x y z
#
# Youngs Moduli (GPa) = 81.48688 48.35130 94.13436
#
# Poissons Ratio (x) = 0.28643 0.23241
# Poissons Ratio (y) = 0.48273 0.08956
# Poissons Ratio (z) = 0.20118 0.04600
#
# Static dielectric constant tensor:
#      x y z
#    x 1.668500 0.000000 -0.001070 
#    y 0.000000 1.611820 0.000000 
#    z -0.001070 0.000000 1.637950 
# 
# From -- ./inp_files/279385.got.cif
#   From: 2010.05.17/outbox.cif.g08.bks.cpg/sg12_140_cif.got.tgz:279385.got - 2010.06.03 13:09:07.
