data_PCOD9170000
_publ_section_title
;
Structure prediction by ZEFSAII (Michael W. Deem and Ramdas Pophale) SiO2 
 PCOD9170000
Probable space group: C 2/M
;
_chemical_formula_sum "Si O2"
_cell_formula_units_Z 48
_cell_length_a 16.519266
_cell_length_b 15.253644
_cell_length_c 9.772677
_cell_angle_alpha 90.000000
_cell_angle_beta 67.830566
_cell_angle_gamma 90.000000
_cell_volume 2280.461065
_symmetry_space_group_name_H-M "C 2/M"
_symmetry_group_IT_number 12
_symmetry_cell_setting 'monoclinic'
loop_
_space_group_symop_operation_xyz
x,y,z
-x,y,-z
-x,-y,-z
x,-y,z
1/2+x,1/2+y,z
1/2-x,1/2+y,-z
1/2-x,1/2-y,-z
1/2+x,1/2-y,z
loop_
_atom_site_type_symbol
_atom_site_label
_atom_site_fract_x
_atom_site_fract_y
_atom_site_fract_z
Si Si1 0.267700 0.842903 0.420004
Si Si2 0.191329 0.601482 0.882520
Si Si3 0.473279 0.720970 0.856357
Si Si4 0.627155 0.402936 0.703368
Si Si5 0.454672 0.900037 0.224370
Si Si6 0.185618 0.896108 0.969413
O O1 0.250000 0.750000 0.500000
O O2 0.258969 0.840071 0.261193
O O3 0.195678 0.902331 0.537261
O O4 0.366885 0.879697 0.371180
O O5 0.214487 0.500000 0.838559
O O6 0.091195 0.607391 0.897747
O O7 0.222048 0.620156 0.015176
O O8 0.550263 0.666540 0.734057
O O9 0.479253 0.820153 0.798958
O O10 0.383795 0.667080 0.912192
O O11 0.500000 0.719805 0.000000
O O12 0.588653 0.500000 0.746117
O O13 0.678101 0.380677 0.812250
O O14 0.484818 0.000000 0.225299
O O15 0.164415 0.000000 0.002390
#
# Coordination Sequence:
#
# PCOD9170000 Si02
#       6
#     8   8   8   8   8   8
#     4  10  17  31  52  77 101 132 173 216 253 297
#     4   8  16  32  52  77 105 130 165 215 263 298
#     4  10  19  31  47  76 106 137 173 204 250 309
#     4  10  17  29  50  74 103 135 167 206 256 312
#     4   9  18  33  53  74  99 134 176 215 246 293
#     4   9  18  32  52  80 110 132 158 210 270 311
#
# _framework density 21.048376000000001
#
# number of rings (size 3 to 8) (size 9 to 14) (size 15 to 20)
#    1.000    1.667    1.667    1.500    0.000    2.333 
#    0.000    8.333    0.000    3.000    0.000    9.333 
#    0.000    0.000    0.000    0.000    0.000    0.000 
#
# Total GULP energy -133644.515659 kJ/mol
# GULP energy per Si atom -5568.521486 kJ/mol
# Density = 2.100047 g / cm^3
# Si number density = 21.048376 Si / 1000 Ang^3
#
#
#
# Elastic Constant Matrix: (Units=GPa)
#
#
# Indices 1 2 3 4 5 6 
#
# 1 46.6132 29.4819 8.3952 0.0000 -5.7978 0.0000
# 2 29.4819 128.5627 19.3339 0.0000 -13.9012 0.0000
# 3 8.3952 19.3339 42.1899 0.0000 -18.2929 0.0000
# 4 0.0000 0.0000 0.0000 28.6575 0.0000 -10.0712
# 5 -5.7978 -13.9012 -18.2929 0.0000 25.6960 0.0000
# 6 0.0000 0.0000 0.0000 -10.0712 0.0000 20.2766
#
#
#
# Elastic Compliance Matrix: (Units=1/GPa)
#
#
# Indices 1 2 3 4 5 6 
#
# 1 0.025382 -0.005370 -0.001976 0.000000 0.001415 0.000000
# 2 -0.005370 0.009612 -0.002324 0.000000 0.002333 0.000000
# 3 -0.001976 -0.002324 0.035326 0.000000 0.023445 0.000000
# 4 0.000000 0.000000 0.000000 0.042274 0.000000 0.020997
# 5 0.001415 0.002333 0.023445 0.000000 0.057189 0.000000
# 6 0.000000 0.000000 0.000000 0.020997 0.000000 0.059747
#
#
# Mechanical properties :
#
#
# Convention : Reuss Voigt Hill
#
# Bulk Modulus (GPa) = 19.61629 36.86531 28.24080
# Shear Modulus (GPa) = 18.80664 25.60300 22.20482
#
# Velocity S-wave (km/s) = 2.99238 3.49146 3.25151
# Velocity P-wave (km/s) = 4.61292 5.81432 5.24811
#
# Compressibility (1/GPa) = 0.05097804
#
# Stress axis : x y z
#
# Youngs Moduli (GPa) = 39.39849 104.04022 28.30754
#
# Poissons Ratio (x) = 0.55873 0.05594
# Poissons Ratio (y) = 0.21158 0.06579
# Poissons Ratio (z) = 0.07786 0.24182
#
# Static dielectric constant tensor:
#      x y z
#    x 1.754120 0.000000 -0.017870 
#    y 0.000000 1.825730 0.000000 
#    z -0.017870 0.000000 1.770980 
# 
# From -- ./inp_files/166163.got.cif
#   From: 2010.05.17/outbox.cif.g08.bks.cpg/sg12_84_cif.got.tgz:166163.got - 2010.06.03 13:09:07.
