data_PCOD9170682
_publ_section_title
;
Structure prediction by ZEFSAII (Michael W. Deem and Ramdas Pophale) SiO2 
 PCOD9170682
Probable space group: C 2/M
;
_chemical_formula_sum "Si O2"
_cell_formula_units_Z 40
_cell_length_a 16.483930
_cell_length_b 8.152740
_cell_length_c 16.427836
_cell_angle_alpha 90.000000
_cell_angle_beta 122.023049
_cell_angle_gamma 90.000000
_cell_volume 1871.785063
_symmetry_space_group_name_H-M "C 2/M"
_symmetry_group_IT_number 12
_symmetry_cell_setting 'monoclinic'
loop_
_space_group_symop_operation_xyz
x,y,z
-x,y,-z
-x,-y,-z
x,-y,z
1/2+x,1/2+y,z
1/2-x,1/2+y,-z
1/2-x,1/2-y,-z
1/2+x,1/2-y,z
loop_
_atom_site_type_symbol
_atom_site_label
_atom_site_fract_x
_atom_site_fract_y
_atom_site_fract_z
Si Si1 0.397588 0.317780 0.990227
Si Si2 0.602891 0.000000 0.305057
Si Si3 0.714160 0.687310 0.802105
Si Si4 0.114038 0.500000 0.555369
Si Si5 0.398946 0.000000 0.263725
Si Si6 0.712618 0.675334 0.604782
Si Si7 0.471329 0.000000 0.080970
O O1 0.372763 0.500000 0.008165
O O2 0.316903 0.255749 0.884936
O O3 0.500000 0.332815 0.000000
O O4 0.412159 0.167439 0.059825
O O5 0.512956 0.000000 0.316222
O O6 0.674759 0.153527 0.354037
O O7 0.558936 0.000000 0.190424
O O8 0.700439 0.500000 0.824851
O O9 0.707995 0.677393 0.700722
O O10 0.640662 0.828110 0.791223
O O11 0.139264 0.500000 0.664517
O O12 0.160182 0.335222 0.544349
O O13 0.000000 0.500000 0.500000
O O14 0.668845 0.500000 0.554175
O O15 0.500000 0.000000 0.000000
#
# Coordination Sequence:
#
# PCOD9170682 Si02
#       7
#     8   4   8   4   4   8   4
#     4  10  18  26  46  77 101 134 188 240 274 300
#     4  10  20  40  55  80 115 146 184 234 271 313
#     4  10  17  33  56  76 104 149 192 227 272 333
#     4  10  20  38  64  89 111 141 177 216 269 338
#     4  10  22  38  55  81 116 143 177 232 281 326
#     4   8  18  34  57  83 108 143 186 216 258 329
#     4  10  18  32  50  74 102 140 191 232 263 309
#
# _framework density 21.369976000000001
#
# number of rings (size 3 to 8) (size 9 to 14) (size 15 to 20)
#    0.600    1.800    2.000    2.400    0.000    0.400 
#    3.600    2.000    0.000    0.000    0.000    0.000 
#    0.000    0.000    0.000    0.000    0.000    0.000 
#
# Total GULP energy -111360.887916 kJ/mol
# GULP energy per Si atom -5568.044396 kJ/mol
# Density = 2.132134 g / cm^3
# Si number density = 21.369976 Si / 1000 Ang^3
#
#
#
# Elastic Constant Matrix: (Units=GPa)
#
#
# Indices 1 2 3 4 5 6 
#
# 1 41.7010 27.8029 -10.2815 0.0000 -8.8817 0.0000
# 2 27.8029 253.3830 56.3183 0.0000 30.9551 0.0000
# 3 -10.2815 56.3183 46.6272 0.0000 9.4642 0.0000
# 4 0.0000 0.0000 0.0000 33.6479 0.0000 32.1191
# 5 -8.8817 30.9551 9.4642 0.0000 37.4277 0.0000
# 6 0.0000 0.0000 0.0000 32.1191 0.0000 11.4529
#
#
#
# Elastic Compliance Matrix: (Units=1/GPa)
#
#
# Indices 1 2 3 4 5 6 
#
# 1 0.036944 -0.009300 0.016906 0.000000 0.012183 0.000000
# 2 -0.009300 0.008068 -0.010533 0.000000 -0.006216 0.000000
# 3 0.016906 -0.010533 0.037225 0.000000 0.003311 0.000000
# 4 0.000000 0.000000 0.000000 -0.017721 0.000000 0.049699
# 5 0.012183 -0.006216 0.003311 0.000000 0.033913 0.000000
# 6 0.000000 0.000000 0.000000 0.049699 0.000000 -0.052065
#
#
# Mechanical properties :
#
#
# Convention : Reuss Voigt Hill
#
# Bulk Modulus (GPa) = 13.09207 54.37673 33.73440
# Shear Modulus (GPa) = 64.36790 34.36378 49.36584
#
# Velocity S-wave (km/s) = 5.49419 4.01439 4.81152
# Velocity P-wave (km/s) = 6.81086 6.85476 6.83284
#
# Compressibility (1/GPa) = 0.07638211
#
# Stress axis : x y z
#
# Youngs Moduli (GPa) = 27.06826 123.95293 26.86351
#
# Poissons Ratio (x) = 1.15273 -0.45415
# Poissons Ratio (y) = 0.25173 0.28296
# Poissons Ratio (z) = -0.45761 1.30564
#
# Static dielectric constant tensor:
#      x y z
#    x 1.825500 0.000000 -0.026350 
#    y 0.000000 1.857630 0.000000 
#    z -0.026350 0.000000 1.762830 
# 
# From -- ./inp_files/342088.got.cif
#   From: 2010.05.17/outbox.cif.g08.bks.cpg/sg12_172_cif.got.tgz:342088.got - 2010.06.03 13:09:07.
