data_PCOD9170741
_publ_section_title
;
Structure prediction by ZEFSAII (Michael W. Deem and Ramdas Pophale) SiO2 
 PCOD9170741
Probable space group: C 2/M
;
_chemical_formula_sum "Si O2"
_cell_formula_units_Z 60
_cell_length_a 11.070593
_cell_length_b 25.907609
_cell_length_c 12.254355
_cell_angle_alpha 90.000000
_cell_angle_beta 49.590006
_cell_angle_gamma 90.000000
_cell_volume 2676.183866
_symmetry_space_group_name_H-M "C 2/M"
_symmetry_group_IT_number 12
_symmetry_cell_setting 'monoclinic'
loop_
_space_group_symop_operation_xyz
x,y,z
-x,y,-z
-x,-y,-z
x,-y,z
1/2+x,1/2+y,z
1/2-x,1/2+y,-z
1/2-x,1/2-y,-z
1/2+x,1/2-y,z
loop_
_atom_site_type_symbol
_atom_site_label
_atom_site_fract_x
_atom_site_fract_y
_atom_site_fract_z
Si Si1 0.843858 0.057314 0.808337
Si Si2 0.500000 0.912369 0.000000
Si Si3 0.641589 0.593033 0.841625
Si Si4 0.370893 0.771489 0.803697
Si Si5 0.184752 0.058234 0.569317
Si Si6 0.704286 0.131377 0.052217
Si Si7 0.604410 0.848678 0.541597
Si Si8 0.146043 0.792314 0.751498
O O1 0.999431 0.065346 0.644074
O O2 0.866276 0.000000 0.844106
O O3 0.662107 0.058206 0.873919
O O4 0.836176 0.104140 0.898539
O O5 0.453547 0.878631 0.923336
O O6 0.676083 0.565116 0.707643
O O7 0.787376 0.598694 0.841012
O O8 0.609955 0.653583 0.833110
O O9 0.500000 0.571619 0.000000
O O10 0.277504 0.807926 0.943097
O O11 0.488781 0.814520 0.681675
O O12 0.245208 0.757622 0.781470
O O13 0.492308 0.732568 0.787886
O O14 0.300539 0.103491 0.462984
O O15 0.233982 0.000000 0.513157
O O16 0.500000 0.868243 0.500000
O O17 0.733548 0.809624 0.414304
#
# Coordination Sequence:
#
# PCOD9170741 Si02
#       8
#     8   4   8   8   8   8   8   8
#     4   9  17  32  54  78 107 146 184 218 262 329
#     4   8  17  34  52  74 106 148 186 214 267 334
#     4  10  17  34  50  79 116 145 174 226 282 321
#     4  10  19  39  56  84 109 145 190 237 280 339
#     4  10  20  33  56  87 114 144 186 227 276 336
#     4   9  19  32  54  78 112 143 183 230 275 326
#     4   9  19  37  60  76 112 146 181 236 284 331
#     4   9  20  35  58  79 108 143 189 231 281 332
#
# _framework density 22.419986000000002
#
# number of rings (size 3 to 8) (size 9 to 14) (size 15 to 20)
#    0.800    1.867    1.333    1.400    0.000    1.067 
#    8.400    2.000    0.000    0.000    0.000    1.867 
#    0.000    0.000    0.000    0.000    0.000    0.000 
#
# Total GULP energy -167043.874094 kJ/mol
# GULP energy per Si atom -5568.129136 kJ/mol
# Density = 2.236896 g / cm^3
# Si number density = 22.419986 Si / 1000 Ang^3
#
#
#
# Elastic Constant Matrix: (Units=GPa)
#
#
# Indices 1 2 3 4 5 6 
#
# 1 119.2008 30.8261 12.5308 0.0000 -17.6856 0.0000
# 2 30.8261 57.8896 10.5135 0.0000 -12.8563 0.0000
# 3 12.5308 10.5135 62.1020 0.0000 -19.8384 0.0000
# 4 0.0000 0.0000 0.0000 19.8197 0.0000 -11.5858
# 5 -17.6856 -12.8563 -19.8384 0.0000 25.3837 0.0000
# 6 0.0000 0.0000 0.0000 -11.5858 0.0000 26.9051
#
#
#
# Elastic Compliance Matrix: (Units=1/GPa)
#
#
# Indices 1 2 3 4 5 6 
#
# 1 0.010254 -0.004368 0.000328 0.000000 0.005188 0.000000
# 2 -0.004368 0.021326 -0.000334 0.000000 0.007497 0.000000
# 3 0.000328 -0.000334 0.021473 0.000000 0.016841 0.000000
# 4 0.000000 0.000000 0.000000 0.067428 0.000000 0.029036
# 5 0.005188 0.007497 0.016841 0.000000 0.059969 0.000000
# 6 0.000000 0.000000 0.000000 0.029036 0.000000 0.049671
#
#
# Mechanical properties :
#
#
# Convention : Reuss Voigt Hill
#
# Bulk Modulus (GPa) = 22.57101 38.54815 30.55958
# Shear Modulus (GPa) = 19.71325 26.77650 23.24487
#
# Velocity S-wave (km/s) = 2.96847 3.45963 3.22342
# Velocity P-wave (km/s) = 4.67315 5.76105 5.24538
#
# Compressibility (1/GPa) = 0.04430461
#
# Stress axis : x y z
#
# Youngs Moduli (GPa) = 97.52283 46.89216 46.57048
#
# Poissons Ratio (x) = 0.20480 -0.01527
# Poissons Ratio (y) = 0.42593 0.01556
# Poissons Ratio (z) = -0.03197 0.01567
#
# Static dielectric constant tensor:
#      x y z
#    x 1.925700 0.000000 -0.016360 
#    y 0.000000 1.823970 0.000000 
#    z -0.016360 0.000000 1.921630 
# 
# From -- ./inp_files/208962.got.cif
#   From: 2010.05.17/outbox.cif.g08.bks.cpg/sg12_105_cif.got.tgz:208962.got - 2010.06.03 13:09:07.
