data_PCOD9170383
_publ_section_title
;
Structure prediction by ZEFSAII (Michael W. Deem and Ramdas Pophale) SiO2 
 PCOD9170383
Probable space group: C 2/M
;
_chemical_formula_sum "Si O2"
_cell_formula_units_Z 48
_cell_length_a 14.818969
_cell_length_b 18.184144
_cell_length_c 15.053803
_cell_angle_alpha 90.000000
_cell_angle_beta 149.446110
_cell_angle_gamma 90.000000
_cell_volume 2062.142483
_symmetry_space_group_name_H-M "C 2/M"
_symmetry_group_IT_number 12
_symmetry_cell_setting 'monoclinic'
loop_
_space_group_symop_operation_xyz
x,y,z
-x,y,-z
-x,-y,-z
x,-y,z
1/2+x,1/2+y,z
1/2-x,1/2+y,-z
1/2-x,1/2-y,-z
1/2+x,1/2-y,z
loop_
_atom_site_type_symbol
_atom_site_label
_atom_site_fract_x
_atom_site_fract_y
_atom_site_fract_z
Si Si1 0.590075 0.798142 0.833092
Si Si2 0.347525 0.918486 0.253538
Si Si3 0.860845 0.365904 0.943124
Si Si4 0.797885 0.785269 0.355679
Si Si5 0.036715 0.853949 0.345079
Si Si6 0.744615 0.620427 0.353363
O O1 0.673128 0.856386 0.836532
O O2 0.475587 0.734976 0.687358
O O3 0.750000 0.750000 0.000000
O O4 0.539825 0.838980 0.882669
O O5 0.555880 0.906125 0.454762
O O6 0.225239 0.909031 0.236883
O O7 0.323938 0.000000 0.197612
O O8 0.804675 0.305004 0.821675
O O9 0.659429 0.387089 0.801491
O O10 0.000000 0.411619 0.000000
O O11 0.835486 0.849711 0.460235
O O12 0.726030 0.708297 0.329625
O O13 0.000000 0.766272 0.500000
O O14 0.121216 0.895985 0.333017
#
# Coordination Sequence:
#
# PCOD9170383 Si02
#       6
#     8   8   8   8   8   8
#     4  10  20  37  59  92 126 167 218 267 316 376
#     4  11  23  38  59  92 134 173 205 255 328 401
#     4  10  21  33  52  85 124 156 199 263 336 370
#     4  10  17  31  52  86 125 163 199 267 322 366
#     4  10  20  32  57  90 125 160 208 271 320 361
#     4  11  18  33  58  86 125 162 214 251 309 384
#
# _framework density 23.276762000000002
#
# number of rings (size 3 to 8) (size 9 to 14) (size 15 to 20)
#    0.000    1.667    3.333    4.500    2.333    0.000 
#    0.000    2.500    0.000   12.500    0.000    1.167 
#    0.000    0.000    0.000    0.000    0.000    0.000 
#
# Total GULP energy -133632.374507 kJ/mol
# GULP energy per Si atom -5568.015604 kJ/mol
# Density = 2.322378 g / cm^3
# Si number density = 23.276762 Si / 1000 Ang^3
#
#
#
# Elastic Constant Matrix: (Units=GPa)
#
#
# Indices 1 2 3 4 5 6 
#
# 1 201.9212 23.0651 18.3666 0.0004 4.1113 -0.0001
# 2 23.0651 66.2008 4.0223 0.0001 -7.2516 0.0000
# 3 18.3666 4.0223 86.3823 0.0006 -3.4715 -0.0001
# 4 0.0004 0.0001 0.0006 -55.2799 0.0005 26.9495
# 5 4.1113 -7.2516 -3.4715 0.0005 33.6006 -0.0001
# 6 -0.0001 0.0000 -0.0001 26.9495 -0.0001 -12.6321
#
#
#
# Elastic Compliance Matrix: (Units=1/GPa)
#
#
# Indices 1 2 3 4 5 6 
#
# 1 0.005293 -0.001906 -0.001084 0.000000 -0.001171 0.000000
# 2 -0.001906 0.016188 -0.000199 -0.000001 0.003706 -0.000002
# 3 -0.001084 -0.000199 0.011869 -0.000002 0.001316 -0.000005
# 4 0.000000 -0.000001 -0.000002 0.451553 -0.000004 0.963349
# 5 -0.001171 0.003706 0.001316 -0.000004 0.030840 -0.000009
# 6 0.000000 -0.000002 -0.000005 0.963349 -0.000009 1.976057
#
#
# Mechanical properties :
#
#
# Convention : Reuss Voigt Hill
#
# Bulk Modulus (GPa) = 37.07760 49.49026 43.28393
# Shear Modulus (GPa) = 1.99428 13.74108 7.86768
#
# Velocity S-wave (km/s) = 0.92662 2.43232 1.84049
# Velocity P-wave (km/s) = 4.13623 5.40334 4.81168
#
# Compressibility (1/GPa) = 0.02697046
#
# Stress axis : x y z
#
# Youngs Moduli (GPa) = 188.94299 61.77462 84.25307
#
# Poissons Ratio (x) = 0.11777 0.09130
# Poissons Ratio (y) = 0.36021 0.01681
# Poissons Ratio (z) = 0.20474 0.01232
#
# Static dielectric constant tensor:
#      x y z
#    x 2.080190 0.000000 -0.018810 
#    y 0.000000 1.817980 0.000000 
#    z -0.018810 0.000000 2.053300 
# 
# From -- ./inp_files/217458.got.cif
#   From: 2010.05.17/outbox.cif.g08.bks.cpg/sg12_109_cif.got.tgz:217458.got - 2010.06.03 13:09:07.
