data_PCOD9170040
_publ_section_title
;
Structure prediction by ZEFSAII (Michael W. Deem and Ramdas Pophale) SiO2 
 PCOD9170040
Probable space group: C 2/M
;
_chemical_formula_sum "Si O2"
_cell_formula_units_Z 44
_cell_length_a 15.852212
_cell_length_b 13.800091
_cell_length_c 9.663538
_cell_angle_alpha 90.000000
_cell_angle_beta 89.183063
_cell_angle_gamma 90.000000
_cell_volume 2113.799709
_symmetry_space_group_name_H-M "C 2/M"
_symmetry_group_IT_number 12
_symmetry_cell_setting 'monoclinic'
loop_
_space_group_symop_operation_xyz
x,y,z
-x,y,-z
-x,-y,-z
x,-y,z
1/2+x,1/2+y,z
1/2-x,1/2+y,-z
1/2-x,1/2-y,-z
1/2+x,1/2-y,z
loop_
_atom_site_type_symbol
_atom_site_label
_atom_site_fract_x
_atom_site_fract_y
_atom_site_fract_z
Si Si1 0.743202 0.176512 0.845927
Si Si2 0.435959 0.000000 0.378142
Si Si3 0.706490 0.388640 0.861478
Si Si4 0.065892 0.000000 0.375998
Si Si5 0.047219 0.351207 0.866767
Si Si6 0.748785 0.500000 0.366661
Si Si7 0.013085 0.864852 0.840617
O O1 0.754282 0.290481 0.806686
O O2 0.645491 0.167872 0.898457
O O3 0.752061 0.097464 0.726244
O O4 0.797199 0.138046 0.974383
O O5 0.500000 0.000000 0.500000
O O6 0.450853 0.088695 0.273386
O O7 0.339721 0.000000 0.435609
O O8 0.739419 0.500000 0.845082
O O9 0.611298 0.386790 0.805331
O O10 0.158536 0.000000 0.440249
O O11 0.000000 0.000000 0.500000
O O12 0.047096 0.911939 0.271097
O O13 0.002238 0.249782 0.840433
O O14 0.000000 0.395228 0.000000
O O15 0.000000 0.896601 0.000000
#
# Coordination Sequence:
#
# PCOD9170040 Si02
#       7
#     8   4   8   4   8   4   8
#     4   9  18  30  54  85 119 165 192 248 312 361
#     4  10  21  39  65  88 120 174 208 244 299 371
#     4  10  17  29  51  86 123 152 195 250 299 365
#     4  12  25  39  61  90 124 160 200 264 321 369
#     4   9  19  36  59  89 121 153 203 255 304 361
#     4  10  20  40  60  80 120 162 214 244 304 386
#     4  10  20  35  60  90 118 156 199 249 314 369
#
# _framework density 20.815594999999998
#
# number of rings (size 3 to 8) (size 9 to 14) (size 15 to 20)
#    0.000    2.182    1.818    1.636    0.000    2.182 
#    0.000    1.818    0.000   10.909    0.000    0.000 
#    0.000    0.000    0.000    0.000    0.000    0.000 
#
# Total GULP energy -122618.550996 kJ/mol
# GULP energy per Si atom -5573.570500 kJ/mol
# Density = 2.076822 g / cm^3
# Si number density = 20.815595 Si / 1000 Ang^3
#
#
#
# Elastic Constant Matrix: (Units=GPa)
#
#
# Indices 1 2 3 4 5 6 
#
# 1 114.6335 19.8658 46.6157 0.0000 7.7697 0.0000
# 2 19.8658 166.9094 15.4319 0.0000 0.4384 0.0000
# 3 46.6157 15.4319 58.9389 0.0000 6.2053 0.0000
# 4 0.0000 0.0000 0.0000 16.5986 0.0000 12.5366
# 5 7.7697 0.4384 6.2053 0.0000 36.7370 0.0000
# 6 0.0000 0.0000 0.0000 12.5366 0.0000 24.3996
#
#
#
# Elastic Compliance Matrix: (Units=1/GPa)
#
#
# Indices 1 2 3 4 5 6 
#
# 1 0.012959 -0.000617 -0.009977 0.000000 -0.001048 0.000000
# 2 -0.000617 0.006171 -0.001154 0.000000 0.000252 0.000000
# 3 -0.009977 -0.001154 0.025388 0.000000 -0.002164 0.000000
# 4 0.000000 0.000000 0.000000 0.098452 0.000000 -0.050585
# 5 -0.001048 0.000252 -0.002164 0.000000 0.027805 0.000000
# 6 0.000000 0.000000 0.000000 -0.050585 0.000000 0.066975
#
#
# Mechanical properties :
#
#
# Convention : Reuss Voigt Hill
#
# Bulk Modulus (GPa) = 47.57292 56.03430 51.80361
# Shear Modulus (GPa) = 18.63916 32.78494 25.71205
#
# Velocity S-wave (km/s) = 2.99564 3.97296 3.51840
# Velocity P-wave (km/s) = 5.90502 6.92991 6.43789
#
# Compressibility (1/GPa) = 0.02102036
#
# Stress axis : x y z
#
# Youngs Moduli (GPa) = 77.16813 162.05430 39.38869
#
# Poissons Ratio (x) = 0.10001 0.39299
# Poissons Ratio (y) = 0.04762 0.04546
# Poissons Ratio (z) = 0.76993 0.18703
#
# Static dielectric constant tensor:
#      x y z
#    x 1.789800 0.000000 -0.011810 
#    y 0.000000 1.817310 0.000000 
#    z -0.011810 0.000000 1.703810 
# 
# From -- ./inp_files/73171.got.cif
#   From: 2010.05.17/outbox.cif.g08.bks.cpg/sg12_37_cif.got.tgz:73171.got - 2010.06.03 13:09:07.
