data_PCOD9170217
_publ_section_title
;
Structure prediction by ZEFSAII (Michael W. Deem and Ramdas Pophale) SiO2 
 PCOD9170217
Probable space group: C 2/M
;
_chemical_formula_sum "Si O2"
_cell_formula_units_Z 52
_cell_length_a 10.536835
_cell_length_b 30.437172
_cell_length_c 8.305039
_cell_angle_alpha 90.000000
_cell_angle_beta 95.981164
_cell_angle_gamma 90.000000
_cell_volume 2649.021514
_symmetry_space_group_name_H-M "C 2/M"
_symmetry_group_IT_number 12
_symmetry_cell_setting 'monoclinic'
loop_
_space_group_symop_operation_xyz
x,y,z
-x,y,-z
-x,-y,-z
x,-y,z
1/2+x,1/2+y,z
1/2-x,1/2+y,-z
1/2-x,1/2-y,-z
1/2+x,1/2-y,z
loop_
_atom_site_type_symbol
_atom_site_label
_atom_site_fract_x
_atom_site_fract_y
_atom_site_fract_z
Si Si1 0.652627 0.950452 0.991259
Si Si2 0.171555 0.370099 0.763180
Si Si3 0.000000 0.425761 0.500000
Si Si4 0.251679 0.546918 0.363472
Si Si5 0.749018 0.278300 0.665055
Si Si6 0.353343 0.637320 0.502156
Si Si7 0.971220 0.717900 0.299251
O O1 0.695078 0.907091 0.900491
O O2 0.673090 0.000000 0.920711
O O3 0.500000 0.946848 0.000000
O O4 0.724489 0.949846 0.170676
O O5 0.297785 0.359834 0.675303
O O6 0.099964 0.324267 0.785231
O O7 0.072347 0.395128 0.634611
O O8 0.888254 0.451687 0.573294
O O9 0.312780 0.500000 0.408851
O O10 0.329053 0.588172 0.438150
O O11 0.750000 0.250000 0.500000
O O12 0.728179 0.328733 0.614669
O O13 0.625831 0.258314 0.735288
O O14 0.889544 0.273805 0.756291
O O15 0.500000 0.649694 0.500000
O O16 0.000000 0.711198 0.500000
#
# Coordination Sequence:
#
# PCOD9170217 Si02
#       7
#     8   8   4   8   8   8   8
#     4  10  21  36  56  83 114 152 188 227 290 356
#     4  11  19  32  55  83 115 144 191 235 283 337
#     4  10  17  30  54  84 112 134 176 236 287 328
#     4  10  21  36  55  81 114 145 184 232 286 346
#     4  10  18  30  53  82 119 147 184 234 287 346
#     4  11  22  36  56  85 113 148 193 242 288 330
#     4  10  17  30  51  85 116 149 185 237 287 336
#
# _framework density 19.629891000000001
#
# number of rings (size 3 to 8) (size 9 to 14) (size 15 to 20)
#    0.000    1.692    5.385    2.538    0.000    2.769 
#    0.000    0.769    0.000    2.769    0.000    0.000 
#    0.000    0.000    0.000    0.000    0.000    0.000 
#
# Total GULP energy -144945.388921 kJ/mol
# GULP energy per Si atom -5574.822651 kJ/mol
# Density = 1.958521 g / cm^3
# Si number density = 19.629891 Si / 1000 Ang^3
#
#
#
# Elastic Constant Matrix: (Units=GPa)
#
#
# Indices 1 2 3 4 5 6 
#
# 1 110.5778 29.3761 2.1852 0.0000 -3.8002 0.0000
# 2 29.3761 115.1762 16.6446 0.0000 -12.4774 0.0000
# 3 2.1852 16.6446 19.0603 0.0000 -3.2052 0.0000
# 4 0.0000 0.0000 0.0000 1.7834 0.0000 4.0911
# 5 -3.8002 -12.4774 -3.2052 0.0000 6.4090 0.0000
# 6 0.0000 0.0000 0.0000 4.0911 0.0000 1.1245
#
#
#
# Elastic Compliance Matrix: (Units=1/GPa)
#
#
# Indices 1 2 3 4 5 6 
#
# 1 0.009737 -0.002507 0.001336 0.000000 0.001560 0.000000
# 2 -0.002507 0.012454 -0.007382 0.000000 0.019068 0.000000
# 3 0.001336 -0.007382 0.061660 0.000000 0.017257 0.000000
# 4 0.000000 0.000000 0.000000 -0.076330 0.000000 0.277710
# 5 0.001560 0.019068 0.017257 0.000000 0.202708 0.000000
# 6 0.000000 0.000000 0.000000 0.277710 0.000000 -0.121059
#
#
# Mechanical properties :
#
#
# Convention : Reuss Voigt Hill
#
# Bulk Modulus (GPa) = 14.98263 37.91399 26.44831
# Shear Modulus (GPa) = 38.90278 14.97059 26.93669
#
# Velocity S-wave (km/s) = 4.45659 2.76459 3.70838
# Velocity P-wave (km/s) = 5.84215 5.43571 5.64259
#
# Compressibility (1/GPa) = 0.06674395
#
# Stress axis : x y z
#
# Youngs Moduli (GPa) = 102.70373 80.29304 16.21790
#
# Poissons Ratio (x) = 0.20133 -0.02166
# Poissons Ratio (y) = 0.25752 0.11972
# Poissons Ratio (z) = -0.13717 0.59272
#
# Static dielectric constant tensor:
#      x y z
#    x 1.701250 0.000000 -0.021910 
#    y 0.000000 1.724560 0.000000 
#    z -0.021910 0.000000 1.751910 
# 
# From -- ./inp_files/53802.got.cif
#   From: 2010.05.17/outbox.cif.g08.bks.cpg/sg12_27_cif.got.tgz:53802.got - 2010.06.03 13:09:07.
