data_PCOD9170114
_publ_section_title
;
Structure prediction by ZEFSAII (Michael W. Deem and Ramdas Pophale) SiO2 
 PCOD9170114
Probable space group: C 2/M
;
_chemical_formula_sum "Si O2"
_cell_formula_units_Z 64
_cell_length_a 13.876523
_cell_length_b 20.656136
_cell_length_c 14.791885
_cell_angle_alpha 90.000000
_cell_angle_beta 80.223222
_cell_angle_gamma 90.000000
_cell_volume 4178.300511
_symmetry_space_group_name_H-M "C 2/M"
_symmetry_group_IT_number 12
_symmetry_cell_setting 'monoclinic'
loop_
_space_group_symop_operation_xyz
x,y,z
-x,y,-z
-x,-y,-z
x,-y,z
1/2+x,1/2+y,z
1/2-x,1/2+y,-z
1/2-x,1/2-y,-z
1/2+x,1/2-y,z
loop_
_atom_site_type_symbol
_atom_site_label
_atom_site_fract_x
_atom_site_fract_y
_atom_site_fract_z
Si Si1 0.889202 0.725081 0.028519
Si Si2 0.522761 0.425847 0.102802
Si Si3 0.307845 0.329052 0.398728
Si Si4 0.591691 0.691494 0.294233
Si Si5 0.477239 0.425847 0.397198
Si Si6 0.307845 0.329052 0.898728
Si Si7 0.408309 0.308506 0.205767
Si Si8 0.110798 0.725081 0.471481
O O1 0.803772 0.672354 0.051409
O O2 0.886628 0.767220 0.120826
O O3 0.861336 0.773651 0.950875
O O4 0.000000 0.701343 0.000000
O O5 0.518014 0.500000 0.133613
O O6 0.629371 0.393856 0.098018
O O7 0.446825 0.378710 0.165962
O O8 0.500000 0.423142 0.000000
O O9 0.370629 0.393856 0.401983
O O10 0.320509 0.312956 0.290855
O O11 0.196228 0.327646 0.448591
O O12 0.361336 0.273651 0.450875
O O13 0.553175 0.621290 0.334038
O O14 0.679491 0.687044 0.209145
O O15 0.500000 0.718309 0.250000
O O16 0.613372 0.732780 0.379174
O O17 0.500000 0.423142 0.500000
O O18 0.481986 0.500000 0.366387
O O19 0.000000 0.701343 0.500000
#
# Coordination Sequence:
#
# PCOD9170114 Si02
#       8
#     8   8   8   8   8   8   8   8
#     4  11  18  32  45  69 100 124 159 191 235 279
#     4  10  18  32  51  72  99 124 155 199 240 280
#     4  10  20  29  49  68  96 128 155 196 232 284
#     4  10  17  30  46  70  97 125 153 192 238 283
#     4  10  18  32  51  72  99 124 155 199 240 280
#     4  10  20  29  49  68  96 128 155 196 232 284
#     4  10  17  30  46  70  97 125 153 192 238 283
#     4  11  18  32  45  69 100 124 159 191 235 279
#
# _framework density 15.317232000000001
#
# number of rings (size 3 to 8) (size 9 to 14) (size 15 to 20)
#    0.000    1.750    7.500    0.750    0.000    4.500 
#    0.000    0.000    0.000    0.750    0.000    0.000 
#    0.000    5.000    0.000    0.000    0.000    0.000 
#
# Total GULP energy -178262.548949 kJ/mol
# GULP energy per Si atom -5570.704655 kJ/mol
# Density = 1.528237 g / cm^3
# Si number density = 15.317232 Si / 1000 Ang^3
#
#
#
# Elastic Constant Matrix: (Units=GPa)
#
#
# Indices 1 2 3 4 5 6 
#
# 1 87.9135 21.3568 21.0595 0.0000 -23.5228 0.0000
# 2 21.3568 48.4421 22.0038 0.0000 0.6491 0.0000
# 3 21.0595 22.0038 98.4370 0.0000 -3.6752 0.0000
# 4 0.0000 0.0000 0.0000 4.1883 0.0000 -0.2167
# 5 -23.5228 0.6491 -3.6752 0.0000 18.5885 0.0000
# 6 0.0000 0.0000 0.0000 -0.2167 0.0000 19.5407
#
#
#
# Elastic Compliance Matrix: (Units=1/GPa)
#
#
# Indices 1 2 3 4 5 6 
#
# 1 0.021035 -0.008947 -0.001506 0.000000 0.026634 0.000000
# 2 -0.008947 0.026843 -0.004578 0.000000 -0.013164 0.000000
# 3 -0.001506 -0.004578 0.011524 0.000000 0.000533 0.000000
# 4 0.000000 0.000000 0.000000 0.238899 0.000000 0.002649
# 5 0.026634 -0.013164 0.000533 0.000000 0.088065 0.000000
# 6 0.000000 0.000000 0.000000 0.002649 0.000000 0.051205
#
#
# Mechanical properties :
#
#
# Convention : Reuss Voigt Hill
#
# Bulk Modulus (GPa) = 34.08105 40.40363 37.24234
# Shear Modulus (GPa) = 10.47311 19.82167 15.14739
#
# Velocity S-wave (km/s) = 2.61769 3.60123 3.14811
# Velocity P-wave (km/s) = 5.60668 6.61264 6.13033
#
# Compressibility (1/GPa) = 0.02934182
#
# Stress axis : x y z
#
# Youngs Moduli (GPa) = 47.53898 37.25329 86.77441
#
# Poissons Ratio (x) = 0.33329 0.13068
# Poissons Ratio (y) = 0.42532 0.39723
# Poissons Ratio (z) = 0.07159 0.17054
#
# Static dielectric constant tensor:
#      x y z
#    x 1.525620 0.000000 0.002390 
#    y 0.000000 1.489310 0.000000 
#    z 0.002390 0.000000 1.544560 
# 
# From -- ./inp_files/215912.got.cif
#   From: 2010.05.17/outbox.cif.g08.bks.cpg/sg12_108_cif.got.tgz:215912.got - 2010.06.03 13:09:07.
