data_PCOD9170602
_publ_section_title
;
Structure prediction by ZEFSAII (Michael W. Deem and Ramdas Pophale) SiO2 
 PCOD9170602
Probable space group: C 2/M
;
_chemical_formula_sum "Si O2"
_cell_formula_units_Z 44
_cell_length_a 18.282752
_cell_length_b 18.041572
_cell_length_c 7.955997
_cell_angle_alpha 90.000000
_cell_angle_beta 54.274623
_cell_angle_gamma 90.000000
_cell_volume 2130.457968
_symmetry_space_group_name_H-M "C 2/M"
_symmetry_group_IT_number 12
_symmetry_cell_setting 'monoclinic'
loop_
_space_group_symop_operation_xyz
x,y,z
-x,y,-z
-x,-y,-z
x,-y,z
1/2+x,1/2+y,z
1/2-x,1/2+y,-z
1/2-x,1/2-y,-z
1/2+x,1/2-y,z
loop_
_atom_site_type_symbol
_atom_site_label
_atom_site_fract_x
_atom_site_fract_y
_atom_site_fract_z
Si Si1 0.292863 0.147786 0.325886
Si Si2 0.189454 0.913381 0.765894
Si Si3 0.000000 0.831623 0.000000
Si Si4 0.292189 0.777840 0.770188
Si Si5 0.562754 0.918940 0.084166
Si Si6 0.952637 0.288239 0.344890
O O1 0.224306 0.100734 0.528939
O O2 0.250902 0.222078 0.308164
O O3 0.372686 0.174479 0.340877
O O4 0.338755 0.100969 0.116404
O O5 0.254945 0.860686 0.788357
O O6 0.193987 0.000000 0.801899
O O7 0.088828 0.880636 0.909310
O O8 0.986851 0.779054 0.181979
O O9 0.398940 0.769023 0.587643
O O10 0.250000 0.750000 0.000000
O O11 0.526383 0.853075 0.247178
O O12 0.558345 0.000000 0.168823
O O13 0.500000 0.920640 0.000000
#
# Coordination Sequence:
#
# PCOD9170602 Si02
#       6
#     8   8   4   8   8   8
#     4  10  17  35  57  82 110 147 194 237 276 336
#     4  11  22  36  60  88 114 148 196 250 289 326
#     4  12  17  36  59  84 114 142 202 250 283 322
#     4  11  22  38  59  81 118 159 192 223 286 362
#     4   9  16  27  51  86 112 133 172 236 295 323
#     4  10  17  32  59  82 109 145 194 245 272 339
#
# _framework density 20.652837999999999
#
# number of rings (size 3 to 8) (size 9 to 14) (size 15 to 20)
#    0.000    1.636    6.364    1.909    0.000    4.364 
#    0.000    5.455    0.000    2.182    0.000    0.000 
#    0.000    0.000    0.000    0.000    0.000    0.000 
#
# Total GULP energy -122826.165993 kJ/mol
# GULP energy per Si atom -5583.007545 kJ/mol
# Density = 2.060583 g / cm^3
# Si number density = 20.652838 Si / 1000 Ang^3
#
#
#
# Elastic Constant Matrix: (Units=GPa)
#
#
# Indices 1 2 3 4 5 6 
#
# 1 16.4049 22.4734 28.9829 0.0000 -4.8288 0.0000
# 2 22.4734 169.7186 74.8871 0.0000 -7.1018 0.0000
# 3 28.9829 74.8871 184.9435 0.0000 -19.2238 0.0000
# 4 0.0000 0.0000 0.0000 22.9945 0.0000 -1.8775
# 5 -4.8288 -7.1018 -19.2238 0.0000 33.9779 0.0000
# 6 0.0000 0.0000 0.0000 -1.8775 0.0000 15.2885
#
#
#
# Elastic Compliance Matrix: (Units=1/GPa)
#
#
# Indices 1 2 3 4 5 6 
#
# 1 0.091520 -0.007076 -0.010921 0.000000 0.005349 0.000000
# 2 -0.007076 0.007722 -0.002077 0.000000 -0.000567 0.000000
# 3 -0.010921 -0.002077 0.008237 0.000000 0.002674 0.000000
# 4 0.000000 0.000000 0.000000 0.043929 0.000000 0.005395
# 5 0.005349 -0.000567 0.002674 0.000000 0.031586 0.000000
# 6 0.000000 0.000000 0.000000 0.005395 0.000000 0.066071
#
#
# Mechanical properties :
#
#
# Convention : Reuss Voigt Hill
#
# Bulk Modulus (GPa) = 14.85192 69.30598 42.07895
# Shear Modulus (GPa) = 16.04334 30.76710 23.40522
#
# Velocity S-wave (km/s) = 2.79016 3.86389 3.37006
# Velocity P-wave (km/s) = 4.19366 7.31687 5.96336
#
# Compressibility (1/GPa) = 0.06733135
#
# Stress axis : x y z
#
# Youngs Moduli (GPa) = 10.92660 129.50542 121.39779
#
# Poissons Ratio (x) = 0.91638 1.32579
# Poissons Ratio (y) = 0.07732 0.25210
# Poissons Ratio (z) = 0.11933 0.26894
#
# Static dielectric constant tensor:
#      x y z
#    x 1.810020 0.000000 0.010960 
#    y 0.000000 1.712390 0.000000 
#    z 0.010960 0.000000 1.823140 
# 
# From -- ./inp_files/98003.got.cif
#   From: 2010.05.17/outbox.cif.g08.bks.cpg/sg12_50_cif.got.tgz:98003.got - 2010.06.03 13:09:07.
