data_PCOD9170427
_publ_section_title
;
Structure prediction by ZEFSAII (Michael W. Deem and Ramdas Pophale) SiO2 
 PCOD9170427
Probable space group: C 2/M
;
_chemical_formula_sum "Si O2"
_cell_formula_units_Z 64
_cell_length_a 22.357586
_cell_length_b 17.694109
_cell_length_c 11.912254
_cell_angle_alpha 90.000000
_cell_angle_beta 53.332452
_cell_angle_gamma 90.000000
_cell_volume 3779.929099
_symmetry_space_group_name_H-M "C 2/M"
_symmetry_group_IT_number 12
_symmetry_cell_setting 'monoclinic'
loop_
_space_group_symop_operation_xyz
x,y,z
-x,y,-z
-x,-y,-z
x,-y,z
1/2+x,1/2+y,z
1/2-x,1/2+y,-z
1/2-x,1/2-y,-z
1/2+x,1/2-y,z
loop_
_atom_site_type_symbol
_atom_site_label
_atom_site_fract_x
_atom_site_fract_y
_atom_site_fract_z
Si Si1 0.819250 0.207094 0.863633
Si Si2 0.227675 0.354586 0.624143
Si Si3 0.075607 0.286988 0.701190
Si Si4 0.729664 0.412869 0.664646
Si Si5 0.079815 0.166846 0.875158
Si Si6 0.717201 0.912450 0.884666
Si Si7 0.328995 0.777448 0.609581
Si Si8 0.089636 0.287576 0.060920
O O1 0.788181 0.123669 0.870632
O O2 0.836446 0.244212 0.724369
O O3 0.886447 0.226306 0.871593
O O4 0.750000 0.250000 0.000000
O O5 0.143403 0.333734 0.681504
O O6 0.264249 0.394172 0.475280
O O7 0.229024 0.402197 0.737254
O O8 0.272215 0.277650 0.604695
O O9 0.076569 0.203961 0.755782
O O10 0.096466 0.282471 0.547295
O O11 0.993496 0.316605 0.821432
O O12 0.744916 0.500000 0.666419
O O13 0.648923 0.388845 0.800824
O O14 0.789468 0.358425 0.656421
O O15 0.091997 0.239196 0.943570
O O16 0.000000 0.134004 0.000000
O O17 0.704980 0.000000 0.925397
O O18 0.647862 0.856593 0.990311
#
# Coordination Sequence:
#
# PCOD9170427 Si02
#       8
#     8   8   8   8   8   8   8   8
#     4   9  19  35  53  73  99 132 182 212 240 303
#     4  10  17  32  52  77 100 133 174 213 257 313
#     4  10  17  31  56  76 100 134 175 210 260 303
#     4  11  19  29  47  77 104 128 165 213 260 304
#     4  10  18  32  52  70 100 137 169 208 257 303
#     4  10  19  33  53  78 105 135 170 218 267 302
#     4  10  18  33  55  73 100 137 174 213 252 303
#     4  10  20  34  52  76 104 137 177 213 247 310
#
# _framework density 16.931533999999999
#
# number of rings (size 3 to 8) (size 9 to 14) (size 15 to 20)
#    0.000    2.000    3.750    2.625    0.000    0.750 
#    0.000    9.375    0.000    0.750    0.000    8.750 
#    0.000    0.000    0.000    0.000    0.000    0.000 
#
# Total GULP energy -178333.711398 kJ/mol
# GULP energy per Si atom -5572.928481 kJ/mol
# Density = 1.689300 g / cm^3
# Si number density = 16.931534 Si / 1000 Ang^3
#
#
#
# Elastic Constant Matrix: (Units=GPa)
#
#
# Indices 1 2 3 4 5 6 
#
# 1 40.3596 15.9431 29.0068 0.0000 -6.1545 0.0000
# 2 15.9431 86.1013 24.5505 0.0000 -13.7905 0.0000
# 3 29.0068 24.5505 86.7523 0.0000 -7.3203 0.0000
# 4 0.0000 0.0000 0.0000 11.8286 0.0000 0.5643
# 5 -6.1545 -13.7905 -7.3203 0.0000 24.1667 0.0000
# 6 0.0000 0.0000 0.0000 0.5643 0.0000 9.4193
#
#
#
# Elastic Compliance Matrix: (Units=1/GPa)
#
#
# Indices 1 2 3 4 5 6 
#
# 1 0.033779 -0.002713 -0.010192 0.000000 0.003967 0.000000
# 2 -0.002713 0.013856 -0.002468 0.000000 0.006468 0.000000
# 3 -0.010192 -0.002468 0.015697 0.000000 0.000751 0.000000
# 4 0.000000 0.000000 0.000000 0.084783 0.000000 -0.005079
# 5 0.003967 0.006468 0.000751 0.000000 0.046308 0.000000
# 6 0.000000 0.000000 0.000000 -0.005079 0.000000 0.106469
#
#
# Mechanical properties :
#
#
# Convention : Reuss Voigt Hill
#
# Bulk Modulus (GPa) = 30.68879 39.13490 34.91185
# Shear Modulus (GPa) = 14.59851 18.66378 16.63115
#
# Velocity S-wave (km/s) = 2.93952 3.32371 3.13750
# Velocity P-wave (km/s) = 5.44845 6.15574 5.81287
#
# Compressibility (1/GPa) = 0.03258519
#
# Stress axis : x y z
#
# Youngs Moduli (GPa) = 29.60420 72.16860 63.70753
#
# Poissons Ratio (x) = 0.19582 0.64930
# Poissons Ratio (y) = 0.08033 0.15725
# Poissons Ratio (z) = 0.30172 0.17813
#
# Static dielectric constant tensor:
#      x y z
#    x 1.597880 0.000000 0.001060 
#    y 0.000000 1.555060 0.000000 
#    z 0.001060 0.000000 1.598180 
# 
# From -- ./inp_files/177105.got.cif
#   From: 2010.05.17/outbox.cif.g08.bks.cpg/sg12_89_cif.got.tgz:177105.got - 2010.06.03 13:09:07.
