data_PCOD9170179
_publ_section_title
;
Structure prediction by ZEFSAII (Michael W. Deem and Ramdas Pophale) SiO2 
 PCOD9170179
Probable space group: C 2/M
;
_chemical_formula_sum "Si O2"
_cell_formula_units_Z 48
_cell_length_a 19.512887
_cell_length_b 10.429439
_cell_length_c 26.597399
_cell_angle_alpha 90.000000
_cell_angle_beta 31.041696
_cell_angle_gamma 90.000000
_cell_volume 2791.171648
_symmetry_space_group_name_H-M "C 2/M"
_symmetry_group_IT_number 12
_symmetry_cell_setting 'monoclinic'
loop_
_space_group_symop_operation_xyz
x,y,z
-x,y,-z
-x,-y,-z
x,-y,z
1/2+x,1/2+y,z
1/2-x,1/2+y,-z
1/2-x,1/2-y,-z
1/2+x,1/2-y,z
loop_
_atom_site_type_symbol
_atom_site_label
_atom_site_fract_x
_atom_site_fract_y
_atom_site_fract_z
Si Si1 0.657716 0.748660 0.779723
Si Si2 0.225104 0.000000 0.871359
Si Si3 0.523032 0.500000 0.902664
Si Si4 0.849492 0.850969 0.580203
Si Si5 0.144034 0.151517 0.543815
Si Si6 0.972460 0.500000 0.102202
Si Si7 0.849826 0.756203 0.756839
Si Si8 0.710839 0.000000 0.883254
O O1 0.565967 0.624949 0.844581
O O2 0.743628 0.763268 0.675402
O O3 0.567077 0.873693 0.843168
O O4 0.763786 0.751117 0.759258
O O5 0.120354 0.000000 0.890489
O O6 0.316821 0.124792 0.806510
O O7 0.127333 0.000000 0.981245
O O8 0.838628 0.847037 0.527280
O O9 0.000000 0.814655 0.500000
O O10 0.830885 0.000000 0.608987
O O11 0.250000 0.250000 0.500000
O O12 0.999771 0.208647 0.648466
O O13 0.154220 0.000000 0.552926
O O14 0.884110 0.500000 0.106536
O O15 0.121582 0.500000 0.988634
O O16 0.795696 0.872543 0.824325
#
# Coordination Sequence:
#
# PCOD9170179 Si02
#       8
#     8   4   4   8   8   4   8   4
#     4  10  17  30  50  81 110 144 177 223 276 325
#     4   9  18  30  48  73 114 157 175 211 278 337
#     4   9  18  30  44  76 122 148 173 215 276 336
#     4  10  19  34  59  83 108 144 185 227 280 324
#     4  11  24  40  57  81 112 147 188 231 272 327
#     4   9  16  24  46  76 110 132 175 225 274 326
#     4  10  18  31  52  76 108 145 185 223 272 323
#     4   9  16  26  44  77 106 137 173 227 276 319
#
# _framework density 17.197078999999999
#
# number of rings (size 3 to 8) (size 9 to 14) (size 15 to 20)
#    0.000    2.167    3.333    1.000    1.167    4.000 
#    1.500    0.417    0.000    0.000    0.000    7.000 
#    0.000    0.000    0.000    0.000    0.000    0.000 
#
# Total GULP energy -133766.387976 kJ/mol
# GULP energy per Si atom -5573.599499 kJ/mol
# Density = 1.715794 g / cm^3
# Si number density = 17.197079 Si / 1000 Ang^3
#
#
#
# Elastic Constant Matrix: (Units=GPa)
#
#
# Indices 1 2 3 4 5 6 
#
# 1 26.3360 25.2567 21.5605 0.0001 -0.6600 -0.0008
# 2 25.2567 171.4031 94.5503 -0.0003 0.3985 -0.0012
# 3 21.5605 94.5503 169.2397 -0.0010 8.3462 -0.0003
# 4 0.0001 -0.0003 -0.0010 28.0193 -0.0001 1.5886
# 5 -0.6600 0.3985 8.3462 -0.0001 11.8651 0.0005
# 6 -0.0008 -0.0012 -0.0003 1.5886 0.0005 8.7646
#
#
#
# Elastic Compliance Matrix: (Units=1/GPa)
#
#
# Indices 1 2 3 4 5 6 
#
# 1 0.045497 -0.004888 -0.003313 0.000000 0.005025 0.000003
# 2 -0.004888 0.009073 -0.004576 0.000000 0.002642 0.000001
# 3 -0.003313 -0.004576 0.009208 0.000000 -0.006508 0.000000
# 4 0.000000 0.000000 0.000000 0.036060 0.000000 -0.006536
# 5 0.005025 0.002642 -0.006508 0.000000 0.089050 -0.000005
# 6 0.000003 0.000001 0.000000 -0.006536 -0.000005 0.115280
#
#
# Mechanical properties :
#
#
# Convention : Reuss Voigt Hill
#
# Bulk Modulus (GPa) = 26.16220 72.19042 49.17631
# Shear Modulus (GPa) = 14.60006 24.77055 19.68530
#
# Velocity S-wave (km/s) = 2.91690 3.79937 3.38700
# Velocity P-wave (km/s) = 5.15660 7.83048 6.62974
#
# Compressibility (1/GPa) = 0.03822308
#
# Stress axis : x y z
#
# Youngs Moduli (GPa) = 21.97946 110.21998 108.59556
#
# Poissons Ratio (x) = 0.53878 0.35978
# Poissons Ratio (y) = 0.10744 0.49697
# Poissons Ratio (z) = 0.07282 0.50440
#
# Static dielectric constant tensor:
#      x y z
#    x 1.562840 0.000000 -0.005070 
#    y 0.000000 1.585960 0.000000 
#    z -0.005070 0.000000 1.579180 
# 
# From -- ./inp_files/365422.got.cif
#   From: 2010.05.17/outbox.cif.g08.bks.cpg/sg12_183_cif.got.tgz:365422.got - 2010.06.03 13:09:07.
