data_PCOD9170934
_publ_section_title
;
Structure prediction by ZEFSAII (Michael W. Deem and Ramdas Pophale) SiO2 
 PCOD9170934
Probable space group: C 2/M
;
_chemical_formula_sum "Si O2"
_cell_formula_units_Z 36
_cell_length_a 16.038189
_cell_length_b 27.820565
_cell_length_c 10.139345
_cell_angle_alpha 90.000000
_cell_angle_beta 157.948591
_cell_angle_gamma 90.000000
_cell_volume 1698.516704
_symmetry_space_group_name_H-M "C 2/M"
_symmetry_group_IT_number 12
_symmetry_cell_setting 'monoclinic'
loop_
_space_group_symop_operation_xyz
x,y,z
-x,y,-z
-x,-y,-z
x,-y,z
1/2+x,1/2+y,z
1/2-x,1/2+y,-z
1/2-x,1/2-y,-z
1/2+x,1/2-y,z
loop_
_atom_site_type_symbol
_atom_site_label
_atom_site_fract_x
_atom_site_fract_y
_atom_site_fract_z
Si Si1 0.646310 0.148099 0.349331
Si Si2 0.000000 0.103473 0.500000
Si Si3 0.058922 0.553070 0.931722
Si Si4 0.450593 0.322384 0.211621
Si Si5 0.752430 0.730847 0.309869
O O1 0.622856 0.194566 0.407335
O O2 0.900391 0.148249 0.674965
O O3 0.500000 0.151331 0.000000
O O4 0.583644 0.098358 0.327546
O O5 0.811711 0.070471 0.286999
O O6 0.888610 0.140114 0.232482
O O7 0.024400 0.500000 0.822812
O O8 0.000000 0.549929 0.000000
O O9 0.618328 0.280794 0.508088
O O10 0.267529 0.294396 0.860583
O O11 0.500000 0.736263 0.000000
#
# Coordination Sequence:
#
# PCOD9170934 Si02
#       5
#     8   4   8   8   8
#     4  10  17  37  62  84 115 156 201 241 297 346
#     4  12  23  36  62  90 126 150 203 244 294 356
#     4  10  21  39  65  89 115 153 201 251 299 350
#     4  11  21  35  55  89 124 161 196 245 288 353
#     4  10  21  34  60  85 126 162 202 238 290 353
#
# _framework density 21.194963000000001
#
# number of rings (size 3 to 8) (size 9 to 14) (size 15 to 20)
#    0.000    1.556    4.444    5.000    0.000    0.889 
#    0.000    0.000    0.000   10.000    0.000    0.000 
#    0.000    0.000    0.000    0.000    0.000    0.000 
#
# Total GULP energy -100526.424004 kJ/mol
# GULP energy per Si atom -5584.801334 kJ/mol
# Density = 2.114672 g / cm^3
# Si number density = 21.194963 Si / 1000 Ang^3
#
#
#
# Elastic Constant Matrix: (Units=GPa)
#
#
# Indices 1 2 3 4 5 6 
#
# 1 63.8356 29.9103 22.9877 0.0001 9.6994 0.0003
# 2 29.9103 165.6579 41.5695 0.0000 12.1163 0.0000
# 3 22.9877 41.5695 63.9334 0.0008 4.1360 0.0014
# 4 0.0001 0.0000 0.0008 -7.4137 0.0002 -26.4938
# 5 9.6994 12.1163 4.1360 0.0002 29.8114 0.0005
# 6 0.0003 0.0000 0.0014 -26.4938 0.0005 -34.7029
#
#
#
# Elastic Compliance Matrix: (Units=1/GPa)
#
#
# Indices 1 2 3 4 5 6 
#
# 1 0.019170 -0.001745 -0.005450 0.000000 -0.004772 0.000000
# 2 -0.001745 0.007532 -0.004146 0.000000 -0.001918 0.000000
# 3 -0.005450 -0.004146 0.020255 0.000000 0.000648 0.000000
# 4 0.000000 0.000000 0.000000 0.078046 0.000000 -0.059584
# 5 -0.004772 -0.001918 0.000648 0.000000 0.035787 0.000000
# 6 0.000000 0.000000 0.000000 -0.059584 0.000000 0.016673
#
#
# Mechanical properties :
#
#
# Convention : Reuss Voigt Hill
#
# Bulk Modulus (GPa) = 41.19254 53.59577 47.39415
# Shear Modulus (GPa) = 24.01119 10.80293 17.40706
#
# Velocity S-wave (km/s) = 3.36947 2.26009 2.86891
# Velocity P-wave (km/s) = 5.88345 5.67033 5.77787
#
# Compressibility (1/GPa) = 0.02427624
#
# Stress axis : x y z
#
# Youngs Moduli (GPa) = 52.16408 132.76225 49.37162
#
# Poissons Ratio (x) = 0.23163 0.26906
# Poissons Ratio (y) = 0.09101 0.20470
# Poissons Ratio (z) = 0.28428 0.55044
#
# Static dielectric constant tensor:
#      x y z
#    x 1.833860 0.000000 0.007740 
#    y 0.000000 1.788270 0.000000 
#    z 0.007740 0.000000 1.805140 
# 
# From -- ./inp_files/160883.got.cif
#   From: 2010.05.17/outbox.cif.g08.bks.cpg/sg12_81_cif.got.tgz:160883.got - 2010.06.03 13:09:07.
