data_PCOD9170864
_publ_section_title
;
Structure prediction by ZEFSAII (Michael W. Deem and Ramdas Pophale) SiO2 
 PCOD9170864
Probable space group: C 2/M
;
_chemical_formula_sum "Si O2"
_cell_formula_units_Z 64
_cell_length_a 11.741986
_cell_length_b 29.039159
_cell_length_c 17.817675
_cell_angle_alpha 90.000000
_cell_angle_beta 30.601181
_cell_angle_gamma 90.000000
_cell_volume 3092.750461
_symmetry_space_group_name_H-M "C 2/M"
_symmetry_group_IT_number 12
_symmetry_cell_setting 'monoclinic'
loop_
_space_group_symop_operation_xyz
x,y,z
-x,y,-z
-x,-y,-z
x,-y,z
1/2+x,1/2+y,z
1/2-x,1/2+y,-z
1/2-x,1/2-y,-z
1/2+x,1/2-y,z
loop_
_atom_site_type_symbol
_atom_site_label
_atom_site_fract_x
_atom_site_fract_y
_atom_site_fract_z
Si Si1 0.652985 0.205006 0.839281
Si Si2 0.134026 0.799342 0.761676
Si Si3 0.653610 0.325192 0.594042
Si Si4 0.159191 0.071442 0.656097
Si Si5 0.177468 0.448298 0.964092
Si Si6 0.309366 0.145524 0.957756
Si Si7 0.413628 0.148927 0.730238
Si Si8 0.394035 0.949079 0.679012
O O1 0.620777 0.249729 0.806502
O O2 0.542617 0.162182 0.859680
O O3 0.913234 0.194416 0.706709
O O4 0.500000 0.211794 0.000000
O O5 0.231823 0.796146 0.622264
O O6 0.276023 0.830446 0.738582
O O7 0.892667 0.824534 0.892780
O O8 0.642254 0.376408 0.636358
O O9 0.838149 0.330385 0.424098
O O10 0.357084 0.049121 0.496471
O O11 0.237618 0.065865 0.697853
O O12 0.916878 0.050214 0.787717
O O13 0.124670 0.500000 0.022660
O O14 0.205208 0.408092 0.010446
O O15 0.000000 0.435608 0.000000
O O16 0.311034 0.158511 0.869274
O O17 0.402354 0.093532 0.730425
O O18 0.329035 0.000000 0.742924
#
# Coordination Sequence:
#
# PCOD9170864 Si02
#       8
#     8   8   8   8   8   8   8   8
#     4  12  25  43  70  93 121 169 220 260 313 383
#     4  12  24  43  68  92 125 167 215 262 316 381
#     4  11  23  43  66  91 129 168 207 264 315 375
#     4  10  17  35  60  90 120 159 210 255 306 367
#     4  11  22  37  63  95 125 165 217 264 312 373
#     4  12  24  43  65  92 130 171 212 264 314 379
#     4  11  25  41  61  95 135 167 206 262 329 375
#     4  10  19  33  60  91 123 163 205 255 314 374
#
# _framework density 20.693555
#
# number of rings (size 3 to 8) (size 9 to 14) (size 15 to 20)
#    0.000    0.875    3.750    4.500    1.750    1.500 
#    2.250    0.000    0.000    3.000    0.000    7.000 
#    0.000    0.000    0.000    0.000    0.000    0.000 
#
# Total GULP energy -178695.414978 kJ/mol
# GULP energy per Si atom -5584.231718 kJ/mol
# Density = 2.064646 g / cm^3
# Si number density = 20.693555 Si / 1000 Ang^3
#
#
#
# Elastic Constant Matrix: (Units=GPa)
#
#
# Indices 1 2 3 4 5 6 
#
# 1 43.7682 4.7727 15.5422 -0.0028 -17.1786 -0.0002
# 2 4.7727 88.0032 3.9356 0.0020 -6.6437 -0.0004
# 3 15.5422 3.9356 54.3743 -0.0023 -15.8322 -0.0010
# 4 -0.0028 0.0020 -0.0023 -44.5214 0.0025 -7.0588
# 5 -17.1786 -6.6437 -15.8322 0.0025 29.1974 -0.0002
# 6 -0.0002 -0.0004 -0.0010 -7.0588 -0.0002 22.2343
#
#
#
# Elastic Compliance Matrix: (Units=1/GPa)
#
#
# Indices 1 2 3 4 5 6 
#
# 1 0.030482 -0.000288 -0.004143 -0.000001 0.015622 0.000000
# 2 -0.000288 0.011565 -0.000045 0.000001 0.002437 0.000000
# 3 -0.004143 -0.000045 0.022403 -0.000001 0.009700 0.000001
# 4 -0.000001 0.000001 -0.000001 -0.021385 0.000001 -0.006789
# 5 0.015622 0.002437 0.009700 0.000001 0.049255 0.000001
# 6 0.000000 0.000000 0.000001 -0.006789 0.000001 0.042820
#
#
# Mechanical properties :
#
#
# Convention : Reuss Voigt Hill
#
# Bulk Modulus (GPa) = 18.01923 26.07184 22.04554
# Shear Modulus (GPa) = 30.75172 12.17508 21.46340
#
# Velocity S-wave (km/s) = 3.85912 2.42823 3.22406
# Velocity P-wave (km/s) = 5.34636 4.52638 4.95337
#
# Compressibility (1/GPa) = 0.05549627
#
# Stress axis : x y z
#
# Youngs Moduli (GPa) = 32.80642 86.46866 44.63704
#
# Poissons Ratio (x) = 0.02494 0.18495
# Poissons Ratio (y) = 0.00946 0.00200
# Poissons Ratio (z) = 0.13593 0.00388
#
# Static dielectric constant tensor:
#      x y z
#    x 1.725050 0.000000 -0.012060 
#    y 0.000000 1.782190 0.000000 
#    z -0.012060 0.000000 1.738710 
# 
# From -- ./inp_files/266260.got.cif
#   From: 2010.05.17/outbox.cif.g08.bks.cpg/sg12_134_cif.got.tgz:266260.got - 2010.06.03 13:09:07.
