data_PCOD9170514
_publ_section_title
;
Structure prediction by ZEFSAII (Michael W. Deem and Ramdas Pophale) SiO2 
 PCOD9170514
Probable space group: C 2/M
;
_chemical_formula_sum "Si O2"
_cell_formula_units_Z 48
_cell_length_a 13.281119
_cell_length_b 19.344679
_cell_length_c 10.713324
_cell_angle_alpha 90.000000
_cell_angle_beta 71.043444
_cell_angle_gamma 90.000000
_cell_volume 2603.177295
_symmetry_space_group_name_H-M "C 2/M"
_symmetry_group_IT_number 12
_symmetry_cell_setting 'monoclinic'
loop_
_space_group_symop_operation_xyz
x,y,z
-x,y,-z
-x,-y,-z
x,-y,z
1/2+x,1/2+y,z
1/2-x,1/2+y,-z
1/2-x,1/2-y,-z
1/2+x,1/2-y,z
loop_
_atom_site_type_symbol
_atom_site_label
_atom_site_fract_x
_atom_site_fract_y
_atom_site_fract_z
Si Si1 0.968906 0.263680 0.646257
Si Si2 0.939800 0.311538 0.143689
Si Si3 0.873037 0.152182 0.155235
Si Si4 0.796578 0.146713 0.706726
Si Si5 0.899140 0.080881 0.900831
Si Si6 0.683745 0.319462 0.563812
O O1 0.859273 0.220822 0.693738
O O2 0.000000 0.297424 0.500000
O O3 0.988083 0.309462 0.760645
O O4 0.061596 0.205501 0.618033
O O5 0.908313 0.231748 0.125980
O O6 0.827509 0.346471 0.215442
O O7 0.000000 0.340451 0.000000
O O8 0.795080 0.151467 0.306588
O O9 0.979369 0.108346 0.144155
O O10 0.837955 0.122482 0.035736
O O11 0.850573 0.097959 0.786009
O O12 0.806223 0.129367 0.556362
O O13 0.896284 0.000000 0.928148
O O14 0.750000 0.250000 0.500000
#
# Coordination Sequence:
#
# PCOD9170514 Si02
#       6
#     8   8   8   8   8   8
#     4   9  18  30  47  74 110 145 171 211 277 338
#     4  11  19  32  51  83 113 139 178 231 294 338
#     4  10  18  35  52  77 110 146 185 228 276 335
#     4  11  20  34  54  78 116 147 183 231 277 341
#     4  11  22  37  54  77 114 159 195 225 264 326
#     4  10  17  32  52  78 112 147 171 224 286 338
#
# _framework density 18.439005000000002
#
# number of rings (size 3 to 8) (size 9 to 14) (size 15 to 20)
#    0.000    1.667    8.333    1.000    0.000    2.667 
#    0.000    2.500    0.000    0.500    0.000    0.000 
#    0.000    2.000    0.000    0.000    0.000    0.000 
#
# Total GULP energy -133685.208274 kJ/mol
# GULP energy per Si atom -5570.217011 kJ/mol
# Density = 1.839704 g / cm^3
# Si number density = 18.439005 Si / 1000 Ang^3
#
#
#
# Elastic Constant Matrix: (Units=GPa)
#
#
# Indices 1 2 3 4 5 6 
#
# 1 28.8106 -10.3560 8.5838 0.0000 -7.6626 0.0000
# 2 -10.3560 29.6112 5.8383 0.0000 9.8471 0.0000
# 3 8.5838 5.8383 146.6396 0.0000 6.6685 0.0000
# 4 0.0000 0.0000 0.0000 3.3312 0.0000 1.8707
# 5 -7.6626 9.8471 6.6685 0.0000 27.8618 0.0000
# 6 0.0000 0.0000 0.0000 1.8707 0.0000 11.6185
#
#
#
# Elastic Compliance Matrix: (Units=1/GPa)
#
#
# Indices 1 2 3 4 5 6 
#
# 1 0.042444 0.012870 -0.003357 0.000000 0.007928 0.000000
# 2 0.012870 0.042294 -0.001940 0.000000 -0.010944 0.000000
# 3 -0.003357 -0.001940 0.007182 0.000000 -0.001957 0.000000
# 4 0.000000 0.000000 0.000000 0.330039 0.000000 -0.053140
# 5 0.007928 -0.010944 -0.001957 0.000000 0.042408 0.000000
# 6 0.000000 0.000000 0.000000 -0.053140 0.000000 0.094626
#
#
# Mechanical properties :
#
#
# Convention : Reuss Voigt Hill
#
# Bulk Modulus (GPa) = 9.34008 23.68820 16.51414
# Shear Modulus (GPa) = 8.62759 21.96197 15.29478
#
# Velocity S-wave (km/s) = 2.16544 3.45492 2.88319
# Velocity P-wave (km/s) = 3.36580 5.36563 4.47876
#
# Compressibility (1/GPa) = 0.10706541
#
# Stress axis : x y z
#
# Youngs Moduli (GPa) = 23.56024 23.64420 139.23333
#
# Poissons Ratio (x) = -0.30429 0.46747
# Poissons Ratio (y) = -0.30321 0.27005
# Poissons Ratio (z) = 0.07910 0.04586
#
# Static dielectric constant tensor:
#      x y z
#    x 1.691370 0.000000 0.042910 
#    y 0.000000 1.596540 0.000000 
#    z 0.042910 0.000000 1.748000 
# 
# From -- ./inp_files/146544.got.cif
#   From: 2010.05.17/outbox.cif.g08.bks.cpg/sg12_74_cif.got.tgz:146544.got - 2010.06.03 13:09:07.
