data_PCOD9170492
_publ_section_title
;
Structure prediction by ZEFSAII (Michael W. Deem and Ramdas Pophale) SiO2 
 PCOD9170492
Probable space group: C 2/M
;
_chemical_formula_sum "Si O2"
_cell_formula_units_Z 56
_cell_length_a 20.051239
_cell_length_b 27.981843
_cell_length_c 9.212097
_cell_angle_alpha 90.000000
_cell_angle_beta 140.731545
_cell_angle_gamma 90.000000
_cell_volume 3271.513220
_symmetry_space_group_name_H-M "C 2/M"
_symmetry_group_IT_number 12
_symmetry_cell_setting 'monoclinic'
loop_
_space_group_symop_operation_xyz
x,y,z
-x,y,-z
-x,-y,-z
x,-y,z
1/2+x,1/2+y,z
1/2-x,1/2+y,-z
1/2-x,1/2-y,-z
1/2+x,1/2-y,z
loop_
_atom_site_type_symbol
_atom_site_label
_atom_site_fract_x
_atom_site_fract_y
_atom_site_fract_z
Si Si1 0.374350 0.221055 0.790413
Si Si2 0.383019 0.053382 0.872771
Si Si3 0.978162 0.599162 0.306195
Si Si4 0.167462 0.690979 0.952813
Si Si5 0.683239 0.872374 0.470597
Si Si6 0.609663 0.673999 0.111601
Si Si7 0.104034 0.204076 0.768388
O O1 0.347510 0.181255 0.627755
O O2 0.350421 0.277463 0.737660
O O3 0.500000 0.220716 0.000000
O O4 0.333349 0.202862 0.877022
O O5 0.320440 0.093199 0.676386
O O6 0.338763 0.000000 0.785427
O O7 0.500000 0.053210 0.000000
O O8 0.406401 0.068185 0.076975
O O9 0.091242 0.609403 0.421838
O O10 0.000000 0.577492 0.500000
O O11 0.913160 0.648400 0.214195
O O12 0.127001 0.738929 0.804891
O O13 0.287197 0.680998 0.105910
O O14 0.799976 0.865911 0.729799
O O15 0.500000 0.659362 0.000000
O O16 0.589788 0.689554 0.912194
O O17 0.000000 0.193280 0.500000
#
# Coordination Sequence:
#
# PCOD9170492 Si02
#       7
#     8   8   8   8   8   8   8
#     4  10  17  32  50  75  99 138 179 214 254 302
#     4   9  19  35  55  79 104 133 170 216 274 324
#     4  11  20  31  54  78 107 139 173 217 260 318
#     4  10  19  33  49  72 100 139 184 211 250 310
#     4  11  19  35  54  75 105 139 178 217 262 317
#     4  10  23  33  48  76 103 139 184 219 252 301
#     4  10  22  35  47  69 106 144 177 216 260 299
#
# _framework density 17.117462
#
# number of rings (size 3 to 8) (size 9 to 14) (size 15 to 20)
#    0.000    1.857    2.857    2.143    2.000    2.571 
#    0.000    0.000    0.000    0.429    0.000    0.000 
#    0.000    3.429    0.000    0.000    0.000    0.000 
#
# Total GULP energy -156105.074477 kJ/mol
# GULP energy per Si atom -5575.181231 kJ/mol
# Density = 1.707850 g / cm^3
# Si number density = 17.117462 Si / 1000 Ang^3
#
#
#
# Elastic Constant Matrix: (Units=GPa)
#
#
# Indices 1 2 3 4 5 6 
#
# 1 88.1155 10.1699 26.9532 0.0000 7.1209 0.0000
# 2 10.1699 39.3671 42.8919 0.0000 10.9132 0.0000
# 3 26.9532 42.8919 77.8537 0.0000 2.4551 0.0000
# 4 0.0000 0.0000 0.0000 11.0432 0.0000 1.2593
# 5 7.1209 10.9132 2.4551 0.0000 24.7275 0.0000
# 6 0.0000 0.0000 0.0000 1.2593 0.0000 12.5019
#
#
#
# Elastic Compliance Matrix: (Units=1/GPa)
#
#
# Indices 1 2 3 4 5 6 
#
# 1 0.013702 0.008101 -0.008997 0.000000 -0.006627 0.000000
# 2 0.008101 0.087924 -0.050104 0.000000 -0.036162 0.000000
# 3 -0.008997 -0.050104 0.042919 0.000000 0.020443 0.000000
# 4 0.000000 0.000000 0.000000 0.091605 0.000000 -0.009228
# 5 -0.006627 -0.036162 0.020443 0.000000 0.056279 0.000000
# 6 0.000000 0.000000 0.000000 -0.009228 0.000000 0.080917
#
#
# Mechanical properties :
#
#
# Convention : Reuss Voigt Hill
#
# Bulk Modulus (GPa) = 23.50580 40.59627 32.05103
# Shear Modulus (GPa) = 10.21389 18.00929 14.11159
#
# Velocity S-wave (km/s) = 2.44538 3.24713 2.87435
# Velocity P-wave (km/s) = 4.66209 6.15030 5.45716
#
# Compressibility (1/GPa) = 0.04254269
#
# Stress axis : x y z
#
# Youngs Moduli (GPa) = 72.98440 11.37344 23.29985
#
# Poissons Ratio (x) = -0.09213 0.20964
# Poissons Ratio (y) = -0.59122 1.16742
# Poissons Ratio (z) = 0.65667 0.56986
#
# Static dielectric constant tensor:
#      x y z
#    x 1.591380 0.000000 -0.013210 
#    y 0.000000 1.577250 0.000000 
#    z -0.013210 0.000000 1.601660 
# 
# From -- ./inp_files/80495.got.cif
#   From: 2010.05.17/outbox.cif.g08.bks.cpg/sg12_41_cif.got.tgz:80495.got - 2010.06.03 13:09:07.
