data_PCOD9170564
_publ_section_title
;
Structure prediction by ZEFSAII (Michael W. Deem and Ramdas Pophale) SiO2 
 PCOD9170564
Probable space group: C 2/M
;
_chemical_formula_sum "Si O2"
_cell_formula_units_Z 64
_cell_length_a 21.648153
_cell_length_b 18.108362
_cell_length_c 20.692538
_cell_angle_alpha 90.000000
_cell_angle_beta 151.023870
_cell_angle_gamma 90.000000
_cell_volume 3929.691320
_symmetry_space_group_name_H-M "C 2/M"
_symmetry_group_IT_number 12
_symmetry_cell_setting 'monoclinic'
loop_
_space_group_symop_operation_xyz
x,y,z
-x,y,-z
-x,-y,-z
x,-y,z
1/2+x,1/2+y,z
1/2-x,1/2+y,-z
1/2-x,1/2-y,-z
1/2+x,1/2-y,z
loop_
_atom_site_type_symbol
_atom_site_label
_atom_site_fract_x
_atom_site_fract_y
_atom_site_fract_z
Si Si1 0.038464 0.815412 0.733759
Si Si2 0.234749 0.806599 0.545875
Si Si3 0.816152 0.302169 0.382758
Si Si4 0.030526 0.179235 0.103278
Si Si5 0.765540 0.584745 0.980259
Si Si6 0.490623 0.799990 0.174367
Si Si7 0.910963 0.305939 0.329187
Si Si8 0.290769 0.584272 0.918599
O O1 0.139807 0.879656 0.834374
O O2 0.037908 0.761952 0.796511
O O3 0.074907 0.760524 0.708609
O O4 0.896286 0.847153 0.591465
O O5 0.250000 0.750000 0.500000
O O6 0.208045 0.762335 0.587621
O O7 0.375355 0.839066 0.683997
O O8 0.679195 0.341931 0.250676
O O9 0.855835 0.277775 0.347102
O O10 0.946698 0.339245 0.528736
O O11 0.005418 0.253048 0.122269
O O12 0.000000 0.191533 0.000000
O O13 0.930523 0.118500 0.036175
O O14 0.787414 0.500000 0.980699
O O15 0.880692 0.640008 0.070228
O O16 0.743863 0.586207 0.037581
O O17 0.812395 0.365628 0.212305
O O18 0.287026 0.500000 0.892305
#
# Coordination Sequence:
#
# PCOD9170564 Si02
#       8
#     8   8   8   8   8   8   8   8
#     4  10  17  32  56  75  99 135 168 216 262 295
#     4   8  17  30  51  78 102 127 165 214 259 302
#     4   9  19  31  50  80 104 124 172 220 252 297
#     4  11  20  33  53  77 102 133 173 213 256 307
#     4  11  22  34  51  79 107 134 175 216 255 306
#     4  10  18  33  54  77 100 131 172 214 260 300
#     4  10  18  34  53  75 101 133 173 217 250 302
#     4  11  22  35  49  71 107 146 175 207 251 301
#
# _framework density 16.286266000000001
#
# number of rings (size 3 to 8) (size 9 to 14) (size 15 to 20)
#    0.000    2.000    3.750    1.125    0.000    0.250 
#    0.000    2.500    0.000    3.375    0.000    7.000 
#    0.000    0.000    0.000    0.000    0.000    0.000 
#
# Total GULP energy -178141.897392 kJ/mol
# GULP energy per Si atom -5566.934294 kJ/mol
# Density = 1.624920 g / cm^3
# Si number density = 16.286266 Si / 1000 Ang^3
#
#
#
# Elastic Constant Matrix: (Units=GPa)
#
#
# Indices 1 2 3 4 5 6 
#
# 1 65.7398 17.0805 15.2314 -0.0001 1.6330 0.0001
# 2 17.0805 36.8610 8.7780 -0.0008 0.0891 -0.0005
# 3 15.2314 8.7780 81.1074 -0.0004 13.7525 -0.0004
# 4 -0.0001 -0.0008 -0.0004 -1.7289 -0.0006 -5.0656
# 5 1.6330 0.0891 13.7525 -0.0006 31.2190 -0.0003
# 6 0.0001 -0.0005 -0.0004 -5.0656 -0.0003 8.0122
#
#
#
# Elastic Compliance Matrix: (Units=1/GPa)
#
#
# Indices 1 2 3 4 5 6 
#
# 1 0.017780 -0.007632 -0.002549 0.000002 0.000215 0.000000
# 2 -0.007632 0.031175 -0.002154 -0.000007 0.001259 -0.000002
# 3 -0.002549 -0.002154 0.014068 0.000000 -0.006058 0.000000
# 4 0.000002 -0.000007 0.000000 -0.202775 -0.000005 -0.128202
# 5 0.000215 0.001259 -0.006058 -0.000005 0.034686 -0.000002
# 6 0.000000 -0.000002 0.000000 -0.128202 -0.000002 0.043757
#
#
# Mechanical properties :
#
#
# Convention : Reuss Voigt Hill
#
# Bulk Modulus (GPa) = 26.07418 29.54312 27.80865
# Shear Modulus (GPa) = -209.61230 17.00833 -96.30198
#
# Velocity S-wave (km/s) = -11.35713 3.23512 -7.69800
# Velocity P-wave (km/s) = 12.48737 5.66868 7.86767
#
# Compressibility (1/GPa) = 0.03835212
#
# Stress axis : x y z
#
# Youngs Moduli (GPa) = 56.24365 32.07649 71.08137
#
# Poissons Ratio (x) = 0.24481 0.18121
# Poissons Ratio (y) = 0.42926 0.15313
# Poissons Ratio (z) = 0.14338 0.06910
#
# Static dielectric constant tensor:
#      x y z
#    x 1.559500 0.000000 0.015000 
#    y 0.000000 1.491690 0.000000 
#    z 0.015000 0.000000 1.597340 
# 
# From -- ./inp_files/322442.got.cif
#   From: 2010.05.17/outbox.cif.g08.bks.cpg/sg12_162_cif.got.tgz:322442.got - 2010.06.03 13:09:07.
