data_PCOD9170417
_publ_section_title
;
Structure prediction by ZEFSAII (Michael W. Deem and Ramdas Pophale) SiO2 
 PCOD9170417
Probable space group: C 2/M
;
_chemical_formula_sum "Si O2"
_cell_formula_units_Z 64
_cell_length_a 24.458612
_cell_length_b 7.478803
_cell_length_c 15.854590
_cell_angle_alpha 90.000000
_cell_angle_beta 86.190559
_cell_angle_gamma 90.000000
_cell_volume 2893.731931
_symmetry_space_group_name_H-M "C 2/M"
_symmetry_group_IT_number 12
_symmetry_cell_setting 'monoclinic'
loop_
_space_group_symop_operation_xyz
x,y,z
-x,y,-z
-x,-y,-z
x,-y,z
1/2+x,1/2+y,z
1/2-x,1/2+y,-z
1/2-x,1/2-y,-z
1/2+x,1/2-y,z
loop_
_atom_site_type_symbol
_atom_site_label
_atom_site_fract_x
_atom_site_fract_y
_atom_site_fract_z
Si Si1 0.447905 0.218471 0.736470
Si Si2 0.254699 0.716064 0.158388
Si Si3 0.754661 0.718585 0.645003
Si Si4 0.142477 0.790399 0.587011
Si Si5 0.928979 0.716269 0.241323
Si Si6 0.124151 0.292568 0.407998
Si Si7 0.372872 0.792433 0.077917
Si Si8 0.864529 0.718761 0.892633
O O1 0.509546 0.279562 0.746812
O O2 0.421376 0.280211 0.650868
O O3 0.406625 0.271377 0.815388
O O4 0.450377 0.000000 0.736121
O O5 0.256353 0.500000 0.155345
O O6 0.255919 0.768394 0.256630
O O7 0.308341 0.783775 0.105624
O O8 0.197235 0.774742 0.124115
O O9 0.753891 0.500000 0.641642
O O10 0.704042 0.783103 0.593517
O O11 0.814753 0.782996 0.612378
O O12 0.110175 0.763741 0.676967
O O13 0.112355 0.715156 0.508194
O O14 0.146899 0.000000 0.570838
O O15 0.929443 0.500000 0.237252
O O16 0.904738 0.784600 0.155149
O O17 0.129257 0.500000 0.382955
O O18 0.389438 0.000000 0.071060
O O19 0.381246 0.716796 0.983728
O O20 0.863788 0.500000 0.893732
#
# Coordination Sequence:
#
# PCOD9170417 Si02
#       8
#     8   8   8   8   8   8   8   8
#     4   9  18  34  56  77 100 136 179 217 254 301
#     4  10  17  31  55  78 104 139 174 205 251 316
#     4   9  17  31  54  79 101 132 170 207 252 310
#     4  11  22  36  54  78 107 137 169 208 263 318
#     4  10  21  36  53  76 105 138 177 217 254 297
#     4  10  19  35  58  80 101 130 174 219 257 303
#     4  10  20  32  50  81 113 136 167 213 260 301
#     4   9  17  31  54  81 106 135 172 215 258 302
#
# _framework density 22.116768
#
# number of rings (size 3 to 8) (size 9 to 14) (size 15 to 20)
#    0.000    2.250    2.500    1.125    0.000    1.000 
#    0.000    6.875    0.000    2.250    0.000    1.750 
#    0.000    0.000    0.000    0.000    0.000    0.000 
#
# Total GULP energy -178798.066024 kJ/mol
# GULP energy per Si atom -5587.439563 kJ/mol
# Density = 2.206643 g / cm^3
# Si number density = 22.116768 Si / 1000 Ang^3
#
#
#
# Elastic Constant Matrix: (Units=GPa)
#
#
# Indices 1 2 3 4 5 6 
#
# 1 129.4290 -2.1782 44.8876 0.0000 28.7624 0.0000
# 2 -2.1782 60.4951 -9.8403 0.0000 -2.4871 0.0000
# 3 44.8876 -9.8403 125.8824 0.0000 18.5066 0.0000
# 4 0.0000 0.0000 0.0000 2.5790 0.0000 -5.2217
# 5 28.7624 -2.4871 18.5066 0.0000 -0.0227 0.0000
# 6 0.0000 0.0000 0.0000 -5.2217 0.0000 10.2995
#
#
#
# Elastic Compliance Matrix: (Units=1/GPa)
#
#
# Indices 1 2 3 4 5 6 
#
# 1 0.003429 0.000403 -0.005241 0.000000 0.027548 0.000000
# 2 0.000403 0.016681 0.001611 0.000000 -0.003066 0.000000
# 3 -0.005241 0.001611 0.008375 0.000000 0.010636 0.000000
# 4 0.000000 0.000000 0.000000-14.637902 0.000000 -7.421196
# 5 0.027548 -0.003066 0.010636 0.000000 -0.140794 0.000000
# 6 0.000000 0.000000 0.000000 -7.421196 0.000000 -3.665343
#
#
# Mechanical properties :
#
#
# Convention : Reuss Voigt Hill
#
# Bulk Modulus (GPa) = 45.38991 42.39385 43.89188
# Shear Modulus (GPa) = -0.27171 21.43365 10.58097
#
# Velocity S-wave (km/s) = -0.35089 3.11644 2.18964
# Velocity P-wave (km/s) = 4.51699 5.67092 5.12653
#
# Compressibility (1/GPa) = 0.02203133
#
# Stress axis : x y z
#
# Youngs Moduli (GPa) = 291.63969 59.94930 119.40194
#
# Poissons Ratio (x) = -0.02419 0.62579
# Poissons Ratio (y) = -0.11768 -0.19234
# Poissons Ratio (z) = 1.52850 -0.09657
#
# Static dielectric constant tensor:
#      x y z
#    x 1.772900 0.000000 0.028300 
#    y 0.000000 1.858860 0.000000 
#    z 0.028300 0.000000 1.797660 
# 
# From -- ./inp_files/238729.got.cif
#   From: 2010.05.17/outbox.cif.g08.bks.cpg/sg12_120_cif.got.tgz:238729.got - 2010.06.03 13:09:07.
