data_PCOD9170295
_publ_section_title
;
Structure prediction by ZEFSAII (Michael W. Deem and Ramdas Pophale) SiO2 
 PCOD9170295
Probable space group: C 2/M
;
_chemical_formula_sum "Si O2"
_cell_formula_units_Z 64
_cell_length_a 18.204589
_cell_length_b 20.936536
_cell_length_c 8.883159
_cell_angle_alpha 90.000000
_cell_angle_beta 133.979061
_cell_angle_gamma 90.000000
_cell_volume 2436.354305
_symmetry_space_group_name_H-M "C 2/M"
_symmetry_group_IT_number 12
_symmetry_cell_setting 'monoclinic'
loop_
_space_group_symop_operation_xyz
x,y,z
-x,y,-z
-x,-y,-z
x,-y,z
1/2+x,1/2+y,z
1/2-x,1/2+y,-z
1/2-x,1/2-y,-z
1/2+x,1/2-y,z
loop_
_atom_site_type_symbol
_atom_site_label
_atom_site_fract_x
_atom_site_fract_y
_atom_site_fract_z
Si Si1 0.739814 0.848971 0.191032
Si Si2 0.645353 0.068141 0.298833
Si Si3 0.149670 0.070232 0.873723
Si Si4 0.486937 0.786032 0.652396
Si Si5 0.244905 0.721305 0.661148
Si Si6 0.039304 0.573410 0.729065
Si Si7 0.154478 0.906265 0.223690
Si Si8 0.041553 0.854675 0.324428
O O1 0.658215 0.877886 0.191847
O O2 0.756226 0.892474 0.068162
O O3 0.733060 0.772984 0.178653
O O4 0.850251 0.855064 0.435497
O O5 0.548206 0.069444 0.267695
O O6 0.746091 0.071242 0.544420
O O7 0.645783 0.000000 0.218329
O O8 0.050513 0.113951 0.717103
O O9 0.138843 0.000000 0.789483
O O10 0.158538 0.063848 0.065805
O O11 0.500000 0.762888 0.500000
O O12 0.368307 0.807863 0.489785
O O13 0.559982 0.847685 0.779806
O O14 0.487292 0.719833 0.747659
O O15 0.250000 0.750000 0.500000
O O16 0.328451 0.667774 0.788523
O O17 0.089134 0.500000 0.806570
O O18 0.000000 0.574759 0.500000
O O19 0.063149 0.902396 0.214205
#
# Coordination Sequence:
#
# PCOD9170295 Si02
#       8
#     8   8   8   8   8   8   8   8
#     4  10  21  36  60  84 111 157 203 241 300 346
#     4  10  18  32  55  84 113 148 194 228 283 363
#     4  12  26  41  54  84 129 161 198 250 299 365
#     4  10  17  30  55  86 114 143 189 247 296 345
#     4  11  17  36  61  86 112 146 198 259 294 344
#     4   9  17  28  49  86 118 139 173 237 302 349
#     4  11  22  36  58  83 115 157 194 242 306 349
#     4  10  21  37  59  83 110 158 208 246 292 348
#
# _framework density 26.268756
#
# number of rings (size 3 to 8) (size 9 to 14) (size 15 to 20)
#    0.000    1.625    5.000    3.000    0.000    4.500 
#    0.000    0.000    0.000    0.000    0.000    0.875 
#    0.000    7.000    0.000    0.000    0.000    0.000 
#
# Total GULP energy -178641.564909 kJ/mol
# GULP energy per Si atom -5582.548903 kJ/mol
# Density = 2.620897 g / cm^3
# Si number density = 26.268756 Si / 1000 Ang^3
#
#
#
# Elastic Constant Matrix: (Units=GPa)
#
#
# Indices 1 2 3 4 5 6 
#
# 1 103.2309 15.6659 -0.2586 0.0000 -17.2782 0.0000
# 2 15.6659 171.7914 10.9842 0.0000 -3.0645 0.0000
# 3 -0.2586 10.9842 73.9736 0.0000 -20.4441 0.0000
# 4 0.0000 0.0000 0.0000 843.6727 0.0000 -140.4235
# 5 -17.2782 -3.0645 -20.4441 0.0000 31.0029 0.0000
# 6 0.0000 0.0000 0.0000 -140.4235 0.0000 45.9077
#
#
#
# Elastic Compliance Matrix: (Units=1/GPa)
#
#
# Indices 1 2 3 4 5 6 
#
# 1 0.011122 -0.001025 0.002294 0.000000 0.007610 0.000000
# 2 -0.001025 0.005971 -0.001082 0.000000 -0.000695 0.000000
# 3 0.002294 -0.001082 0.017133 0.000000 0.012470 0.000000
# 4 0.000000 0.000000 0.000000 0.002415 0.000000 0.007386
# 5 0.007610 -0.000695 0.012470 0.000000 0.044650 0.000000
# 6 0.000000 0.000000 0.000000 0.007386 0.000000 0.044375
#
#
# Mechanical properties :
#
#
# Convention : Reuss Voigt Hill
#
# Bulk Modulus (GPa) = 28.90141 44.64212 36.77176
# Shear Modulus (GPa) = 36.54261 205.62361 121.08311
#
# Velocity S-wave (km/s) = 3.73380 8.85702 6.79662
# Velocity P-wave (km/s) = 5.44191 11.02846 8.69602
#
# Compressibility (1/GPa) = 0.03460038
#
# Stress axis : x y z
#
# Youngs Moduli (GPa) = 89.91132 167.46754 58.36572
#
# Poissons Ratio (x) = 0.17168 -0.13391
# Poissons Ratio (y) = 0.09218 0.06317
# Poissons Ratio (z) = -0.20628 0.18125
#
# Static dielectric constant tensor:
#      x y z
#    x 2.051680 0.000000 0.010340 
#    y 0.000000 2.190140 0.000000 
#    z 0.010340 0.000000 2.227740 
# 
# From -- ./inp_files/89616.got.cif
#   From: 2010.05.17/outbox.cif.g08.bks.cpg/sg12_45_cif.got.tgz:89616.got - 2010.06.03 13:09:07.
