data_PCOD9170700
_publ_section_title
;
Structure prediction by ZEFSAII (Michael W. Deem and Ramdas Pophale) SiO2 
 PCOD9170700
Probable space group: C 2/M
;
_chemical_formula_sum "Si O2"
_cell_formula_units_Z 26
_cell_length_a 11.592873
_cell_length_b 17.988596
_cell_length_c 8.107945
_cell_angle_alpha 90.000000
_cell_angle_beta 143.979220
_cell_angle_gamma 90.000000
_cell_volume 994.339144
_symmetry_space_group_name_H-M "C 2/M"
_symmetry_group_IT_number 12
_symmetry_cell_setting 'monoclinic'
loop_
_space_group_symop_operation_xyz
x,y,z
-x,y,-z
-x,-y,-z
x,-y,z
1/2+x,1/2+y,z
1/2-x,1/2+y,-z
1/2-x,1/2-y,-z
1/2+x,1/2-y,z
loop_
_atom_site_type_symbol
_atom_site_label
_atom_site_fract_x
_atom_site_fract_y
_atom_site_fract_z
Si Si1 0.500000 0.000000 0.000000
Si Si2 0.474289 0.726413 0.274782
Si Si3 0.099125 0.386111 0.363673
Si Si4 0.320116 0.582858 0.960761
O O1 0.635638 0.065523 0.245730
O O2 0.500000 0.719819 0.500000
O O3 0.591101 0.797007 0.336518
O O4 0.250000 0.750000 0.000000
O O5 0.473723 0.646940 0.185671
O O6 0.873756 0.410990 0.148249
O O7 0.226193 0.405703 0.671512
O O8 0.399935 0.500000 0.068234
#
# Coordination Sequence:
#
# PCOD9170700 Si02
#       4
#     2   8   8   8
#     4  12  20  30  56  80 112 142 196 210 260 326
#     4  10  18  32  57  83 109 137 182 232 269 311
#     4  10  18  32  52  82 104 146 183 223 259 322
#     4  10  17  33  57  77 109 137 185 231 265 306
#
# _framework density 26.148019000000001
#
# number of rings (size 3 to 8) (size 9 to 14) (size 15 to 20)
#    0.000    1.846    9.231    0.923    0.000    0.615 
#    0.000    1.538    0.000    0.000    0.000    9.692 
#    0.000    0.000    0.000    0.000    0.000    0.000 
#
# Total GULP energy -72552.911505 kJ/mol
# GULP energy per Si atom -5580.993193 kJ/mol
# Density = 2.608850 g / cm^3
# Si number density = 26.148019 Si / 1000 Ang^3
#
#
#
# Elastic Constant Matrix: (Units=GPa)
#
#
# Indices 1 2 3 4 5 6 
#
# 1 60.5524 23.2519 -0.2664 0.0000 1.2497 0.0000
# 2 23.2519 336.1938 97.6643 0.0000 -3.4469 0.0000
# 3 -0.2664 97.6643 187.6472 0.0000 -31.3037 0.0000
# 4 0.0000 0.0000 0.0000 83.3175 0.0000 -11.5596
# 5 1.2497 -3.4469 -31.3037 0.0000 20.0161 0.0000
# 6 0.0000 0.0000 0.0000 -11.5596 0.0000 30.0247
#
#
#
# Elastic Compliance Matrix: (Units=1/GPa)
#
#
# Indices 1 2 3 4 5 6 
#
# 1 0.017055 -0.001390 0.000717 0.000000 -0.000183 0.000000
# 2 -0.001390 0.003760 -0.002485 0.000000 -0.003152 0.000000
# 3 0.000717 -0.002485 0.008855 0.000000 0.013375 0.000000
# 4 0.000000 0.000000 0.000000 0.012680 0.000000 0.004882
# 5 -0.000183 -0.003152 0.013375 0.000000 0.070347 0.000000
# 6 0.000000 0.000000 0.000000 0.004882 0.000000 0.035185
#
#
# Mechanical properties :
#
#
# Convention : Reuss Voigt Hill
#
# Bulk Modulus (GPa) = 42.81722 91.74368 67.28045
# Shear Modulus (GPa) = 30.86770 57.58790 44.22780
#
# Velocity S-wave (km/s) = 3.43957 4.69804 4.11717
# Velocity P-wave (km/s) = 5.67315 8.03687 6.95615
#
# Compressibility (1/GPa) = 0.02335509
#
# Stress axis : x y z
#
# Youngs Moduli (GPa) = 58.63313 265.95023 112.93397
#
# Poissons Ratio (x) = 0.36960 -0.08098
# Poissons Ratio (y) = 0.08149 0.28061
# Poissons Ratio (z) = -0.04204 0.66082
#
# Static dielectric constant tensor:
#      x y z
#    x 2.171810 0.000000 0.027260 
#    y 0.000000 2.091640 0.000000 
#    z 0.027260 0.000000 1.976700 
# 
# From -- ./inp_files/36586.got.cif
#   From: 2010.05.17/outbox.cif.g08.bks.cpg/sg12_19_cif.got.tgz:36586.got - 2010.06.03 13:09:07.
