data_PCOD9170419
_publ_section_title
;
Structure prediction by ZEFSAII (Michael W. Deem and Ramdas Pophale) SiO2 
 PCOD9170419
Probable space group: C 2/M
;
_chemical_formula_sum "Si O2"
_cell_formula_units_Z 58
_cell_length_a 28.503030
_cell_length_b 13.982185
_cell_length_c 19.512573
_cell_angle_alpha 90.000000
_cell_angle_beta 24.454198
_cell_angle_gamma 90.000000
_cell_volume 3219.177797
_symmetry_space_group_name_H-M "C 2/M"
_symmetry_group_IT_number 12
_symmetry_cell_setting 'monoclinic'
loop_
_space_group_symop_operation_xyz
x,y,z
-x,y,-z
-x,-y,-z
x,-y,z
1/2+x,1/2+y,z
1/2-x,1/2+y,-z
1/2-x,1/2-y,-z
1/2+x,1/2-y,z
loop_
_atom_site_type_symbol
_atom_site_label
_atom_site_fract_x
_atom_site_fract_y
_atom_site_fract_z
Si Si1 0.502528 0.811286 0.661400
Si Si2 0.438734 0.891079 0.890597
Si Si3 0.165494 0.894907 0.262728
Si Si4 0.208275 0.388467 0.141543
Si Si5 0.439423 0.606251 0.748909
Si Si6 0.582509 0.196007 0.943586
Si Si7 0.688505 0.211896 0.312205
Si Si8 0.500000 0.000000 0.000000
O O1 0.491363 0.864990 0.748013
O O2 0.385544 0.829616 0.775895
O O3 0.516198 0.698390 0.657821
O O4 0.603844 0.839811 0.476476
O O5 0.469188 0.000000 0.869087
O O6 0.301238 0.885758 0.068837
O O7 0.470372 0.821217 0.910626
O O8 0.105518 0.891534 0.269337
O O9 0.131844 0.808278 0.356175
O O10 0.144806 0.000000 0.320981
O O11 0.175147 0.500000 0.183622
O O12 0.215021 0.350763 0.209953
O O13 0.329018 0.379880 0.943777
O O14 0.486499 0.500000 0.699513
O O15 0.699366 0.250568 0.799095
O O16 0.588857 0.087174 0.905397
O O17 0.500000 0.247610 0.000000
#
# Coordination Sequence:
#
# PCOD9170419 Si02
#       8
#     8   8   8   8   8   8   8   2
#     4  12  22  32  48  80 116 147 177 216 266 318
#     4  10  17  31  55  80 101 136 179 223 257 307
#     4   9  17  30  51  70  97 135 182 217 259 306
#     4  11  22  37  53  71 109 158 199 220 239 299
#     4  10  19  33  48  70  99 144 186 221 254 304
#     4   9  18  37  61  86 103 125 173 226 279 331
#     4  11  23  33  50  81 111 143 174 221 273 318
#     4   8  16  36  68  88 100 120 174 226 288 328
#
# _framework density 18.017022999999998
#
# number of rings (size 3 to 8) (size 9 to 14) (size 15 to 20)
#    0.414    1.379    3.448    2.897    0.966    2.207 
#    0.000    2.069    0.000    0.414    0.000    0.000 
#    0.000    0.000    0.000    0.000    0.000    0.000 
#
# Total GULP energy -161497.287400 kJ/mol
# GULP energy per Si atom -5568.871979 kJ/mol
# Density = 1.797602 g / cm^3
# Si number density = 18.017023 Si / 1000 Ang^3
#
#
#
# Elastic Constant Matrix: (Units=GPa)
#
#
# Indices 1 2 3 4 5 6 
#
# 1 55.6719 -6.5641 23.8983 0.0000 7.8792 0.0000
# 2 -6.5641 43.9175 2.3484 0.0000 1.5716 0.0000
# 3 23.8983 2.3484 56.9527 0.0000 20.3835 0.0000
# 4 0.0000 0.0000 0.0000 2.2026 0.0000 7.5554
# 5 7.8792 1.5716 20.3835 0.0000 13.5975 0.0000
# 6 0.0000 0.0000 0.0000 7.5554 0.0000 26.4243
#
#
#
# Elastic Compliance Matrix: (Units=1/GPa)
#
#
# Indices 1 2 3 4 5 6 
#
# 1 0.022576 0.003857 -0.010336 0.000000 0.001967 0.000000
# 2 0.003857 0.023523 -0.001759 0.000001 -0.002316 0.000000
# 3 -0.010336 -0.001759 0.042616 0.000003 -0.057692 -0.000001
# 4 0.000000 0.000001 0.000003 23.666532 -0.000006 -6.766904
# 5 0.001967 -0.002316 -0.057692 -0.000006 0.159154 0.000002
# 6 0.000000 0.000000 -0.000001 -6.766904 0.000002 1.972686
#
#
# Mechanical properties :
#
#
# Convention : Reuss Voigt Hill
#
# Bulk Modulus (GPa) = 13.84324 21.76750 17.80537
# Shear Modulus (GPa) = 0.19284 17.56884 8.88084
#
# Velocity S-wave (km/s) = 0.32752 3.12609 2.22258
# Velocity P-wave (km/s) = 2.80056 5.01376 4.06084
#
# Compressibility (1/GPa) = 0.07223742
#
# Stress axis : x y z
#
# Youngs Moduli (GPa) = 44.29539 42.51100 23.46523
#
# Poissons Ratio (x) = -0.16395 0.24254
# Poissons Ratio (y) = -0.17083 0.04128
# Poissons Ratio (z) = 0.45785 0.07479
#
# Static dielectric constant tensor:
#      x y z
#    x 1.625370 0.000000 0.011430 
#    y 0.000000 1.653820 0.000000 
#    z 0.011430 0.000000 1.628730 
# 
# From -- ./inp_files/293486.got.cif
#   From: 2010.05.17/outbox.cif.g08.bks.cpg/sg12_147_cif.got.tgz:293486.got - 2010.06.03 13:09:07.
