data_PCOD9170434
_publ_section_title
;
Structure prediction by ZEFSAII (Michael W. Deem and Ramdas Pophale) SiO2 
 PCOD9170434
Probable space group: C 2/M
;
_chemical_formula_sum "Si O2"
_cell_formula_units_Z 56
_cell_length_a 24.807552
_cell_length_b 19.106988
_cell_length_c 7.024482
_cell_angle_alpha 90.000000
_cell_angle_beta 56.856793
_cell_angle_gamma 90.000000
_cell_volume 2787.885873
_symmetry_space_group_name_H-M "C 2/M"
_symmetry_group_IT_number 12
_symmetry_cell_setting 'monoclinic'
loop_
_space_group_symop_operation_xyz
x,y,z
-x,y,-z
-x,-y,-z
x,-y,z
1/2+x,1/2+y,z
1/2-x,1/2+y,-z
1/2-x,1/2-y,-z
1/2+x,1/2-y,z
loop_
_atom_site_type_symbol
_atom_site_label
_atom_site_fract_x
_atom_site_fract_y
_atom_site_fract_z
Si Si1 0.677589 0.303649 0.968212
Si Si2 0.088077 0.727216 0.640647
Si Si3 0.218840 0.809632 0.305934
Si Si4 0.861840 0.577033 0.448414
Si Si5 0.054351 0.576003 0.063137
Si Si6 0.947401 0.725420 0.839228
Si Si7 0.283524 0.580657 0.366336
O O1 0.722793 0.245383 0.778945
O O2 0.609474 0.268144 0.147552
O O3 0.669918 0.370629 0.848764
O O4 0.714084 0.324226 0.090687
O O5 0.151380 0.772858 0.489092
O O6 0.105447 0.647925 0.542692
O O7 0.071799 0.727367 0.898093
O O8 0.020750 0.750308 0.676474
O O9 0.225970 0.878593 0.417521
O O10 0.882221 0.500000 0.483515
O O11 0.880659 0.576266 0.187465
O O12 0.785346 0.582731 0.607485
O O13 0.046144 0.500000 0.168735
O O14 0.052901 0.642467 0.200302
O O15 0.000000 0.582815 0.000000
O O16 0.302749 0.500000 0.351232
#
# Coordination Sequence:
#
# PCOD9170434 Si02
#       7
#     8   8   8   8   8   8   8
#     4  11  23  37  59  88 118 152 196 240 287 343
#     4  10  17  31  56  81 113 152 189 236 286 341
#     4  11  22  38  60  84 118 154 191 243 292 337
#     4   9  16  27  49  82 114 150 188 225 277 340
#     4   9  14  22  41  76 112 146 187 224 265 326
#     4  10  18  30  53  84 111 151 196 239 284 342
#     4  11  22  38  62  85 114 154 192 240 293 342
#
# _framework density 20.086905000000002
#
# number of rings (size 3 to 8) (size 9 to 14) (size 15 to 20)
#    0.000    1.857    5.714    2.143    0.000    1.143 
#    0.000    0.000    0.000    3.429    0.000    4.000 
#    0.000    0.000    0.000    0.000    0.000    0.000 
#
# Total GULP energy -156266.288062 kJ/mol
# GULP energy per Si atom -5580.938859 kJ/mol
# Density = 2.004119 g / cm^3
# Si number density = 20.086905 Si / 1000 Ang^3
#
#
#
# Elastic Constant Matrix: (Units=GPa)
#
#
# Indices 1 2 3 4 5 6 
#
# 1 74.2250 40.8635 22.1248 0.0000 -13.1742 0.0000
# 2 40.8635 136.3778 36.6806 0.0000 -2.9894 0.0000
# 3 22.1248 36.6806 57.2098 0.0000 -12.2252 0.0000
# 4 0.0000 0.0000 0.0000 6.7703 0.0000 -7.3648
# 5 -13.1742 -2.9894 -12.2252 0.0000 41.3804 0.0000
# 6 0.0000 0.0000 0.0000 -7.3648 0.0000 18.4436
#
#
#
# Elastic Compliance Matrix: (Units=1/GPa)
#
#
# Indices 1 2 3 4 5 6 
#
# 1 0.017551 -0.004336 -0.003074 0.000000 0.004366 0.000000
# 2 -0.004336 0.009980 -0.005190 0.000000 -0.002193 0.000000
# 3 -0.003074 -0.005190 0.023170 0.000000 0.005491 0.000000
# 4 0.000000 0.000000 0.000000 0.261136 0.000000 0.104275
# 5 0.004366 -0.002193 0.005491 0.000000 0.027020 0.000000
# 6 0.000000 0.000000 0.000000 0.104275 0.000000 0.095858
#
#
# Mechanical properties :
#
#
# Convention : Reuss Voigt Hill
#
# Bulk Modulus (GPa) = 39.21737 51.90560 45.56149
# Shear Modulus (GPa) = 10.67428 24.52842 17.60135
#
# Velocity S-wave (km/s) = 2.30772 3.49824 2.96338
# Velocity P-wave (km/s) = 5.16401 6.49719 5.86858
#
# Compressibility (1/GPa) = 0.02549891
#
# Stress axis : x y z
#
# Youngs Moduli (GPa) = 56.97610 100.20213 43.15982
#
# Poissons Ratio (x) = 0.43451 0.13268
# Poissons Ratio (y) = 0.24707 0.22401
# Poissons Ratio (z) = 0.17516 0.52008
#
# Static dielectric constant tensor:
#      x y z
#    x 1.761700 0.000000 0.016320 
#    y 0.000000 1.718080 0.000000 
#    z 0.016320 0.000000 1.755860 
# 
# From -- ./inp_files/97642.got.cif
#   From: 2010.05.17/outbox.cif.g08.bks.cpg/sg12_49_cif.got.tgz:97642.got - 2010.06.03 13:09:07.
