data_PCOD9170913
_publ_section_title
;
Structure prediction by ZEFSAII (Michael W. Deem and Ramdas Pophale) SiO2 
 PCOD9170913
Probable space group: C 2/M
;
_chemical_formula_sum "Si O2"
_cell_formula_units_Z 52
_cell_length_a 18.409774
_cell_length_b 19.868880
_cell_length_c 8.928367
_cell_angle_alpha 90.000000
_cell_angle_beta 47.425227
_cell_angle_gamma 90.000000
_cell_volume 2404.942694
_symmetry_space_group_name_H-M "C 2/M"
_symmetry_group_IT_number 12
_symmetry_cell_setting 'monoclinic'
loop_
_space_group_symop_operation_xyz
x,y,z
-x,y,-z
-x,-y,-z
x,-y,z
1/2+x,1/2+y,z
1/2-x,1/2+y,-z
1/2-x,1/2-y,-z
1/2+x,1/2-y,z
loop_
_atom_site_type_symbol
_atom_site_label
_atom_site_fract_x
_atom_site_fract_y
_atom_site_fract_z
Si Si1 0.652306 0.894394 0.454098
Si Si2 0.229635 0.500000 0.824851
Si Si3 0.676861 0.741135 0.403477
Si Si4 0.583174 0.000000 0.763270
Si Si5 0.111001 0.500000 0.280203
Si Si6 0.889870 0.778704 0.160437
Si Si7 0.599986 0.397157 0.445951
Si Si8 0.869934 0.922484 0.247475
O O1 0.636940 0.816673 0.442845
O O2 0.753536 0.907316 0.401419
O O3 0.577193 0.934128 0.666150
O O4 0.658455 0.934857 0.291819
O O5 0.182396 0.500000 0.725752
O O6 0.303404 0.437403 0.741047
O O7 0.141419 0.500000 0.066697
O O8 0.795700 0.744979 0.209962
O O9 0.649811 0.723485 0.613672
O O10 0.624180 0.681653 0.388831
O O11 0.500000 0.000000 0.000000
O O12 0.000000 0.500000 0.500000
O O13 0.902586 0.858051 0.101697
O O14 0.000000 0.748041 0.000000
O O15 0.500000 0.415461 0.500000
O O16 0.592189 0.414658 0.634788
O O17 0.887480 0.000000 0.173574
#
# Coordination Sequence:
#
# PCOD9170913 Si02
#       8
#     8   4   8   4   4   8   8   8
#     4  10  19  42  64  86 130 171 209 269 323 364
#     4  12  23  42  65  97 135 166 212 272 324 388
#     4   9  21  39  62  86 127 167 212 271 310 383
#     4  11  21  36  68 103 123 168 230 264 310 386
#     4  11  25  44  61  92 135 172 210 261 328 390
#     4   9  19  35  58  94 126 155 206 270 328 374
#     4  11  22  41  64  94 129 167 216 267 330 386
#     4  10  17  36  64  90 123 162 211 267 315 379
#
# _framework density 21.622136999999999
#
# number of rings (size 3 to 8) (size 9 to 14) (size 15 to 20)
#    0.000    1.846    3.846    2.077    0.000    1.538 
#   13.846    0.769    0.000    0.000    0.000    0.000 
#    0.000    0.000    0.000    0.000    0.000    0.000 
#
# Total GULP energy -144835.751584 kJ/mol
# GULP energy per Si atom -5570.605830 kJ/mol
# Density = 2.157292 g / cm^3
# Si number density = 21.622137 Si / 1000 Ang^3
#
#
#
# Elastic Constant Matrix: (Units=GPa)
#
#
# Indices 1 2 3 4 5 6 
#
# 1 76.9498 19.0343 13.1688 0.0000 -6.6986 0.0000
# 2 19.0343 148.9533 7.3501 0.0000 -3.0333 0.0000
# 3 13.1688 7.3501 75.8960 0.0000 -21.4308 0.0000
# 4 0.0000 0.0000 0.0000 -50.8139 0.0000 -85.0015
# 5 -6.6986 -3.0333 -21.4308 0.0000 35.8078 0.0000
# 6 0.0000 0.0000 0.0000 -85.0015 0.0000 -101.2808
#
#
#
# Elastic Compliance Matrix: (Units=1/GPa)
#
#
# Indices 1 2 3 4 5 6 
#
# 1 0.013839 -0.001649 -0.001865 0.000000 0.001333 0.000000
# 2 -0.001649 0.006944 -0.000370 0.000000 0.000058 0.000000
# 3 -0.001865 -0.000370 0.016159 0.000000 0.009291 0.000000
# 4 0.000000 0.000000 0.000000 0.048721 0.000000 -0.040890
# 5 0.001333 0.000058 0.009291 0.000000 0.033742 0.000000
# 6 0.000000 0.000000 0.000000 -0.040890 0.000000 0.024444
#
#
# Mechanical properties :
#
#
# Convention : Reuss Voigt Hill
#
# Bulk Modulus (GPa) = 34.27844 42.32284 38.30064
# Shear Modulus (GPa) = 30.99027 -5.77433 12.60797
#
# Velocity S-wave (km/s) = 3.78996 -1.63596 2.41738
# Velocity P-wave (km/s) = 5.91942 4.00598 5.05408
#
# Compressibility (1/GPa) = 0.02917286
#
# Stress axis : x y z
#
# Youngs Moduli (GPa) = 72.26138 144.01548 61.88583
#
# Poissons Ratio (x) = 0.23751 0.11542
# Poissons Ratio (y) = 0.11918 0.02289
# Poissons Ratio (z) = 0.13477 0.05326
#
# Static dielectric constant tensor:
#      x y z
#    x 1.985740 0.000000 -0.113980 
#    y 0.000000 1.845200 0.000000 
#    z -0.113980 0.000000 1.825060 
# 
# From -- ./inp_files/77993.got.cif
#   From: 2010.05.17/outbox.cif.g08.bks.cpg/sg12_39_cif.got.tgz:77993.got - 2010.06.03 13:09:07.
