data_PCOD9170389
_publ_section_title
;
Structure prediction by ZEFSAII (Michael W. Deem and Ramdas Pophale) SiO2 
 PCOD9170389
Probable space group: C 2/M
;
_chemical_formula_sum "Si O2"
_cell_formula_units_Z 56
_cell_length_a 9.731894
_cell_length_b 12.686308
_cell_length_c 20.410470
_cell_angle_alpha 90.000000
_cell_angle_beta 94.409997
_cell_angle_gamma 90.000000
_cell_volume 2512.452882
_symmetry_space_group_name_H-M "C 2/M"
_symmetry_group_IT_number 12
_symmetry_cell_setting 'monoclinic'
loop_
_space_group_symop_operation_xyz
x,y,z
-x,y,-z
-x,-y,-z
x,-y,z
1/2+x,1/2+y,z
1/2-x,1/2+y,-z
1/2-x,1/2-y,-z
1/2+x,1/2-y,z
loop_
_atom_site_type_symbol
_atom_site_label
_atom_site_fract_x
_atom_site_fract_y
_atom_site_fract_z
Si Si1 0.375118 0.377978 0.416935
Si Si2 0.702778 0.158438 0.180020
Si Si3 0.788008 0.378623 0.180145
Si Si4 0.484661 0.844815 0.709815
Si Si5 0.005173 0.619373 0.929330
Si Si6 0.451568 0.615712 0.274891
Si Si7 0.430360 0.819932 0.562977
O O1 0.395505 0.500000 0.438028
O O2 0.357364 0.381087 0.337265
O O3 0.504132 0.298831 0.431975
O O4 0.235334 0.330765 0.442748
O O5 0.680312 0.284514 0.174469
O O6 0.615525 0.113052 0.237650
O O7 0.644111 0.116845 0.110112
O O8 0.857568 0.132934 0.207584
O O9 0.746080 0.500000 0.169810
O O10 0.867137 0.367898 0.252592
O O11 0.893262 0.345553 0.125272
O O12 0.458027 0.718730 0.710472
O O13 0.473441 0.873940 0.633637
O O14 0.053929 0.500000 0.942910
O O15 0.000000 0.673818 0.000000
O O16 0.517792 0.500000 0.275757
O O17 0.500000 0.866260 0.500000
#
# Coordination Sequence:
#
# PCOD9170389 Si02
#       7
#     8   8   8   8   8   8   8
#     4  10  22  40  61  86 117 155 200 251 306 364
#     4  10  17  31  53  74 100 136 174 218 269 326
#     4   9  19  33  51  76 103 135 173 220 268 318
#     4   9  19  33  52  75 104 136 182 225 277 337
#     4   9  18  32  50  75 104 133 170 213 261 321
#     4   9  17  31  52  74 100 136 178 226 276 331
#     4  11  22  40  63  84 120 158 198 253 305 362
#
# _framework density 22.288975000000001
#
# number of rings (size 3 to 8) (size 9 to 14) (size 15 to 20)
#    0.000    2.429    1.429    0.857    0.000    2.857 
#    0.000    0.714    0.000    0.429    0.000    0.000 
#    0.000    0.000    0.000    0.000    0.000    0.000 
#
# Total GULP energy -155912.409730 kJ/mol
# GULP energy per Si atom -5568.300348 kJ/mol
# Density = 2.223824 g / cm^3
# Si number density = 22.288975 Si / 1000 Ang^3
#
#
#
# Elastic Constant Matrix: (Units=GPa)
#
#
# Indices 1 2 3 4 5 6 
#
# 1 58.2033 25.2998 21.2750 0.0000 -13.0185 0.0000
# 2 25.2998 148.9363 14.0230 0.0000 -6.0277 0.0000
# 3 21.2750 14.0230 166.3999 0.0000 -2.3936 0.0000
# 4 0.0000 0.0000 0.0000 3.3539 0.0000 -3.7447
# 5 -13.0185 -6.0277 -2.3936 0.0000 25.5299 0.0000
# 6 0.0000 0.0000 0.0000 -3.7447 0.0000 8.8940
#
#
#
# Elastic Compliance Matrix: (Units=1/GPa)
#
#
# Indices 1 2 3 4 5 6 
#
# 1 0.021624 -0.003042 -0.002363 0.000000 0.010087 0.000000
# 2 -0.003042 0.007258 -0.000221 0.000000 0.000141 0.000000
# 3 -0.002363 -0.000221 0.006321 0.000000 -0.000665 0.000000
# 4 0.000000 0.000000 0.000000 0.562656 0.000000 0.236896
# 5 0.010087 0.000141 -0.000665 0.000000 0.044284 0.000000
# 6 0.000000 0.000000 0.000000 0.236896 0.000000 0.212176
#
#
# Mechanical properties :
#
#
# Convention : Reuss Voigt Hill
#
# Bulk Modulus (GPa) = 41.75460 54.97056 48.36258
# Shear Modulus (GPa) = 5.72374 28.41836 17.07105
#
# Velocity S-wave (km/s) = 1.60423 3.57458 2.77049
# Velocity P-wave (km/s) = 4.71226 6.46166 5.65502
#
# Compressibility (1/GPa) = 0.02394946
#
# Stress axis : x y z
#
# Youngs Moduli (GPa) = 46.24590 137.78661 158.20802
#
# Poissons Ratio (x) = 0.41921 0.37387
# Poissons Ratio (y) = 0.14070 0.03490
# Poissons Ratio (z) = 0.10929 0.03039
#
# Static dielectric constant tensor:
#      x y z
#    x 1.873470 0.000000 -0.029860 
#    y 0.000000 1.880430 0.000000 
#    z -0.029860 0.000000 1.876080 
# 
# From -- ./inp_files/304247.got.cif
#   From: 2010.05.17/outbox.cif.g08.bks.cpg/sg12_153_cif.got.tgz:304247.got - 2010.06.03 13:09:07.
