data_PCOD9170774
_publ_section_title
;
Structure prediction by ZEFSAII (Michael W. Deem and Ramdas Pophale) SiO2 
 PCOD9170774
Probable space group: C 2/M
;
_chemical_formula_sum "Si O2"
_cell_formula_units_Z 48
_cell_length_a 14.127813
_cell_length_b 20.020567
_cell_length_c 26.784340
_cell_angle_alpha 90.000000
_cell_angle_beta 161.636753
_cell_angle_gamma 90.000000
_cell_volume 2386.703003
_symmetry_space_group_name_H-M "C 2/M"
_symmetry_group_IT_number 12
_symmetry_cell_setting 'monoclinic'
loop_
_space_group_symop_operation_xyz
x,y,z
-x,y,-z
-x,-y,-z
x,-y,z
1/2+x,1/2+y,z
1/2-x,1/2+y,-z
1/2-x,1/2-y,-z
1/2+x,1/2-y,z
loop_
_atom_site_type_symbol
_atom_site_label
_atom_site_fract_x
_atom_site_fract_y
_atom_site_fract_z
Si Si1 0.791240 0.425890 0.443831
Si Si2 0.132980 0.345205 0.812137
Si Si3 0.431027 0.297860 0.228800
Si Si4 0.616881 0.923585 0.903812
Si Si5 0.406904 0.803203 0.040479
Si Si6 0.662095 0.924755 0.730306
O O1 0.639744 0.500000 0.373062
O O2 0.603250 0.359252 0.339352
O O3 0.000000 0.430752 0.500000
O O4 0.995210 0.415456 0.594718
O O5 0.955819 0.275708 0.730193
O O6 0.062853 0.374564 0.723210
O O7 0.500000 0.336614 0.000000
O O8 0.060913 0.397466 0.819893
O O9 0.189735 0.276683 0.150740
O O10 0.305690 0.323409 0.112576
O O11 0.977245 0.919849 0.093885
O O12 0.520263 0.000000 0.862565
O O13 0.490968 0.868120 0.878029
O O14 0.250000 0.750000 0.000000
O O15 0.599691 0.000000 0.716767
#
# Coordination Sequence:
#
# PCOD9170774 Si02
#       6
#     8   8   8   8   8   8
#     4  10  22  40  57  80 117 159 201 245 291 349
#     4  10  17  34  55  84 113 142 190 246 296 347
#     4  11  22  35  60  86 112 159 194 236 301 357
#     4  10  19  32  58  87 111 148 191 240 299 354
#     4  11  20  37  56  85 122 153 185 245 304 354
#     4   9  18  33  55  81 112 150 193 244 289 338
#
# _framework density 20.111426000000002
#
# number of rings (size 3 to 8) (size 9 to 14) (size 15 to 20)
#    0.000    1.833    3.333    2.500    0.000    5.333 
#    0.000    1.667    0.000    0.000    0.000    3.500 
#    0.000    0.000    0.000    0.000    0.000    0.000 
#
# Total GULP energy -133659.631999 kJ/mol
# GULP energy per Si atom -5569.151333 kJ/mol
# Density = 2.006565 g / cm^3
# Si number density = 20.111426 Si / 1000 Ang^3
#
#
#
# Elastic Constant Matrix: (Units=GPa)
#
#
# Indices 1 2 3 4 5 6 
#
# 1 96.3771 41.1262 16.0797 -0.0008 -26.4846 0.0017
# 2 41.1262 121.6462 30.9685 0.0222 -22.4464 -0.0041
# 3 16.0797 30.9685 38.1172 -0.0404 -25.2558 -0.0289
# 4 -0.0008 0.0222 -0.0404 31.8896 -0.0174 -9.2070
# 5 -26.4846 -22.4464 -25.2558 -0.0174 27.9640 -0.0033
# 6 0.0017 -0.0041 -0.0289 -9.2070 -0.0033 38.2062
#
#
#
# Elastic Compliance Matrix: (Units=1/GPa)
#
#
# Indices 1 2 3 4 5 6 
#
# 1 0.016502 -0.004350 0.011492 0.000036 0.022517 0.000018
# 2 -0.004350 0.011546 -0.010296 -0.000027 -0.004150 -0.000013
# 3 0.011492 -0.010296 0.078409 0.000178 0.073434 0.000107
# 4 0.000036 -0.000027 0.000178 0.033703 0.000194 0.008122
# 5 0.022517 -0.004150 0.073434 0.000194 0.120077 0.000111
# 6 0.000018 -0.000013 0.000107 0.008122 0.000111 0.028131
#
#
# Mechanical properties :
#
#
# Convention : Reuss Voigt Hill
#
# Bulk Modulus (GPa) = 9.98510 48.05434 29.01972
# Shear Modulus (GPa) = 15.24109 30.80971 23.02540
#
# Velocity S-wave (km/s) = 2.75586 3.91826 3.38730
# Velocity P-wave (km/s) = 3.88613 6.66455 5.45520
#
# Compressibility (1/GPa) = 0.10014925
#
# Stress axis : x y z
#
# Youngs Moduli (GPa) = 60.59723 86.60649 12.75366
#
# Poissons Ratio (x) = 0.37673 -0.14656
# Poissons Ratio (y) = 0.26359 0.13131
# Poissons Ratio (z) = -0.69636 0.89170
#
# Static dielectric constant tensor:
#      x y z
#    x 1.718830 -0.000010 0.042130 
#    y -0.000010 1.767240 -0.000030 
#    z 0.042130 -0.000030 1.730660 
# 
# From -- ./inp_files/217364.got.cif
#   From: 2010.05.17/outbox.cif.g08.bks.cpg/sg12_109_cif.got.tgz:217364.got - 2010.06.03 13:09:07.
