data_PCOD9170899
_publ_section_title
;
Structure prediction by ZEFSAII (Michael W. Deem and Ramdas Pophale) SiO2 
 PCOD9170899
Probable space group: C 2/M
;
_chemical_formula_sum "Si O2"
_cell_formula_units_Z 48
_cell_length_a 21.189908
_cell_length_b 11.303194
_cell_length_c 8.670160
_cell_angle_alpha 90.000000
_cell_angle_beta 104.162351
_cell_angle_gamma 90.000000
_cell_volume 2013.505442
_symmetry_space_group_name_H-M "C 2/M"
_symmetry_group_IT_number 12
_symmetry_cell_setting 'monoclinic'
loop_
_space_group_symop_operation_xyz
x,y,z
-x,y,-z
-x,-y,-z
x,-y,z
1/2+x,1/2+y,z
1/2-x,1/2+y,-z
1/2-x,1/2-y,-z
1/2+x,1/2-y,z
loop_
_atom_site_type_symbol
_atom_site_label
_atom_site_fract_x
_atom_site_fract_y
_atom_site_fract_z
Si Si1 0.156173 0.000000 0.536255
Si Si2 0.441470 0.500000 0.789166
Si Si3 0.492975 0.268124 0.307257
Si Si4 0.791461 0.248586 0.823377
Si Si5 0.616846 0.867760 0.351995
Si Si6 0.743369 0.000000 0.167457
Si Si7 0.346272 0.500000 0.977909
Si Si8 0.639291 0.246364 0.673852
O O1 0.128382 0.000000 0.345776
O O2 0.232224 0.000000 0.636786
O O3 0.130722 0.124695 0.587886
O O4 0.481087 0.387289 0.753938
O O5 0.419705 0.500000 0.954862
O O6 0.500000 0.273841 0.500000
O O7 0.542876 0.170086 0.276723
O O8 0.417025 0.243820 0.232110
O O9 0.832140 0.277225 0.693399
O O10 0.793156 0.379896 0.902216
O O11 0.714173 0.234027 0.760850
O O12 0.819119 0.127400 0.905404
O O13 0.625432 0.853772 0.539636
O O14 0.628586 0.000000 0.305320
O O15 0.815296 0.000000 0.130258
#
# Coordination Sequence:
#
# PCOD9170899 Si02
#       8
#     4   4   8   8   8   4   4   8
#     4  10  17  36  60  87 119 155 190 243 318 358
#     4  12  18  34  62  94 121 150 200 255 301 368
#     4  10  19  33  54  88 121 162 195 245 303 368
#     4  11  22  41  60  85 120 161 205 253 307 362
#     4  11  21  34  54  85 123 164 198 248 304 362
#     4  10  24  41  64  88 123 166 198 255 313 372
#     4  12  24  40  65  96 117 157 216 255 303 363
#     4  10  21  33  56  87 123 157 198 247 305 363
#
# _framework density 23.839020999999999
#
# number of rings (size 3 to 8) (size 9 to 14) (size 15 to 20)
#    0.000    1.333    5.833    1.750    1.167    4.333 
#    0.000    0.000    0.000    8.000    0.000    1.167 
#    0.000    0.000    0.000    0.000    0.000    0.000 
#
# Total GULP energy -133916.575174 kJ/mol
# GULP energy per Si atom -5579.857299 kJ/mol
# Density = 2.378476 g / cm^3
# Si number density = 23.839021 Si / 1000 Ang^3
#
#
#
# Elastic Constant Matrix: (Units=GPa)
#
#
# Indices 1 2 3 4 5 6 
#
# 1 159.9987 44.0170 29.4869 0.0000 -31.7309 0.0000
# 2 44.0170 123.0564 31.5080 0.0000 7.0070 0.0000
# 3 29.4869 31.5080 46.9388 0.0000 -14.5729 0.0000
# 4 0.0000 0.0000 0.0000 24.5957 0.0000 -6.4796
# 5 -31.7309 7.0070 -14.5729 0.0000 32.2030 0.0000
# 6 0.0000 0.0000 0.0000 -6.4796 0.0000 29.5579
#
#
#
# Elastic Compliance Matrix: (Units=1/GPa)
#
#
# Indices 1 2 3 4 5 6 
#
# 1 0.009312 -0.003850 -0.000183 0.000000 0.009931 0.000000
# 2 -0.003850 0.012494 -0.009296 0.000000 -0.010718 0.000000
# 3 -0.000183 -0.009296 0.032846 0.000000 0.016706 0.000000
# 4 0.000000 0.000000 0.000000 0.043149 0.000000 0.009459
# 5 0.009931 -0.010718 0.016706 0.000000 0.050731 0.000000
# 6 0.000000 0.000000 0.000000 0.009459 0.000000 0.035905
#
#
# Mechanical properties :
#
#
# Convention : Reuss Voigt Hill
#
# Bulk Modulus (GPa) = 35.72020 60.00197 47.86108
# Shear Modulus (GPa) = 22.68336 32.27011 27.47674
#
# Velocity S-wave (km/s) = 3.08802 3.68321 3.39867
# Velocity P-wave (km/s) = 5.26602 6.58121 5.96001
#
# Compressibility (1/GPa) = 0.02799536
#
# Stress axis : x y z
#
# Youngs Moduli (GPa) = 107.38554 80.03922 30.44520
#
# Poissons Ratio (x) = 0.30812 0.00556
# Poissons Ratio (y) = 0.41340 0.28302
# Poissons Ratio (z) = 0.01962 0.74404
#
# Static dielectric constant tensor:
#      x y z
#    x 1.960390 0.000000 -0.005860 
#    y 0.000000 1.872680 0.000000 
#    z -0.005860 0.000000 1.978860 
# 
# From -- ./inp_files/164148.got.cif
#   From: 2010.05.17/outbox.cif.g08.bks.cpg/sg12_83_cif.got.tgz:164148.got - 2010.06.03 13:09:07.
