data_PCOD9170255
_publ_section_title
;
Structure prediction by ZEFSAII (Michael W. Deem and Ramdas Pophale) SiO2 
 PCOD9170255
Probable space group: C 2/M
;
_chemical_formula_sum "Si O2"
_cell_formula_units_Z 48
_cell_length_a 15.412503
_cell_length_b 19.952138
_cell_length_c 13.757587
_cell_angle_alpha 90.000000
_cell_angle_beta 31.894578
_cell_angle_gamma 90.000000
_cell_volume 2235.286337
_symmetry_space_group_name_H-M "C 2/M"
_symmetry_group_IT_number 12
_symmetry_cell_setting 'monoclinic'
loop_
_space_group_symop_operation_xyz
x,y,z
-x,y,-z
-x,-y,-z
x,-y,z
1/2+x,1/2+y,z
1/2-x,1/2+y,-z
1/2-x,1/2-y,-z
1/2+x,1/2-y,z
loop_
_atom_site_type_symbol
_atom_site_label
_atom_site_fract_x
_atom_site_fract_y
_atom_site_fract_z
Si Si1 0.174477 0.699885 0.217070
Si Si2 0.687745 0.572523 0.361049
Si Si3 0.169802 0.713992 0.784417
Si Si4 0.497506 0.276199 0.777664
Si Si5 0.805428 0.077840 0.202418
Si Si6 0.877734 0.924555 0.352357
O O1 0.188994 0.744300 0.299015
O O2 0.031205 0.727300 0.285829
O O3 0.196656 0.624918 0.236862
O O4 0.333860 0.718205 0.999655
O O5 0.500000 0.580438 0.500000
O O6 0.744036 0.500000 0.269445
O O7 0.790991 0.636830 0.235821
O O8 0.699756 0.570354 0.467097
O O9 0.138960 0.741138 0.706373
O O10 0.000000 0.729137 0.000000
O O11 0.526154 0.354473 0.727610
O O12 0.779904 0.085158 0.343429
O O13 0.783047 0.000000 0.199087
O O14 0.000000 0.095144 0.000000
O O15 0.957574 0.000000 0.262590
#
# Coordination Sequence:
#
# PCOD9170255 Si02
#       6
#     8   8   8   8   8   8
#     4  10  18  32  51  80 116 150 187 232 288 342
#     4  10  22  39  58  82 114 153 197 244 289 338
#     4  10  20  37  57  81 114 151 192 239 293 344
#     4  10  19  31  53  82 114 150 186 234 289 343
#     4  10  17  30  53  79 110 147 190 237 284 338
#     4  10  19  33  55  81 108 144 190 237 286 333
#
# _framework density 21.473759999999999
#
# number of rings (size 3 to 8) (size 9 to 14) (size 15 to 20)
#    0.000    2.000    3.333    1.500    0.000    1.000 
#    0.000    0.833    0.000    3.000    0.000    3.500 
#    0.000    0.000    0.000    0.000    0.000    0.000 
#
# Total GULP energy -133675.349225 kJ/mol
# GULP energy per Si atom -5569.806218 kJ/mol
# Density = 2.142488 g / cm^3
# Si number density = 21.473760 Si / 1000 Ang^3
#
#
#
# Elastic Constant Matrix: (Units=GPa)
#
#
# Indices 1 2 3 4 5 6 
#
# 1 131.6009 71.8725 14.5586 0.0068 12.0289 -0.0145
# 2 71.8725 158.8659 4.0489 0.0125 -9.6276 -0.0142
# 3 14.5586 4.0489 16.7923 0.0054 -0.9371 -0.0077
# 4 0.0068 0.0125 0.0054 -6.4921 -0.0079 38.4968
# 5 12.0289 -9.6276 -0.9371 -0.0079 14.8792 0.0087
# 6 -0.0145 -0.0142 -0.0077 38.4968 0.0087 3.7449
#
#
#
# Elastic Compliance Matrix: (Units=1/GPa)
#
#
# Indices 1 2 3 4 5 6 
#
# 1 0.014423 -0.007263 -0.011708 0.000004 -0.017097 -0.000001
# 2 -0.007263 0.010239 0.004541 -0.000001 0.012783 0.000000
# 3 -0.011708 0.004541 0.069543 0.000008 0.016783 -0.000004
# 4 0.000004 -0.000001 0.000008 -0.002486 -0.000020 0.025557
# 5 -0.017097 0.012783 0.016783 -0.000020 0.090358 0.000012
# 6 -0.000001 0.000000 -0.000004 0.025557 0.000012 0.004310
#
#
# Mechanical properties :
#
#
# Convention : Reuss Voigt Hill
#
# Bulk Modulus (GPa) = 15.30286 54.24655 34.77470
# Shear Modulus (GPa) = 21.09447 16.87835 18.98641
#
# Velocity S-wave (km/s) = 3.13763 2.80661 2.97672
# Velocity P-wave (km/s) = 4.50200 5.98493 5.29563
#
# Compressibility (1/GPa) = 0.06534726
#
# Stress axis : x y z
#
# Youngs Moduli (GPa) = 69.33234 97.66192 14.37958
#
# Poissons Ratio (x) = 0.70932 0.16835
# Poissons Ratio (y) = 0.50356 -0.06530
# Poissons Ratio (z) = 0.81172 -0.44352
#
# Static dielectric constant tensor:
#      x y z
#    x 1.845390 -0.000010 0.062660 
#    y -0.000010 1.800990 0.000010 
#    z 0.062660 0.000010 1.852350 
# 
# From -- ./inp_files/216248.got.cif
#   From: 2010.05.17/outbox.cif.g08.bks.cpg/sg12_109_cif.got.tgz:216248.got - 2010.06.03 13:09:07.
