data_PCOD9170187
_publ_section_title
;
Structure prediction by ZEFSAII (Michael W. Deem and Ramdas Pophale) SiO2 
 PCOD9170187
Probable space group: C 2/M
;
_chemical_formula_sum "Si O2"
_cell_formula_units_Z 56
_cell_length_a 20.159172
_cell_length_b 7.649410
_cell_length_c 29.978922
_cell_angle_alpha 90.000000
_cell_angle_beta 141.483172
_cell_angle_gamma 90.000000
_cell_volume 2878.899590
_symmetry_space_group_name_H-M "C 2/M"
_symmetry_group_IT_number 12
_symmetry_cell_setting 'monoclinic'
loop_
_space_group_symop_operation_xyz
x,y,z
-x,y,-z
-x,-y,-z
x,-y,z
1/2+x,1/2+y,z
1/2-x,1/2+y,-z
1/2-x,1/2-y,-z
1/2+x,1/2-y,z
loop_
_atom_site_type_symbol
_atom_site_label
_atom_site_fract_x
_atom_site_fract_y
_atom_site_fract_z
Si Si1 0.347573 0.708776 0.949136
Si Si2 0.413337 0.289143 0.306645
Si Si3 0.149929 0.790550 0.416710
Si Si4 0.117608 0.791144 0.810036
Si Si5 0.879495 0.214070 0.698958
Si Si6 0.564484 0.285886 0.100673
Si Si7 0.713471 0.708104 0.258476
O O1 0.356240 0.500000 0.952496
O O2 0.224788 0.749985 0.892892
O O3 0.379227 0.770876 0.915912
O O4 0.441013 0.769415 0.031441
O O5 0.413123 0.500000 0.305626
O O6 0.535614 0.228780 0.375514
O O7 0.374367 0.226399 0.237116
O O8 0.331257 0.236120 0.301428
O O9 0.250000 0.750000 0.500000
O O10 0.158861 0.727654 0.370187
O O11 0.142175 0.000000 0.410224
O O12 0.003627 0.732159 0.768834
O O13 0.110973 0.000000 0.804051
O O14 0.811700 0.275933 0.705432
O O15 0.876852 0.000000 0.697110
O O16 0.567227 0.500000 0.102844
O O17 0.630196 0.222496 0.177734
O O18 0.696594 0.500000 0.251477
#
# Coordination Sequence:
#
# PCOD9170187 Si02
#       7
#     8   8   8   8   8   8   8
#     4   9  15  26  42  64  92 120 157 201 235 265
#     4   9  18  31  48  70  97 123 148 188 236 272
#     4   9  18  35  55  74  96 122 151 185 226 273
#     4   9  16  29  46  65  90 123 158 192 232 277
#     4   8  17  32  50  70  95 123 152 190 233 272
#     4   8  15  25  41  65  93 121 152 196 239 267
#     4  10  17  30  51  71  90 122 164 194 222 273
#
# _framework density 19.451877
#
# number of rings (size 3 to 8) (size 9 to 14) (size 15 to 20)
#    0.000    3.143    1.429    2.571    0.000    0.571 
#    0.000    7.143    0.000    4.286    0.000    0.000 
#    0.000    0.000    0.000    0.000    0.000    0.000 
#
# Total GULP energy -156015.472127 kJ/mol
# GULP energy per Si atom -5571.981147 kJ/mol
# Density = 1.940760 g / cm^3
# Si number density = 19.451877 Si / 1000 Ang^3
#
#
#
# Elastic Constant Matrix: (Units=GPa)
#
#
# Indices 1 2 3 4 5 6 
#
# 1 149.8715 4.8698 79.6403 -0.0003 5.0725 0.0004
# 2 4.8698 30.1833 2.1191 -0.0006 -4.1197 -0.0001
# 3 79.6403 2.1191 155.9923 0.0001 11.8699 0.0001
# 4 -0.0003 -0.0006 0.0001 18.7203 0.0000 6.9429
# 5 5.0725 -4.1197 11.8699 0.0000 18.2524 0.0000
# 6 0.0004 -0.0001 0.0001 6.9429 0.0000 14.0882
#
#
#
# Elastic Compliance Matrix: (Units=1/GPa)
#
#
# Indices 1 2 3 4 5 6 
#
# 1 0.009198 -0.001120 -0.004699 0.000000 0.000247 0.000000
# 2 -0.001120 0.034503 -0.000540 0.000001 0.008450 0.000000
# 3 -0.004699 -0.000540 0.009181 0.000000 -0.004787 0.000000
# 4 0.000000 0.000001 0.000000 0.065365 0.000000 -0.032213
# 5 0.000247 0.008450 -0.004787 0.000000 0.059739 0.000000
# 6 0.000000 0.000000 0.000000 -0.032213 0.000000 0.086856
#
#
# Mechanical properties :
#
#
# Convention : Reuss Voigt Hill
#
# Bulk Modulus (GPa) = 24.89847 56.58948 40.74398
# Shear Modulus (GPa) = 17.18521 26.84005 22.01263
#
# Velocity S-wave (km/s) = 2.97555 3.71862 3.36764
# Velocity P-wave (km/s) = 4.96317 6.89875 6.00940
#
# Compressibility (1/GPa) = 0.04016311
#
# Stress axis : x y z
#
# Youngs Moduli (GPa) = 108.72402 28.98310 108.91674
#
# Poissons Ratio (x) = 0.03247 0.51184
# Poissons Ratio (y) = 0.12180 0.05879
# Poissons Ratio (z) = 0.51093 0.01564
#
# Static dielectric constant tensor:
#      x y z
#    x 1.680130 0.000000 0.011820 
#    y 0.000000 1.741530 0.000000 
#    z 0.011820 0.000000 1.688190 
# 
# From -- ./inp_files/223355.got.cif
#   From: 2010.05.17/outbox.cif.g08.bks.cpg/sg12_112_cif.got.tgz:223355.got - 2010.06.03 13:09:07.
