data_PCOD9170895
_publ_section_title
;
Structure prediction by ZEFSAII (Michael W. Deem and Ramdas Pophale) SiO2 
 PCOD9170895
Probable space group: C 2/M
;
_chemical_formula_sum "Si O2"
_cell_formula_units_Z 48
_cell_length_a 13.582758
_cell_length_b 24.124068
_cell_length_c 18.023227
_cell_angle_alpha 90.000000
_cell_angle_beta 158.763341
_cell_angle_gamma 90.000000
_cell_volume 2139.167066
_symmetry_space_group_name_H-M "C 2/M"
_symmetry_group_IT_number 12
_symmetry_cell_setting 'monoclinic'
loop_
_space_group_symop_operation_xyz
x,y,z
-x,y,-z
-x,-y,-z
x,-y,z
1/2+x,1/2+y,z
1/2-x,1/2+y,-z
1/2-x,1/2-y,-z
1/2+x,1/2-y,z
loop_
_atom_site_type_symbol
_atom_site_label
_atom_site_fract_x
_atom_site_fract_y
_atom_site_fract_z
Si Si1 0.108920 0.714903 0.697451
Si Si2 0.385198 0.322603 0.749133
Si Si3 0.181462 0.061542 0.355451
Si Si4 0.146599 0.384678 0.973917
Si Si5 0.612060 0.666519 0.660386
Si Si6 0.564449 0.113641 0.331427
O O1 0.818267 0.707740 0.450355
O O2 0.087714 0.669058 0.746292
O O3 0.336076 0.699919 0.795996
O O4 0.149756 0.779789 0.738363
O O5 0.292403 0.387445 0.683040
O O6 0.687047 0.328095 0.929191
O O7 0.394606 0.072453 0.571191
O O8 0.204131 0.000000 0.341780
O O9 0.870789 0.074027 0.165063
O O10 0.883304 0.368359 0.835338
O O11 0.065256 0.407724 0.835534
O O12 0.500000 0.684618 0.500000
O O13 0.368338 0.631822 0.523347
#
# Coordination Sequence:
#
# PCOD9170895 Si02
#       6
#     8   8   8   8   8   8
#     4  10  17  36  58  83 122 154 186 237 288 343
#     4   8  18  35  57  84 113 149 195 232 279 353
#     4   9  20  41  62  82 116 154 192 250 299 329
#     4   9  21  38  57  85 118 146 202 238 280 352
#     4  10  19  35  57  83 122 160 184 237 289 337
#     4  10  21  36  58  87 117 148 200 239 282 351
#
# _framework density 22.438639999999999
#
# number of rings (size 3 to 8) (size 9 to 14) (size 15 to 20)
#    1.000    1.667    1.667    0.500    0.000    2.667 
#    0.000   10.000    0.000    4.000    0.000    0.000 
#    0.000    0.000    0.000    0.000    0.000    0.000 
#
# Total GULP energy -133823.788621 kJ/mol
# GULP energy per Si atom -5575.991193 kJ/mol
# Density = 2.238757 g / cm^3
# Si number density = 22.438640 Si / 1000 Ang^3
#
#
#
# Elastic Constant Matrix: (Units=GPa)
#
#
# Indices 1 2 3 4 5 6 
#
# 1 57.5145 -6.2578 9.4563 -0.0063 -5.6276 0.0034
# 2 -6.2578 31.0903 -2.7645 -0.0082 -16.7802 -0.0058
# 3 9.4563 -2.7645 77.2676 -0.0204 -0.0075 -0.0251
# 4 -0.0063 -0.0082 -0.0204 14.3252 -0.0059 1.5949
# 5 -5.6276 -16.7802 -0.0075 -0.0059 40.8823 0.0014
# 6 0.0034 -0.0058 -0.0251 1.5949 0.0014 -6.3566
#
#
#
# Elastic Compliance Matrix: (Units=1/GPa)
#
#
# Indices 1 2 3 4 5 6 
#
# 1 0.018949 0.006469 -0.002087 0.000009 0.005263 0.000016
# 2 0.006469 0.043696 0.000773 0.000039 0.018826 -0.000025
# 3 -0.002087 0.000773 0.013225 0.000024 0.000033 -0.000048
# 4 0.000009 0.000039 0.000024 0.067910 0.000027 0.017038
# 5 0.005263 0.018826 0.000033 0.000027 0.032912 -0.000001
# 6 0.000016 -0.000025 -0.000048 0.017038 -0.000001 -0.153041
#
#
# Mechanical properties :
#
#
# Convention : Reuss Voigt Hill
#
# Bulk Modulus (GPa) = 11.60345 18.52672 15.06509
# Shear Modulus (GPa) = 118.85777 20.79941 69.82859
#
# Velocity S-wave (km/s) = 7.28595 3.04788 5.58456
# Velocity P-wave (km/s) = 8.71565 4.54540 6.95066
#
# Compressibility (1/GPa) = 0.08618123
#
# Stress axis : x y z
#
# Youngs Moduli (GPa) = 52.77344 22.88535 75.61368
#
# Poissons Ratio (x) = -0.14805 0.15781
# Poissons Ratio (y) = -0.34140 -0.05848
# Poissons Ratio (z) = 0.11014 -0.01770
#
# Static dielectric constant tensor:
#      x y z
#    x 1.919150 0.000010 -0.037790 
#    y 0.000010 1.802100 -0.000010 
#    z -0.037790 -0.000010 1.894000 
# 
# From -- ./inp_files/312607.got.cif
#   From: 2010.05.17/outbox.cif.g08.bks.cpg/sg12_157_cif.got.tgz:312607.got - 2010.06.03 13:09:07.
