data_PCOD9170352
_publ_section_title
;
Structure prediction by ZEFSAII (Michael W. Deem and Ramdas Pophale) SiO2 
 PCOD9170352
Probable space group: C 2/M
;
_chemical_formula_sum "Si O2"
_cell_formula_units_Z 58
_cell_length_a 13.635939
_cell_length_b 14.489307
_cell_length_c 16.298729
_cell_angle_alpha 90.000000
_cell_angle_beta 58.524126
_cell_angle_gamma 90.000000
_cell_volume 2746.402594
_symmetry_space_group_name_H-M "C 2/M"
_symmetry_group_IT_number 12
_symmetry_cell_setting 'monoclinic'
loop_
_space_group_symop_operation_xyz
x,y,z
-x,y,-z
-x,-y,-z
x,-y,z
1/2+x,1/2+y,z
1/2-x,1/2+y,-z
1/2-x,1/2-y,-z
1/2+x,1/2-y,z
loop_
_atom_site_type_symbol
_atom_site_label
_atom_site_fract_x
_atom_site_fract_y
_atom_site_fract_z
Si Si1 0.770219 0.397049 0.315289
Si Si2 0.000000 0.000000 0.000000
Si Si3 0.937693 0.160019 0.135121
Si Si4 0.816041 0.185864 0.907064
Si Si5 0.390795 0.132648 0.097882
Si Si6 0.627508 0.104678 0.407695
Si Si7 0.084974 0.225664 0.308548
Si Si8 0.337879 0.705775 0.356556
O O1 0.755325 0.500000 0.355930
O O2 0.863658 0.402110 0.200637
O O3 0.655888 0.356371 0.321299
O O4 0.808816 0.313979 0.357366
O O5 0.081668 0.079816 0.920381
O O6 0.911051 0.257919 0.104790
O O7 0.873494 0.165157 0.250787
O O8 0.071923 0.144604 0.099716
O O9 0.721343 0.118911 0.909281
O O10 0.869107 0.236754 0.804302
O O11 0.750000 0.250000 0.000000
O O12 0.500000 0.099306 0.000000
O O13 0.500000 0.101226 0.500000
O O14 0.615036 0.180168 0.341505
O O15 0.723825 0.147848 0.426447
O O16 0.659728 0.000000 0.370011
O O17 0.950361 0.201085 0.363706
#
# Coordination Sequence:
#
# PCOD9170352 Si02
#       8
#     8   2   8   8   8   8   8   8
#     4   9  19  34  54  77 107 146 192 236 280 335
#     4  12  20  32  52  80 114 148 202 244 276 334
#     4  10  20  32  50  79 106 150 189 242 283 332
#     4  10  17  32  53  74 110 148 194 232 278 335
#     4  10  17  31  50  65 104 146 187 228 285 321
#     4  10  22  40  62  91 120 149 193 248 305 367
#     4   9  20  37  60  83 114 156 191 236 300 347
#     4   9  20  38  58  82 114 153 190 238 295 359
#
# _framework density 21.118535999999999
#
# number of rings (size 3 to 8) (size 9 to 14) (size 15 to 20)
#    0.000    2.345    2.069    0.828    0.966    1.931 
#    9.931    0.000    0.000    6.621    0.000    0.000 
#    0.000    0.000    0.000    0.000    0.000    0.000 
#
# Total GULP energy -161457.810232 kJ/mol
# GULP energy per Si atom -5567.510698 kJ/mol
# Density = 2.107047 g / cm^3
# Si number density = 21.118536 Si / 1000 Ang^3
#
#
#
# Elastic Constant Matrix: (Units=GPa)
#
#
# Indices 1 2 3 4 5 6 
#
# 1 93.1797 9.5856 24.1135 0.0000 -32.9462 0.0000
# 2 9.5856 139.0148 14.9951 0.0000 -9.6624 0.0000
# 3 24.1135 14.9951 37.4580 0.0000 -15.6044 0.0000
# 4 0.0000 0.0000 0.0000 16.3077 0.0000 -8.7887
# 5 -32.9462 -9.6624 -15.6044 0.0000 34.3197 0.0000
# 6 0.0000 0.0000 0.0000 -8.7887 0.0000 -2.0757
#
#
#
# Elastic Compliance Matrix: (Units=1/GPa)
#
#
# Indices 1 2 3 4 5 6 
#
# 1 0.017024 0.000370 -0.005250 0.000000 0.014059 0.000000
# 2 0.000370 0.007550 -0.002747 0.000000 0.001231 0.000000
# 3 -0.005250 -0.002747 0.035473 0.000000 0.010315 0.000000
# 4 0.000000 0.000000 0.000000 0.018684 0.000000 -0.079113
# 5 0.014059 0.001231 0.010315 0.000000 0.047671 0.000000
# 6 0.000000 0.000000 0.000000 -0.079113 0.000000 -0.146797
#
#
# Mechanical properties :
#
#
# Convention : Reuss Voigt Hill
#
# Bulk Modulus (GPa) = 22.32575 40.78233 31.55404
# Shear Modulus (GPa) = 510.64804 24.44092 267.54448
#
# Velocity S-wave (km/s) = 15.56682 3.40563 11.26774
# Velocity P-wave (km/s) = 18.26734 5.90064 13.57411
#
# Compressibility (1/GPa) = 0.04479133
#
# Stress axis : x y z
#
# Youngs Moduli (GPa) = 58.74195 132.45163 28.19020
#
# Poissons Ratio (x) = -0.04896 0.14800
# Poissons Ratio (y) = -0.02172 0.07745
# Poissons Ratio (z) = 0.30840 0.36390
#
# Static dielectric constant tensor:
#      x y z
#    x 1.816310 0.000000 -0.000090 
#    y 0.000000 1.757010 0.000000 
#    z -0.000090 0.000000 1.825860 
# 
# From -- ./inp_files/310555.got.cif
#   From: 2010.05.17/outbox.cif.g08.bks.cpg/sg12_156_cif.got.tgz:310555.got - 2010.06.03 13:09:07.
