data_PCOD9170133
_publ_section_title
;
Structure prediction by ZEFSAII (Michael W. Deem and Ramdas Pophale) SiO2 
 PCOD9170133
Probable space group: C 2/M
;
_chemical_formula_sum "Si O2"
_cell_formula_units_Z 48
_cell_length_a 28.442496
_cell_length_b 8.077547
_cell_length_c 21.505472
_cell_angle_alpha 90.000000
_cell_angle_beta 32.037322
_cell_angle_gamma 90.000000
_cell_volume 2620.947285
_symmetry_space_group_name_H-M "C 2/M"
_symmetry_group_IT_number 12
_symmetry_cell_setting 'monoclinic'
loop_
_space_group_symop_operation_xyz
x,y,z
-x,y,-z
-x,-y,-z
x,-y,z
1/2+x,1/2+y,z
1/2-x,1/2+y,-z
1/2-x,1/2-y,-z
1/2+x,1/2-y,z
loop_
_atom_site_type_symbol
_atom_site_label
_atom_site_fract_x
_atom_site_fract_y
_atom_site_fract_z
Si Si1 0.738312 0.191510 0.103502
Si Si2 0.226749 0.190961 0.250290
Si Si3 0.945515 0.702854 0.744039
Si Si4 0.434477 0.191562 0.890740
Si Si5 0.576022 0.305485 0.960810
Si Si6 0.553444 0.799965 0.502009
O O1 0.709305 0.200340 0.208302
O O2 0.655630 0.254887 0.156693
O O3 0.757283 0.000000 0.066706
O O4 0.828227 0.294475 0.999718
O O5 0.328663 0.220252 0.154549
O O6 0.153821 0.238936 0.382528
O O7 0.215515 0.000000 0.245423
O O8 0.944026 0.500000 0.745870
O O9 0.973785 0.755461 0.781503
O O10 0.005972 0.756124 0.618599
O O11 0.458619 0.000000 0.872041
O O12 0.451989 0.282765 0.935761
O O13 0.589063 0.500000 0.934295
O O14 0.500000 0.242417 0.000000
O O15 0.500000 0.744891 0.500000
O O16 0.552768 0.000000 0.502829
#
# Coordination Sequence:
#
# PCOD9170133 Si02
#       6
#     8   8   8   8   8   8
#     4  10  17  30  48  68  99 140 178 203 238 297
#     4  11  21  32  49  78 108 132 167 215 260 296
#     4   9  18  30  47  71 101 140 176 203 241 294
#     4  10  19  31  48  75 105 129 162 210 261 303
#     4  10  21  38  59  78  96 126 169 212 257 313
#     4  10  18  33  53  70 100 147 184 207 235 289
#
# _framework density 18.313988999999999
#
# number of rings (size 3 to 8) (size 9 to 14) (size 15 to 20)
#    0.000    2.000    1.667    5.500    0.000    1.667 
#    0.000    4.167    0.000    1.000    0.000    0.000 
#    0.000    0.000    0.000    0.000    0.000    0.000 
#
# Total GULP energy -133916.807466 kJ/mol
# GULP energy per Si atom -5579.866978 kJ/mol
# Density = 1.827231 g / cm^3
# Si number density = 18.313989 Si / 1000 Ang^3
#
#
#
# Elastic Constant Matrix: (Units=GPa)
#
#
# Indices 1 2 3 4 5 6 
#
# 1 106.8206 0.0835 48.8398 0.0005 7.7822 -0.0013
# 2 0.0835 33.3591 -1.2337 0.0110 -1.5801 -0.0132
# 3 48.8398 -1.2337 78.3739 0.0012 23.2810 -0.0042
# 4 0.0005 0.0110 0.0012 17.8662 0.0009 2.6876
# 5 7.7822 -1.5801 23.2810 0.0009 21.2310 -0.0014
# 6 -0.0013 -0.0132 -0.0042 2.6876 -0.0014 7.8422
#
#
#
# Elastic Compliance Matrix: (Units=1/GPa)
#
#
# Indices 1 2 3 4 5 6 
#
# 1 0.013657 -0.000116 -0.010415 0.000000 0.006407 -0.000002
# 2 -0.000116 0.030088 -0.000196 -0.000028 0.002496 0.000060
# 3 -0.010415 -0.000196 0.026869 -0.000001 -0.025660 0.000008
# 4 0.000000 -0.000028 -0.000001 0.059014 -0.000005 -0.020225
# 5 0.006407 0.002496 -0.025660 -0.000005 0.073077 0.000007
# 6 -0.000002 0.000060 0.000008 -0.020225 0.000007 0.134447
#
#
# Mechanical properties :
#
#
# Convention : Reuss Voigt Hill
#
# Bulk Modulus (GPa) = 20.34161 34.88143 27.61152
# Shear Modulus (GPa) = 13.33359 20.77881 17.05620
#
# Velocity S-wave (km/s) = 2.70118 3.37202 3.05507
# Velocity P-wave (km/s) = 4.56725 5.85221 5.24919
#
# Compressibility (1/GPa) = 0.04916032
#
# Stress axis : x y z
#
# Youngs Moduli (GPa) = 73.22306 33.23567 37.21729
#
# Poissons Ratio (x) = 0.00385 0.38763
# Poissons Ratio (y) = 0.00849 0.00728
# Poissons Ratio (z) = 0.76265 0.00650
#
# Static dielectric constant tensor:
#      x y z
#    x 1.632660 0.000000 0.032370 
#    y 0.000000 1.622710 0.000000 
#    z 0.032370 0.000000 1.658020 
# 
# From -- ./inp_files/329012.got.cif
#   From: 2010.05.17/outbox.cif.g08.bks.cpg/sg12_165_cif.got.tgz:329012.got - 2010.06.03 13:09:07.
