data_PCOD9170648
_publ_section_title
;
Structure prediction by ZEFSAII (Michael W. Deem and Ramdas Pophale) SiO2 
 PCOD9170648
Probable space group: C 2/M
;
_chemical_formula_sum "Si O2"
_cell_formula_units_Z 64
_cell_length_a 20.199036
_cell_length_b 20.276839
_cell_length_c 20.035644
_cell_angle_alpha 90.000000
_cell_angle_beta 150.612747
_cell_angle_gamma 90.000000
_cell_volume 4026.790513
_symmetry_space_group_name_H-M "C 2/M"
_symmetry_group_IT_number 12
_symmetry_cell_setting 'monoclinic'
loop_
_space_group_symop_operation_xyz
x,y,z
-x,y,-z
-x,-y,-z
x,-y,z
1/2+x,1/2+y,z
1/2-x,1/2+y,-z
1/2-x,1/2-y,-z
1/2+x,1/2-y,z
loop_
_atom_site_type_symbol
_atom_site_label
_atom_site_fract_x
_atom_site_fract_y
_atom_site_fract_z
Si Si1 0.175609 0.422712 0.346251
Si Si2 0.756697 0.922550 0.062089
Si Si3 0.994741 0.218481 0.072444
Si Si4 0.434114 0.811072 0.654999
Si Si5 0.261329 0.810406 0.062575
Si Si6 0.939080 0.077260 0.653204
Si Si7 0.502954 0.122606 0.925854
Si Si8 0.168248 0.811307 0.345415
O O1 0.148882 0.500000 0.333613
O O2 0.094947 0.377066 0.327717
O O3 0.333230 0.409955 0.500515
O O4 0.124140 0.402945 0.228237
O O5 0.635887 0.903302 0.005124
O O6 0.904252 0.909910 0.223698
O O7 0.746967 0.000000 0.037462
O O8 0.748162 0.876729 0.989490
O O9 0.119633 0.193886 0.227097
O O10 0.859492 0.195099 0.991212
O O11 0.995613 0.298091 0.075430
O O12 0.000000 0.197874 0.000000
O O13 0.590577 0.806660 0.774998
O O14 0.327357 0.809063 0.500901
O O15 0.396421 0.750509 0.671137
O O16 0.250000 0.750000 0.000000
O O17 0.891739 0.123801 0.671876
O O18 0.926394 0.000000 0.659656
O O19 0.500000 0.101331 0.000000
#
# Coordination Sequence:
#
# PCOD9170648 Si02
#       8
#     8   8   8   8   8   8   8   8
#     4  10  18  32  49  74 108 136 168 211 259 306
#     4  11  20  32  53  80 105 132 177 219 255 305
#     4  11  22  36  54  77 109 143 174 213 264 313
#     4  10  19  28  53  81  96 130 176 217 258 301
#     4  12  18  34  54  78 101 136 175 219 260 298
#     4   9  19  31  51  78 102 130 171 219 260 303
#     4  11  22  35  50  75 109 144 177 210 258 314
#     4  10  17  33  52  74 104 131 169 218 261 302
#
# _framework density 15.893551
#
# number of rings (size 3 to 8) (size 9 to 14) (size 15 to 20)
#    0.000    1.500    6.250    0.375    0.000    1.000 
#    0.000    1.250    0.000    6.750    0.000    0.000 
#    0.000    5.000    0.000    0.000    0.000    0.000 
#
# Total GULP energy -178474.084664 kJ/mol
# GULP energy per Si atom -5577.315146 kJ/mol
# Density = 1.585738 g / cm^3
# Si number density = 15.893551 Si / 1000 Ang^3
#
#
#
# Elastic Constant Matrix: (Units=GPa)
#
#
# Indices 1 2 3 4 5 6 
#
# 1 84.7750 30.2417 65.3131 -0.0005 -8.6376 -0.0005
# 2 30.2417 61.8470 40.1856 -0.0006 -5.3736 -0.0006
# 3 65.3131 40.1856 160.1342 -0.0008 -4.2136 -0.0007
# 4 -0.0005 -0.0006 -0.0008 22.7515 -0.0005 0.0302
# 5 -8.6376 -5.3736 -4.2136 -0.0005 25.1987 -0.0005
# 6 -0.0005 -0.0006 -0.0007 0.0302 -0.0005 15.4659
#
#
#
# Elastic Compliance Matrix: (Units=1/GPa)
#
#
# Indices 1 2 3 4 5 6 
#
# 1 0.018837 -0.004675 -0.006394 0.000000 0.004391 0.000000
# 2 -0.004675 0.020760 -0.003243 0.000000 0.002282 0.000001
# 3 -0.006394 -0.003243 0.009633 0.000000 -0.001273 0.000000
# 4 0.000000 0.000000 0.000000 0.043953 0.000001 -0.000086
# 5 0.004391 0.002282 -0.001273 0.000001 0.041464 0.000002
# 6 0.000000 0.000001 0.000000 -0.000086 0.000002 0.064659
#
#
# Mechanical properties :
#
#
# Convention : Reuss Voigt Hill
#
# Bulk Modulus (GPa) = 48.52860 64.24858 56.38859
# Shear Modulus (GPa) = 21.29476 24.08428 22.68952
#
# Velocity S-wave (km/s) = 3.66435 3.89697 3.78245
# Velocity P-wave (km/s) = 6.96441 7.79491 7.39133
#
# Compressibility (1/GPa) = 0.02060640
#
# Stress axis : x y z
#
# Youngs Moduli (GPa) = 53.08592 48.16896 103.80769
#
# Poissons Ratio (x) = 0.22517 0.66379
# Poissons Ratio (y) = 0.24816 0.33666
# Poissons Ratio (z) = 0.33946 0.15622
#
# Static dielectric constant tensor:
#      x y z
#    x 1.486850 0.000000 0.015600 
#    y 0.000000 1.539030 0.000000 
#    z 0.015600 0.000000 1.569450 
# 
# From -- ./inp_files/285228.got.cif
#   From: 2010.05.17/outbox.cif.g08.bks.cpg/sg12_143_cif.got.tgz:285228.got - 2010.06.03 13:09:07.
