data_PCOD9170515
_publ_section_title
;
Structure prediction by ZEFSAII (Michael W. Deem and Ramdas Pophale) SiO2 
 PCOD9170515
Probable space group: C 2/M
;
_chemical_formula_sum "Si O2"
_cell_formula_units_Z 64
_cell_length_a 16.849759
_cell_length_b 16.669918
_cell_length_c 15.142620
_cell_angle_alpha 90.000000
_cell_angle_beta 122.324784
_cell_angle_gamma 90.000000
_cell_volume 3594.186625
_symmetry_space_group_name_H-M "C 2/M"
_symmetry_group_IT_number 12
_symmetry_cell_setting 'monoclinic'
loop_
_space_group_symop_operation_xyz
x,y,z
-x,y,-z
-x,-y,-z
x,-y,z
1/2+x,1/2+y,z
1/2-x,1/2+y,-z
1/2-x,1/2-y,-z
1/2+x,1/2-y,z
loop_
_atom_site_type_symbol
_atom_site_label
_atom_site_fract_x
_atom_site_fract_y
_atom_site_fract_z
Si Si1 0.221030 0.713529 0.575711
Si Si2 0.662221 0.842114 0.273384
Si Si3 0.315142 0.593364 0.745947
Si Si4 0.082171 0.594107 0.413699
Si Si5 0.886494 0.413078 0.936059
Si Si6 0.633323 0.906813 0.762031
Si Si7 0.524271 0.294173 0.115965
Si Si8 0.351453 0.213864 0.066422
O O1 0.250000 0.750000 0.500000
O O2 0.242665 0.789465 0.653348
O O3 0.294723 0.645217 0.647372
O O4 0.126381 0.661606 0.504932
O O5 0.625109 0.884383 0.341413
O O6 0.659685 0.900500 0.187770
O O7 0.586462 0.776039 0.196347
O O8 0.320065 0.500000 0.731670
O O9 0.223744 0.608576 0.753625
O O10 0.411788 0.627081 0.842525
O O11 0.105322 0.500000 0.449125
O O12 0.969184 0.600243 0.343977
O O13 0.856958 0.500000 0.953945
O O14 0.862429 0.341899 0.987202
O O15 0.000000 0.413851 0.000000
O O16 0.635025 0.843815 0.842188
O O17 0.640302 0.000000 0.796111
O O18 0.426673 0.285974 0.109121
O O19 0.500000 0.278911 0.000000
O O20 0.250000 0.250000 0.000000
#
# Coordination Sequence:
#
# PCOD9170515 Si02
#       8
#     8   8   8   8   8   8   8   8
#     4   9  20  33  55  79 107 141 183 230 275 334
#     4  10  17  32  52  79 110 142 184 227 268 328
#     4  10  22  38  57  80 112 149 186 226 270 328
#     4  10  18  32  53  80 112 141 178 232 289 332
#     4  11  20  33  56  83 112 145 181 227 277 324
#     4  10  21  35  54  83 117 146 176 224 281 331
#     4  11  19  35  54  78 109 146 195 225 259 321
#     4  12  22  34  54  82 115 150 183 222 269 323
#
# _framework density 17.806533000000002
#
# number of rings (size 3 to 8) (size 9 to 14) (size 15 to 20)
#    0.000    1.625    3.750    1.875    1.750    2.750 
#    0.000    3.125    0.000    0.000    0.000    0.000 
#    0.000    2.000    0.000    0.000    0.000    0.000 
#
# Total GULP energy -178230.046463 kJ/mol
# GULP energy per Si atom -5569.688952 kJ/mol
# Density = 1.776600 g / cm^3
# Si number density = 17.806533 Si / 1000 Ang^3
#
#
#
# Elastic Constant Matrix: (Units=GPa)
#
#
# Indices 1 2 3 4 5 6 
#
# 1 73.2052 56.5155 33.9669 0.0000 17.8101 0.0000
# 2 56.5155 94.1256 39.6106 0.0000 10.8373 0.0000
# 3 33.9669 39.6106 84.4537 0.0000 12.2735 0.0000
# 4 0.0000 0.0000 0.0000 0.1567 0.0000 8.8855
# 5 17.8101 10.8373 12.2735 0.0000 23.7405 0.0000
# 6 0.0000 0.0000 0.0000 8.8855 0.0000 23.1264
#
#
#
# Elastic Compliance Matrix: (Units=1/GPa)
#
#
# Indices 1 2 3 4 5 6 
#
# 1 0.030321 -0.015331 -0.002936 0.000000 -0.014230 0.000000
# 2 -0.015331 0.021198 -0.004370 0.000000 0.004084 0.000000
# 3 -0.002936 -0.004370 0.015636 0.000000 -0.003886 0.000000
# 4 0.000000 0.000000 0.000000 -0.307011 0.000000 0.117958
# 5 -0.014230 0.004084 -0.003886 0.000000 0.052942 0.000000
# 6 0.000000 0.000000 0.000000 0.117958 0.000000 -0.002081
#
#
# Mechanical properties :
#
#
# Convention : Reuss Voigt Hill
#
# Bulk Modulus (GPa) = 45.70281 56.88560 51.29421
# Shear Modulus (GPa) = -36.64969 17.51748 -9.56610
#
# Velocity S-wave (km/s) = -4.54168 3.13991 -2.32032
# Velocity P-wave (km/s) = 1.33432 6.72021 4.65729
#
# Compressibility (1/GPa) = 0.02188049
#
# Stress axis : x y z
#
# Youngs Moduli (GPa) = 32.98093 47.17413 63.95522
#
# Poissons Ratio (x) = 0.72324 0.18778
# Poissons Ratio (y) = 0.50564 0.27946
# Poissons Ratio (z) = 0.09683 0.20614
#
# Static dielectric constant tensor:
#      x y z
#    x 1.616450 0.000000 -0.003760 
#    y 0.000000 1.623820 0.000000 
#    z -0.003760 0.000000 1.652690 
# 
# From -- ./inp_files/216411.got.cif
#   From: 2010.05.17/outbox.cif.g08.bks.cpg/sg12_109_cif.got.tgz:216411.got - 2010.06.03 13:09:07.
