data_PCOD9170225
_publ_section_title
;
Structure prediction by ZEFSAII (Michael W. Deem and Ramdas Pophale) SiO2 
 PCOD9170225
Probable space group: C 2/M
;
_chemical_formula_sum "Si O2"
_cell_formula_units_Z 64
_cell_length_a 22.860901
_cell_length_b 14.259848
_cell_length_c 11.698977
_cell_angle_alpha 90.000000
_cell_angle_beta 70.089858
_cell_angle_gamma 90.000000
_cell_volume 3585.826254
_symmetry_space_group_name_H-M "C 2/M"
_symmetry_group_IT_number 12
_symmetry_cell_setting 'monoclinic'
loop_
_space_group_symop_operation_xyz
x,y,z
-x,y,-z
-x,-y,-z
x,-y,z
1/2+x,1/2+y,z
1/2-x,1/2+y,-z
1/2-x,1/2-y,-z
1/2+x,1/2-y,z
loop_
_atom_site_type_symbol
_atom_site_label
_atom_site_fract_x
_atom_site_fract_y
_atom_site_fract_z
Si Si1 0.764607 0.102500 0.299254
Si Si2 0.637076 0.208257 0.402836
Si Si3 0.432460 0.888296 0.756898
Si Si4 0.713601 0.340533 0.472320
Si Si5 0.702457 0.608578 0.969814
Si Si6 0.170178 0.687980 0.025371
Si Si7 0.078836 0.388360 0.663003
Si Si8 0.320183 0.891512 0.226080
O O1 0.706747 0.172430 0.329714
O O2 0.797609 0.107568 0.400339
O O3 0.807808 0.112554 0.160083
O O4 0.734720 0.000000 0.310230
O O5 0.595295 0.178765 0.323700
O O6 0.652692 0.311651 0.441128
O O7 0.607905 0.155371 0.530375
O O8 0.505707 0.870565 0.721100
O O9 0.424025 0.000000 0.736109
O O10 0.393585 0.860802 0.895019
O O11 0.750000 0.250000 0.500000
O O12 0.762673 0.386205 0.352645
O O13 0.691138 0.500000 0.015006
O O14 0.669159 0.699542 0.047474
O O15 0.774849 0.635544 0.942278
O O16 0.187333 0.669277 0.882143
O O17 0.087766 0.500000 0.649540
O O18 0.119711 0.357112 0.743686
O O19 0.328410 0.000000 0.186055
#
# Coordination Sequence:
#
# PCOD9170225 Si02
#       8
#     8   8   8   8   8   8   8   8
#     4  10  17  30  52  76 104 137 169 213 269 318
#     4  11  19  31  51  76 108 140 176 223 269 314
#     4  11  22  36  53  77 107 149 192 220 258 320
#     4  10  19  29  49  77 106 138 174 218 270 320
#     4  10  21  35  55  81 109 142 179 220 271 325
#     4  11  22  35  53  77 113 144 181 221 267 318
#     4  10  21  34  52  76 106 146 186 221 268 323
#     4  11  21  34  51  78 115 148 177 223 275 325
#
# _framework density 17.848049
#
# number of rings (size 3 to 8) (size 9 to 14) (size 15 to 20)
#    0.000    1.500    3.750    4.500    1.750    1.500 
#    0.000    1.875    0.000    0.000    0.000    3.500 
#    0.000    5.000    0.000    0.000    0.000    0.000 
#
# Total GULP energy -178212.432951 kJ/mol
# GULP energy per Si atom -5569.138530 kJ/mol
# Density = 1.780743 g / cm^3
# Si number density = 17.848049 Si / 1000 Ang^3
#
#
#
# Elastic Constant Matrix: (Units=GPa)
#
#
# Indices 1 2 3 4 5 6 
#
# 1 64.1785 14.2517 25.3038 0.0000 5.8236 0.0000
# 2 14.2517 63.6146 10.4782 0.0000 9.6845 0.0000
# 3 25.3038 10.4782 56.6169 0.0000 14.6354 0.0000
# 4 0.0000 0.0000 0.0000 24.6653 0.0000 2.8432
# 5 5.8236 9.6845 14.6354 0.0000 21.0558 0.0000
# 6 0.0000 0.0000 0.0000 2.8432 0.0000 21.1483
#
#
#
# Elastic Compliance Matrix: (Units=1/GPa)
#
#
# Indices 1 2 3 4 5 6 
#
# 1 0.019536 -0.003272 -0.008677 0.000000 0.002133 0.000000
# 2 -0.003272 0.017538 0.000083 0.000000 -0.007219 0.000000
# 3 -0.008677 0.000083 0.025496 0.000000 -0.015360 0.000000
# 4 0.000000 0.000000 0.000000 0.041181 0.000000 -0.005536
# 5 0.002133 -0.007219 -0.015360 0.000000 0.060899 0.000000
# 6 0.000000 0.000000 0.000000 -0.005536 0.000000 0.048029
#
#
# Mechanical properties :
#
#
# Convention : Reuss Voigt Hill
#
# Bulk Modulus (GPa) = 25.74870 31.60860 28.67865
# Shear Modulus (GPa) = 20.05154 22.33231 21.19192
#
# Velocity S-wave (km/s) = 3.35544 3.54113 3.44954
# Velocity P-wave (km/s) = 5.42862 5.87093 5.65410
#
# Compressibility (1/GPa) = 0.03883691
#
# Stress axis : x y z
#
# Youngs Moduli (GPa) = 51.18845 57.01868 39.22236
#
# Poissons Ratio (x) = 0.18657 0.34033
# Poissons Ratio (y) = 0.16750 -0.00324
# Poissons Ratio (z) = 0.44415 -0.00472
#
# Static dielectric constant tensor:
#      x y z
#    x 1.601790 0.000000 0.039200 
#    y 0.000000 1.698000 0.000000 
#    z 0.039200 0.000000 1.665790 
# 
# From -- ./inp_files/167259.got.cif
#   From: 2010.05.17/outbox.cif.g08.bks.cpg/sg12_84_cif.got.tgz:167259.got - 2010.06.03 13:09:07.
