data_PCOD9170337
_publ_section_title
;
Structure prediction by ZEFSAII (Michael W. Deem and Ramdas Pophale) SiO2 
 PCOD9170337
Probable space group: C 2/M
;
_chemical_formula_sum "Si O2"
_cell_formula_units_Z 32
_cell_length_a 5.409273
_cell_length_b 23.235214
_cell_length_c 15.472602
_cell_angle_alpha 90.000000
_cell_angle_beta 58.892250
_cell_angle_gamma 90.000000
_cell_volume 1665.032593
_symmetry_space_group_name_H-M "C 2/M"
_symmetry_group_IT_number 12
_symmetry_cell_setting 'monoclinic'
loop_
_space_group_symop_operation_xyz
x,y,z
-x,y,-z
-x,-y,-z
x,-y,z
1/2+x,1/2+y,z
1/2-x,1/2+y,-z
1/2-x,1/2-y,-z
1/2+x,1/2-y,z
loop_
_atom_site_type_symbol
_atom_site_label
_atom_site_fract_x
_atom_site_fract_y
_atom_site_fract_z
Si Si1 0.220627 0.174124 0.388047
Si Si2 0.375851 0.667260 0.278744
Si Si3 0.514678 0.067390 0.393623
Si Si4 0.312761 0.684412 0.957511
O O1 0.551684 0.193854 0.342953
O O2 0.261685 0.105142 0.396138
O O3 0.000000 0.196135 0.500000
O O4 0.089677 0.182934 0.317502
O O5 0.298246 0.599532 0.305202
O O6 0.513031 0.683122 0.162871
O O7 0.500000 0.077161 0.500000
O O8 0.500144 0.000000 0.379359
O O9 0.500000 0.657056 0.000000
O O10 0.250000 0.750000 0.000000
O O11 0.000000 0.656924 0.000000
#
# Coordination Sequence:
#
# PCOD9170337 Si02
#       4
#     8   8   8   8
#     4  10  17  31  47  80 112 148 178 209 258 328
#     4  10  19  32  52  79 111 144 178 223 276 315
#     4   9  18  30  50  80 118 151 184 213 251 321
#     4  10  21  38  60  84 100 128 186 246 282 321
#
# _framework density 19.218844000000001
#
# number of rings (size 3 to 8) (size 9 to 14) (size 15 to 20)
#    1.500    0.750    2.500    2.250    0.000    1.500 
#    0.000    0.000    0.000    1.500    0.000  119.000 
#    0.000    0.000    0.000    0.000    0.000    0.000 
#
# Total GULP energy -89122.643169 kJ/mol
# GULP energy per Si atom -5570.165198 kJ/mol
# Density = 1.917510 g / cm^3
# Si number density = 19.218844 Si / 1000 Ang^3
#
#
#
# Elastic Constant Matrix: (Units=GPa)
#
#
# Indices 1 2 3 4 5 6 
#
# 1 152.3341 13.5042 43.9789 0.0000 20.8631 0.0000
# 2 13.5042 102.5586 40.4274 0.0000 3.1469 0.0000
# 3 43.9789 40.4274 148.5964 0.0000 11.0909 0.0000
# 4 0.0000 0.0000 0.0000 19.9096 0.0000 12.8199
# 5 20.8631 3.1469 11.0909 0.0000 41.1500 0.0000
# 6 0.0000 0.0000 0.0000 12.8199 0.0000 250.5156
#
#
#
# Elastic Compliance Matrix: (Units=1/GPa)
#
#
# Indices 1 2 3 4 5 6 
#
# 1 0.007597 -0.000123 -0.001968 0.000000 -0.003312 0.000000
# 2 -0.000123 0.010924 -0.002937 0.000000 0.000019 0.000000
# 3 -0.001968 -0.002937 0.008184 0.000000 -0.000984 0.000000
# 4 0.000000 0.000000 0.000000 0.051939 0.000000 -0.002658
# 5 -0.003312 0.000019 -0.000984 0.000000 0.026244 0.000000
# 6 0.000000 0.000000 0.000000 -0.002658 0.000000 0.004128
#
#
# Mechanical properties :
#
#
# Convention : Reuss Voigt Hill
#
# Bulk Modulus (GPa) = 60.06030 66.59003 63.32517
# Shear Modulus (GPa) = 40.12150 82.68693 61.40421
#
# Velocity S-wave (km/s) = 4.57400 6.56638 5.65857
# Velocity P-wave (km/s) = 7.69505 9.60277 8.70135
#
# Compressibility (1/GPa) = 0.01664993
#
# Stress axis : x y z
#
# Youngs Moduli (GPa) = 131.62882 91.54277 122.18258
#
# Poissons Ratio (x) = 0.01126 0.24043
# Poissons Ratio (y) = 0.01620 0.35884
# Poissons Ratio (z) = 0.25902 0.26885
#
# Static dielectric constant tensor:
#      x y z
#    x 1.694450 0.000000 -0.019060 
#    y 0.000000 1.670590 0.000000 
#    z -0.019060 0.000000 1.634820 
# 
# From -- ./inp_files/115240.got.cif
#   From: 2010.05.17/outbox.cif.g08.bks.cpg/sg12_58_cif.got.tgz:115240.got - 2010.06.03 13:09:07.
