data_PCOD9170296
_publ_section_title
;
Structure prediction by ZEFSAII (Michael W. Deem and Ramdas Pophale) SiO2 
 PCOD9170296
Probable space group: C 2/M
;
_chemical_formula_sum "Si O2"
_cell_formula_units_Z 56
_cell_length_a 21.859921
_cell_length_b 15.638415
_cell_length_c 9.225801
_cell_angle_alpha 90.000000
_cell_angle_beta 72.634913
_cell_angle_gamma 90.000000
_cell_volume 3010.135288
_symmetry_space_group_name_H-M "C 2/M"
_symmetry_group_IT_number 12
_symmetry_cell_setting 'monoclinic'
loop_
_space_group_symop_operation_xyz
x,y,z
-x,y,-z
-x,-y,-z
x,-y,z
1/2+x,1/2+y,z
1/2-x,1/2+y,-z
1/2-x,1/2-y,-z
1/2+x,1/2-y,z
loop_
_atom_site_type_symbol
_atom_site_label
_atom_site_fract_x
_atom_site_fract_y
_atom_site_fract_z
Si Si1 0.288358 0.774673 0.669956
Si Si2 0.572408 0.168642 0.980567
Si Si3 0.850982 0.747169 0.332297
Si Si4 0.566653 0.593131 0.754118
Si Si5 0.424471 0.363425 0.916848
Si Si6 0.820553 0.595907 0.900355
Si Si7 0.802847 0.096859 0.804215
O O1 0.211851 0.783502 0.705492
O O2 0.323698 0.796740 0.495318
O O3 0.313038 0.832449 0.783289
O O4 0.300660 0.674514 0.693246
O O5 0.610274 0.186361 0.803972
O O6 0.500000 0.140389 0.000000
O O7 0.569586 0.261787 0.060341
O O8 0.615028 0.109689 0.053019
O O9 0.896591 0.826794 0.338558
O O10 0.585803 0.500000 0.685126
O O11 0.490243 0.605072 0.798322
O O12 0.580324 0.598440 0.917737
O O13 0.363807 0.388084 0.864718
O O14 0.818231 0.500000 0.840655
O O15 0.760851 0.605346 0.052467
O O16 0.804620 0.000000 0.744070
#
# Coordination Sequence:
#
# PCOD9170296 Si02
#       7
#     8   8   8   8   8   8   8
#     4  11  22  39  60  85 125 153 195 244 292 360
#     4  11  19  38  64  86 112 151 202 247 292 349
#     4  10  22  37  58  88 116 163 191 235 301 343
#     4  10  18  31  52  85 121 150 192 230 278 351
#     4  10  17  30  55  87 114 152 188 235 282 337
#     4  11  23  39  62  88 112 152 206 255 298 344
#     4  11  21  34  58  88 117 151 195 241 288 348
#
# _framework density 18.603814
#
# number of rings (size 3 to 8) (size 9 to 14) (size 15 to 20)
#    0.000    1.429    5.714    3.857    0.000    2.571 
#    0.000    5.714    0.000    2.571    0.000    0.000 
#    0.000    0.000    0.000    0.000    0.000    0.000 
#
# Total GULP energy -156344.366380 kJ/mol
# GULP energy per Si atom -5583.727371 kJ/mol
# Density = 1.856147 g / cm^3
# Si number density = 18.603814 Si / 1000 Ang^3
#
#
#
# Elastic Constant Matrix: (Units=GPa)
#
#
# Indices 1 2 3 4 5 6 
#
# 1 120.5035 7.8914 30.3688 0.0000 -10.8939 0.0000
# 2 7.8914 60.3002 13.7652 0.0000 4.9641 0.0000
# 3 30.3688 13.7652 57.3683 0.0000 -11.4903 0.0000
# 4 0.0000 0.0000 0.0000 -1.4105 0.0000 -3.5204
# 5 -10.8939 4.9641 -11.4903 0.0000 18.4373 0.0000
# 6 0.0000 0.0000 0.0000 -3.5204 0.0000 14.4151
#
#
#
# Elastic Compliance Matrix: (Units=1/GPa)
#
#
# Indices 1 2 3 4 5 6 
#
# 1 0.009724 -0.000530 -0.004389 0.000000 0.003153 0.000000
# 2 -0.000530 0.018790 -0.006060 0.000000 -0.009149 0.000000
# 3 -0.004389 -0.006060 0.024013 0.000000 0.014004 0.000000
# 4 0.000000 0.000000 0.000000 -0.440485 0.000000 -0.107575
# 5 0.003153 -0.009149 0.014004 0.000000 0.067292 0.000000
# 6 0.000000 0.000000 0.000000 -0.107575 0.000000 0.043100
#
#
# Mechanical properties :
#
#
# Convention : Reuss Voigt Hill
#
# Bulk Modulus (GPa) = 32.71322 38.02475 35.36899
# Shear Modulus (GPa) = -20.37349 18.69816 -0.83766
#
# Velocity S-wave (km/s) = -3.31286 3.17373 -0.67175
# Velocity P-wave (km/s) = 1.72886 5.82354 4.29550
#
# Compressibility (1/GPa) = 0.03056868
#
# Stress axis : x y z
#
# Youngs Moduli (GPa) = 102.83424 53.22075 41.64326
#
# Poissons Ratio (x) = 0.02822 0.18277
# Poissons Ratio (y) = 0.05453 0.25237
# Poissons Ratio (z) = 0.45133 0.32253
#
# Static dielectric constant tensor:
#      x y z
#    x 1.633270 0.000000 -0.004510 
#    y 0.000000 1.659760 0.000000 
#    z -0.004510 0.000000 1.625950 
# 
# From -- ./inp_files/96233.got.cif
#   From: 2010.05.17/outbox.cif.g08.bks.cpg/sg12_49_cif.got.tgz:96233.got - 2010.06.03 13:09:07.
