data_PCOD9170326
_publ_section_title
;
Structure prediction by ZEFSAII (Michael W. Deem and Ramdas Pophale) SiO2 
 PCOD9170326
Probable space group: C 2/M
;
_chemical_formula_sum "Si O2"
_cell_formula_units_Z 48
_cell_length_a 9.032026
_cell_length_b 26.011040
_cell_length_c 12.946388
_cell_angle_alpha 90.000000
_cell_angle_beta 52.930874
_cell_angle_gamma 90.000000
_cell_volume 2426.860419
_symmetry_space_group_name_H-M "C 2/M"
_symmetry_group_IT_number 12
_symmetry_cell_setting 'monoclinic'
loop_
_space_group_symop_operation_xyz
x,y,z
-x,y,-z
-x,-y,-z
x,-y,z
1/2+x,1/2+y,z
1/2-x,1/2+y,-z
1/2-x,1/2-y,-z
1/2+x,1/2-y,z
loop_
_atom_site_type_symbol
_atom_site_label
_atom_site_fract_x
_atom_site_fract_y
_atom_site_fract_z
Si Si1 0.000000 0.628896 0.000000
Si Si2 0.633905 0.439088 0.143307
Si Si3 0.904425 0.655185 0.823095
Si Si4 0.141573 0.302649 0.535232
Si Si5 0.462337 0.942163 0.679525
Si Si6 0.500000 0.624290 0.000000
Si Si7 0.713389 0.409957 0.588648
O O1 0.178647 0.592146 0.913986
O O2 0.968097 0.663725 0.912619
O O3 0.661250 0.500000 0.116609
O O4 0.544335 0.412048 0.079447
O O5 0.488301 0.429802 0.297606
O O6 0.943384 0.594574 0.784413
O O7 0.682791 0.658666 0.904196
O O8 0.023345 0.684637 0.687645
O O9 0.250000 0.250000 0.500000
O O10 0.274811 0.350956 0.452566
O O11 0.000000 0.299519 0.500000
O O12 0.335444 0.918007 0.641885
O O13 0.670210 0.940331 0.546840
O O14 0.402069 0.000000 0.724178
#
# Coordination Sequence:
#
# PCOD9170326 Si02
#       7
#     4   8   8   8   8   4   8
#     4  10  25  38  54  81 136 174 196 239 295 366
#     4  11  20  33  53  83 121 166 208 243 292 363
#     4  10  21  40  60  90 124 162 207 247 301 360
#     4  11  22  41  68  94 116 147 199 269 325 369
#     4  10  17  30  58  91 121 151 196 257 303 345
#     4  10  19  32  58  83 116 162 208 245 283 348
#     4  10  18  34  57  86 118 150 200 258 311 357
#
# _framework density 19.778639999999999
#
# number of rings (size 3 to 8) (size 9 to 14) (size 15 to 20)
#    0.000    1.667    5.000    2.500    0.000    4.667 
#    0.000    2.500    0.000   22.000    0.000    0.000 
#    0.000    0.000    0.000    0.000    0.000    0.000 
#
# Total GULP energy -134013.538833 kJ/mol
# GULP energy per Si atom -5583.897451 kJ/mol
# Density = 1.973362 g / cm^3
# Si number density = 19.778640 Si / 1000 Ang^3
#
#
#
# Elastic Constant Matrix: (Units=GPa)
#
#
# Indices 1 2 3 4 5 6 
#
# 1 86.1453 18.9082 48.5255 0.0000 -7.9107 0.0000
# 2 18.9082 99.3183 21.8215 0.0000 -1.8640 0.0000
# 3 48.5255 21.8215 109.5641 0.0000 -12.6434 0.0000
# 4 0.0000 0.0000 0.0000 1.5557 0.0000 -4.2218
# 5 -7.9107 -1.8640 -12.6434 0.0000 35.9602 0.0000
# 6 0.0000 0.0000 0.0000 -4.2218 0.0000 16.4546
#
#
#
# Elastic Compliance Matrix: (Units=1/GPa)
#
#
# Indices 1 2 3 4 5 6 
#
# 1 0.015726 -0.001538 -0.006534 0.000000 0.001083 0.000000
# 2 -0.001538 0.010681 -0.001481 0.000000 -0.000306 0.000000
# 3 -0.006534 -0.001481 0.012655 0.000000 0.002935 0.000000
# 4 0.000000 0.000000 0.000000 2.116377 0.000000 0.543007
# 5 0.001083 -0.000306 0.002935 0.000000 0.029063 0.000000
# 6 0.000000 0.000000 0.000000 0.543007 0.000000 0.200095
#
#
# Mechanical properties :
#
#
# Convention : Reuss Voigt Hill
#
# Bulk Modulus (GPa) = 50.11188 52.61534 51.36361
# Shear Modulus (GPa) = 2.07438 24.51226 13.29332
#
# Velocity S-wave (km/s) = 1.02522 3.52423 2.59531
# Velocity P-wave (km/s) = 5.17618 6.57420 5.91663
#
# Compressibility (1/GPa) = 0.01995535
#
# Stress axis : x y z
#
# Youngs Moduli (GPa) = 63.59045 93.62251 79.02310
#
# Poissons Ratio (x) = 0.14399 0.51630
# Poissons Ratio (y) = 0.09780 0.11707
# Poissons Ratio (z) = 0.41547 0.13869
#
# Static dielectric constant tensor:
#      x y z
#    x 1.717540 0.000000 -0.004840 
#    y 0.000000 1.671040 0.000000 
#    z -0.004840 0.000000 1.736030 
# 
# From -- ./inp_files/123537.got.cif
#   From: 2010.05.17/outbox.cif.g08.bks.cpg/sg12_62_cif.got.tgz:123537.got - 2010.06.03 13:09:07.
