data_PCOD9170183
_publ_section_title
;
Structure prediction by ZEFSAII (Michael W. Deem and Ramdas Pophale) SiO2 
 PCOD9170183
Probable space group: C 2/M
;
_chemical_formula_sum "Si O2"
_cell_formula_units_Z 64
_cell_length_a 25.167286
_cell_length_b 7.434786
_cell_length_c 21.776128
_cell_angle_alpha 90.000000
_cell_angle_beta 131.544119
_cell_angle_gamma 90.000000
_cell_volume 3049.618853
_symmetry_space_group_name_H-M "C 2/M"
_symmetry_group_IT_number 12
_symmetry_cell_setting 'monoclinic'
loop_
_space_group_symop_operation_xyz
x,y,z
-x,y,-z
-x,-y,-z
x,-y,z
1/2+x,1/2+y,z
1/2-x,1/2+y,-z
1/2-x,1/2-y,-z
1/2+x,1/2-y,z
loop_
_atom_site_type_symbol
_atom_site_label
_atom_site_fract_x
_atom_site_fract_y
_atom_site_fract_z
Si Si1 0.584297 0.287986 0.065259
Si Si2 0.567340 0.705048 0.585565
Si Si3 0.636703 0.203479 0.238107
Si Si4 0.561695 0.210114 0.720436
Si Si5 0.497001 0.221031 0.198937
Si Si6 0.858200 0.297007 0.021731
Si Si7 0.274187 0.721053 0.284405
Si Si8 0.724533 0.717400 0.856544
O O1 0.397677 0.500000 0.921026
O O2 0.610683 0.200722 0.147822
O O3 0.614578 0.199367 0.027660
O O4 0.500000 0.272209 0.000000
O O5 0.500000 0.789418 0.500000
O O6 0.572674 0.500000 0.566369
O O7 0.554567 0.700842 0.648877
O O8 0.646298 0.782949 0.638934
O O9 0.570566 0.284102 0.224867
O O10 0.715058 0.283392 0.287654
O O11 0.646042 0.000000 0.268737
O O12 0.511329 0.272505 0.736609
O O13 0.643081 0.232223 0.805173
O O14 0.548732 0.000000 0.700609
O O15 0.496579 0.000000 0.193728
O O16 0.424824 0.284302 0.109436
O O17 0.848939 0.500000 0.038567
O O18 0.780245 0.214344 0.950231
O O19 0.273345 0.500000 0.283328
O O20 0.259263 0.774780 0.201758
O O21 0.728885 0.500000 0.860777
#
# Coordination Sequence:
#
# PCOD9170183 Si02
#       8
#     8   8   8   8   8   8   8   8
#     4  11  21  29  39  65 101 129 164 216 261 286
#     4   9  18  35  58  80  99 120 151 195 243 297
#     4  10  17  30  51  68  89 129 172 206 237 280
#     4  10  20  34  49  72 103 129 156 197 248 301
#     4   9  19  31  47  69  94 131 176 207 235 281
#     4  10  18  31  49  65  88 130 182 216 237 280
#     4   8  14  26  48  77  95 111 154 204 241 276
#     4   9  17  30  48  70  93 126 172 214 244 280
#
# _framework density 20.986229999999999
#
# number of rings (size 3 to 8) (size 9 to 14) (size 15 to 20)
#    0.000    2.500    2.500    1.500    0.000    1.750 
#    0.000    2.500    0.000    0.750    0.000    0.000 
#    0.000    0.000    0.000    0.000    0.000    0.125 
#
# Total GULP energy -178457.856469 kJ/mol
# GULP energy per Si atom -5576.808015 kJ/mol
# Density = 2.093846 g / cm^3
# Si number density = 20.986230 Si / 1000 Ang^3
#
#
#
# Elastic Constant Matrix: (Units=GPa)
#
#
# Indices 1 2 3 4 5 6 
#
# 1 121.9949 -4.0760 64.2369 0.0000 6.0254 0.0001
# 2 -4.0760 67.9327 4.9684 -0.0001 5.2229 0.0007
# 3 64.2369 4.9684 101.1328 0.0000 31.0783 0.0000
# 4 0.0000 -0.0001 0.0000 -10.6348 0.0000 -8.7207
# 5 6.0254 5.2229 31.0783 0.0000 22.1223 0.0000
# 6 0.0001 0.0007 0.0000 -8.7207 0.0000 0.0465
#
#
#
# Elastic Compliance Matrix: (Units=1/GPa)
#
#
# Indices 1 2 3 4 5 6 
#
# 1 0.015134 0.000727 -0.014656 0.000000 0.016295 0.000000
# 2 0.000727 0.015049 -0.000085 0.000001 -0.003631 -0.000002
# 3 -0.014656 -0.000085 0.031618 0.000000 -0.040406 0.000000
# 4 0.000000 0.000001 0.000000 -0.000607 0.000000 -0.113930
# 5 0.016295 -0.003631 -0.040406 0.000000 0.098387 0.000000
# 6 0.000000 -0.000002 0.000000 -0.113930 0.000000 0.138937
#
#
# Mechanical properties :
#
#
# Convention : Reuss Voigt Hill
#
# Bulk Modulus (GPa) = 29.60927 46.81323 38.21125
# Shear Modulus (GPa) = 14.80151 17.36887 16.08519
#
# Velocity S-wave (km/s) = 2.65862 2.87998 2.77151
# Velocity P-wave (km/s) = 4.85427 5.78049 5.33751
#
# Compressibility (1/GPa) = 0.03377321
#
# Stress axis : x y z
#
# Youngs Moduli (GPa) = 66.07817 66.44741 31.62741
#
# Poissons Ratio (x) = -0.04831 0.46353
# Poissons Ratio (y) = -0.04804 0.00270
# Poissons Ratio (z) = 0.96843 0.00567
#
# Static dielectric constant tensor:
#      x y z
#    x 1.786210 0.000000 0.048400 
#    y 0.000000 1.790680 0.000000 
#    z 0.048400 0.000000 1.746050 
# 
# From -- ./inp_files/324325.got.cif
#   From: 2010.05.17/outbox.cif.g08.bks.cpg/sg12_163_cif.got.tgz:324325.got - 2010.06.03 13:09:07.
