data_PCOD9170413
_publ_section_title
;
Structure prediction by ZEFSAII (Michael W. Deem and Ramdas Pophale) SiO2 
 PCOD9170413
Probable space group: C 2/M
;
_chemical_formula_sum "Si O2"
_cell_formula_units_Z 48
_cell_length_a 15.498094
_cell_length_b 15.590935
_cell_length_c 18.785442
_cell_angle_alpha 90.000000
_cell_angle_beta 30.816699
_cell_angle_gamma 90.000000
_cell_volume 2325.361360
_symmetry_space_group_name_H-M "C 2/M"
_symmetry_group_IT_number 12
_symmetry_cell_setting 'monoclinic'
loop_
_space_group_symop_operation_xyz
x,y,z
-x,y,-z
-x,-y,-z
x,-y,z
1/2+x,1/2+y,z
1/2-x,1/2+y,-z
1/2-x,1/2-y,-z
1/2+x,1/2-y,z
loop_
_atom_site_type_symbol
_atom_site_label
_atom_site_fract_x
_atom_site_fract_y
_atom_site_fract_z
Si Si1 0.131164 0.852283 0.464787
Si Si2 0.072780 0.244374 0.282332
Si Si3 0.240132 0.000000 0.894280
Si Si4 0.761826 0.188485 0.281888
Si Si5 0.488454 0.874656 0.233619
Si Si6 0.147593 0.000000 0.792180
Si Si7 0.433936 0.806056 0.973380
O O1 0.195653 0.760879 0.383821
O O2 0.297781 0.906576 0.360933
O O3 0.000000 0.888131 0.500000
O O4 0.028830 0.831360 0.608297
O O5 0.136471 0.303169 0.303239
O O6 0.964729 0.291300 0.299751
O O7 0.242052 0.216337 0.122803
O O8 0.360436 0.922717 0.833841
O O9 0.204491 0.000000 0.835186
O O10 0.056714 0.000000 0.061345
O O11 0.943928 0.223611 0.125565
O O12 0.783677 0.089721 0.288726
O O13 0.547322 0.859079 0.111548
O O14 0.500000 0.847725 0.000000
#
# Coordination Sequence:
#
# PCOD9170413 Si02
#       7
#     8   8   4   8   8   4   8
#     4   9  20  36  56  81 114 149 195 235 279 326
#     4  10  17  31  54  84 109 145 187 233 281 326
#     4  11  24  34  57  86 117 157 185 231 292 341
#     4   9  18  33  54  83 115 152 182 222 286 341
#     4  11  20  36  54  83 112 145 198 239 272 338
#     4  11  20  36  56  85 128 152 177 226 288 359
#     4   9  19  33  57  82 108 141 194 245 285 325
#
# _framework density 20.641953999999998
#
# number of rings (size 3 to 8) (size 9 to 14) (size 15 to 20)
#    0.000    2.167    1.667    3.000    4.667    1.333 
#    0.000    5.417    0.000    1.000    0.000    0.000 
#    0.000    0.000    0.000    0.000    0.000    0.000 
#
# Total GULP energy -133758.245017 kJ/mol
# GULP energy per Si atom -5573.260209 kJ/mol
# Density = 2.059497 g / cm^3
# Si number density = 20.641954 Si / 1000 Ang^3
#
#
#
# Elastic Constant Matrix: (Units=GPa)
#
#
# Indices 1 2 3 4 5 6 
#
# 1 119.8478 20.3134 30.2373 -0.0011 -23.3721 0.0004
# 2 20.3134 45.0753 22.5590 -0.0017 -7.5941 0.0023
# 3 30.2373 22.5590 88.9095 -0.0018 -16.7586 0.0033
# 4 -0.0011 -0.0017 -0.0018 15.8044 0.0018 4.1499
# 5 -23.3721 -7.5941 -16.7586 0.0018 38.7764 0.0001
# 6 0.0004 0.0023 0.0033 4.1499 0.0001 24.4927
#
#
#
# Elastic Compliance Matrix: (Units=1/GPa)
#
#
# Indices 1 2 3 4 5 6 
#
# 1 0.010235 -0.002880 -0.001844 0.000000 0.004808 0.000000
# 2 -0.002880 0.026426 -0.005528 0.000002 0.001051 -0.000002
# 3 -0.001844 -0.005528 0.014004 0.000001 0.003859 -0.000002
# 4 0.000000 0.000002 0.000001 0.066219 -0.000003 -0.011220
# 5 0.004808 0.001051 0.003859 -0.000003 0.030560 0.000000
# 6 0.000000 -0.000002 -0.000002 -0.011220 0.000000 0.042729
#
#
# Mechanical properties :
#
#
# Convention : Reuss Voigt Hill
#
# Bulk Modulus (GPa) = 33.15302 44.45023 38.80162
# Shear Modulus (GPa) = 22.65196 27.86290 25.25743
#
# Velocity S-wave (km/s) = 3.31626 3.67797 3.50179
# Velocity P-wave (km/s) = 5.54611 6.29423 5.93197
#
# Compressibility (1/GPa) = 0.03016316
#
# Stress axis : x y z
#
# Youngs Moduli (GPa) = 97.70547 37.84105 71.40645
#
# Poissons Ratio (x) = 0.10896 0.13166
# Poissons Ratio (y) = 0.28134 0.39472
# Poissons Ratio (z) = 0.18016 0.20918
#
# Static dielectric constant tensor:
#      x y z
#    x 1.749970 0.000000 -0.029690 
#    y 0.000000 1.861390 0.000000 
#    z -0.029690 0.000000 1.731490 
# 
# From -- ./inp_files/271633.got.cif
#   From: 2010.05.17/outbox.cif.g08.bks.cpg/sg12_136_cif.got.tgz:271633.got - 2010.06.03 13:09:07.
