data_PCOD9170207
_publ_section_title
;
Structure prediction by ZEFSAII (Michael W. Deem and Ramdas Pophale) SiO2 
 PCOD9170207
Probable space group: C 2/M
;
_chemical_formula_sum "Si O2"
_cell_formula_units_Z 64
_cell_length_a 20.455684
_cell_length_b 8.323457
_cell_length_c 23.754146
_cell_angle_alpha 90.000000
_cell_angle_beta 135.263741
_cell_angle_gamma 90.000000
_cell_volume 2846.648322
_symmetry_space_group_name_H-M "C 2/M"
_symmetry_group_IT_number 12
_symmetry_cell_setting 'monoclinic'
loop_
_space_group_symop_operation_xyz
x,y,z
-x,y,-z
-x,-y,-z
x,-y,z
1/2+x,1/2+y,z
1/2-x,1/2+y,-z
1/2-x,1/2-y,-z
1/2+x,1/2-y,z
loop_
_atom_site_type_symbol
_atom_site_label
_atom_site_fract_x
_atom_site_fract_y
_atom_site_fract_z
Si Si1 0.577759 0.310370 0.999709
Si Si2 0.681824 0.676109 0.228658
Si Si3 0.246855 0.304744 0.561936
Si Si4 0.545764 0.305972 0.300468
Si Si5 0.250635 0.181283 0.833087
Si Si6 0.560509 0.693079 0.657987
Si Si7 0.372242 0.183185 0.415157
Si Si8 0.500924 0.187295 0.838807
O O1 0.563655 0.500000 0.983068
O O2 0.564269 0.223347 0.931541
O O3 0.500000 0.260275 0.000000
O O4 0.682489 0.275807 0.084304
O O5 0.680777 0.500000 0.199744
O O6 0.689167 0.814469 0.187412
O O7 0.771464 0.681487 0.322640
O O8 0.587418 0.700101 0.203270
O O9 0.243397 0.500000 0.562539
O O10 0.250000 0.250000 0.500000
O O11 0.348457 0.253742 0.646554
O O12 0.159644 0.239798 0.545132
O O13 0.541023 0.500000 0.295559
O O14 0.520209 0.256934 0.348726
O O15 0.475276 0.235866 0.210782
O O16 0.153483 0.247999 0.749149
O O17 0.235381 0.000000 0.844006
O O18 0.565112 0.500000 0.658429
O O19 0.561958 0.748925 0.593901
O O20 0.399633 0.000000 0.442197
O O21 0.477343 0.000000 0.824255
#
# Coordination Sequence:
#
# PCOD9170207 Si02
#       8
#     8   8   8   8   8   8   8   8
#     4  11  22  34  51  76 110 154 196 234 291 352
#     4  10  17  30  51  76 107 146 185 224 279 341
#     4  10  21  38  61  90 120 154 188 230 281 333
#     4  10  21  42  63  82 116 154 191 229 281 351
#     4  10  19  32  51  81 113 139 185 245 291 329
#     4   9  20  37  61  87 112 151 194 237 283 336
#     4   9  18  34  57  84 115 150 188 231 279 334
#     4  12  23  33  52  82 111 142 186 243 293 330
#
# _framework density 22.482579999999999
#
# number of rings (size 3 to 8) (size 9 to 14) (size 15 to 20)
#    0.000    1.875    2.500    2.250    0.000    3.000 
#    0.000    1.250    0.000    3.750    0.000    0.000 
#    0.000    0.000    0.000    0.000    0.000    0.000 
#
# Total GULP energy -178407.538421 kJ/mol
# GULP energy per Si atom -5575.235576 kJ/mol
# Density = 2.243141 g / cm^3
# Si number density = 22.482580 Si / 1000 Ang^3
#
#
#
# Elastic Constant Matrix: (Units=GPa)
#
#
# Indices 1 2 3 4 5 6 
#
# 1 134.0898 17.5579 33.5006 0.0000 -26.2473 0.0000
# 2 17.5579 44.4551 3.2659 0.0000 -8.2858 0.0000
# 3 33.5006 3.2659 86.6675 0.0000 -22.4262 0.0000
# 4 0.0000 0.0000 0.0000 23.1984 0.0000 -10.1122
# 5 -26.2473 -8.2858 -22.4262 0.0000 35.4168 0.0000
# 6 0.0000 0.0000 0.0000 -10.1122 0.0000 20.1476
#
#
#
# Elastic Compliance Matrix: (Units=1/GPa)
#
#
# Indices 1 2 3 4 5 6 
#
# 1 0.009312 -0.002605 -0.002240 0.000000 0.004873 0.000000
# 2 -0.002605 0.024279 0.001270 0.000000 0.004554 0.000000
# 3 -0.002240 0.001270 0.014356 0.000000 0.007727 0.000000
# 4 0.000000 0.000000 0.000000 0.055179 0.000000 0.027695
# 5 0.004873 0.004554 0.007727 0.000000 0.037805 0.000000
# 6 0.000000 0.000000 0.000000 0.027695 0.000000 0.063534
#
#
# Mechanical properties :
#
#
# Convention : Reuss Voigt Hill
#
# Bulk Modulus (GPa) = 24.51152 41.54011 33.02582
# Shear Modulus (GPa) = 22.20110 29.81177 26.00644
#
# Velocity S-wave (km/s) = 3.14583 3.64537 3.40477
# Velocity P-wave (km/s) = 4.91132 6.01955 5.49346
#
# Compressibility (1/GPa) = 0.04079714
#
# Stress axis : x y z
#
# Youngs Moduli (GPa) = 107.38276 41.18796 69.65734
#
# Poissons Ratio (x) = 0.10730 0.15607
# Poissons Ratio (y) = 0.27974 -0.08850
# Poissons Ratio (z) = 0.24059 -0.05233
#
# Static dielectric constant tensor:
#      x y z
#    x 1.905830 0.000000 -0.015110 
#    y 0.000000 1.771240 0.000000 
#    z -0.015110 0.000000 1.908760 
# 
# From -- ./inp_files/346200.got.cif
#   From: 2010.05.17/outbox.cif.g08.bks.cpg/sg12_174_cif.got.tgz:346200.got - 2010.06.03 13:09:07.
