data_PCOD9170731
_publ_section_title
;
Structure prediction by ZEFSAII (Michael W. Deem and Ramdas Pophale) SiO2 
 PCOD9170731
Probable space group: C 2/M
;
_chemical_formula_sum "Si O2"
_cell_formula_units_Z 64
_cell_length_a 17.856070
_cell_length_b 30.530574
_cell_length_c 8.929200
_cell_angle_alpha 90.000000
_cell_angle_beta 137.729109
_cell_angle_gamma 90.000000
_cell_volume 3274.265805
_symmetry_space_group_name_H-M "C 2/M"
_symmetry_group_IT_number 12
_symmetry_cell_setting 'monoclinic'
loop_
_space_group_symop_operation_xyz
x,y,z
-x,y,-z
-x,-y,-z
x,-y,z
1/2+x,1/2+y,z
1/2-x,1/2+y,-z
1/2-x,1/2-y,-z
1/2+x,1/2-y,z
loop_
_atom_site_type_symbol
_atom_site_label
_atom_site_fract_x
_atom_site_fract_y
_atom_site_fract_z
Si Si1 0.704947 0.682967 0.592156
Si Si2 0.681158 0.332356 0.903647
Si Si3 0.073486 0.680075 0.238453
Si Si4 0.618879 0.868957 0.603802
Si Si5 0.509062 0.256181 0.687523
Si Si6 0.398499 0.604424 0.750713
Si Si7 0.445839 0.424072 0.264984
Si Si8 0.244277 0.049764 0.220495
O O1 0.816877 0.699700 0.678989
O O2 0.601718 0.716017 0.441146
O O3 0.665916 0.640771 0.439171
O O4 0.721942 0.671395 0.792497
O O5 0.782929 0.343338 0.163650
O O6 0.615128 0.288441 0.852633
O O7 0.594229 0.373065 0.781030
O O8 0.113219 0.647524 0.425875
O O9 0.997342 0.716214 0.208108
O O10 0.000000 0.658382 0.000000
O O11 0.500000 0.860956 0.500000
O O12 0.650475 0.919995 0.658190
O O13 0.500000 0.241976 0.500000
O O14 0.460772 0.573589 0.724352
O O15 0.321862 0.576467 0.748163
O O16 0.500000 0.624613 0.000000
O O17 0.500000 0.438062 0.500000
O O18 0.337719 0.448717 0.044427
O O19 0.267600 0.000000 0.296609
#
# Coordination Sequence:
#
# PCOD9170731 Si02
#       8
#     8   8   8   8   8   8   8   8
#     4  11  20  37  61  91 121 167 207 250 294 367
#     4  10  20  38  66  91 121 162 213 256 304 366
#     4  12  26  41  57  89 124 162 208 259 306 362
#     4  11  24  44  67  88 117 166 208 259 314 367
#     4  10  22  39  62  91 127 161 205 252 305 362
#     4  10  19  33  60  91 125 160 198 245 308 367
#     4  10  17  33  62  94 129 163 202 245 307 370
#     4  10  23  40  61  93 126 163 205 253 313 373
#
# _framework density 19.546368000000001
#
# number of rings (size 3 to 8) (size 9 to 14) (size 15 to 20)
#    0.000    1.500    3.750    1.875    0.000    5.250 
#    0.000    3.125    0.000    0.375    0.000    0.000 
#    0.000    0.000    0.000    0.000    0.000    0.000 
#
# Total GULP energy -178778.404205 kJ/mol
# GULP energy per Si atom -5586.825131 kJ/mol
# Density = 1.950188 g / cm^3
# Si number density = 19.546368 Si / 1000 Ang^3
#
#
#
# Elastic Constant Matrix: (Units=GPa)
#
#
# Indices 1 2 3 4 5 6 
#
# 1 101.0597 20.7280 45.4524 0.0000 3.9556 0.0000
# 2 20.7280 83.1732 39.3872 0.0000 -0.7835 0.0000
# 3 45.4524 39.3872 135.1354 0.0000 -15.9081 0.0000
# 4 0.0000 0.0000 0.0000 6.2191 0.0000 -3.3520
# 5 3.9556 -0.7835 -15.9081 0.0000 32.0617 0.0000
# 6 0.0000 0.0000 0.0000 -3.3520 0.0000 0.6717
#
#
#
# Elastic Compliance Matrix: (Units=1/GPa)
#
#
# Indices 1 2 3 4 5 6 
#
# 1 0.012144 -0.001073 -0.004196 0.000000 -0.003607 0.000000
# 2 -0.001073 0.014140 -0.003934 0.000000 -0.001474 0.000000
# 3 -0.004196 -0.003934 0.010628 0.000000 0.005695 0.000000
# 4 0.000000 0.000000 0.000000 -0.095164 0.000000 -0.474894
# 5 -0.003607 -0.001474 0.005695 0.000000 0.034425 0.000000
# 6 0.000000 0.000000 0.000000 -0.474894 0.000000 -0.881095
#
#
# Mechanical properties :
#
#
# Convention : Reuss Voigt Hill
#
# Bulk Modulus (GPa) = 54.03876 58.94485 56.49181
# Shear Modulus (GPa) = -5.67957 22.04388 8.18216
#
# Velocity S-wave (km/s) = -1.70646 3.36188 2.04820
# Velocity P-wave (km/s) = 4.88096 6.72990 5.87858
#
# Compressibility (1/GPa) = 0.01850523
#
# Stress axis : x y z
#
# Youngs Moduli (GPa) = 82.34706 70.72381 94.08807
#
# Poissons Ratio (x) = 0.07590 0.39482
# Poissons Ratio (y) = 0.08838 0.37011
# Poissons Ratio (z) = 0.34555 0.27821
#
# Static dielectric constant tensor:
#      x y z
#    x 1.690420 0.000000 -0.003490 
#    y 0.000000 1.676520 0.000000 
#    z -0.003490 0.000000 1.689280 
# 
# From -- ./inp_files/80783.got.cif
#   From: 2010.05.17/outbox.cif.g08.bks.cpg/sg12_41_cif.got.tgz:80783.got - 2010.06.03 13:09:07.
