data_PCOD9170558
_publ_section_title
;
Structure prediction by ZEFSAII (Michael W. Deem and Ramdas Pophale) SiO2 
 PCOD9170558
Probable space group: C 2/M
;
_chemical_formula_sum "Si O2"
_cell_formula_units_Z 36
_cell_length_a 23.679770
_cell_length_b 8.355586
_cell_length_c 15.221957
_cell_angle_alpha 90.000000
_cell_angle_beta 39.288139
_cell_angle_gamma 90.000000
_cell_volume 1907.128528
_symmetry_space_group_name_H-M "C 2/M"
_symmetry_group_IT_number 12
_symmetry_cell_setting 'monoclinic'
loop_
_space_group_symop_operation_xyz
x,y,z
-x,y,-z
-x,-y,-z
x,-y,z
1/2+x,1/2+y,z
1/2-x,1/2+y,-z
1/2-x,1/2-y,-z
1/2+x,1/2-y,z
loop_
_atom_site_type_symbol
_atom_site_label
_atom_site_fract_x
_atom_site_fract_y
_atom_site_fract_z
Si Si1 0.500000 0.241704 0.500000
Si Si2 0.685158 0.692205 0.001051
Si Si3 0.990057 0.687396 0.702926
Si Si4 0.704143 0.817910 0.302166
Si Si5 0.177063 0.814584 0.520701
O O1 0.486640 0.296839 0.618215
O O2 0.398882 0.176434 0.607002
O O3 0.678306 0.500000 0.011181
O O4 0.590030 0.768943 0.136472
O O5 0.750000 0.750000 0.000000
O O6 0.731903 0.736740 0.853145
O O7 0.983002 0.500000 0.683148
O O8 0.084712 0.716834 0.634279
O O9 0.709665 0.709820 0.381339
O O10 0.727905 0.000000 0.298392
O O11 0.250000 0.750000 0.500000
O O12 0.158818 0.000000 0.559890
#
# Coordination Sequence:
#
# PCOD9170558 Si02
#       5
#     4   8   8   8   8
#     4  10  17  32  55  82 115 156 191 228 289 346
#     4  11  22  36  55  86 125 161 195 235 289 350
#     4  11  21  37  59  85 119 157 195 240 292 347
#     4  10  20  36  58  84 119 158 193 237 291 345
#     4  11  23  41  63  88 114 149 197 247 292 346
#
# _framework density 18.876548
#
# number of rings (size 3 to 8) (size 9 to 14) (size 15 to 20)
#    0.000    1.333    2.222    6.667    0.000    1.778 
#    0.000    3.889    0.000    6.667    0.000    0.000 
#    0.000    0.000    0.000    0.000    0.000    0.000 
#
# Total GULP energy -100260.489051 kJ/mol
# GULP energy per Si atom -5570.027169 kJ/mol
# Density = 1.883358 g / cm^3
# Si number density = 18.876548 Si / 1000 Ang^3
#
#
#
# Elastic Constant Matrix: (Units=GPa)
#
#
# Indices 1 2 3 4 5 6 
#
# 1 117.8015 23.1644 47.8946 0.0003 -8.9952 -0.0002
# 2 23.1644 51.5357 23.8391 0.0033 2.6363 -0.0021
# 3 47.8946 23.8391 174.0413 0.0017 0.5462 -0.0016
# 4 0.0003 0.0033 0.0017 23.8941 -0.0006 0.3465
# 5 -8.9952 2.6363 0.5462 -0.0006 14.8469 0.0003
# 6 -0.0002 -0.0021 -0.0016 0.3465 0.0003 20.7200
#
#
#
# Elastic Compliance Matrix: (Units=1/GPa)
#
#
# Indices 1 2 3 4 5 6 
#
# 1 0.010861 -0.004129 -0.002446 0.000001 0.007403 -0.000001
# 2 -0.004129 0.022478 -0.001923 -0.000003 -0.006422 0.000002
# 3 -0.002446 -0.001923 0.006687 0.000000 -0.001387 0.000000
# 4 0.000001 -0.000003 0.000000 0.041861 0.000003 -0.000700
# 5 0.007403 -0.006422 -0.001387 0.000003 0.073031 -0.000002
# 6 -0.000001 0.000002 0.000000 -0.000700 -0.000002 0.048274
#
#
# Mechanical properties :
#
#
# Convention : Reuss Voigt Hill
#
# Bulk Modulus (GPa) = 43.42235 59.24162 51.33198
# Shear Modulus (GPa) = 21.94297 28.45757 25.20027
#
# Velocity S-wave (km/s) = 3.41317 3.88695 3.65773
# Velocity P-wave (km/s) = 6.21178 7.18306 6.71500
#
# Compressibility (1/GPa) = 0.02302961
#
# Stress axis : x y z
#
# Youngs Moduli (GPa) = 92.07513 44.48866 149.55076
#
# Poissons Ratio (x) = 0.18368 0.36587
# Poissons Ratio (y) = 0.38015 0.28751
# Poissons Ratio (z) = 0.22526 0.08553
#
# Static dielectric constant tensor:
#      x y z
#    x 1.637070 0.000000 0.000520 
#    y 0.000000 1.701480 0.000000 
#    z 0.000520 0.000000 1.681460 
# 
# From -- ./inp_files/230786.got.cif
#   From: 2010.05.17/outbox.cif.g08.bks.cpg/sg12_116_cif.got.tgz:230786.got - 2010.06.03 13:09:07.
