data_PCOD9170410
_publ_section_title
;
Structure prediction by ZEFSAII (Michael W. Deem and Ramdas Pophale) SiO2 
 PCOD9170410
Probable space group: C 2/M
;
_chemical_formula_sum "Si O2"
_cell_formula_units_Z 60
_cell_length_a 14.764993
_cell_length_b 22.616119
_cell_length_c 18.644710
_cell_angle_alpha 90.000000
_cell_angle_beta 29.809937
_cell_angle_gamma 90.000000
_cell_volume 3095.081468
_symmetry_space_group_name_H-M "C 2/M"
_symmetry_group_IT_number 12
_symmetry_cell_setting 'monoclinic'
loop_
_space_group_symop_operation_xyz
x,y,z
-x,y,-z
-x,-y,-z
x,-y,z
1/2+x,1/2+y,z
1/2-x,1/2+y,-z
1/2-x,1/2-y,-z
1/2+x,1/2-y,z
loop_
_atom_site_type_symbol
_atom_site_label
_atom_site_fract_x
_atom_site_fract_y
_atom_site_fract_z
Si Si1 0.653590 0.837011 0.447704
Si Si2 0.575059 0.749389 0.295710
Si Si3 0.500000 0.623890 0.000000
Si Si4 0.090916 0.771200 0.837836
Si Si5 0.529202 0.182497 0.182822
Si Si6 0.113319 0.143596 0.495597
Si Si7 0.252854 0.065536 0.514188
Si Si8 0.155440 0.432213 0.169132
O O1 0.500000 0.862679 0.500000
O O2 0.541154 0.799872 0.583345
O O3 0.778689 0.792430 0.316873
O O4 0.766861 0.886965 0.409535
O O5 0.775190 0.747518 0.192371
O O6 0.576699 0.771692 0.213728
O O7 0.475527 0.689677 0.387463
O O8 0.487448 0.668433 0.076029
O O9 0.320434 0.585516 0.108693
O O10 0.960030 0.720264 0.897599
O O11 0.316332 0.165128 0.337027
O O12 0.634883 0.120755 0.124551
O O13 0.137376 0.083614 0.523729
O O14 0.000000 0.140926 0.500000
O O15 0.464733 0.068874 0.343655
O O16 0.210684 0.000000 0.567527
O O17 0.179519 0.500000 0.126042
#
# Coordination Sequence:
#
# PCOD9170410 Si02
#       8
#     8   8   4   8   8   8   8   8
#     4  10  17  31  54  82 110 142 174 219 283 347
#     4  11  17  33  55  87 114 135 177 221 286 346
#     4  12  23  42  54  82 115 142 198 242 282 324
#     4  11  22  33  57  87 113 143 184 235 280 333
#     4  11  19  34  57  87 115 142 181 228 282 342
#     4  11  18  29  54  82 112 148 177 209 277 342
#     4  10  21  35  52  81 114 145 185 227 272 329
#     4  10  21  38  59  78 110 154 189 229 274 329
#
# _framework density 19.385596
#
# number of rings (size 3 to 8) (size 9 to 14) (size 15 to 20)
#    0.000    1.333    6.667    2.600    0.000    1.067 
#    0.000    1.333    0.000    0.000    0.000    0.467 
#    0.000    0.000    0.000    0.000    0.000    0.000 
#
# Total GULP energy -167441.125571 kJ/mol
# GULP energy per Si atom -5581.370852 kJ/mol
# Density = 1.934147 g / cm^3
# Si number density = 19.385596 Si / 1000 Ang^3
#
#
#
# Elastic Constant Matrix: (Units=GPa)
#
#
# Indices 1 2 3 4 5 6 
#
# 1 114.2727 54.8072 16.4056 0.0048 -20.7133 -0.0003
# 2 54.8072 95.4593 11.5123 0.0119 -19.4982 -0.0053
# 3 16.4056 11.5123 29.0132 0.0118 -16.3137 0.0121
# 4 0.0048 0.0119 0.0118 10.8869 0.0066 1.2431
# 5 -20.7133 -19.4982 -16.3137 0.0066 22.5097 0.0015
# 6 -0.0003 -0.0053 0.0121 1.2431 0.0015 24.3904
#
#
#
# Elastic Compliance Matrix: (Units=1/GPa)
#
#
# Indices 1 2 3 4 5 6 
#
# 1 0.012901 -0.006119 -0.001978 0.000000 0.005137 0.000000
# 2 -0.006119 0.015695 0.002887 -0.000024 0.010057 0.000002
# 3 -0.001978 0.002887 0.058774 -0.000089 0.043276 -0.000027
# 4 0.000000 -0.000024 -0.000089 0.092391 -0.000112 -0.004709
# 5 0.005137 0.010057 0.043276 -0.000112 0.089228 -0.000019
# 6 0.000000 0.000002 -0.000027 -0.004709 -0.000019 0.041240
#
#
# Mechanical properties :
#
#
# Convention : Reuss Voigt Hill
#
# Bulk Modulus (GPa) = 12.99555 44.91059 28.95307
# Shear Modulus (GPa) = 14.43840 21.95875 18.19857
#
# Velocity S-wave (km/s) = 2.73206 3.36926 3.06726
# Velocity P-wave (km/s) = 4.08295 6.19300 5.24517
#
# Compressibility (1/GPa) = 0.07694940
#
# Stress axis : x y z
#
# Youngs Moduli (GPa) = 77.51312 63.71499 17.01438
#
# Poissons Ratio (x) = 0.38988 0.03366
# Poissons Ratio (y) = 0.47431 -0.04912
# Poissons Ratio (z) = 0.15334 -0.18396
#
# Static dielectric constant tensor:
#      x y z
#    x 1.699390 -0.000010 -0.013340 
#    y -0.000010 1.685360 0.000020 
#    z -0.013340 0.000020 1.699520 
# 
# From -- ./inp_files/312134.got.cif
#   From: 2010.05.17/outbox.cif.g08.bks.cpg/sg12_157_cif.got.tgz:312134.got - 2010.06.03 13:09:07.
