data_PCOD9170008
_publ_section_title
;
Structure prediction by ZEFSAII (Michael W. Deem and Ramdas Pophale) SiO2 
 PCOD9170008
Probable space group: C 2/M
;
_chemical_formula_sum "Si O2"
_cell_formula_units_Z 64
_cell_length_a 27.776903
_cell_length_b 24.379127
_cell_length_c 12.415467
_cell_angle_alpha 90.000000
_cell_angle_beta 26.205792
_cell_angle_gamma 90.000000
_cell_volume 3712.707262
_symmetry_space_group_name_H-M "C 2/M"
_symmetry_group_IT_number 12
_symmetry_cell_setting 'monoclinic'
loop_
_space_group_symop_operation_xyz
x,y,z
-x,y,-z
-x,-y,-z
x,-y,z
1/2+x,1/2+y,z
1/2-x,1/2+y,-z
1/2-x,1/2-y,-z
1/2+x,1/2-y,z
loop_
_atom_site_type_symbol
_atom_site_label
_atom_site_fract_x
_atom_site_fract_y
_atom_site_fract_z
Si Si1 0.264056 0.562080 0.725485
Si Si2 0.532608 0.668864 0.176672
Si Si3 0.400594 0.619416 0.627826
Si Si4 0.966948 0.724198 0.189659
Si Si5 0.701252 0.189350 0.111664
Si Si6 0.360124 0.827054 0.994209
Si Si7 0.526534 0.438107 0.821976
Si Si8 0.228919 0.281565 0.282210
O O1 0.221194 0.500000 0.815512
O O2 0.344403 0.574154 0.665234
O O3 0.178852 0.611623 0.901170
O O4 0.344699 0.567990 0.461646
O O5 0.458708 0.664036 0.432098
O O6 0.481998 0.712344 0.194920
O O7 0.532933 0.608686 0.125562
O O8 0.654069 0.689325 0.954827
O O9 0.500000 0.598185 0.500000
O O10 0.302655 0.647712 0.890426
O O11 0.842965 0.709257 0.467848
O O12 0.000000 0.715981 0.000000
O O13 0.046133 0.691837 0.112962
O O14 0.663940 0.193425 0.310153
O O15 0.750000 0.250000 0.000000
O O16 0.620231 0.177898 0.174445
O O17 0.261147 0.782964 0.209443
O O18 0.496803 0.500000 0.847974
O O19 0.500000 0.431896 0.000000
#
# Coordination Sequence:
#
# PCOD9170008 Si02
#       8
#     8   8   8   8   8   8   8   8
#     4   9  18  32  50  72 100 131 167 205 252 304
#     4  10  19  31  50  74 104 137 159 201 261 294
#     4  10  17  29  50  77 109 129 162 206 240 297
#     4  11  23  35  48  73 103 132 172 213 251 301
#     4   9  16  30  48  72 101 128 164 197 237 299
#     4   9  20  34  51  74  99 129 165 212 252 295
#     4   9  17  29  47  71  98 133 173 205 237 291
#     4  10  19  32  50  75  99 134 168 200 253 302
#
# _framework density 17.238095999999999
#
# number of rings (size 3 to 8) (size 9 to 14) (size 15 to 20)
#    0.000    2.375    1.250    3.375    0.000    3.750 
#    0.000    0.000    0.000    1.125    0.000    3.500 
#    0.000    0.000    0.000    0.000    0.000    0.000 
#
# Total GULP energy -178190.876855 kJ/mol
# GULP energy per Si atom -5568.464902 kJ/mol
# Density = 1.719886 g / cm^3
# Si number density = 17.238096 Si / 1000 Ang^3
#
#
#
# Elastic Constant Matrix: (Units=GPa)
#
#
# Indices 1 2 3 4 5 6 
#
# 1 42.6115 11.7477 21.9470 0.0000 4.0938 0.0000
# 2 11.7477 95.4957 21.1325 0.0000 1.9860 0.0000
# 3 21.9470 21.1325 64.3025 0.0002 18.3970 -0.0001
# 4 0.0000 0.0000 0.0002 17.9312 -0.0001 -1.9436
# 5 4.0938 1.9860 18.3970 -0.0001 28.0186 0.0001
# 6 0.0000 0.0000 -0.0001 -1.9436 0.0001 16.2093
#
#
#
# Elastic Compliance Matrix: (Units=1/GPa)
#
#
# Indices 1 2 3 4 5 6 
#
# 1 0.028806 -0.001360 -0.010107 0.000000 0.002524 0.000000
# 2 -0.001360 0.011450 -0.003846 0.000000 0.001912 0.000000
# 3 -0.010107 -0.003846 0.024336 0.000000 -0.014230 0.000000
# 4 0.000000 0.000000 0.000000 0.056503 0.000000 0.006775
# 5 0.002524 0.001912 -0.014230 0.000000 0.044530 0.000000
# 6 0.000000 0.000000 0.000000 0.006775 0.000000 0.062505
#
#
# Mechanical properties :
#
#
# Convention : Reuss Voigt Hill
#
# Bulk Modulus (GPa) = 29.44027 34.67379 32.05703
# Shear Modulus (GPa) = 18.51318 22.27066 20.39192
#
# Velocity S-wave (km/s) = 3.28070 3.59826 3.44315
# Velocity P-wave (km/s) = 5.60949 6.11732 5.86890
#
# Compressibility (1/GPa) = 0.03396708
#
# Stress axis : x y z
#
# Youngs Moduli (GPa) = 34.71530 87.33414 41.09099
#
# Poissons Ratio (x) = 0.11873 0.41530
# Poissons Ratio (y) = 0.04720 0.15804
# Poissons Ratio (z) = 0.35086 0.33590
#
# Static dielectric constant tensor:
#      x y z
#    x 1.626590 0.000000 0.012500 
#    y 0.000000 1.578940 0.000000 
#    z 0.012500 0.000000 1.606660 
# 
# From -- ./inp_files/184962.got.cif
#   From: 2010.05.17/outbox.cif.g08.bks.cpg/sg12_93_cif.got.tgz:184962.got - 2010.06.03 13:09:07.
