data_PCOD9170540
_publ_section_title
;
Structure prediction by ZEFSAII (Michael W. Deem and Ramdas Pophale) SiO2 
 PCOD9170540
Probable space group: C 2/M
;
_chemical_formula_sum "Si O2"
_cell_formula_units_Z 56
_cell_length_a 28.973919
_cell_length_b 18.181741
_cell_length_c 9.942152
_cell_angle_alpha 90.000000
_cell_angle_beta 39.638190
_cell_angle_gamma 90.000000
_cell_volume 3341.190128
_symmetry_space_group_name_H-M "C 2/M"
_symmetry_group_IT_number 12
_symmetry_cell_setting 'monoclinic'
loop_
_space_group_symop_operation_xyz
x,y,z
-x,y,-z
-x,-y,-z
x,-y,z
1/2+x,1/2+y,z
1/2-x,1/2+y,-z
1/2-x,1/2-y,-z
1/2+x,1/2-y,z
loop_
_atom_site_type_symbol
_atom_site_label
_atom_site_fract_x
_atom_site_fract_y
_atom_site_fract_z
Si Si1 0.557617 0.236379 0.991500
Si Si2 0.329089 0.411993 0.965839
Si Si3 0.868945 0.086647 0.576388
Si Si4 0.282700 0.848636 0.572849
Si Si5 0.518469 0.341951 0.308327
Si Si6 0.684316 0.682814 0.552482
Si Si7 0.916237 0.417170 0.141795
O O1 0.620809 0.289036 0.794250
O O2 0.585329 0.153312 0.954187
O O3 0.500000 0.232901 0.000000
O O4 0.523218 0.274025 0.197158
O O5 0.328033 0.500000 0.976080
O O6 0.264253 0.379872 0.200065
O O7 0.330128 0.391993 0.804640
O O8 0.404721 0.382792 0.856692
O O9 0.841812 0.131441 0.508853
O O10 0.953743 0.104775 0.407794
O O11 0.859114 0.000000 0.578272
O O12 0.288914 0.760225 0.570257
O O13 0.241796 0.856831 0.520762
O O14 0.360017 0.889161 0.382705
O O15 0.500000 0.317017 0.500000
O O16 0.895782 0.500000 0.143470
O O17 0.000000 0.421723 0.000000
#
# Coordination Sequence:
#
# PCOD9170540 Si02
#       7
#     8   8   8   8   8   8   8
#     4  10  17  32  54  77 103 136 178 214 251 306
#     4  10  20  34  53  78 109 145 180 212 251 307
#     4  10  21  35  51  77 114 147 174 209 256 307
#     4  10  20  34  56  78 102 135 176 219 260 315
#     4  10  19  33  53  78 110 147 179 206 246 305
#     4  10  20  34  51  79 107 135 176 218 261 305
#     4   9  19  34  55  78  99 127 168 222 273 311
#
# _framework density 16.760496
#
# number of rings (size 3 to 8) (size 9 to 14) (size 15 to 20)
#    0.000    2.143    2.857    0.857    0.000    3.429 
#    0.000    0.714    0.000    0.429    0.000    0.000 
#    0.000    0.000    0.000    0.000    0.000    0.000 
#
# Total GULP energy -155954.737223 kJ/mol
# GULP energy per Si atom -5569.812044 kJ/mol
# Density = 1.672235 g / cm^3
# Si number density = 16.760496 Si / 1000 Ang^3
#
#
#
# Elastic Constant Matrix: (Units=GPa)
#
#
# Indices 1 2 3 4 5 6 
#
# 1 68.9441 35.1605 31.9760 0.0000 6.5525 0.0000
# 2 35.1605 86.3453 49.8362 0.0000 17.7229 0.0000
# 3 31.9760 49.8362 104.0498 0.0000 -8.5698 0.0000
# 4 0.0000 0.0000 0.0000 23.6254 0.0000 2.8796
# 5 6.5525 17.7229 -8.5698 0.0000 22.8917 0.0000
# 6 0.0000 0.0000 0.0000 2.8796 0.0000 -2.2091
#
#
#
# Elastic Compliance Matrix: (Units=1/GPa)
#
#
# Indices 1 2 3 4 5 6 
#
# 1 0.019060 -0.005024 -0.003694 0.000000 -0.002949 0.000000
# 2 -0.005024 0.025714 -0.012685 0.000000 -0.023219 0.000000
# 3 -0.003694 -0.012685 0.018281 0.000000 0.017722 0.000000
# 4 0.000000 0.000000 0.000000 0.036524 0.000000 0.047611
# 5 -0.002949 -0.023219 0.017722 0.000000 0.069138 0.000000
# 6 0.000000 0.000000 0.000000 0.047611 0.000000 -0.390618
#
#
# Mechanical properties :
#
#
# Convention : Reuss Voigt Hill
#
# Bulk Modulus (GPa) = 49.38227 54.80938 52.09582
# Shear Modulus (GPa) = -29.01170 18.35272 -5.32949
#
# Velocity S-wave (km/s) = -4.16499 3.31267 -1.78513
# Velocity P-wave (km/s) = 2.52941 6.88507 5.18662
#
# Compressibility (1/GPa) = 0.02025018
#
# Stress axis : x y z
#
# Youngs Moduli (GPa) = 52.46514 38.88896 54.70152
#
# Poissons Ratio (x) = 0.19538 0.20207
# Poissons Ratio (y) = 0.26359 0.69386
# Poissons Ratio (z) = 0.19381 0.49329
#
# Static dielectric constant tensor:
#      x y z
#    x 1.573850 0.000000 -0.034580 
#    y 0.000000 1.570100 0.000000 
#    z -0.034580 0.000000 1.573930 
# 
# From -- ./inp_files/112618.got.cif
#   From: 2010.05.17/outbox.cif.g08.bks.cpg/sg12_57_cif.got.tgz:112618.got - 2010.06.03 13:09:07.
