data_PCOD9170508
_publ_section_title
;
Structure prediction by ZEFSAII (Michael W. Deem and Ramdas Pophale) SiO2 
 PCOD9170508
Probable space group: C 2/M
;
_chemical_formula_sum "Si O2"
_cell_formula_units_Z 40
_cell_length_a 22.228901
_cell_length_b 16.063406
_cell_length_c 5.028072
_cell_angle_alpha 90.000000
_cell_angle_beta 100.384299
_cell_angle_gamma 90.000000
_cell_volume 1765.976276
_symmetry_space_group_name_H-M "C 2/M"
_symmetry_group_IT_number 12
_symmetry_cell_setting 'monoclinic'
loop_
_space_group_symop_operation_xyz
x,y,z
-x,y,-z
-x,-y,-z
x,-y,z
1/2+x,1/2+y,z
1/2-x,1/2+y,-z
1/2-x,1/2-y,-z
1/2+x,1/2-y,z
loop_
_atom_site_type_symbol
_atom_site_label
_atom_site_fract_x
_atom_site_fract_y
_atom_site_fract_z
Si Si1 0.823604 0.095786 0.919478
Si Si2 0.069283 0.210920 0.126541
Si Si3 0.126680 0.630259 0.982604
Si Si4 0.065491 0.374361 0.433393
Si Si5 0.745146 0.657867 0.628258
O O1 0.885339 0.133635 0.840359
O O2 0.774596 0.103736 0.641233
O O3 0.830601 0.000000 0.003831
O O4 0.802233 0.146913 0.164422
O O5 0.100910 0.275464 0.947817
O O6 0.067454 0.274161 0.375464
O O7 0.000000 0.189568 0.000000
O O8 0.191575 0.633001 0.177643
O O9 0.079754 0.590591 0.154662
O O10 0.118052 0.598985 0.680262
O O11 0.000000 0.395225 0.500000
O O12 0.750000 0.750000 0.500000
#
# Coordination Sequence:
#
# PCOD9170508 Si02
#       5
#     8   8   8   8   8
#     4  12  28  44  60  92 136 176 213 260 318 381
#     4  10  22  35  62  87 129 169 214 256 306 374
#     4  10  20  33  59  91 118 156 211 267 315 352
#     4  10  17  32  51  92 129 152 190 265 313 363
#     4  12  24  42  68  91 119 170 223 274 314 368
#
# _framework density 22.650362000000001
#
# number of rings (size 3 to 8) (size 9 to 14) (size 15 to 20)
#    1.200    0.000    4.000    3.000    5.600    0.400 
#    0.000    0.000    0.000    3.000    0.000    0.000 
#    0.000   92.800    0.000    0.000    0.000    0.000 
#
# Total GULP energy -111482.740934 kJ/mol
# GULP energy per Si atom -5574.137047 kJ/mol
# Density = 2.259881 g / cm^3
# Si number density = 22.650362 Si / 1000 Ang^3
#
#
#
# Elastic Constant Matrix: (Units=GPa)
#
#
# Indices 1 2 3 4 5 6 
#
# 1 120.2786 50.7234 32.3488 0.0000 8.7496 0.0000
# 2 50.7234 97.8475 22.0625 0.0000 3.9557 0.0000
# 3 32.3488 22.0625 145.4313 0.0000 10.5986 0.0000
# 4 0.0000 0.0000 0.0000 -0.5413 0.0000 13.7574
# 5 8.7496 3.9557 10.5986 0.0000 29.3367 0.0000
# 6 0.0000 0.0000 0.0000 13.7574 0.0000 -24.0445
#
#
#
# Elastic Compliance Matrix: (Units=1/GPa)
#
#
# Indices 1 2 3 4 5 6 
#
# 1 0.011123 -0.005342 -0.001514 0.000000 -0.002050 0.000000
# 2 -0.005342 0.013169 -0.000818 0.000000 0.000113 0.000000
# 3 -0.001514 -0.000818 0.007493 0.000000 -0.002145 0.000000
# 4 0.000000 0.000000 0.000000 0.136421 0.000000 0.078055
# 5 -0.002050 0.000113 -0.002145 0.000000 0.035458 0.000000
# 6 0.000000 0.000000 0.000000 0.078055 0.000000 0.003071
#
#
# Mechanical properties :
#
#
# Convention : Reuss Voigt Hill
#
# Bulk Modulus (GPa) = 60.83670 63.75855 62.29763
# Shear Modulus (GPa) = 21.97196 18.17835 20.07515
#
# Velocity S-wave (km/s) = 3.11794 2.83603 2.98032
# Velocity P-wave (km/s) = 6.31502 6.23973 6.27748
#
# Compressibility (1/GPa) = 0.01643745
#
# Stress axis : x y z
#
# Youngs Moduli (GPa) = 89.90217 75.93597 133.45160
#
# Poissons Ratio (x) = 0.40564 0.20210
# Poissons Ratio (y) = 0.48024 0.10914
# Poissons Ratio (z) = 0.13615 0.06210
#
# Static dielectric constant tensor:
#      x y z
#    x 1.962370 0.000000 0.258500 
#    y 0.000000 1.953990 0.000000 
#    z 0.258500 0.000000 2.469870 
# 
# From -- ./inp_files/20227.got.cif
#   From: 2010.05.17/outbox.cif.g08.bks.cpg/sg12_11_cif.got.tgz:20227.got - 2010.06.03 13:09:07.
