data_PCOD9170753
_publ_section_title
;
Structure prediction by ZEFSAII (Michael W. Deem and Ramdas Pophale) SiO2 
 PCOD9170753
Probable space group: C 2/M
;
_chemical_formula_sum "Si O2"
_cell_formula_units_Z 48
_cell_length_a 20.735706
_cell_length_b 14.756597
_cell_length_c 8.350085
_cell_angle_alpha 90.000000
_cell_angle_beta 75.603934
_cell_angle_gamma 90.000000
_cell_volume 2474.802293
_symmetry_space_group_name_H-M "C 2/M"
_symmetry_group_IT_number 12
_symmetry_cell_setting 'monoclinic'
loop_
_space_group_symop_operation_xyz
x,y,z
-x,y,-z
-x,-y,-z
x,-y,z
1/2+x,1/2+y,z
1/2-x,1/2+y,-z
1/2-x,1/2-y,-z
1/2+x,1/2-y,z
loop_
_atom_site_type_symbol
_atom_site_label
_atom_site_fract_x
_atom_site_fract_y
_atom_site_fract_z
Si Si1 0.314674 0.688197 0.804237
Si Si2 0.168370 0.304858 0.884135
Si Si3 0.035819 0.690990 0.805600
Si Si4 0.545201 0.659706 0.333687
Si Si5 0.504410 0.000000 0.305889
Si Si6 0.649192 0.000000 0.052320
Si Si7 0.294036 0.500000 0.999465
Si Si8 0.563643 0.500000 0.070629
O O1 0.243198 0.713183 0.775555
O O2 0.380655 0.687719 0.656712
O O3 0.300408 0.588768 0.885573
O O4 0.332472 0.751322 0.945970
O O5 0.110769 0.277494 0.797354
O O6 0.152979 0.409358 0.941974
O O7 0.995529 0.756044 0.712009
O O8 0.030467 0.589746 0.741289
O O9 0.000000 0.693036 0.000000
O O10 0.500000 0.618888 0.500000
O O11 0.557589 0.588071 0.185690
O O12 0.500000 0.000000 0.500000
O O13 0.581243 0.000000 0.195556
O O14 0.718675 0.000000 0.111744
O O15 0.363029 0.500000 0.056600
O O16 0.500000 0.500000 0.000000
#
# Coordination Sequence:
#
# PCOD9170753 Si02
#       8
#     8   8   8   8   4   4   4   4
#     4   9  18  34  53  82 109 144 179 224 280 323
#     4  10  19  32  57  81 107 138 190 233 261 316
#     4  12  21  36  58  86 108 145 195 232 262 325
#     4  11  22  37  57  83 117 146 176 225 288 334
#     4  12  24  36  56  83 118 148 179 229 293 334
#     4  10  17  34  53  79 104 142 176 224 268 322
#     4   8  18  30  55  80 103 133 184 226 263 313
#     4  10  21  37  61  83 103 140 191 234 263 318
#
# _framework density 19.395489999999999
#
# number of rings (size 3 to 8) (size 9 to 14) (size 15 to 20)
#    0.000    1.667    3.333    2.000    2.333    0.000 
#    0.000    0.833    3.667    0.000    0.000    0.000 
#    0.000    0.000    0.000    0.000    0.000    0.000 
#
# Total GULP energy -133805.158805 kJ/mol
# GULP energy per Si atom -5575.214950 kJ/mol
# Density = 1.935134 g / cm^3
# Si number density = 19.395490 Si / 1000 Ang^3
#
#
#
# Elastic Constant Matrix: (Units=GPa)
#
#
# Indices 1 2 3 4 5 6 
#
# 1 189.3528 -3.8644 32.8149 0.0000 -26.3688 0.0000
# 2 -3.8644 81.7613 -15.2505 0.0000 6.7664 0.0000
# 3 32.8149 -15.2505 36.9274 0.0000 -13.2986 0.0000
# 4 0.0000 0.0000 0.0000 16.0001 0.0000 3.0119
# 5 -26.3688 6.7664 -13.2986 0.0000 24.0676 0.0000
# 6 0.0000 0.0000 0.0000 3.0119 0.0000 27.1527
#
#
#
# Elastic Compliance Matrix: (Units=1/GPa)
#
#
# Indices 1 2 3 4 5 6 
#
# 1 0.006770 -0.000957 -0.004548 0.000000 0.005173 0.000000
# 2 -0.000957 0.013401 0.005806 0.000000 -0.001608 0.000000
# 3 -0.004548 0.005806 0.038872 0.000000 0.014864 0.000000
# 4 0.000000 0.000000 0.000000 0.063832 0.000000 -0.007081
# 5 0.005173 -0.001608 0.014864 0.000000 0.055883 0.000000
# 6 0.000000 0.000000 0.000000 -0.007081 0.000000 0.037614
#
#
# Mechanical properties :
#
#
# Convention : Reuss Voigt Hill
#
# Bulk Modulus (GPa) = 16.76565 37.27129 27.01847
# Shear Modulus (GPa) = 21.21759 33.06684 27.14221
#
# Velocity S-wave (km/s) = 3.31107 4.13349 3.74493
# Velocity P-wave (km/s) = 4.82498 6.48376 5.71488
#
# Compressibility (1/GPa) = 0.05964578
#
# Stress axis : x y z
#
# Youngs Moduli (GPa) = 147.70453 74.61873 25.72524
#
# Poissons Ratio (x) = 0.07137 0.11700
# Poissons Ratio (y) = 0.14128 -0.14935
# Poissons Ratio (z) = 0.67179 -0.43321
#
# Static dielectric constant tensor:
#      x y z
#    x 1.779160 0.000000 -0.049940 
#    y 0.000000 1.698410 0.000000 
#    z -0.049940 0.000000 1.656150 
# 
# From -- ./inp_files/85748.got.cif
#   From: 2010.05.17/outbox.cif.g08.bks.cpg/sg12_43_cif.got.tgz:85748.got - 2010.06.03 13:09:07.
