data_PCOD9170911
_publ_section_title
;
Structure prediction by ZEFSAII (Michael W. Deem and Ramdas Pophale) SiO2 
 PCOD9170911
Probable space group: C 2/M
;
_chemical_formula_sum "Si O2"
_cell_formula_units_Z 48
_cell_length_a 12.957317
_cell_length_b 13.889841
_cell_length_c 22.942606
_cell_angle_alpha 90.000000
_cell_angle_beta 32.886914
_cell_angle_gamma 90.000000
_cell_volume 2242.028223
_symmetry_space_group_name_H-M "C 2/M"
_symmetry_group_IT_number 12
_symmetry_cell_setting 'monoclinic'
loop_
_space_group_symop_operation_xyz
x,y,z
-x,y,-z
-x,-y,-z
x,-y,z
1/2+x,1/2+y,z
1/2-x,1/2+y,-z
1/2-x,1/2-y,-z
1/2+x,1/2-y,z
loop_
_atom_site_type_symbol
_atom_site_label
_atom_site_fract_x
_atom_site_fract_y
_atom_site_fract_z
Si Si1 0.793935 0.697637 0.234078
Si Si2 0.305068 0.000000 0.164013
Si Si3 0.895937 0.173479 0.956488
Si Si4 0.094278 0.612521 0.182392
Si Si5 0.821006 0.610407 0.413314
Si Si6 0.269639 0.500000 0.936705
Si Si7 0.059109 0.710019 0.532265
O O1 0.744213 0.598700 0.224404
O O2 0.615583 0.747042 0.348460
O O3 0.903714 0.772639 0.140157
O O4 0.942632 0.668329 0.214260
O O5 0.224907 0.000000 0.136049
O O6 0.538650 0.000000 0.055754
O O7 0.871621 0.088351 0.920968
O O8 0.750000 0.250000 0.000000
O O9 0.803261 0.142484 0.061838
O O10 0.078001 0.500000 0.175282
O O11 0.018773 0.621267 0.283977
O O12 0.755473 0.500000 0.434923
O O13 0.841360 0.635361 0.471631
O O14 0.686202 0.696609 0.455805
O O15 0.000000 0.662960 0.500000
#
# Coordination Sequence:
#
# PCOD9170911 Si02
#       7
#     8   4   8   8   8   4   8
#     4  11  21  37  61  92 122 169 204 260 311 368
#     4  11  22  36  57  94 130 156 219 268 301 365
#     4  10  19  35  59  88 125 167 201 248 315 374
#     4  10  17  36  63  88 121 162 207 251 303 372
#     4  10  24  43  68  93 124 165 209 262 322 374
#     4  11  20  38  56  88 128 168 204 260 310 374
#     4  11  24  44  66  94 126 161 218 263 317 377
#
# _framework density 21.409185999999998
#
# number of rings (size 3 to 8) (size 9 to 14) (size 15 to 20)
#    0.000    1.500    6.667    0.000    1.167    3.333 
#    1.500    0.000    0.000    2.000    0.000    0.000 
#    0.000    0.000    0.000    0.000    0.000    0.000 
#
# Total GULP energy -133913.322022 kJ/mol
# GULP energy per Si atom -5579.721751 kJ/mol
# Density = 2.136046 g / cm^3
# Si number density = 21.409186 Si / 1000 Ang^3
#
#
#
# Elastic Constant Matrix: (Units=GPa)
#
#
# Indices 1 2 3 4 5 6 
#
# 1 58.4973 6.9841 -5.1573 0.0000 22.7017 0.0000
# 2 6.9841 83.5249 14.4714 -0.0008 5.0458 0.0001
# 3 -5.1573 14.4714 86.9337 -0.0027 5.8408 0.0002
# 4 0.0000 -0.0008 -0.0027 21.0245 0.0001 13.5192
# 5 22.7017 5.0458 5.8408 0.0001 32.7606 0.0001
# 6 0.0000 0.0001 0.0002 13.5192 0.0001 -7.5548
#
#
#
# Elastic Compliance Matrix: (Units=1/GPa)
#
#
# Indices 1 2 3 4 5 6 
#
# 1 0.024110 -0.001478 0.002817 0.000000 -0.016982 0.000000
# 2 -0.001478 0.012497 -0.002133 0.000000 -0.000520 0.000000
# 3 0.002817 -0.002133 0.012281 0.000001 -0.003813 0.000001
# 4 0.000000 0.000000 0.000001 0.022116 0.000000 0.039575
# 5 -0.016982 -0.000520 -0.003813 0.000000 0.043052 -0.000001
# 6 0.000000 0.000000 0.000001 0.039575 -0.000001 -0.061546
#
#
# Mechanical properties :
#
#
# Convention : Reuss Voigt Hill
#
# Bulk Modulus (GPa) = 21.14139 29.06138 25.10138
# Shear Modulus (GPa) = 71.56657 23.42323 47.49490
#
# Velocity S-wave (km/s) = 5.78797 3.31127 4.71514
# Velocity P-wave (km/s) = 7.38673 5.31254 6.43377
#
# Compressibility (1/GPa) = 0.04730058
#
# Stress axis : x y z
#
# Youngs Moduli (GPa) = 41.47649 80.01872 81.42363
#
# Poissons Ratio (x) = 0.11829 -0.22940
# Poissons Ratio (y) = 0.06131 0.17368
# Poissons Ratio (z) = -0.11685 0.17069
#
# Static dielectric constant tensor:
#      x y z
#    x 1.679690 0.000000 0.105220 
#    y 0.000000 1.735160 0.000000 
#    z 0.105220 0.000000 1.714770 
# 
# From -- ./inp_files/340104.got.cif
#   From: 2010.05.17/outbox.cif.g08.bks.cpg/sg12_171_cif.got.tgz:340104.got - 2010.06.03 13:09:07.
