data_PCOD9170168
_publ_section_title
;
Structure prediction by ZEFSAII (Michael W. Deem and Ramdas Pophale) SiO2 
 PCOD9170168
Probable space group: C 2/M
;
_chemical_formula_sum "Si O2"
_cell_formula_units_Z 48
_cell_length_a 19.127772
_cell_length_b 11.614585
_cell_length_c 21.133408
_cell_angle_alpha 90.000000
_cell_angle_beta 153.741654
_cell_angle_gamma 90.000000
_cell_volume 2077.168429
_symmetry_space_group_name_H-M "C 2/M"
_symmetry_group_IT_number 12
_symmetry_cell_setting 'monoclinic'
loop_
_space_group_symop_operation_xyz
x,y,z
-x,y,-z
-x,-y,-z
x,-y,z
1/2+x,1/2+y,z
1/2-x,1/2+y,-z
1/2-x,1/2-y,-z
1/2+x,1/2-y,z
loop_
_atom_site_type_symbol
_atom_site_label
_atom_site_fract_x
_atom_site_fract_y
_atom_site_fract_z
Si Si1 0.225723 0.867031 0.065448
Si Si2 0.066011 0.738032 0.125622
Si Si3 0.735404 0.000000 0.274968
Si Si4 0.359594 0.131806 0.318562
Si Si5 0.870988 0.242152 0.520283
Si Si6 0.985920 0.000000 0.594197
Si Si7 0.062773 0.637039 0.296647
O O1 0.293732 0.864344 0.192666
O O2 0.376779 0.835208 0.145175
O O3 0.182310 0.000000 0.016562
O O4 0.073704 0.786769 0.944459
O O5 0.125532 0.610672 0.187784
O O6 0.218890 0.819860 0.246726
O O7 0.000000 0.737177 0.000000
O O8 0.862362 0.000000 0.434966
O O9 0.840909 0.000000 0.296428
O O10 0.517789 0.208050 0.444221
O O11 0.393641 0.000000 0.360137
O O12 0.950203 0.118227 0.601867
O O13 0.881548 0.331683 0.586511
O O14 0.688787 0.211693 0.359625
O O15 0.079737 0.500000 0.299253
#
# Coordination Sequence:
#
# PCOD9170168 Si02
#       7
#     8   8   4   8   8   4   8
#     4   8  15  27  45  73 101 126 157 203 261 314
#     4  10  18  31  51  74 102 130 168 219 263 295
#     4  11  23  36  50  72 103 143 182 203 251 316
#     4   9  16  27  47  74 104 133 159 203 262 306
#     4  10  17  30  50  74 103 136 166 207 253 302
#     4  11  22  36  52  70 104 148 173 204 249 319
#     4   9  17  29  50  80 106 129 166 209 263 306
#
# _framework density 23.108383
#
# number of rings (size 3 to 8) (size 9 to 14) (size 15 to 20)
#    0.000    2.500    2.500    2.250    0.000    2.000 
#    0.000    0.000    0.000    6.000    0.000    0.000 
#    0.000    0.000    0.000    0.000    0.000    0.000 
#
# Total GULP energy -134149.912033 kJ/mol
# GULP energy per Si atom -5589.579668 kJ/mol
# Density = 2.305579 g / cm^3
# Si number density = 23.108383 Si / 1000 Ang^3
#
#
#
# Elastic Constant Matrix: (Units=GPa)
#
#
# Indices 1 2 3 4 5 6 
#
# 1 86.2940 38.5049 53.6326 -0.0001 34.0812 0.0001
# 2 38.5049 138.3597 87.5392 0.0004 47.9178 0.0008
# 3 53.6326 87.5392 168.2961 0.0010 58.0644 0.0016
# 4 -0.0001 0.0004 0.0010 27.6447 0.0001 33.5021
# 5 34.0812 47.9178 58.0644 0.0001 58.2533 0.0001
# 6 0.0001 0.0008 0.0016 33.5021 0.0001 9.3768
#
#
#
# Elastic Compliance Matrix: (Units=1/GPa)
#
#
# Indices 1 2 3 4 5 6 
#
# 1 0.015944 -0.000638 -0.002609 0.000000 -0.006202 0.000000
# 2 -0.000638 0.011844 -0.004153 0.000000 -0.005230 0.000000
# 3 -0.002609 -0.004153 0.011017 0.000000 -0.006039 0.000000
# 4 0.000000 0.000000 0.000000 -0.010863 0.000000 0.038813
# 5 -0.006202 -0.005230 -0.006039 0.000000 0.031116 0.000000
# 6 0.000000 0.000000 0.000000 0.038813 0.000000 -0.032027
#
#
# Mechanical properties :
#
#
# Convention : Reuss Voigt Hill
#
# Bulk Modulus (GPa) = 41.65908 83.58925 62.62417
# Shear Modulus (GPa) = 100.33454 33.27316 66.80385
#
# Velocity S-wave (km/s) = 6.59647 3.79868 5.38254
# Velocity P-wave (km/s) = 8.72265 7.44924 8.11098
#
# Compressibility (1/GPa) = 0.02400437
#
# Stress axis : x y z
#
# Youngs Moduli (GPa) = 62.71799 84.43211 90.76943
#
# Poissons Ratio (x) = 0.05390 0.23683
# Poissons Ratio (y) = 0.04004 0.37695
# Poissons Ratio (z) = 0.16364 0.35063
#
# Static dielectric constant tensor:
#      x y z
#    x 1.916020 0.000000 0.001800 
#    y 0.000000 1.809050 0.000000 
#    z 0.001800 0.000000 1.856310 
# 
# From -- ./inp_files/382821.got.cif
#   From: 2010.05.17/outbox.cif.g08.bks.cpg/sg12_192_cif.got.tgz:382821.got - 2010.06.03 13:09:07.
