data_PCOD9170311
_publ_section_title
;
Structure prediction by ZEFSAII (Michael W. Deem and Ramdas Pophale) SiO2 
 PCOD9170311
Probable space group: C 2/M
;
_chemical_formula_sum "Si O2"
_cell_formula_units_Z 64
_cell_length_a 9.197914
_cell_length_b 33.134744
_cell_length_c 14.811754
_cell_angle_alpha 90.000000
_cell_angle_beta 46.557197
_cell_angle_gamma 90.000000
_cell_volume 3277.575241
_symmetry_space_group_name_H-M "C 2/M"
_symmetry_group_IT_number 12
_symmetry_cell_setting 'monoclinic'
loop_
_space_group_symop_operation_xyz
x,y,z
-x,y,-z
-x,-y,-z
x,-y,z
1/2+x,1/2+y,z
1/2-x,1/2+y,-z
1/2-x,1/2-y,-z
1/2+x,1/2-y,z
loop_
_atom_site_type_symbol
_atom_site_label
_atom_site_fract_x
_atom_site_fract_y
_atom_site_fract_z
Si Si1 0.414225 0.373159 0.823874
Si Si2 0.883325 0.312036 0.457400
Si Si3 0.946400 0.268274 0.239827
Si Si4 0.929922 0.802081 0.704849
Si Si5 0.790331 0.824859 0.053471
Si Si6 0.724720 0.546906 0.870989
Si Si7 0.336738 0.121979 0.719748
Si Si8 0.712197 0.045043 0.955817
O O1 0.347451 0.346030 0.768161
O O2 0.654601 0.370122 0.728691
O O3 0.346962 0.419382 0.858240
O O4 0.326725 0.351838 0.950473
O O5 0.940425 0.285689 0.345126
O O6 0.644973 0.307787 0.566307
O O7 0.000000 0.299052 0.500000
O O8 0.963764 0.357228 0.402554
O O9 0.737211 0.278146 0.280539
O O10 0.011051 0.222235 0.228680
O O11 0.121482 0.291520 0.113115
O O12 0.718213 0.854297 0.164762
O O13 0.000000 0.806869 0.000000
O O14 0.717329 0.500000 0.847750
O O15 0.819565 0.575500 0.755680
O O16 0.500000 0.559383 0.000000
O O17 0.836036 0.551143 0.918156
O O18 0.803379 0.000000 0.908409
O O19 0.500000 0.045724 0.000000
#
# Coordination Sequence:
#
# PCOD9170311 Si02
#       8
#     8   8   8   8   8   8   8   8
#     4  11  21  36  60  87 127 154 204 238 304 373
#     4  11  22  42  65  82 112 155 210 261 308 348
#     4  11  26  43  62  86 120 153 208 257 308 364
#     4  12  26  41  61  90 113 165 205 261 306 358
#     4   9  20  37  58  87 122 162 188 244 305 366
#     4  10  17  30  56  90 122 158 198 238 300 373
#     4  10  18  35  61  86 117 156 200 256 295 352
#     4  10  21  34  54  88 129 163 194 239 289 354
#
# _framework density 19.526630999999998
#
# number of rings (size 3 to 8) (size 9 to 14) (size 15 to 20)
#    0.000    1.500    3.750    1.875    5.250    0.500 
#    0.000    0.000    0.000    1.125    0.000    0.000 
#    0.000    6.250    0.000    0.000    0.000    0.000 
#
# Total GULP energy -178630.019920 kJ/mol
# GULP energy per Si atom -5582.188123 kJ/mol
# Density = 1.948219 g / cm^3
# Si number density = 19.526631 Si / 1000 Ang^3
#
#
#
# Elastic Constant Matrix: (Units=GPa)
#
#
# Indices 1 2 3 4 5 6 
#
# 1 104.7985 25.8774 26.2908 0.0000 -7.0730 0.0000
# 2 25.8774 119.4183 26.9551 0.0000 -13.1977 0.0000
# 3 26.2908 26.9551 47.5166 0.0000 -18.9114 0.0000
# 4 0.0000 0.0000 0.0000 30.2681 0.0000 1.7549
# 5 -7.0730 -13.1977 -18.9114 0.0000 28.4459 0.0000
# 6 0.0000 0.0000 0.0000 1.7549 0.0000 23.5625
#
#
#
# Elastic Compliance Matrix: (Units=1/GPa)
#
#
# Indices 1 2 3 4 5 6 
#
# 1 0.011305 -0.001237 -0.006340 0.000000 -0.001978 0.000000
# 2 -0.001237 0.009766 -0.004317 0.000000 0.001353 0.000000
# 3 -0.006340 -0.004317 0.034780 0.000000 0.019543 0.000000
# 4 0.000000 0.000000 0.000000 0.033181 0.000000 -0.002471
# 5 -0.001978 0.001353 0.019543 0.000000 0.048283 0.000000
# 6 0.000000 0.000000 0.000000 -0.002471 0.000000 0.042624
#
#
# Mechanical properties :
#
#
# Convention : Reuss Voigt Hill
#
# Bulk Modulus (GPa) = 31.18930 47.77556 39.48243
# Shear Modulus (GPa) = 23.31909 29.29596 26.30753
#
# Velocity S-wave (km/s) = 3.45950 3.87758 3.67449
# Velocity P-wave (km/s) = 5.65375 6.67589 6.18597
#
# Compressibility (1/GPa) = 0.03206228
#
# Stress axis : x y z
#
# Youngs Moduli (GPa) = 88.45871 102.39619 28.75180
#
# Poissons Ratio (x) = 0.12668 0.18230
# Poissons Ratio (y) = 0.10944 0.12412
# Poissons Ratio (z) = 0.56087 0.44203
#
# Static dielectric constant tensor:
#      x y z
#    x 1.756780 0.000000 0.022050 
#    y 0.000000 1.741890 0.000000 
#    z 0.022050 0.000000 1.686770 
# 
# From -- ./inp_files/201234.got.cif
#   From: 2010.05.17/outbox.cif.g08.bks.cpg/sg12_101_cif.got.tgz:201234.got - 2010.06.03 13:09:07.
