data_PCOD9170060
_publ_section_title
;
Structure prediction by ZEFSAII (Michael W. Deem and Ramdas Pophale) SiO2 
 PCOD9170060
Probable space group: C 2/M
;
_chemical_formula_sum "Si O2"
_cell_formula_units_Z 48
_cell_length_a 17.310974
_cell_length_b 17.958441
_cell_length_c 16.166615
_cell_angle_alpha 90.000000
_cell_angle_beta 144.831284
_cell_angle_gamma 90.000000
_cell_volume 2894.817614
_symmetry_space_group_name_H-M "C 2/M"
_symmetry_group_IT_number 12
_symmetry_cell_setting 'monoclinic'
loop_
_space_group_symop_operation_xyz
x,y,z
-x,y,-z
-x,-y,-z
x,-y,z
1/2+x,1/2+y,z
1/2-x,1/2+y,-z
1/2-x,1/2-y,-z
1/2+x,1/2-y,z
loop_
_atom_site_type_symbol
_atom_site_label
_atom_site_fract_x
_atom_site_fract_y
_atom_site_fract_z
Si Si1 0.450964 0.205288 0.653191
Si Si2 0.538779 0.667262 0.194958
Si Si3 0.642865 0.224710 0.150400
Si Si4 0.749781 0.699960 0.081978
Si Si5 0.782819 0.084909 0.529614
Si Si6 0.116424 0.831975 0.535680
O O1 0.452107 0.264685 0.729963
O O2 0.599526 0.170503 0.776708
O O3 0.338954 0.143551 0.570584
O O4 0.416175 0.254918 0.542034
O O5 0.602471 0.702165 0.168218
O O6 0.622532 0.601603 0.308959
O O7 0.382425 0.649266 0.042826
O O8 0.719072 0.248634 0.134260
O O9 0.743011 0.177035 0.293552
O O10 0.500000 0.189183 0.000000
O O11 0.750000 0.750000 0.000000
O O12 0.865942 0.106705 0.520116
O O13 0.738486 0.000000 0.488359
O O14 0.000000 0.846586 0.500000
#
# Coordination Sequence:
#
# PCOD9170060 Si02
#       6
#     8   8   8   8   8   8
#     4  10  17  32  54  78 103 131 179 225 262 304
#     4   9  17  33  52  77 103 134 177 219 260 311
#     4  10  17  29  53  82 105 129 164 224 272 309
#     4   9  18  28  51  84 103 125 167 230 278 301
#     4  11  22  35  52  75 112 151 175 208 261 320
#     4  11  19  33  56  81 105 133 178 230 262 306
#
# _framework density 16.581354999999999
#
# number of rings (size 3 to 8) (size 9 to 14) (size 15 to 20)
#    0.000    2.000    5.000    1.000    0.000    0.333 
#    0.000    0.833    0.000    9.500    0.000    0.000 
#    0.000    0.000    0.000    0.000    0.000    0.000 
#
# Total GULP energy -133688.334415 kJ/mol
# GULP energy per Si atom -5570.347267 kJ/mol
# Density = 1.654362 g / cm^3
# Si number density = 16.581355 Si / 1000 Ang^3
#
#
#
# Elastic Constant Matrix: (Units=GPa)
#
#
# Indices 1 2 3 4 5 6 
#
# 1 59.1901 -6.2515 0.2966 0.0001 0.0062 0.0001
# 2 -6.2515 38.7486 6.7041 -0.0001 7.3301 0.0000
# 3 0.2966 6.7041 90.0925 0.0000 7.8486 0.0000
# 4 0.0001 -0.0001 0.0000 8.3208 -0.0001 -0.0490
# 5 0.0062 7.3301 7.8486 -0.0001 34.3350 0.0000
# 6 0.0001 0.0000 0.0000 -0.0490 0.0000 7.2049
#
#
#
# Elastic Compliance Matrix: (Units=1/GPa)
#
#
# Indices 1 2 3 4 5 6 
#
# 1 0.017205 0.002923 -0.000224 0.000000 -0.000576 0.000000
# 2 0.002923 0.027599 -0.001582 0.000000 -0.005531 0.000000
# 3 -0.000224 -0.001582 0.011416 0.000000 -0.002272 0.000000
# 4 0.000000 0.000000 0.000000 0.120186 0.000000 0.000817
# 5 -0.000576 -0.005531 -0.002272 0.000000 0.030825 0.000000
# 6 0.000000 0.000000 0.000000 0.000817 0.000000 0.138799
#
#
# Mechanical properties :
#
#
# Convention : Reuss Voigt Hill
#
# Bulk Modulus (GPa) = 17.10701 21.05883 19.08292
# Shear Modulus (GPa) = 13.76352 22.45761 18.11056
#
# Velocity S-wave (km/s) = 2.88420 3.68420 3.30847
# Velocity P-wave (km/s) = 4.62935 5.55208 5.11158
#
# Compressibility (1/GPa) = 0.05845556
#
# Stress axis : x y z
#
# Youngs Moduli (GPa) = 58.12379 36.23325 87.59597
#
# Poissons Ratio (x) = -0.10593 0.01962
# Poissons Ratio (y) = -0.16992 0.13853
# Poissons Ratio (z) = 0.01302 0.05730
#
# Static dielectric constant tensor:
#      x y z
#    x 1.573880 0.000000 0.010550 
#    y 0.000000 1.554420 0.000000 
#    z 0.010550 0.000000 1.613340 
# 
# From -- ./inp_files/216472.got.cif
#   From: 2010.05.17/outbox.cif.g08.bks.cpg/sg12_109_cif.got.tgz:216472.got - 2010.06.03 13:09:07.
