data_PCOD9170985
_publ_section_title
;
Structure prediction by ZEFSAII (Michael W. Deem and Ramdas Pophale) SiO2 
 PCOD9170985
Probable space group: C 2/M
;
_chemical_formula_sum "Si O2"
_cell_formula_units_Z 56
_cell_length_a 24.115839
_cell_length_b 28.511220
_cell_length_c 5.283504
_cell_angle_alpha 90.000000
_cell_angle_beta 93.444846
_cell_angle_gamma 90.000000
_cell_volume 3626.225288
_symmetry_space_group_name_H-M "C 2/M"
_symmetry_group_IT_number 12
_symmetry_cell_setting 'monoclinic'
loop_
_space_group_symop_operation_xyz
x,y,z
-x,y,-z
-x,-y,-z
x,-y,z
1/2+x,1/2+y,z
1/2-x,1/2+y,-z
1/2-x,1/2-y,-z
1/2+x,1/2-y,z
loop_
_atom_site_type_symbol
_atom_site_label
_atom_site_fract_x
_atom_site_fract_y
_atom_site_fract_z
Si Si1 0.968994 0.805369 0.741825
Si Si2 0.356014 0.233399 0.160122
Si Si3 0.016722 0.702741 0.756991
Si Si4 0.207806 0.289690 0.377998
Si Si5 0.687631 0.339162 0.789419
Si Si6 0.963005 0.945303 0.738019
Si Si7 0.132745 0.868864 0.277880
O O1 0.906666 0.822698 0.733761
O O2 0.000000 0.822985 0.500000
O O3 0.977143 0.749371 0.741455
O O4 0.000000 0.823143 0.000000
O O5 0.420958 0.221783 0.201063
O O6 0.327861 0.202494 0.377419
O O7 0.343055 0.288101 0.214279
O O8 0.329986 0.225137 0.873253
O O9 0.000000 0.676614 0.500000
O O10 0.000000 0.675000 0.000000
O O11 0.250000 0.250000 0.500000
O O12 0.248978 0.328364 0.270606
O O13 0.662176 0.369158 0.555629
O O14 0.674786 0.362702 0.055656
O O15 0.910041 0.911774 0.751796
O O16 0.000000 0.933709 0.500000
O O17 0.946655 0.000000 0.709640
O O18 0.000000 0.940462 0.000000
#
# Coordination Sequence:
#
# PCOD9170985 Si02
#       7
#     8   8   8   8   8   8   8
#     4  10  18  26  36  55  77  94 118 157 204 248
#     4  11  19  31  44  57  82 113 134 167 221 264
#     4  10  18  27  38  56  76  98 129 166 204 246
#     4  10  20  32  43  57  79 109 139 167 210 267
#     4  11  20  30  44  62  79 100 137 175 209 254
#     4  10  21  36  50  65  88 116 142 170 219 289
#     4  12  20  30  46  64  82 104 133 178 223 252
#
# _framework density 15.443057
#
# number of rings (size 3 to 8) (size 9 to 14) (size 15 to 20)
#    0.000    1.429    0.000   11.143    0.000    0.000 
#    0.000    0.000    0.000    0.000    0.000    0.000 
#    0.000    0.000    0.000    0.000    0.000    0.000 
#
# Total GULP energy -156122.054869 kJ/mol
# GULP energy per Si atom -5575.787674 kJ/mol
# Density = 1.540791 g / cm^3
# Si number density = 15.443057 Si / 1000 Ang^3
#
#
#
# Elastic Constant Matrix: (Units=GPa)
#
#
# Indices 1 2 3 4 5 6 
#
# 1 63.9829 13.5798 28.8889 0.0000 -9.4254 0.0000
# 2 13.5798 29.4669 6.7346 0.0000 -3.0234 0.0000
# 3 28.8889 6.7346 138.5657 0.0000 -7.5089 0.0000
# 4 0.0000 0.0000 0.0000 14.0452 0.0000 3.4015
# 5 -9.4254 -3.0234 -7.5089 0.0000 35.6554 0.0000
# 6 0.0000 0.0000 0.0000 3.4015 0.0000 13.5406
#
#
#
# Elastic Compliance Matrix: (Units=1/GPa)
#
#
# Indices 1 2 3 4 5 6 
#
# 1 0.019391 -0.007761 -0.003463 0.000000 0.003738 0.000000
# 2 -0.007761 0.037662 -0.000152 0.000000 0.001110 0.000000
# 3 -0.003463 -0.000152 0.007987 0.000000 0.000754 0.000000
# 4 0.000000 0.000000 0.000000 0.075811 0.000000 -0.019044
# 5 0.003738 0.001110 0.000754 0.000000 0.029287 0.000000
# 6 0.000000 0.000000 0.000000 -0.019044 0.000000 0.078636
#
#
# Mechanical properties :
#
#
# Convention : Reuss Voigt Hill
#
# Bulk Modulus (GPa) = 23.64794 36.71355 30.18074
# Shear Modulus (GPa) = 17.50567 24.83571 21.17069
#
# Velocity S-wave (km/s) = 3.37049 4.01460 3.70657
# Velocity P-wave (km/s) = 5.52207 6.73160 6.15661
#
# Compressibility (1/GPa) = 0.04228698
#
# Stress axis : x y z
#
# Youngs Moduli (GPa) = 51.57128 26.55209 125.20363
#
# Poissons Ratio (x) = 0.20607 0.43356
# Poissons Ratio (y) = 0.40025 0.01906
# Poissons Ratio (z) = 0.17858 0.00404
#
# Static dielectric constant tensor:
#      x y z
#    x 1.552630 0.000000 -0.032270 
#    y 0.000000 1.486620 0.000000 
#    z -0.032270 0.000000 1.619020 
# 
# From -- ./inp_files/22208.got.cif
#   From: 2010.05.17/outbox.cif.g08.bks.cpg/sg12_12_cif.got.tgz:22208.got - 2010.06.03 13:09:07.
