data_PCOD9170750
_publ_section_title
;
Structure prediction by ZEFSAII (Michael W. Deem and Ramdas Pophale) SiO2 
 PCOD9170750
Probable space group: C 2/M
;
_chemical_formula_sum "Si O2"
_cell_formula_units_Z 34
_cell_length_a 8.172291
_cell_length_b 26.281300
_cell_length_c 7.466696
_cell_angle_alpha 90.000000
_cell_angle_beta 69.543821
_cell_angle_gamma 90.000000
_cell_volume 1502.556480
_symmetry_space_group_name_H-M "C 2/M"
_symmetry_group_IT_number 12
_symmetry_cell_setting 'monoclinic'
loop_
_space_group_symop_operation_xyz
x,y,z
-x,y,-z
-x,-y,-z
x,-y,z
1/2+x,1/2+y,z
1/2-x,1/2+y,-z
1/2-x,1/2-y,-z
1/2+x,1/2-y,z
loop_
_atom_site_type_symbol
_atom_site_label
_atom_site_fract_x
_atom_site_fract_y
_atom_site_fract_z
Si Si1 0.500000 0.726360 0.000000
Si Si2 0.773186 0.913537 0.900318
Si Si3 0.000000 0.500000 0.000000
Si Si4 0.846927 0.320142 0.866470
Si Si5 0.846445 0.940054 0.293316
Si Si6 0.500000 0.114639 0.500000
O O1 0.653583 0.691569 0.865324
O O2 0.425520 0.765604 0.883404
O O3 0.637448 0.954947 0.882074
O O4 0.964691 0.915744 0.740370
O O5 0.694780 0.856916 0.948626
O O6 0.804314 0.931306 0.097053
O O7 0.963596 0.350167 0.683548
O O8 0.676092 0.918011 0.455332
O O9 0.861225 0.000000 0.317540
#
# Coordination Sequence:
#
# PCOD9170750 Si02
#       6
#     4   8   2   8   8   4
#     4  10  21  40  64  78 112 144 207 238 290 332
#     4  10  19  32  57  83 116 144 201 225 278 327
#     4  12  18  30  56  86 108 154 186 244 256 334
#     4  10  21  38  58  89 108 152 187 250 282 345
#     4  10  17  34  52  81 113 161 187 227 262 353
#     4  10  21  32  60  86 120 144 194 235 298 328
#
# _framework density 22.628101000000001
#
# number of rings (size 3 to 8) (size 9 to 14) (size 15 to 20)
#    0.000    1.882    2.353    4.588    0.000    0.941 
#    0.000    0.000    0.000   28.235    0.000    0.000 
#    0.000    0.000    0.000    0.000    0.000    0.000 
#
# Total GULP energy -94748.986043 kJ/mol
# GULP energy per Si atom -5573.469767 kJ/mol
# Density = 2.257660 g / cm^3
# Si number density = 22.628101 Si / 1000 Ang^3
#
#
#
# Elastic Constant Matrix: (Units=GPa)
#
#
# Indices 1 2 3 4 5 6 
#
# 1 90.3241 23.8107 52.9892 0.0000 -45.8305 0.0000
# 2 23.8107 110.5931 35.8023 0.0000 -22.8544 0.0000
# 3 52.9892 35.8023 101.4676 0.0000 -41.7520 0.0000
# 4 0.0000 0.0000 0.0000 21.8190 0.0000 8.0268
# 5 -45.8305 -22.8544 -41.7520 0.0000 43.0122 0.0000
# 6 0.0000 0.0000 0.0000 8.0268 0.0000 -95.7153
#
#
#
# Elastic Compliance Matrix: (Units=1/GPa)
#
#
# Indices 1 2 3 4 5 6 
#
# 1 0.024850 0.000636 -0.003609 0.000000 0.023313 0.000000
# 2 0.000636 0.010498 -0.002435 0.000000 0.003892 0.000000
# 3 -0.003609 -0.002435 0.017457 0.000000 0.011807 0.000000
# 4 0.000000 0.000000 0.000000 0.044460 0.000000 0.003728
# 5 0.023313 0.003892 0.011807 0.000000 0.061619 0.000000
# 6 0.000000 0.000000 0.000000 0.003728 0.000000 -0.010135
#
#
# Mechanical properties :
#
#
# Convention : Reuss Voigt Hill
#
# Bulk Modulus (GPa) = 23.81540 58.62101 41.21820
# Shear Modulus (GPa) = 28.80849 6.47535 17.64192
#
# Velocity S-wave (km/s) = 3.57196 1.69347 2.79524
# Velocity P-wave (km/s) = 5.24971 5.45769 5.35471
#
# Compressibility (1/GPa) = 0.04198965
#
# Stress axis : x y z
#
# Youngs Moduli (GPa) = 40.24214 95.25863 57.28231
#
# Poissons Ratio (x) = -0.06056 0.20672
# Poissons Ratio (y) = -0.02558 0.13946
# Poissons Ratio (z) = 0.14522 0.23191
#
# Static dielectric constant tensor:
#      x y z
#    x 1.948750 0.000000 0.038670 
#    y 0.000000 1.770100 0.000000 
#    z 0.038670 0.000000 1.848210 
# 
# From -- ./inp_files/40228.got.cif
#   From: 2010.05.17/outbox.cif.g08.bks.cpg/sg12_21_cif.got.tgz:40228.got - 2010.06.03 13:09:07.
