data_PCOD9170257
_publ_section_title
;
Structure prediction by ZEFSAII (Michael W. Deem and Ramdas Pophale) SiO2 
 PCOD9170257
Probable space group: C 2/M
;
_chemical_formula_sum "Si O2"
_cell_formula_units_Z 64
_cell_length_a 15.943124
_cell_length_b 20.436817
_cell_length_c 9.771331
_cell_angle_alpha 90.000000
_cell_angle_beta 86.829280
_cell_angle_gamma 90.000000
_cell_volume 3178.886782
_symmetry_space_group_name_H-M "C 2/M"
_symmetry_group_IT_number 12
_symmetry_cell_setting 'monoclinic'
loop_
_space_group_symop_operation_xyz
x,y,z
-x,y,-z
-x,-y,-z
x,-y,z
1/2+x,1/2+y,z
1/2-x,1/2+y,-z
1/2-x,1/2-y,-z
1/2+x,1/2-y,z
loop_
_atom_site_type_symbol
_atom_site_label
_atom_site_fract_x
_atom_site_fract_y
_atom_site_fract_z
Si Si1 0.059670 0.671070 0.717889
Si Si2 0.814069 0.168210 0.629054
Si Si3 0.845949 0.694739 0.534863
Si Si4 0.125108 0.808166 0.093208
Si Si5 0.090514 0.074953 0.565733
Si Si6 0.099162 0.574301 0.947122
Si Si7 0.135755 0.337801 0.180539
Si Si8 0.571386 0.319841 0.804988
O O1 0.081569 0.660391 0.558016
O O2 0.084482 0.746135 0.749210
O O3 0.961407 0.662869 0.760162
O O4 0.105913 0.621450 0.816136
O O5 0.871148 0.231625 0.580336
O O6 0.727246 0.191112 0.571221
O O7 0.819085 0.161063 0.791455
O O8 0.844902 0.104012 0.550233
O O9 0.815932 0.662279 0.679734
O O10 0.145443 0.730849 0.100669
O O11 0.027808 0.820285 0.146249
O O12 0.127385 0.829567 0.936002
O O13 0.088712 0.124938 0.692309
O O14 0.000000 0.077123 0.500000
O O15 0.108137 0.000000 0.602910
O O16 0.122805 0.500000 0.915322
O O17 0.147636 0.604512 0.072355
O O18 0.000000 0.575196 0.000000
#
# Coordination Sequence:
#
# PCOD9170257 Si02
#       8
#     8   8   8   8   8   8   8   8
#     4  10  17  30  53  82 108 136 179 226 265 314
#     4  10  20  36  51  77 110 140 173 229 275 326
#     4  10  20  32  54  79 105 138 185 224 273 315
#     4   9  17  30  53  79 107 133 174 226 274 312
#     4  11  22  37  57  82 109 145 182 222 280 335
#     4   9  17  31  50  76 109 139 170 216 270 319
#     4   9  17  30  51  80 106 139 179 222 264 313
#     4  10  17  31  55  82 105 133 179 228 266 323
#
# _framework density 20.132833999999999
#
# number of rings (size 3 to 8) (size 9 to 14) (size 15 to 20)
#    0.000    2.250    3.750    0.375    0.000    0.000 
#    0.000    5.625    0.000    3.000    0.000    0.000 
#    0.000    0.000    0.000    0.000    0.000    0.000 
#
# Total GULP energy -178485.460710 kJ/mol
# GULP energy per Si atom -5577.670647 kJ/mol
# Density = 2.008701 g / cm^3
# Si number density = 20.132834 Si / 1000 Ang^3
#
#
#
# Elastic Constant Matrix: (Units=GPa)
#
#
# Indices 1 2 3 4 5 6 
#
# 1 26.5186 7.2965 13.5570 0.0000 14.4050 0.0000
# 2 7.2965 121.6706 53.2569 0.0000 5.1515 0.0000
# 3 13.5570 53.2569 129.5639 0.0000 33.6081 0.0000
# 4 0.0000 0.0000 0.0000 36.0831 0.0000 -15.5193
# 5 14.4050 5.1515 33.6081 0.0000 27.9758 0.0000
# 6 0.0000 0.0000 0.0000 -15.5193 0.0000 51.9276
#
#
#
# Elastic Compliance Matrix: (Units=1/GPa)
#
#
# Indices 1 2 3 4 5 6 
#
# 1 0.054094 -0.003736 0.004245 0.000000 -0.032265 0.000000
# 2 -0.003736 0.010687 -0.005797 0.000000 0.006920 0.000000
# 3 0.004245 -0.005797 0.014450 0.000000 -0.018477 0.000000
# 4 0.000000 0.000000 0.000000 0.031802 0.000000 0.009504
# 5 -0.032265 0.006920 -0.018477 0.000000 0.073282 0.000000
# 6 0.000000 0.000000 0.000000 0.009504 0.000000 0.022098
#
#
# Mechanical properties :
#
#
# Convention : Reuss Voigt Hill
#
# Bulk Modulus (GPa) = 14.56569 47.33043 30.94806
# Shear Modulus (GPa) = 20.84433 36.77348 28.80891
#
# Velocity S-wave (km/s) = 3.22116 4.27844 3.78688
# Velocity P-wave (km/s) = 4.59184 6.92581 5.87588
#
# Compressibility (1/GPa) = 0.06865450
#
# Stress axis : x y z
#
# Youngs Moduli (GPa) = 18.48645 93.56784 69.20517
#
# Poissons Ratio (x) = 0.34956 -0.29376
# Poissons Ratio (y) = 0.06906 0.40119
# Poissons Ratio (z) = -0.07847 0.54242
#
# Static dielectric constant tensor:
#      x y z
#    x 1.817610 0.000000 0.005030 
#    y 0.000000 1.685370 0.000000 
#    z 0.005030 0.000000 1.743430 
# 
# From -- ./inp_files/89178.got.cif
#   From: 2010.05.17/outbox.cif.g08.bks.cpg/sg12_45_cif.got.tgz:89178.got - 2010.06.03 13:09:07.
