data_PCOD9170957
_publ_section_title
;
Structure prediction by ZEFSAII (Michael W. Deem and Ramdas Pophale) SiO2 
 PCOD9170957
Probable space group: C 2/M
;
_chemical_formula_sum "Si O2"
_cell_formula_units_Z 56
_cell_length_a 13.281541
_cell_length_b 33.375375
_cell_length_c 9.634147
_cell_angle_alpha 90.000000
_cell_angle_beta 29.735179
_cell_angle_gamma 90.000000
_cell_volume 2118.178126
_symmetry_space_group_name_H-M "C 2/M"
_symmetry_group_IT_number 12
_symmetry_cell_setting 'monoclinic'
loop_
_space_group_symop_operation_xyz
x,y,z
-x,y,-z
-x,-y,-z
x,-y,z
1/2+x,1/2+y,z
1/2-x,1/2+y,-z
1/2-x,1/2-y,-z
1/2+x,1/2-y,z
loop_
_atom_site_type_symbol
_atom_site_label
_atom_site_fract_x
_atom_site_fract_y
_atom_site_fract_z
Si Si1 0.248948 0.362512 0.957705
Si Si2 0.316946 0.222107 0.545005
Si Si3 0.222875 0.500000 0.798204
Si Si4 0.247874 0.414538 0.715088
Si Si5 0.789415 0.500000 0.847523
Si Si6 0.661337 0.786006 0.934364
Si Si7 0.252461 0.085932 0.793268
Si Si8 0.743740 0.864866 0.462740
O O1 0.306106 0.322309 0.807744
O O2 0.303572 0.374785 0.047797
O O3 0.002183 0.362537 0.246296
O O4 0.303848 0.400623 0.800854
O O5 0.250000 0.250000 0.500000
O O6 0.549151 0.219443 0.217062
O O7 0.208189 0.179245 0.653231
O O8 0.260432 0.246360 0.750124
O O9 0.320714 0.459964 0.617354
O O10 0.194943 0.500000 0.001076
O O11 0.000000 0.500000 0.000000
O O12 0.305153 0.378921 0.541677
O O13 0.000000 0.416153 0.000000
O O14 0.689022 0.542313 0.922838
O O15 0.000000 0.500000 0.500000
O O16 0.500000 0.798212 0.000000
O O17 0.500000 0.085161 0.500000
O O18 0.196583 0.097919 0.704968
#
# Coordination Sequence:
#
# PCOD9170957 Si02
#       8
#     8   8   4   8   4   8   8   8
#     4   9  14  25  38  55  77 111 144 180 214 259
#     4   9  16  28  44  65  87 114 152 186 224 270
#     4  10  18  22  32  54  76 108 151 186 217 259
#     4   9  15  22  34  49  75 103 143 181 212 250
#     4  10  18  26  34  52  82 116 148 182 222 262
#     4   9  16  26  44  64  86 115 150 186 224 268
#     4   9  17  25  37  52  81 114 148 178 216 265
#     4   9  17  26  38  56  77 111 148 180 214 268
#
# _framework density 26.437812999999998
#
# number of rings (size 3 to 8) (size 9 to 14) (size 15 to 20)
#    0.000    2.857    1.429    3.000    6.000    0.000 
#    0.000    0.714    0.000    0.000    0.000    0.000 
#    0.000    0.000    0.000   46.286    0.286   66.000 
#
# Total GULP energy -156200.968860 kJ/mol
# GULP energy per Si atom -5578.606031 kJ/mol
# Density = 2.637764 g / cm^3
# Si number density = 26.437813 Si / 1000 Ang^3
#
#
#
# Elastic Constant Matrix: (Units=GPa)
#
#
# Indices 1 2 3 4 5 6 
#
# 1 86.5603 28.9835 14.5414 0.0000 27.1464 0.0000
# 2 28.9835 243.0054 65.4339 0.0000 33.4411 0.0000
# 3 14.5414 65.4339 96.9875 0.0000 4.5403 0.0000
# 4 0.0000 0.0000 0.0000 42.7502 0.0000 14.7332
# 5 27.1464 33.4411 4.5403 0.0000 56.3105 0.0000
# 6 0.0000 0.0000 0.0000 14.7332 0.0000 18.2393
#
#
#
# Elastic Compliance Matrix: (Units=1/GPa)
#
#
# Indices 1 2 3 4 5 6 
#
# 1 0.013934 -0.000370 -0.001541 0.000000 -0.006374 0.000000
# 2 -0.000370 0.005492 -0.003519 0.000000 -0.002800 0.000000
# 3 -0.001541 -0.003519 0.012831 0.000000 0.001798 0.000000
# 4 0.000000 0.000000 0.000000 0.032416 0.000000 -0.026185
# 5 -0.006374 -0.002800 0.001798 0.000000 0.022349 0.000000
# 6 0.000000 0.000000 0.000000 -0.026185 0.000000 0.075978
#
#
# Mechanical properties :
#
#
# Convention : Reuss Voigt Hill
#
# Bulk Modulus (GPa) = 46.73340 71.60786 59.17063
# Shear Modulus (GPa) = 27.62543 44.63295 36.12919
#
# Velocity S-wave (km/s) = 3.23603 4.11326 3.70073
# Velocity P-wave (km/s) = 5.62829 7.05002 6.37888
#
# Compressibility (1/GPa) = 0.02139797
#
# Stress axis : x y z
#
# Youngs Moduli (GPa) = 71.76574 182.08338 77.93325
#
# Poissons Ratio (x) = 0.06734 0.12012
# Poissons Ratio (y) = 0.02654 0.27423
# Poissons Ratio (z) = 0.11061 0.64070
#
# Static dielectric constant tensor:
#      x y z
#    x 1.896740 0.000000 0.121100 
#    y 0.000000 2.911760 0.000000 
#    z 0.121100 0.000000 1.791920 
# 
# From -- ./inp_files/80445.got.cif
#   From: 2010.05.17/outbox.cif.g08.bks.cpg/sg12_41_cif.got.tgz:80445.got - 2010.06.03 13:09:07.
