data_PCOD9170357
_publ_section_title
;
Structure prediction by ZEFSAII (Michael W. Deem and Ramdas Pophale) SiO2 
 PCOD9170357
Probable space group: C 2/M
;
_chemical_formula_sum "Si O2"
_cell_formula_units_Z 40
_cell_length_a 11.476519
_cell_length_b 22.237615
_cell_length_c 10.278775
_cell_angle_alpha 90.000000
_cell_angle_beta 39.928431
_cell_angle_gamma 90.000000
_cell_volume 1683.681406
_symmetry_space_group_name_H-M "C 2/M"
_symmetry_group_IT_number 12
_symmetry_cell_setting 'monoclinic'
loop_
_space_group_symop_operation_xyz
x,y,z
-x,y,-z
-x,-y,-z
x,-y,z
1/2+x,1/2+y,z
1/2-x,1/2+y,-z
1/2-x,1/2-y,-z
1/2+x,1/2-y,z
loop_
_atom_site_type_symbol
_atom_site_label
_atom_site_fract_x
_atom_site_fract_y
_atom_site_fract_z
Si Si1 0.309467 0.567077 0.482887
Si Si2 0.714893 0.404510 0.786351
Si Si3 0.197558 0.224174 0.864119
Si Si4 0.404569 0.067786 0.897766
Si Si5 0.630023 0.662716 0.205897
O O1 0.380463 0.500000 0.456820
O O2 0.256843 0.564912 0.375162
O O3 0.452391 0.621562 0.375618
O O4 0.118747 0.578091 0.715576
O O5 0.750173 0.333418 0.734150
O O6 0.827982 0.426295 0.814069
O O7 0.500000 0.411812 0.000000
O O8 0.339383 0.277818 0.736655
O O9 0.159517 0.191938 0.036448
O O10 0.000000 0.249599 0.000000
O O11 0.366266 0.000000 0.973696
O O12 0.294232 0.115891 0.074135
#
# Coordination Sequence:
#
# PCOD9170357 Si02
#       5
#     8   8   8   8   8
#     4  11  20  31  52  78 105 134 168 209 259 310
#     4  10  17  31  50  72 105 137 163 206 262 306
#     4   9  17  34  54  73 101 139 171 213 245 303
#     4  10  20  31  48  77 105 133 171 210 253 309
#     4  10  19  33  55  72 104 139 170 206 259 296
#
# _framework density 23.757463999999999
#
# number of rings (size 3 to 8) (size 9 to 14) (size 15 to 20)
#    0.000    2.000    6.000    1.800    0.000    2.400 
#    0.000    9.000    0.000    2.400    0.000    2.800 
#    0.000    0.000    0.000    0.000    0.000    0.000 
#
# Total GULP energy -111737.162017 kJ/mol
# GULP energy per Si atom -5586.858101 kJ/mol
# Density = 2.370339 g / cm^3
# Si number density = 23.757464 Si / 1000 Ang^3
#
#
#
# Elastic Constant Matrix: (Units=GPa)
#
#
# Indices 1 2 3 4 5 6 
#
# 1 72.3813 52.9216 29.6481 0.0000 -2.3449 0.0000
# 2 52.9216 177.8071 67.2551 0.0000 -43.1082 0.0000
# 3 29.6481 67.2551 89.4196 0.0000 -31.4206 0.0000
# 4 0.0000 0.0000 0.0000 9.6200 0.0000 -20.1621
# 5 -2.3449 -43.1082 -31.4206 0.0000 14.9603 0.0000
# 6 0.0000 0.0000 0.0000 -20.1621 0.0000 38.0500
#
#
#
# Elastic Compliance Matrix: (Units=1/GPa)
#
#
# Indices 1 2 3 4 5 6 
#
# 1 -0.008447 0.019621 0.028413 0.000000 0.114889 0.000000
# 2 0.019621 -0.012738 -0.033366 0.000000 -0.103707 0.000000
# 3 0.028413 -0.033366 -0.020460 0.000000 -0.134661 0.000000
# 4 0.000000 0.000000 0.000000 -0.940296 0.000000 -0.498247
# 5 0.114889 -0.103707 -0.134661 0.000000 -0.496804 0.000000
# 6 0.000000 0.000000 0.000000 -0.498247 0.000000 -0.237731
#
#
# Mechanical properties :
#
#
# Convention : Reuss Voigt Hill
#
# Bulk Modulus (GPa) = -81.25057 71.02863 -5.11097
# Shear Modulus (GPa) = -2.85728 25.17830 11.16051
#
# Velocity S-wave (km/s) = -1.09786 3.25900 2.16977
# Velocity P-wave (km/s) = 5.99010 6.64257 2.03007
#
# Compressibility (1/GPa) = -0.01230761
#
# Stress axis : x y z
#
# Youngs Moduli (GPa) = -118.39165 -78.50233 -48.87573
#
# Poissons Ratio (x) = 1.54029 1.38872
# Poissons Ratio (y) = 2.32295 -1.63077
# Poissons Ratio (z) = 3.36391 -2.61927
#
# Static dielectric constant tensor:
#      x y z
#    x 1.989670 0.000000 0.033700 
#    y 0.000000 1.912170 0.000000 
#    z 0.033700 0.000000 1.864080 
# 
# From -- ./inp_files/62223.got.cif
#   From: 2010.05.17/outbox.cif.g08.bks.cpg/sg12_32_cif.got.tgz:62223.got - 2010.06.03 13:09:07.
