data_PCOD9170106
_publ_section_title
;
Structure prediction by ZEFSAII (Michael W. Deem and Ramdas Pophale) SiO2 
 PCOD9170106
Probable space group: C 2/M
;
_chemical_formula_sum "Si O2"
_cell_formula_units_Z 40
_cell_length_a 11.990496
_cell_length_b 27.725700
_cell_length_c 8.313781
_cell_angle_alpha 90.000000
_cell_angle_beta 144.741042
_cell_angle_gamma 90.000000
_cell_volume 1595.509484
_symmetry_space_group_name_H-M "C 2/M"
_symmetry_group_IT_number 12
_symmetry_cell_setting 'monoclinic'
loop_
_space_group_symop_operation_xyz
x,y,z
-x,y,-z
-x,-y,-z
x,-y,z
1/2+x,1/2+y,z
1/2-x,1/2+y,-z
1/2-x,1/2-y,-z
1/2+x,1/2-y,z
loop_
_atom_site_type_symbol
_atom_site_label
_atom_site_fract_x
_atom_site_fract_y
_atom_site_fract_z
Si Si1 0.233496 0.889651 0.248168
Si Si2 0.750846 0.094333 0.379959
Si Si3 0.807318 0.783124 0.910063
Si Si4 0.196584 0.942920 0.891495
Si Si5 0.851617 0.197479 0.469743
O O1 0.307668 0.912423 0.503491
O O2 0.283491 0.834493 0.251000
O O3 0.287021 0.922512 0.160354
O O4 0.000000 0.889934 0.000000
O O5 0.690295 0.070366 0.139801
O O6 0.718365 0.151446 0.324428
O O7 0.981676 0.081264 0.643572
O O8 0.756483 0.745268 0.711294
O O9 0.750000 0.750000 0.000000
O O10 0.019699 0.798313 0.219419
O O11 0.170468 0.000000 0.865127
O O12 0.000000 0.186356 0.500000
#
# Coordination Sequence:
#
# PCOD9170106 Si02
#       5
#     8   8   8   8   8
#     4  10  19  32  47  70 104 136 171 213 263 304
#     4  10  17  30  46  65 101 130 169 205 262 301
#     4  10  19  32  50  71 101 143 178 212 256 306
#     4  10  18  29  48  70 100 138 170 208 265 320
#     4  10  17  31  50  69  99 140 175 208 252 305
#
# _framework density 25.070361999999999
#
# number of rings (size 3 to 8) (size 9 to 14) (size 15 to 20)
#    0.000    2.000    6.000    2.400    0.000    5.200 
#    0.000    0.000    0.000    0.000    0.000    0.000 
#    0.000   21.600    0.000   66.800    0.000    0.000 
#
# Total GULP energy -111536.284966 kJ/mol
# GULP energy per Si atom -5576.814248 kJ/mol
# Density = 2.501330 g / cm^3
# Si number density = 25.070362 Si / 1000 Ang^3
#
#
#
# Elastic Constant Matrix: (Units=GPa)
#
#
# Indices 1 2 3 4 5 6 
#
# 1 123.6824 9.7462 60.7244 0.0000 -32.1460 0.0000
# 2 9.7462 130.6438 72.9110 0.0000 -14.6741 0.0000
# 3 60.7244 72.9110 176.6287 0.0000 -51.2939 0.0000
# 4 0.0000 0.0000 0.0000 21.4671 0.0000 -0.1754
# 5 -32.1460 -14.6741 -51.2939 0.0000 48.0417 0.0000
# 6 0.0000 0.0000 0.0000 -0.1754 0.0000 3.9144
#
#
#
# Elastic Compliance Matrix: (Units=1/GPa)
#
#
# Indices 1 2 3 4 5 6 
#
# 1 0.010539 0.001324 -0.002905 0.000000 0.004354 0.000000
# 2 0.001324 0.010240 -0.005097 0.000000 -0.001428 0.000000
# 3 -0.002905 -0.005097 0.011230 0.000000 0.008489 0.000000
# 4 0.000000 0.000000 0.000000 0.046600 0.000000 0.002088
# 5 0.004354 -0.001428 0.008489 0.000000 0.032356 0.000000
# 6 0.000000 0.000000 0.000000 0.002088 0.000000 0.255562
#
#
# Mechanical properties :
#
#
# Convention : Reuss Voigt Hill
#
# Bulk Modulus (GPa) = 53.61225 79.74645 66.67935
# Shear Modulus (GPa) = 12.94999 33.85617 23.40308
#
# Velocity S-wave (km/s) = 2.27523 3.67883 3.05863
# Velocity P-wave (km/s) = 5.32291 7.06563 6.25526
#
# Compressibility (1/GPa) = 0.01865245
#
# Stress axis : x y z
#
# Youngs Moduli (GPa) = 94.88479 97.65863 89.04945
#
# Poissons Ratio (x) = -0.12934 0.25873
# Poissons Ratio (y) = -0.12566 0.45388
# Poissons Ratio (z) = 0.27569 0.49776
#
# Static dielectric constant tensor:
#      x y z
#    x 2.152690 0.000000 -0.001250 
#    y 0.000000 1.947000 0.000000 
#    z -0.001250 0.000000 2.065680 
# 
# From -- ./inp_files/78930.got.cif
#   From: 2010.05.17/outbox.cif.g08.bks.cpg/sg12_40_cif.got.tgz:78930.got - 2010.06.03 13:09:07.
