data_PCOD9170448
_publ_section_title
;
Structure prediction by ZEFSAII (Michael W. Deem and Ramdas Pophale) SiO2 
 PCOD9170448
Probable space group: C 2/M
;
_chemical_formula_sum "Si O2"
_cell_formula_units_Z 40
_cell_length_a 19.215926
_cell_length_b 11.927189
_cell_length_c 8.838012
_cell_angle_alpha 90.000000
_cell_angle_beta 114.989933
_cell_angle_gamma 90.000000
_cell_volume 1835.968778
_symmetry_space_group_name_H-M "C 2/M"
_symmetry_group_IT_number 12
_symmetry_cell_setting 'monoclinic'
loop_
_space_group_symop_operation_xyz
x,y,z
-x,y,-z
-x,-y,-z
x,-y,z
1/2+x,1/2+y,z
1/2-x,1/2+y,-z
1/2-x,1/2-y,-z
1/2+x,1/2-y,z
loop_
_atom_site_type_symbol
_atom_site_label
_atom_site_fract_x
_atom_site_fract_y
_atom_site_fract_z
Si Si1 0.802427 0.370256 0.400153
Si Si2 0.648883 0.771081 0.235926
Si Si3 0.769073 0.373350 0.940927
Si Si4 0.885530 0.821227 0.338160
Si Si5 0.026116 0.127828 0.269547
O O1 0.802557 0.500000 0.379261
O O2 0.717349 0.321467 0.292821
O O3 0.828578 0.340570 0.593933
O O4 0.862813 0.307389 0.347265
O O5 0.657455 0.846670 0.095632
O O6 0.569107 0.709026 0.193289
O O7 0.774757 0.500000 0.016721
O O8 0.694964 0.380792 0.763284
O O9 0.750000 0.250000 0.000000
O O10 0.924921 0.864429 0.528163
O O11 0.941482 0.838902 0.248323
O O12 0.026214 0.000000 0.216365
#
# Coordination Sequence:
#
# PCOD9170448 Si02
#       5
#     8   8   8   8   8
#     4   9  16  29  50  76 108 139 169 213 266 323
#     4   9  19  31  50  78 103 133 176 219 267 314
#     4  11  23  39  57  76 105 146 188 225 260 309
#     4   9  19  33  53  83 110 137 173 214 268 321
#     4  10  17  31  57  84 110 133 163 218 277 325
#
# _framework density 21.786864000000001
#
# number of rings (size 3 to 8) (size 9 to 14) (size 15 to 20)
#    0.000    2.400    0.000    4.800    0.000    4.000 
#    0.000   10.000    0.000    3.600    0.000    0.000 
#    0.000    0.000    0.000    0.000    0.000    0.000 
#
# Total GULP energy -111544.190434 kJ/mol
# GULP energy per Si atom -5577.209522 kJ/mol
# Density = 2.173728 g / cm^3
# Si number density = 21.786864 Si / 1000 Ang^3
#
#
#
# Elastic Constant Matrix: (Units=GPa)
#
#
# Indices 1 2 3 4 5 6 
#
# 1 97.4672 28.0800 18.6782 0.0000 -25.6947 0.0000
# 2 28.0800 186.1703 33.1469 0.0000 -17.7716 0.0000
# 3 18.6782 33.1469 32.6748 0.0000 -13.9861 0.0000
# 4 0.0000 0.0000 0.0000 9.1812 0.0000 -5.3865
# 5 -25.6947 -17.7716 -13.9861 0.0000 26.2059 0.0000
# 6 0.0000 0.0000 0.0000 -5.3865 0.0000 9.5147
#
#
#
# Elastic Compliance Matrix: (Units=1/GPa)
#
#
# Indices 1 2 3 4 5 6 
#
# 1 0.014073 -0.000555 -0.002250 0.000000 0.012221 0.000000
# 2 -0.000555 0.006605 -0.006090 0.000000 0.000684 0.000000
# 3 -0.002250 -0.006090 0.045825 0.000000 0.018121 0.000000
# 4 0.000000 0.000000 0.000000 0.163085 0.000000 0.092327
# 5 0.012221 0.000684 0.018121 0.000000 0.060277 0.000000
# 6 0.000000 0.000000 0.000000 0.092327 0.000000 0.157369
#
#
# Mechanical properties :
#
#
# Convention : Reuss Voigt Hill
#
# Bulk Modulus (GPa) = 20.52891 52.90251 36.71571
# Shear Modulus (GPa) = 10.38937 24.74086 17.56511
#
# Velocity S-wave (km/s) = 2.18609 3.37350 2.84249
# Velocity P-wave (km/s) = 3.97681 6.28558 5.25945
#
# Compressibility (1/GPa) = 0.04871179
#
# Stress axis : x y z
#
# Youngs Moduli (GPa) = 71.05941 151.40536 21.82214
#
# Poissons Ratio (x) = 0.08409 0.04910
# Poissons Ratio (y) = 0.03946 0.13289
# Poissons Ratio (z) = 0.15990 0.92203
#
# Static dielectric constant tensor:
#      x y z
#    x 1.768330 0.000000 -0.029900 
#    y 0.000000 1.807610 0.000000 
#    z -0.029900 0.000000 1.895920 
# 
# From -- ./inp_files/83646.got.cif
#   From: 2010.05.17/outbox.cif.g08.bks.cpg/sg12_42_cif.got.tgz:83646.got - 2010.06.03 13:09:07.
