data_PCOD9170952
_publ_section_title
;
Structure prediction by ZEFSAII (Michael W. Deem and Ramdas Pophale) SiO2 
 PCOD9170952
Probable space group: C 2/M
;
_chemical_formula_sum "Si O2"
_cell_formula_units_Z 52
_cell_length_a 14.956066
_cell_length_b 15.346803
_cell_length_c 19.262759
_cell_angle_alpha 90.000000
_cell_angle_beta 36.740383
_cell_angle_gamma 90.000000
_cell_volume 2644.801033
_symmetry_space_group_name_H-M "C 2/M"
_symmetry_group_IT_number 12
_symmetry_cell_setting 'monoclinic'
loop_
_space_group_symop_operation_xyz
x,y,z
-x,y,-z
-x,-y,-z
x,-y,z
1/2+x,1/2+y,z
1/2-x,1/2+y,-z
1/2-x,1/2-y,-z
1/2+x,1/2-y,z
loop_
_atom_site_type_symbol
_atom_site_label
_atom_site_fract_x
_atom_site_fract_y
_atom_site_fract_z
Si Si1 0.150989 0.000000 0.181707
Si Si2 0.899934 0.142103 0.287042
Si Si3 0.433429 0.899148 0.466492
Si Si4 0.559327 0.800938 0.257235
Si Si5 0.832018 0.328069 0.077274
Si Si6 0.317598 0.098698 0.939656
Si Si7 0.982989 0.100722 0.089775
O O1 0.259296 0.920716 0.143762
O O2 0.032023 0.924698 0.225728
O O3 0.744595 0.110464 0.415433
O O4 0.890387 0.146282 0.208753
O O5 0.946836 0.233247 0.291344
O O6 0.500000 0.876377 0.500000
O O7 0.499261 0.838138 0.366150
O O8 0.471788 0.000000 0.427799
O O9 0.716248 0.748880 0.167969
O O10 0.581558 0.878944 0.188378
O O11 0.840378 0.334448 0.987860
O O12 0.000000 0.319696 0.000000
O O13 0.333381 0.000000 0.959270
O O14 0.150594 0.102563 0.014904
O O15 0.929286 0.000000 0.119821
O O16 0.000000 0.131005 0.000000
#
# Coordination Sequence:
#
# PCOD9170952 Si02
#       7
#     4   8   8   8   8   8   8
#     4  10  17  38  64  92 125 168 224 258 316 393
#     4  11  20  41  65  91 130 175 218 266 327 392
#     4  11  25  44  67  94 126 168 225 273 327 399
#     4  11  25  40  62  95 132 172 213 271 328 383
#     4  11  22  38  66  97 133 175 215 268 323 389
#     4  11  21  40  59  90 136 168 212 264 325 399
#     4  10  19  32  59  94 126 167 210 255 319 388
#
# _framework density 19.661214999999999
#
# number of rings (size 3 to 8) (size 9 to 14) (size 15 to 20)
#    0.000    1.231    5.385    1.615    2.154    1.846 
#    0.000    0.000    0.000    0.462    0.000    3.231 
#    0.000    0.000    0.000    0.000    0.000    0.000 
#
# Total GULP energy -144754.419524 kJ/mol
# GULP energy per Si atom -5567.477674 kJ/mol
# Density = 1.961646 g / cm^3
# Si number density = 19.661215 Si / 1000 Ang^3
#
#
#
# Elastic Constant Matrix: (Units=GPa)
#
#
# Indices 1 2 3 4 5 6 
#
# 1 108.9744 38.0638 65.0319 0.0000 8.6005 0.0000
# 2 38.0638 59.3702 48.6579 0.0001 25.7853 -0.0001
# 3 65.0319 48.6579 114.5759 0.0002 29.7860 0.0000
# 4 0.0000 0.0001 0.0002 36.2104 -0.0001 7.5368
# 5 8.6005 25.7853 29.7860 -0.0001 30.8293 0.0000
# 6 0.0000 -0.0001 0.0000 7.5368 0.0000 15.6022
#
#
#
# Elastic Compliance Matrix: (Units=1/GPa)
#
#
# Indices 1 2 3 4 5 6 
#
# 1 0.016206 -0.007873 -0.008535 0.000000 0.010310 0.000000
# 2 -0.007873 0.035843 -0.004715 0.000000 -0.023227 0.000000
# 3 -0.008535 -0.004715 0.018603 0.000000 -0.011649 0.000000
# 4 0.000000 0.000000 0.000000 0.030703 0.000000 -0.014831
# 5 0.010310 -0.023227 -0.011649 0.000000 0.060242 0.000000
# 6 0.000000 0.000000 0.000000 -0.014831 0.000000 0.071258
#
#
# Mechanical properties :
#
#
# Convention : Reuss Voigt Hill
#
# Bulk Modulus (GPa) = 35.20388 65.15862 50.18125
# Shear Modulus (GPa) = 17.57036 25.27284 21.42160
#
# Velocity S-wave (km/s) = 2.99265 3.58916 3.30439
# Velocity P-wave (km/s) = 5.46675 7.09850 6.33538
#
# Compressibility (1/GPa) = 0.02840596
#
# Stress axis : x y z
#
# Youngs Moduli (GPa) = 61.70451 27.89955 53.75453
#
# Poissons Ratio (x) = 0.21965 0.45882
# Poissons Ratio (y) = 0.48579 0.25345
# Poissons Ratio (z) = 0.52667 0.13155
#
# Static dielectric constant tensor:
#      x y z
#    x 1.602980 0.000000 -0.340530 
#    y 0.000000 1.776580 0.000000 
#    z -0.340530 0.000000 0.442300 
# 
# From -- ./inp_files/270592.got.cif
#   From: 2010.05.17/outbox.cif.g08.bks.cpg/sg12_136_cif.got.tgz:270592.got - 2010.06.03 13:09:07.
