data_PCOD9170549
_publ_section_title
;
Structure prediction by ZEFSAII (Michael W. Deem and Ramdas Pophale) SiO2 
 PCOD9170549
Probable space group: C 2/M
;
_chemical_formula_sum "Si O2"
_cell_formula_units_Z 64
_cell_length_a 23.455984
_cell_length_b 18.513517
_cell_length_c 16.904892
_cell_angle_alpha 90.000000
_cell_angle_beta 157.410782
_cell_angle_gamma 90.000000
_cell_volume 2819.835012
_symmetry_space_group_name_H-M "C 2/M"
_symmetry_group_IT_number 12
_symmetry_cell_setting 'monoclinic'
loop_
_space_group_symop_operation_xyz
x,y,z
-x,y,-z
-x,-y,-z
x,-y,z
1/2+x,1/2+y,z
1/2-x,1/2+y,-z
1/2-x,1/2-y,-z
1/2+x,1/2-y,z
loop_
_atom_site_type_symbol
_atom_site_label
_atom_site_fract_x
_atom_site_fract_y
_atom_site_fract_z
Si Si1 0.404482 0.204746 0.504814
Si Si2 0.030551 0.856379 0.633639
Si Si3 0.315445 0.686684 0.914814
Si Si4 0.868730 0.190332 0.726824
Si Si5 0.150067 0.639056 0.332755
Si Si6 0.895156 0.580903 0.286505
Si Si7 0.729672 0.919398 0.267488
Si Si8 0.153765 0.653174 0.007507
O O1 0.485435 0.281357 0.618137
O O2 0.328714 0.206042 0.321538
O O3 0.263572 0.189602 0.379537
O O4 0.521690 0.140501 0.659321
O O5 0.204727 0.874789 0.859975
O O6 0.000000 0.848439 0.500000
O O7 0.907501 0.912557 0.504853
O O8 0.263183 0.616312 0.894764
O O9 0.346907 0.759815 0.004225
O O10 0.458411 0.671992 0.042804
O O11 0.872975 0.275456 0.711726
O O12 0.806133 0.138697 0.577545
O O13 0.156241 0.599795 0.256940
O O14 0.009466 0.618842 0.206707
O O15 0.884251 0.500000 0.240730
O O16 0.000000 0.576207 0.500000
O O17 0.686282 0.863146 0.143051
O O18 0.689974 0.000000 0.191117
#
# Coordination Sequence:
#
# PCOD9170549 Si02
#       8
#     8   8   8   8   8   8   8   8
#     4  11  16  32  57  84 112 142 183 234 280 331
#     4  10  17  32  54  86 114 143 182 235 285 332
#     4  10  17  32  56  84 110 144 185 235 279 333
#     4  10  21  34  56  80 107 150 196 234 275 323
#     4  10  21  38  51  78 114 146 194 238 272 333
#     4   9  18  31  53  82 110 138 175 225 285 339
#     4  11  22  36  59  86 116 150 185 234 294 344
#     4  10  19  33  58  83 109 145 188 232 286 330
#
# _framework density 22.696362000000001
#
# number of rings (size 3 to 8) (size 9 to 14) (size 15 to 20)
#    0.000    1.875    5.000    1.125    0.000    5.250 
#    0.000    3.750    0.000    3.000    0.000    0.000 
#    0.000    0.000    0.000    0.000    0.000    0.000 
#
# Total GULP energy -178503.884025 kJ/mol
# GULP energy per Si atom -5578.246376 kJ/mol
# Density = 2.264470 g / cm^3
# Si number density = 22.696362 Si / 1000 Ang^3
#
#
#
# Elastic Constant Matrix: (Units=GPa)
#
#
# Indices 1 2 3 4 5 6 
#
# 1 60.8605 4.4624 26.7793 0.0000 22.5539 0.0000
# 2 4.4624 75.0934 20.6074 0.0000 8.3059 0.0000
# 3 26.7793 20.6074 98.9415 0.0000 41.8198 0.0000
# 4 0.0000 0.0000 0.0000 4.2539 0.0000 7.1599
# 5 22.5539 8.3059 41.8198 0.0000 45.9782 0.0000
# 6 0.0000 0.0000 0.0000 7.1599 0.0000 12.4144
#
#
#
# Elastic Compliance Matrix: (Units=1/GPa)
#
#
# Indices 1 2 3 4 5 6 
#
# 1 0.020350 0.000274 -0.002152 0.000000 -0.008074 0.000000
# 2 0.000274 0.014129 -0.003056 0.000000 0.000093 0.000000
# 3 -0.002152 -0.003056 0.017296 0.000000 -0.014124 0.000000
# 4 0.000000 0.000000 0.000000 8.031899 0.000000 -4.632319
# 5 -0.008074 0.000093 -0.014124 0.000000 0.038540 0.000000
# 6 0.000000 0.000000 0.000000 -4.632319 0.000000 2.752196
#
#
# Mechanical properties :
#
#
# Convention : Reuss Voigt Hill
#
# Bulk Modulus (GPa) = 23.86263 37.62151 30.74207
# Shear Modulus (GPa) = 0.45879 24.73240 12.59560
#
# Velocity S-wave (km/s) = 0.45009 3.30465 2.35832
# Velocity P-wave (km/s) = 3.28737 5.58328 4.58147
#
# Compressibility (1/GPa) = 0.04190652
#
# Stress axis : x y z
#
# Youngs Moduli (GPa) = 49.13967 70.77694 57.81788
#
# Poissons Ratio (x) = -0.01942 0.12444
# Poissons Ratio (y) = -0.01349 0.17671
# Poissons Ratio (z) = 0.10576 0.21632
#
# Static dielectric constant tensor:
#      x y z
#    x 1.912090 0.000000 -0.035200 
#    y 0.000000 1.775460 0.000000 
#    z -0.035200 0.000000 1.926250 
# 
# From -- ./inp_files/328674.got.cif
#   From: 2010.05.17/outbox.cif.g08.bks.cpg/sg12_165_cif.got.tgz:328674.got - 2010.06.03 13:09:07.
