data_PCOD9170705
_publ_section_title
;
Structure prediction by ZEFSAII (Michael W. Deem and Ramdas Pophale) SiO2 
 PCOD9170705
Probable space group: C 2/M
;
_chemical_formula_sum "Si O2"
_cell_formula_units_Z 64
_cell_length_a 16.001141
_cell_length_b 29.006985
_cell_length_c 11.762524
_cell_angle_alpha 90.000000
_cell_angle_beta 149.864349
_cell_angle_gamma 90.000000
_cell_volume 2740.943843
_symmetry_space_group_name_H-M "C 2/M"
_symmetry_group_IT_number 12
_symmetry_cell_setting 'monoclinic'
loop_
_space_group_symop_operation_xyz
x,y,z
-x,y,-z
-x,-y,-z
x,-y,z
1/2+x,1/2+y,z
1/2-x,1/2+y,-z
1/2-x,1/2-y,-z
1/2+x,1/2-y,z
loop_
_atom_site_type_symbol
_atom_site_label
_atom_site_fract_x
_atom_site_fract_y
_atom_site_fract_z
Si Si1 0.219133 0.214065 0.155860
Si Si2 0.137822 0.314521 0.059527
Si Si3 0.639193 0.292065 0.330384
Si Si4 0.306195 0.412333 0.241978
Si Si5 0.287690 0.949529 0.640881
Si Si6 0.599703 0.445507 0.889658
Si Si7 0.179504 0.384738 0.695202
Si Si8 0.129232 0.636520 0.377059
O O1 0.171935 0.206395 0.233156
O O2 0.322168 0.167477 0.253453
O O3 0.253172 0.268963 0.187910
O O4 0.055723 0.211500 0.885420
O O5 0.019519 0.326720 0.811792
O O6 0.241746 0.360992 0.191456
O O7 0.000000 0.308337 0.000000
O O8 0.750000 0.250000 0.500000
O O9 0.709270 0.336305 0.476926
O O10 0.500000 0.413730 0.500000
O O11 0.223273 0.445864 0.236446
O O12 0.299663 0.428158 0.103651
O O13 0.403535 0.908611 0.733491
O O14 0.099061 0.941309 0.369541
O O15 0.341176 0.000000 0.666978
O O16 0.630169 0.500000 0.944933
O O17 0.670314 0.413710 0.074365
O O18 0.181634 0.379047 0.562917
O O19 0.000000 0.407815 0.500000
#
# Coordination Sequence:
#
# PCOD9170705 Si02
#       8
#     8   8   8   8   8   8   8   8
#     4  10  21  35  59  88 121 164 214 251 309 382
#     4  12  20  38  64  97 131 166 216 264 323 391
#     4  10  17  33  57  88 117 157 202 251 312 374
#     4  10  22  40  64  96 131 170 212 266 325 387
#     4  10  21  39  66  99 127 158 210 277 334 379
#     4  10  22  44  69  90 124 175 219 257 321 399
#     4  11  25  44  60  88 133 174 218 265 318 381
#     4  11  22  37  63  92 129 162 207 275 323 377
#
# _framework density 23.349620999999999
#
# number of rings (size 3 to 8) (size 9 to 14) (size 15 to 20)
#    0.000    1.500    3.750    1.875    0.000    4.250 
#    0.000    6.875    0.000    0.000    0.000    0.000 
#    0.000    0.000    0.000    0.000    0.000    0.000 
#
# Total GULP energy -178546.956904 kJ/mol
# GULP energy per Si atom -5579.592403 kJ/mol
# Density = 2.329648 g / cm^3
# Si number density = 23.349621 Si / 1000 Ang^3
#
#
#
# Elastic Constant Matrix: (Units=GPa)
#
#
# Indices 1 2 3 4 5 6 
#
# 1 31.0326 4.0873 7.4388 0.0000 -17.3321 0.0000
# 2 4.0873 136.3207 11.8588 0.0000 -6.0376 0.0000
# 3 7.4388 11.8588 84.7517 0.0000 -22.1100 0.0000
# 4 0.0000 0.0000 0.0000 29.8890 0.0000 -2.6578
# 5 -17.3321 -6.0376 -22.1100 0.0000 26.1817 0.0000
# 6 0.0000 0.0000 0.0000 -2.6578 0.0000 19.0679
#
#
#
# Elastic Compliance Matrix: (Units=1/GPa)
#
#
# Indices 1 2 3 4 5 6 
#
# 1 0.053277 -0.000328 0.005837 0.000000 0.040123 0.000000
# 2 -0.000328 0.007452 -0.000798 0.000000 0.000827 0.000000
# 3 0.005837 -0.000798 0.015851 0.000000 0.017065 0.000000
# 4 0.000000 0.000000 0.000000 0.033877 0.000000 0.004722
# 5 0.040123 0.000827 0.017065 0.000000 0.079358 0.000000
# 6 0.000000 0.000000 0.000000 0.004722 0.000000 0.053102
#
#
# Mechanical properties :
#
#
# Convention : Reuss Voigt Hill
#
# Bulk Modulus (GPa) = 11.62785 33.20834 22.41809
# Shear Modulus (GPa) = 19.07218 30.27572 24.67395
#
# Velocity S-wave (km/s) = 2.86109 3.60478 3.25425
# Velocity P-wave (km/s) = 3.98812 5.61952 4.87258
#
# Compressibility (1/GPa) = 0.08600041
#
# Stress axis : x y z
#
# Youngs Moduli (GPa) = 18.76977 134.20045 63.08938
#
# Poissons Ratio (x) = 0.04404 -0.36824
# Poissons Ratio (y) = 0.00616 0.05035
# Poissons Ratio (z) = -0.10956 0.10710
#
# Static dielectric constant tensor:
#      x y z
#    x 2.166310 0.000000 -0.255130 
#    y 0.000000 1.886270 0.000000 
#    z -0.255130 0.000000 2.158330 
# 
# From -- ./inp_files/161248.got.cif
#   From: 2010.05.17/outbox.cif.g08.bks.cpg/sg12_81_cif.got.tgz:161248.got - 2010.06.03 13:09:07.
