data_PCOD9170323
_publ_section_title
;
Structure prediction by ZEFSAII (Michael W. Deem and Ramdas Pophale) SiO2 
 PCOD9170323
Probable space group: C 2/M
;
_chemical_formula_sum "Si O2"
_cell_formula_units_Z 64
_cell_length_a 14.893889
_cell_length_b 18.161960
_cell_length_c 20.573059
_cell_angle_alpha 90.000000
_cell_angle_beta 145.771214
_cell_angle_gamma 90.000000
_cell_volume 3130.338705
_symmetry_space_group_name_H-M "C 2/M"
_symmetry_group_IT_number 12
_symmetry_cell_setting 'monoclinic'
loop_
_space_group_symop_operation_xyz
x,y,z
-x,y,-z
-x,-y,-z
x,-y,z
1/2+x,1/2+y,z
1/2-x,1/2+y,-z
1/2-x,1/2-y,-z
1/2+x,1/2-y,z
loop_
_atom_site_type_symbol
_atom_site_label
_atom_site_fract_x
_atom_site_fract_y
_atom_site_fract_z
Si Si1 0.644823 0.259926 0.797275
Si Si2 0.732710 0.580785 0.464641
Si Si3 0.560154 0.326057 0.968992
Si Si4 0.861208 0.920527 0.215744
Si Si5 0.145601 0.143767 0.552754
Si Si6 0.948556 0.287235 0.802779
Si Si7 0.094925 0.717516 0.445475
Si Si8 0.791233 0.583935 0.018362
O O1 0.675608 0.338594 0.781370
O O2 0.522125 0.258391 0.785239
O O3 0.554456 0.209247 0.691437
O O4 0.804434 0.229647 0.923703
O O5 0.800939 0.500000 0.500420
O O6 0.553467 0.580919 0.329169
O O7 0.713810 0.602012 0.529947
O O8 0.841760 0.639725 0.493650
O O9 0.442982 0.273339 0.856985
O O10 0.500000 0.360527 0.000000
O O11 0.647340 0.385812 0.976647
O O12 0.817263 0.000000 0.220979
O O13 0.776777 0.919271 0.095330
O O14 0.288368 0.172230 0.683673
O O15 0.063359 0.217876 0.475999
O O16 0.000000 0.101364 0.500000
O O17 0.071803 0.353693 0.893723
O O18 0.250000 0.750000 0.500000
O O19 0.840687 0.500000 0.065555
#
# Coordination Sequence:
#
# PCOD9170323 Si02
#       8
#     8   8   8   8   8   8   8   8
#     4  11  17  37  58  79 107 143 198 229 266 326
#     4  10  20  35  57  83 111 145 187 230 274 331
#     4  11  24  35  56  85 114 148 181 234 283 330
#     4  10  17  30  58  85 106 138 186 236 271 313
#     4  11  23  35  56  85 116 148 180 228 285 336
#     4  11  20  37  57  82 109 148 191 230 270 330
#     4  10  18  34  57  80 108 143 189 233 268 329
#     4  10  21  38  61  83 108 146 191 235 275 327
#
# _framework density 20.445070999999999
#
# number of rings (size 3 to 8) (size 9 to 14) (size 15 to 20)
#    0.000    1.500    7.500    0.750    1.750    1.000 
#    0.000    0.000    0.000    1.875    0.000    0.000 
#    0.000    0.000    0.000    0.000    0.000    0.000 
#
# Total GULP energy -178267.118115 kJ/mol
# GULP energy per Si atom -5570.847441 kJ/mol
# Density = 2.039854 g / cm^3
# Si number density = 20.445071 Si / 1000 Ang^3
#
#
#
# Elastic Constant Matrix: (Units=GPa)
#
#
# Indices 1 2 3 4 5 6 
#
# 1 25.5244 -19.9750 -5.3934 0.0006 -3.6834 0.0001
# 2 -19.9750 92.4876 -6.2159 0.0012 -5.5803 0.0002
# 3 -5.3934 -6.2159 97.0316 0.0030 -12.1150 0.0005
# 4 0.0006 0.0012 0.0030 -22.1271 0.0012 3.7976
# 5 -3.6834 -5.5803 -12.1150 0.0012 14.3680 0.0001
# 6 0.0001 0.0002 0.0005 3.7976 0.0001 9.0053
#
#
#
# Elastic Compliance Matrix: (Units=1/GPa)
#
#
# Indices 1 2 3 4 5 6 
#
# 1 0.055343 0.013984 0.007177 0.000004 0.025671 -0.000003
# 2 0.013984 0.014776 0.003228 0.000002 0.012045 -0.000002
# 3 0.007177 0.003228 0.012627 0.000002 0.013741 -0.000002
# 4 0.000004 0.000002 0.000002 -0.042143 0.000007 0.017772
# 5 0.025671 0.012045 0.013741 0.000007 0.092444 -0.000005
# 6 -0.000003 -0.000002 -0.000002 0.017772 -0.000005 0.103551
#
#
# Mechanical properties :
#
#
# Convention : Reuss Voigt Hill
#
# Bulk Modulus (GPa) = 7.60322 16.87502 12.23912
# Shear Modulus (GPa) = 21.58320 16.69111 19.13716
#
# Velocity S-wave (km/s) = 3.25263 2.86035 3.06278
# Velocity P-wave (km/s) = 4.22292 4.37956 4.30195
#
# Compressibility (1/GPa) = 0.13152330
#
# Stress axis : x y z
#
# Youngs Moduli (GPa) = 18.06925 67.67687 79.19395
#
# Poissons Ratio (x) = -0.94638 -0.56838
# Poissons Ratio (y) = -0.25268 -0.25562
# Poissons Ratio (z) = -0.12968 -0.21845
#
# Static dielectric constant tensor:
#      x y z
#    x 1.794320 0.000000 -0.005540 
#    y 0.000000 1.775350 0.000000 
#    z -0.005540 0.000000 1.716520 
# 
# From -- ./inp_files/344388.got.cif
#   From: 2010.05.17/outbox.cif.g08.bks.cpg/sg12_173_cif.got.tgz:344388.got - 2010.06.03 13:09:07.
