data_PCOD9170941
_publ_section_title
;
Structure prediction by ZEFSAII (Michael W. Deem and Ramdas Pophale) SiO2 
 PCOD9170941
Probable space group: C 2/M
;
_chemical_formula_sum "Si O2"
_cell_formula_units_Z 24
_cell_length_a 15.987600
_cell_length_b 15.645171
_cell_length_c 10.414945
_cell_angle_alpha 90.000000
_cell_angle_beta 32.959097
_cell_angle_gamma 90.000000
_cell_volume 1417.266564
_symmetry_space_group_name_H-M "C 2/M"
_symmetry_group_IT_number 12
_symmetry_cell_setting 'monoclinic'
loop_
_space_group_symop_operation_xyz
x,y,z
-x,y,-z
-x,-y,-z
x,-y,z
1/2+x,1/2+y,z
1/2-x,1/2+y,-z
1/2-x,1/2-y,-z
1/2+x,1/2-y,z
loop_
_atom_site_type_symbol
_atom_site_label
_atom_site_fract_x
_atom_site_fract_y
_atom_site_fract_z
Si Si1 0.598604 0.500000 0.743890
Si Si2 0.807413 0.343772 0.393150
Si Si3 0.613507 0.500000 0.231971
Si Si4 0.643111 0.098942 0.957063
O O1 0.705997 0.416584 0.591657
O O2 0.482246 0.500000 0.773332
O O3 0.500000 0.500000 0.000000
O O4 0.750000 0.250000 0.500000
O O5 0.986820 0.355350 0.198773
O O6 0.798763 0.360429 0.250511
O O7 0.500000 0.500000 0.500000
O O8 0.723887 0.582928 0.109455
O O9 0.601526 0.000000 0.979867
#
# Coordination Sequence:
#
# PCOD9170941 Si02
#       4
#     4   8   4   8
#     4  12  23  37  57  91 122 145 189 256 305 334
#     4  11  20  35  59  89 117 154 194 241 289 350
#     4  10  17  37  69  81 106 160 209 236 280 345
#     4   9  18  38  65  77 107 163 209 228 272 355
#
# _framework density 16.934006
#
# number of rings (size 3 to 8) (size 9 to 14) (size 15 to 20)
#    1.000    0.667    6.667    1.000    4.667    0.000 
#    0.000    5.000    7.333    0.000    0.000    0.000 
#    0.000    0.000    0.000    0.000    0.000    0.000 
#
# Total GULP energy -66811.592508 kJ/mol
# GULP energy per Si atom -5567.632709 kJ/mol
# Density = 1.689546 g / cm^3
# Si number density = 16.934006 Si / 1000 Ang^3
#
#
#
# Elastic Constant Matrix: (Units=GPa)
#
#
# Indices 1 2 3 4 5 6 
#
# 1 67.4201 14.5907 45.8610 0.0000 -6.6041 -0.0001
# 2 14.5907 141.7703 73.6839 0.0000 -14.2579 0.0000
# 3 45.8610 73.6839 149.6055 0.0000 -8.3474 0.0000
# 4 0.0000 0.0000 0.0000 39.0882 0.0000 -10.8107
# 5 -6.6041 -14.2579 -8.3474 0.0000 19.4228 0.0000
# 6 -0.0001 0.0000 0.0000 -10.8107 0.0000 0.9039
#
#
#
# Elastic Compliance Matrix: (Units=1/GPa)
#
#
# Indices 1 2 3 4 5 6 
#
# 1 0.019430 0.001974 -0.006638 0.000000 0.005203 -0.000001
# 2 0.001974 0.010196 -0.005299 0.000000 0.005878 0.000000
# 3 -0.006638 -0.005299 0.011256 0.000000 -0.001309 0.000000
# 4 0.000000 0.000000 0.000000 -0.011086 0.000000 -0.132585
# 5 0.005203 0.005878 -0.001309 0.000000 0.057007 0.000000
# 6 -0.000001 0.000000 0.000000 -0.132585 0.000000 -0.479388
#
#
# Mechanical properties :
#
#
# Convention : Reuss Voigt Hill
#
# Bulk Modulus (GPa) = 47.72008 69.67412 58.69710
# Shear Modulus (GPa) = -13.67341 26.86032 6.59346
#
# Velocity S-wave (km/s) = -2.84465 3.98700 1.97537
# Velocity P-wave (km/s) = 4.17753 7.90119 6.31983
#
# Compressibility (1/GPa) = 0.02095554
#
# Stress axis : x y z
#
# Youngs Moduli (GPa) = 51.46616 98.08139 88.84389
#
# Poissons Ratio (x) = -0.19357 0.58975
# Poissons Ratio (y) = -0.10157 0.47074
# Poissons Ratio (z) = 0.34163 0.51969
#
# Static dielectric constant tensor:
#      x y z
#    x 1.603550 0.000000 -0.035200 
#    y 0.000000 1.553730 0.000000 
#    z -0.035200 0.000000 1.570410 
# 
# From -- ./inp_files/59984.got.cif
#   From: 2010.05.17/outbox.cif.g08.bks.cpg/sg12_30_cif.got.tgz:59984.got - 2010.06.03 13:09:07.
