data_PCOD9170953
_publ_section_title
;
Structure prediction by ZEFSAII (Michael W. Deem and Ramdas Pophale) SiO2 
 PCOD9170953
Probable space group: C 2/M
;
_chemical_formula_sum "Si O2"
_cell_formula_units_Z 32
_cell_length_a 14.433340
_cell_length_b 18.249603
_cell_length_c 11.553060
_cell_angle_alpha 90.000000
_cell_angle_beta 147.621141
_cell_angle_gamma 90.000000
_cell_volume 1629.630370
_symmetry_space_group_name_H-M "C 2/M"
_symmetry_group_IT_number 12
_symmetry_cell_setting 'monoclinic'
loop_
_space_group_symop_operation_xyz
x,y,z
-x,y,-z
-x,-y,-z
x,-y,z
1/2+x,1/2+y,z
1/2-x,1/2+y,-z
1/2-x,1/2-y,-z
1/2+x,1/2-y,z
loop_
_atom_site_type_symbol
_atom_site_label
_atom_site_fract_x
_atom_site_fract_y
_atom_site_fract_z
Si Si1 0.409198 0.877221 0.712472
Si Si2 0.701618 0.000000 0.997658
Si Si3 0.818021 0.345353 0.358752
Si Si4 0.316088 0.500000 0.868851
Si Si5 0.000000 0.259504 0.000000
Si Si6 0.294217 0.000000 0.745631
O O1 0.327941 0.849864 0.507990
O O2 0.573162 0.929703 0.855660
O O3 0.279068 0.928399 0.650327
O O4 0.470226 0.811938 0.858852
O O5 0.824895 0.000000 0.017292
O O6 0.791981 0.000000 0.219269
O O7 0.782666 0.427132 0.275175
O O8 0.000000 0.319421 0.500000
O O9 0.665019 0.292327 0.159042
O O10 0.500000 0.500000 0.000000
O O11 0.500000 0.000000 0.000000
#
# Coordination Sequence:
#
# PCOD9170953 Si02
#       6
#     8   4   8   4   4   4
#     4  10  19  39  67  93 130 170 213 266 320 382
#     4  10  17  38  72  92 118 175 219 263 320 372
#     4  12  25  41  65  95 130 179 210 267 329 377
#     4  12  23  44  66  97 128 164 225 271 314 379
#     4  12  24  42  62 100 138 162 224 260 320 400
#     4   8  15  33  66  94 114 173 217 262 319 363
#
# _framework density 19.636354000000001
#
# number of rings (size 3 to 8) (size 9 to 14) (size 15 to 20)
#    0.000    1.500    7.500    2.625    0.000    1.000 
#    0.000    0.000    0.000    1.500    0.000    0.875 
#    0.000    0.000    0.000    0.000    0.000    0.000 
#
# Total GULP energy -89374.549647 kJ/mol
# GULP energy per Si atom -5585.909353 kJ/mol
# Density = 1.959166 g / cm^3
# Si number density = 19.636354 Si / 1000 Ang^3
#
#
#
# Elastic Constant Matrix: (Units=GPa)
#
#
# Indices 1 2 3 4 5 6 
#
# 1 146.0868 40.7767 52.5448 0.0000 -19.9880 0.0000
# 2 40.7767 132.8233 51.4352 0.0000 -2.1216 0.0000
# 3 52.5448 51.4352 70.3265 0.0000 -6.5548 0.0000
# 4 0.0000 0.0000 0.0000 -1.7455 0.0000 0.0077
# 5 -19.9880 -2.1216 -6.5548 0.0000 50.0623 0.0000
# 6 0.0000 0.0000 0.0000 0.0077 0.0000 17.9259
#
#
#
# Elastic Compliance Matrix: (Units=1/GPa)
#
#
# Indices 1 2 3 4 5 6 
#
# 1 0.009793 -0.000326 -0.006798 0.000000 0.003006 0.000000
# 2 -0.000326 0.010530 -0.007521 0.000000 -0.000668 0.000000
# 3 -0.006798 -0.007521 0.024819 0.000000 0.000217 0.000000
# 4 0.000000 0.000000 0.000000 -0.572886 0.000000 0.000246
# 5 0.003006 -0.000668 0.000217 0.000000 0.021175 0.000000
# 6 0.000000 0.000000 0.000000 0.000246 0.000000 0.055785
#
#
# Mechanical properties :
#
#
# Convention : Reuss Voigt Hill
#
# Bulk Modulus (GPa) = 63.07869 70.97221 67.02545
# Shear Modulus (GPa) = -12.01319 26.88054 7.43367
#
# Velocity S-wave (km/s) = -2.47611 3.70390 1.94779
# Velocity P-wave (km/s) = 4.90085 7.38333 6.26626
#
# Compressibility (1/GPa) = 0.01585321
#
# Stress axis : x y z
#
# Youngs Moduli (GPa) = 102.11742 94.96261 40.29115
#
# Poissons Ratio (x) = 0.03093 0.27391
# Poissons Ratio (y) = 0.03326 0.30302
# Poissons Ratio (z) = 0.69422 0.71418
#
# Static dielectric constant tensor:
#      x y z
#    x 1.729110 0.000000 -0.002030 
#    y 0.000000 1.675580 0.000000 
#    z -0.002030 0.000000 1.683030 
# 
# From -- ./inp_files/60609.got.cif
#   From: 2010.05.17/outbox.cif.g08.bks.cpg/sg12_31_cif.got.tgz:60609.got - 2010.06.03 13:09:07.
