data_PCOD9170495
_publ_section_title
;
Structure prediction by ZEFSAII (Michael W. Deem and Ramdas Pophale) SiO2 
 PCOD9170495
Probable space group: C 2/M
;
_chemical_formula_sum "Si O2"
_cell_formula_units_Z 48
_cell_length_a 17.253331
_cell_length_b 21.315924
_cell_length_c 10.355298
_cell_angle_alpha 90.000000
_cell_angle_beta 46.251907
_cell_angle_gamma 90.000000
_cell_volume 2751.120589
_symmetry_space_group_name_H-M "C 2/M"
_symmetry_group_IT_number 12
_symmetry_cell_setting 'monoclinic'
loop_
_space_group_symop_operation_xyz
x,y,z
-x,y,-z
-x,-y,-z
x,-y,z
1/2+x,1/2+y,z
1/2-x,1/2+y,-z
1/2-x,1/2-y,-z
1/2+x,1/2-y,z
loop_
_atom_site_type_symbol
_atom_site_label
_atom_site_fract_x
_atom_site_fract_y
_atom_site_fract_z
Si Si1 0.437409 0.757250 0.439211
Si Si2 0.219152 0.180188 0.760703
Si Si3 0.573120 0.794746 0.029535
Si Si4 0.008024 0.119852 0.352125
Si Si5 0.907737 0.069095 0.214329
Si Si6 0.742921 0.326525 0.018285
O O1 0.500000 0.775103 0.500000
O O2 0.319405 0.785621 0.580489
O O3 0.434102 0.682026 0.443848
O O4 0.501760 0.776938 0.236816
O O5 0.128754 0.231934 0.904298
O O6 0.170828 0.126153 0.727910
O O7 0.259114 0.152184 0.852313
O O8 0.666699 0.838984 0.979015
O O9 0.500000 0.821760 0.000000
O O10 0.127360 0.147609 0.191854
O O11 0.000000 0.087740 0.500000
O O12 0.967241 0.079451 0.280941
O O13 0.856978 0.000000 0.268129
O O14 0.000000 0.071956 0.000000
O O15 0.750000 0.250000 0.000000
#
# Coordination Sequence:
#
# PCOD9170495 Si02
#       6
#     8   8   8   8   8   8
#     4  11  19  31  54  82 111 150 174 211 288 341
#     4  11  20  34  56  79 116 146 184 228 267 331
#     4  11  20  31  49  80 118 144 175 220 274 337
#     4  11  20  33  55  82 116 143 177 225 284 334
#     4  11  23  39  57  77 105 150 195 231 266 314
#     4  10  17  32  50  76 116 150 167 219 269 331
#
# _framework density 17.447434999999999
#
# number of rings (size 3 to 8) (size 9 to 14) (size 15 to 20)
#    0.000    1.167    6.667    4.500    0.000    4.333 
#    0.000    0.000    0.000    0.500    0.000    0.000 
#    0.000   11.333    0.000    0.000    0.000    0.000 
#
# Total GULP energy -133869.507719 kJ/mol
# GULP energy per Si atom -5577.896155 kJ/mol
# Density = 1.740772 g / cm^3
# Si number density = 17.447435 Si / 1000 Ang^3
#
#
#
# Elastic Constant Matrix: (Units=GPa)
#
#
# Indices 1 2 3 4 5 6 
#
# 1 112.6572 32.3182 40.6154 0.0000 14.5436 0.0000
# 2 32.3182 38.8804 30.4512 0.0000 -6.6225 0.0000
# 3 40.6154 30.4512 106.7444 0.0000 0.1639 0.0000
# 4 0.0000 0.0000 0.0000 0.5612 0.0000 -0.6127
# 5 14.5436 -6.6225 0.1639 0.0000 37.9883 0.0000
# 6 0.0000 0.0000 0.0000 -0.6127 0.0000 10.1149
#
#
#
# Elastic Compliance Matrix: (Units=1/GPa)
#
#
# Indices 1 2 3 4 5 6 
#
# 1 0.013695 -0.010983 -0.002067 0.000000 -0.007149 0.000000
# 2 -0.010983 0.043263 -0.008181 0.000000 0.011782 0.000000
# 3 -0.002067 -0.008181 0.012490 0.000000 -0.000689 0.000000
# 4 0.000000 0.000000 0.000000 1.907924 0.000000 0.115576
# 5 -0.007149 0.011782 -0.000689 0.000000 0.031118 0.000000
# 6 0.000000 0.000000 0.000000 0.115576 0.000000 0.105865
#
#
# Mechanical properties :
#
#
# Convention : Reuss Voigt Hill
#
# Bulk Modulus (GPa) = 37.05526 51.67240 44.36383
# Shear Modulus (GPa) = 2.30860 20.05936 11.18398
#
# Velocity S-wave (km/s) = 1.15154 3.39440 2.53456
# Velocity P-wave (km/s) = 4.80129 6.71141 5.83504
#
# Compressibility (1/GPa) = 0.02698672
#
# Stress axis : x y z
#
# Youngs Moduli (GPa) = 73.01889 23.11439 80.06725
#
# Poissons Ratio (x) = 0.25385 0.16549
# Poissons Ratio (y) = 0.80193 0.65504
# Poissons Ratio (z) = 0.15092 0.18910
#
# Static dielectric constant tensor:
#      x y z
#    x 1.665690 0.000000 0.021260 
#    y 0.000000 1.562870 0.000000 
#    z 0.021260 0.000000 1.627320 
# 
# From -- ./inp_files/76706.got.cif
#   From: 2010.05.17/outbox.cif.g08.bks.cpg/sg12_39_cif.got.tgz:76706.got - 2010.06.03 13:09:07.
