data_PCOD9170454
_publ_section_title
;
Structure prediction by ZEFSAII (Michael W. Deem and Ramdas Pophale) SiO2 
 PCOD9170454
Probable space group: C 2/M
;
_chemical_formula_sum "Si O2"
_cell_formula_units_Z 56
_cell_length_a 20.558603
_cell_length_b 20.259992
_cell_length_c 8.585424
_cell_angle_alpha 90.000000
_cell_angle_beta 56.412346
_cell_angle_gamma 90.000000
_cell_volume 2978.932864
_symmetry_space_group_name_H-M "C 2/M"
_symmetry_group_IT_number 12
_symmetry_cell_setting 'monoclinic'
loop_
_space_group_symop_operation_xyz
x,y,z
-x,y,-z
-x,-y,-z
x,-y,z
1/2+x,1/2+y,z
1/2-x,1/2+y,-z
1/2-x,1/2-y,-z
1/2+x,1/2-y,z
loop_
_atom_site_type_symbol
_atom_site_label
_atom_site_fract_x
_atom_site_fract_y
_atom_site_fract_z
Si Si1 0.744541 0.308840 0.137932
Si Si2 0.849382 0.356070 0.555766
Si Si3 0.184619 0.206944 0.741050
Si Si4 0.897200 0.788614 0.491945
Si Si5 0.498754 0.129221 0.827254
Si Si6 0.849947 0.425741 0.868177
Si Si7 0.538762 0.714188 0.114450
O O1 0.784464 0.277625 0.239739
O O2 0.657068 0.326056 0.312627
O O3 0.750000 0.250000 0.000000
O O4 0.792717 0.371294 0.017898
O O5 0.760770 0.338548 0.629197
O O6 0.887536 0.286705 0.566779
O O7 0.847729 0.411203 0.688281
O O8 0.911927 0.373839 0.343844
O O9 0.142121 0.211603 0.630492
O O10 0.125736 0.189145 0.961829
O O11 0.985885 0.808040 0.330722
O O12 0.438041 0.089050 0.805566
O O13 0.467813 0.205723 0.867073
O O14 0.500000 0.104799 0.000000
O O15 0.827511 0.500000 0.936748
O O16 0.500000 0.696316 0.000000
#
# Coordination Sequence:
#
# PCOD9170454 Si02
#       7
#     8   8   8   8   8   8   8
#     4  11  19  34  54  80 107 143 186 228 276 324
#     4  10  20  34  52  77 104 150 186 221 274 329
#     4  10  17  31  58  82 108 135 180 232 280 326
#     4   9  18  30  56  84 109 138 177 230 285 328
#     4  10  21  35  55  73 106 149 194 229 270 324
#     4  12  25  38  53  75 113 155 190 227 271 329
#     4   8  15  28  48  85 111 132 165 226 283 329
#
# _framework density 18.798679
#
# number of rings (size 3 to 8) (size 9 to 14) (size 15 to 20)
#    0.000    2.000    4.286    3.000    2.000    1.429 
#    0.000    0.714    0.000    0.000    0.000    2.000 
#    0.000    3.429    0.000    0.000    0.000    0.000 
#
# Total GULP energy -155957.129681 kJ/mol
# GULP energy per Si atom -5569.897489 kJ/mol
# Density = 1.875589 g / cm^3
# Si number density = 18.798679 Si / 1000 Ang^3
#
#
#
# Elastic Constant Matrix: (Units=GPa)
#
#
# Indices 1 2 3 4 5 6 
#
# 1 55.9633 29.2176 37.9442 0.0000 -15.0351 0.0000
# 2 29.2176 54.0597 24.4774 0.0000 -9.2578 0.0000
# 3 37.9442 24.4774 153.5978 0.0000 -39.6939 0.0000
# 4 0.0000 0.0000 0.0000 12.5901 0.0000 -6.2915
# 5 -15.0351 -9.2578 -39.6939 0.0000 38.4088 0.0000
# 6 0.0000 0.0000 0.0000 -6.2915 0.0000 -11.2688
#
#
#
# Elastic Compliance Matrix: (Units=1/GPa)
#
#
# Indices 1 2 3 4 5 6 
#
# 1 0.028289 -0.012839 -0.003930 0.000000 0.003918 0.000000
# 2 -0.012839 0.025886 -0.000873 0.000000 0.000311 0.000000
# 3 -0.003930 -0.000873 0.009781 0.000000 0.008359 0.000000
# 4 0.000000 0.000000 0.000000 0.062101 0.000000 -0.034672
# 5 0.003918 0.000311 0.008359 0.000000 0.036283 0.000000
# 6 0.000000 0.000000 0.000000 -0.034672 0.000000 -0.069383
#
#
# Mechanical properties :
#
#
# Convention : Reuss Voigt Hill
#
# Bulk Modulus (GPa) = 34.87781 49.65547 42.26664
# Shear Modulus (GPa) = 36.28498 19.41146 27.84822
#
# Velocity S-wave (km/s) = 4.39816 3.21689 3.85306
# Velocity P-wave (km/s) = 6.66223 6.34583 6.50595
#
# Compressibility (1/GPa) = 0.02867152
#
# Stress axis : x y z
#
# Youngs Moduli (GPa) = 35.34943 38.63129 102.24207
#
# Poissons Ratio (x) = 0.49599 0.40181
# Poissons Ratio (y) = 0.45385 0.08926
# Poissons Ratio (z) = 0.13892 0.03373
#
# Static dielectric constant tensor:
#      x y z
#    x 1.775430 0.000000 -0.061040 
#    y 0.000000 1.620750 0.000000 
#    z -0.061040 0.000000 1.751420 
# 
# From -- ./inp_files/98054.got.cif
#   From: 2010.05.17/outbox.cif.g08.bks.cpg/sg12_50_cif.got.tgz:98054.got - 2010.06.03 13:09:07.
