data_PCOD9170101
_publ_section_title
;
Structure prediction by ZEFSAII (Michael W. Deem and Ramdas Pophale) SiO2 
 PCOD9170101
Probable space group: C 2/M
;
_chemical_formula_sum "Si O2"
_cell_formula_units_Z 48
_cell_length_a 13.806691
_cell_length_b 21.712515
_cell_length_c 15.502282
_cell_angle_alpha 90.000000
_cell_angle_beta 32.766518
_cell_angle_gamma 90.000000
_cell_volume 2515.166448
_symmetry_space_group_name_H-M "C 2/M"
_symmetry_group_IT_number 12
_symmetry_cell_setting 'monoclinic'
loop_
_space_group_symop_operation_xyz
x,y,z
-x,y,-z
-x,-y,-z
x,-y,z
1/2+x,1/2+y,z
1/2-x,1/2+y,-z
1/2-x,1/2-y,-z
1/2+x,1/2-y,z
loop_
_atom_site_type_symbol
_atom_site_label
_atom_site_fract_x
_atom_site_fract_y
_atom_site_fract_z
Si Si1 0.219265 0.929107 0.338954
Si Si2 0.234400 0.269564 0.390675
Si Si3 0.709390 0.290171 0.840209
Si Si4 0.741563 0.145304 0.860118
Si Si5 0.391044 0.195304 0.875116
Si Si6 0.644990 0.345035 0.543635
O O1 0.295234 0.897094 0.195625
O O2 0.251443 0.892022 0.403353
O O3 0.000000 0.926312 0.500000
O O4 0.273225 0.000000 0.302571
O O5 0.217082 0.298979 0.310834
O O6 0.421056 0.230436 0.255422
O O7 0.247109 0.319637 0.456053
O O8 0.100610 0.215202 0.517844
O O9 0.710794 0.215883 0.853195
O O10 0.830659 0.321102 0.823415
O O11 0.500000 0.309268 0.000000
O O12 0.951770 0.132857 0.720195
O O13 0.639539 0.144093 0.028206
O O14 0.250000 0.250000 0.000000
#
# Coordination Sequence:
#
# PCOD9170101 Si02
#       6
#     8   8   8   8   8   8
#     4   9  18  30  47  68  92 127 165 199 235 271
#     4  11  19  28  44  68  96 126 152 188 244 284
#     4  11  17  27  45  64  94 128 150 181 232 287
#     4  10  17  30  45  64  92 124 156 192 226 279
#     4  10  18  29  42  65  91 125 156 181 230 290
#     4  10  19  29  43  66  95 121 155 196 233 274
#
# _framework density 19.084223999999999
#
# number of rings (size 3 to 8) (size 9 to 14) (size 15 to 20)
#    0.000    1.833    8.333    0.000    0.000    0.000 
#    0.000    0.000    0.000    4.500    0.000    1.167 
#    0.000    8.000    0.000    0.000    0.000    0.000 
#
# Total GULP energy -133843.459263 kJ/mol
# GULP energy per Si atom -5576.810803 kJ/mol
# Density = 1.904079 g / cm^3
# Si number density = 19.084224 Si / 1000 Ang^3
#
#
#
# Elastic Constant Matrix: (Units=GPa)
#
#
# Indices 1 2 3 4 5 6 
#
# 1 100.8739 31.9924 60.3861 0.0005 36.2829 -0.0009
# 2 31.9924 77.0089 28.2215 -0.0002 28.1621 -0.0008
# 3 60.3861 28.2215 107.3302 -0.0015 27.3136 0.0012
# 4 0.0005 -0.0002 -0.0015 15.8104 0.0019 6.9147
# 5 36.2829 28.1621 27.3136 0.0019 55.9832 -0.0002
# 6 -0.0009 -0.0008 0.0012 6.9147 -0.0002 15.8636
#
#
#
# Elastic Compliance Matrix: (Units=1/GPa)
#
#
# Indices 1 2 3 4 5 6 
#
# 1 0.017504 -0.002069 -0.007629 -0.000001 -0.006581 0.000002
# 2 -0.002069 0.016743 -0.001640 0.000001 -0.006282 0.000000
# 3 -0.007629 -0.001640 0.014355 0.000003 -0.001234 -0.000003
# 4 -0.000001 0.000001 0.000003 0.078147 -0.000004 -0.034063
# 5 -0.006581 -0.006282 -0.001234 -0.000004 0.025890 0.000001
# 6 0.000002 0.000000 -0.000003 -0.034063 0.000001 0.077885
#
#
# Mechanical properties :
#
#
# Convention : Reuss Voigt Hill
#
# Bulk Modulus (GPa) = 38.57212 58.49033 48.53122
# Shear Modulus (GPa) = 19.09554 28.50564 23.80059
#
# Velocity S-wave (km/s) = 3.16665 3.86900 3.53531
# Velocity P-wave (km/s) = 5.79876 7.11856 6.49229
#
# Compressibility (1/GPa) = 0.02592546
#
# Stress axis : x y z
#
# Youngs Moduli (GPa) = 57.13054 59.72574 69.66436
#
# Poissons Ratio (x) = 0.12358 0.53148
# Poissons Ratio (y) = 0.11821 0.11423
# Poissons Ratio (z) = 0.43585 0.09794
#
# Static dielectric constant tensor:
#      x y z
#    x 1.767810 0.000000 -0.010780 
#    y 0.000000 1.632660 0.000000 
#    z -0.010780 0.000000 1.780610 
# 
# From -- ./inp_files/217380.got.cif
#   From: 2010.05.17/outbox.cif.g08.bks.cpg/sg12_109_cif.got.tgz:217380.got - 2010.06.03 13:09:07.
