data_PCOD9170181
_publ_section_title
;
Structure prediction by ZEFSAII (Michael W. Deem and Ramdas Pophale) SiO2 
 PCOD9170181
Probable space group: C 2/M
;
_chemical_formula_sum "Si O2"
_cell_formula_units_Z 56
_cell_length_a 21.954369
_cell_length_b 16.903005
_cell_length_c 9.110231
_cell_angle_alpha 90.000000
_cell_angle_beta 133.612335
_cell_angle_gamma 90.000000
_cell_volume 2447.748868
_symmetry_space_group_name_H-M "C 2/M"
_symmetry_group_IT_number 12
_symmetry_cell_setting 'monoclinic'
loop_
_space_group_symop_operation_xyz
x,y,z
-x,y,-z
-x,-y,-z
x,-y,z
1/2+x,1/2+y,z
1/2-x,1/2+y,-z
1/2-x,1/2-y,-z
1/2+x,1/2-y,z
loop_
_atom_site_type_symbol
_atom_site_label
_atom_site_fract_x
_atom_site_fract_y
_atom_site_fract_z
Si Si1 0.875030 0.088084 0.773456
Si Si2 0.886047 0.829756 0.390443
Si Si3 0.670932 0.086336 0.457467
Si Si4 0.207910 0.304128 0.057948
Si Si5 0.451717 0.589346 0.224389
Si Si6 0.594551 0.143719 0.625573
Si Si7 0.655726 0.243236 0.280304
O O1 0.773197 0.089204 0.624157
O O2 0.891811 0.178047 0.745711
O O3 0.894909 0.000000 0.740881
O O4 0.922244 0.089473 0.008387
O O5 0.789099 0.844441 0.268671
O O6 0.897319 0.854909 0.239327
O O7 0.906258 0.736214 0.430327
O O8 0.953747 0.881836 0.588127
O O9 0.641676 0.097252 0.576294
O O10 0.629188 0.158102 0.297642
O O11 0.646050 0.000000 0.360222
O O12 0.161560 0.259945 0.113605
O O13 0.250000 0.250000 0.000000
O O14 0.145791 0.358397 0.862680
O O15 0.440981 0.500000 0.260039
O O16 0.500000 0.118353 0.500000
O O17 0.750000 0.250000 0.500000
#
# Coordination Sequence:
#
# PCOD9170181 Si02
#       7
#     8   8   8   8   8   8   8
#     4   9  17  31  57  90 121 160 203 244 303 378
#     4  10  17  30  50  84 121 157 201 242 304 369
#     4  10  22  41  63  87 122 167 212 264 328 387
#     4  10  20  34  60  90 122 158 212 265 306 378
#     4  10  18  29  50  85 128 160 191 243 307 379
#     4  11  21  37  62  90 116 155 212 272 324 371
#     4  10  19  36  62  89 123 169 210 253 315 381
#
# _framework density 22.878163000000001
#
# number of rings (size 3 to 8) (size 9 to 14) (size 15 to 20)
#    0.000    2.000    1.429    6.857    0.000    0.286 
#    0.000    3.571    3.143    9.429    0.000   19.000 
#    0.000    0.000    0.000    0.000    0.000    0.000 
#
# Total GULP energy -156341.927211 kJ/mol
# GULP energy per Si atom -5583.640258 kJ/mol
# Density = 2.282609 g / cm^3
# Si number density = 22.878163 Si / 1000 Ang^3
#
#
#
# Elastic Constant Matrix: (Units=GPa)
#
#
# Indices 1 2 3 4 5 6 
#
# 1 68.4747 17.5105 20.7815 0.0000 -5.4808 0.0000
# 2 17.5105 166.0150 29.0551 0.0000 -7.9854 0.0000
# 3 20.7815 29.0551 70.9243 0.0000 -6.0157 0.0000
# 4 0.0000 0.0000 0.0000 29.5198 0.0000 -8.9398
# 5 -5.4808 -7.9854 -6.0157 0.0000 38.8164 0.0000
# 6 0.0000 0.0000 0.0000 -8.9398 0.0000 28.6073
#
#
#
# Elastic Compliance Matrix: (Units=1/GPa)
#
#
# Indices 1 2 3 4 5 6 
#
# 1 0.016245 -0.000897 -0.004270 0.000000 0.001448 0.000000
# 2 -0.000897 0.006572 -0.002357 0.000000 0.000860 0.000000
# 3 -0.004270 -0.002357 0.016440 0.000000 0.001460 0.000000
# 4 0.000000 0.000000 0.000000 0.037417 0.000000 0.011693
# 5 0.001448 0.000860 0.001460 0.000000 0.026370 0.000000
# 6 0.000000 0.000000 0.000000 0.011693 0.000000 0.038610
#
#
# Mechanical properties :
#
#
# Convention : Reuss Voigt Hill
#
# Bulk Modulus (GPa) = 41.30397 48.90090 45.10244
# Shear Modulus (GPa) = 30.34538 35.25983 32.80260
#
# Velocity S-wave (km/s) = 3.64592 3.93007 3.79066
# Velocity P-wave (km/s) = 5.98470 6.48189 6.23825
#
# Compressibility (1/GPa) = 0.02421075
#
# Stress axis : x y z
#
# Youngs Moduli (GPa) = 61.55764 152.16220 60.82753
#
# Poissons Ratio (x) = 0.13642 0.25973
# Poissons Ratio (y) = 0.05519 0.14335
# Poissons Ratio (z) = 0.26284 0.35859
#
# Static dielectric constant tensor:
#      x y z
#    x 1.927810 0.000000 -0.059330 
#    y 0.000000 1.889770 0.000000 
#    z -0.059330 0.000000 1.909100 
# 
# From -- ./inp_files/98201.got.cif
#   From: 2010.05.17/outbox.cif.g08.bks.cpg/sg12_50_cif.got.tgz:98201.got - 2010.06.03 13:09:07.
