data_PCOD9170644
_publ_section_title
;
Structure prediction by ZEFSAII (Michael W. Deem and Ramdas Pophale) SiO2 
 PCOD9170644
Probable space group: C 2/M
;
_chemical_formula_sum "Si O2"
_cell_formula_units_Z 56
_cell_length_a 17.557896
_cell_length_b 21.032876
_cell_length_c 26.476498
_cell_angle_alpha 90.000000
_cell_angle_beta 20.442936
_cell_angle_gamma 90.000000
_cell_volume 3415.059986
_symmetry_space_group_name_H-M "C 2/M"
_symmetry_group_IT_number 12
_symmetry_cell_setting 'monoclinic'
loop_
_space_group_symop_operation_xyz
x,y,z
-x,y,-z
-x,-y,-z
x,-y,z
1/2+x,1/2+y,z
1/2-x,1/2+y,-z
1/2-x,1/2-y,-z
1/2+x,1/2-y,z
loop_
_atom_site_type_symbol
_atom_site_label
_atom_site_fract_x
_atom_site_fract_y
_atom_site_fract_z
Si Si1 0.879588 0.572658 0.895237
Si Si2 0.321374 0.717514 0.382274
Si Si3 0.643067 0.335232 0.109376
Si Si4 0.747295 0.572047 0.864714
Si Si5 0.258891 0.326172 0.651722
Si Si6 0.581513 0.194619 0.296973
Si Si7 0.955980 0.755112 0.132064
O O1 0.944463 0.500000 0.862555
O O2 0.745490 0.577174 0.926485
O O3 0.080977 0.619196 0.760000
O O4 0.749234 0.599915 0.024181
O O5 0.452894 0.665078 0.268567
O O6 0.266835 0.774038 0.376554
O O7 0.484105 0.750322 0.321450
O O8 0.103692 0.691448 0.544232
O O9 0.548768 0.303843 0.116344
O O10 0.834523 0.288379 0.010988
O O11 0.826818 0.500000 0.803033
O O12 0.886626 0.628772 0.753201
O O13 0.500000 0.577482 0.000000
O O14 0.500000 0.352701 0.500000
O O15 0.211854 0.289336 0.732975
O O16 0.816442 0.213278 0.174551
#
# Coordination Sequence:
#
# PCOD9170644 Si02
#       7
#     8   8   8   8   8   8   8
#     4  10  20  35  53  72  99 137 176 213 246 298
#     4  10  21  32  50  79 106 131 167 214 260 308
#     4   9  19  34  48  75 101 131 175 213 246 301
#     4  10  21  34  51  75 105 138 171 207 249 305
#     4  10  17  33  51  75 103 131 166 218 258 302
#     4  11  20  32  51  79 107 136 165 206 262 314
#     4   9  18  29  52  74 101 135 164 209 261 297
#
# _framework density 16.397955
#
# number of rings (size 3 to 8) (size 9 to 14) (size 15 to 20)
#    0.000    2.143    2.857    1.714    2.000    0.286 
#    0.000    0.714    0.000    0.000    0.000   14.000 
#    0.000    0.000    0.000    0.000    0.000    0.000 
#
# Total GULP energy -156018.950574 kJ/mol
# GULP energy per Si atom -5572.105378 kJ/mol
# Density = 1.636063 g / cm^3
# Si number density = 16.397955 Si / 1000 Ang^3
#
#
#
# Elastic Constant Matrix: (Units=GPa)
#
#
# Indices 1 2 3 4 5 6 
#
# 1 48.9476 12.5179 19.2956 -0.0062 -2.6558 0.0117
# 2 12.5179 70.7213 28.7354 -0.0760 9.9268 0.0322
# 3 19.2956 28.7354 70.1355 -0.1898 8.8115 0.0240
# 4 -0.0062 -0.0760 -0.1898 11.9872 0.0246 3.5227
# 5 -2.6558 9.9268 8.8115 0.0246 29.0868 0.0015
# 6 0.0117 0.0322 0.0240 3.5227 0.0015 21.5063
#
#
#
# Elastic Compliance Matrix: (Units=1/GPa)
#
#
# Indices 1 2 3 4 5 6 
#
# 1 0.023731 -0.002376 -0.006164 -0.000115 0.004845 0.000016
# 2 -0.002376 0.017623 -0.006012 0.000031 -0.004410 -0.000023
# 3 -0.006164 -0.006012 0.018952 0.000284 -0.004253 -0.000055
# 4 -0.000115 0.000031 0.000284 0.087647 -0.000181 -0.014357
# 5 0.004845 -0.004410 -0.004253 -0.000181 0.037616 0.000036
# 6 0.000016 -0.000023 -0.000055 -0.014357 0.000036 0.048850
#
#
# Mechanical properties :
#
#
# Convention : Reuss Voigt Hill
#
# Bulk Modulus (GPa) = 32.05102 34.54470 33.29786
# Shear Modulus (GPa) = 18.25329 21.13308 19.69318
#
# Velocity S-wave (km/s) = 3.34000 3.59383 3.46924
# Velocity P-wave (km/s) = 5.87046 6.19137 6.03305
#
# Compressibility (1/GPa) = 0.03120026
#
# Stress axis : x y z
#
# Youngs Moduli (GPa) = 42.13984 56.74548 52.76360
#
# Poissons Ratio (x) = 0.13482 0.32525
# Poissons Ratio (y) = 0.10012 0.31724
# Poissons Ratio (z) = 0.25976 0.34118
#
# Static dielectric constant tensor:
#      x y z
#    x 1.568210 0.000000 -0.002910 
#    y 0.000000 1.541120 0.000040 
#    z -0.002910 0.000040 1.560700 
# 
# From -- ./inp_files/158223.got.cif
#   From: 2010.05.17/outbox.cif.g08.bks.cpg/sg12_80_cif.got.tgz:158223.got - 2010.06.03 13:09:07.
