data_PCOD9170088
_publ_section_title
;
Structure prediction by ZEFSAII (Michael W. Deem and Ramdas Pophale) SiO2 
 PCOD9170088
Probable space group: C 2/M
;
_chemical_formula_sum "Si O2"
_cell_formula_units_Z 48
_cell_length_a 12.235442
_cell_length_b 13.162916
_cell_length_c 12.288312
_cell_angle_alpha 90.000000
_cell_angle_beta 116.567957
_cell_angle_gamma 90.000000
_cell_volume 1770.100733
_symmetry_space_group_name_H-M "C 2/M"
_symmetry_group_IT_number 12
_symmetry_cell_setting 'monoclinic'
loop_
_space_group_symop_operation_xyz
x,y,z
-x,y,-z
-x,-y,-z
x,-y,z
1/2+x,1/2+y,z
1/2-x,1/2+y,-z
1/2-x,1/2-y,-z
1/2+x,1/2-y,z
loop_
_atom_site_type_symbol
_atom_site_label
_atom_site_fract_x
_atom_site_fract_y
_atom_site_fract_z
Si Si1 0.139590 0.614573 0.594375
Si Si2 0.807028 0.123304 0.475170
Si Si3 0.883676 0.681979 0.176576
Si Si4 0.860456 0.616277 0.805942
Si Si5 0.989006 0.882601 0.736039
Si Si6 0.630831 0.667203 0.101741
O O1 0.182283 0.500000 0.633461
O O2 0.208849 0.658406 0.521677
O O3 0.134597 0.673128 0.703220
O O4 0.000000 0.607269 0.500000
O O5 0.746066 0.141171 0.330074
O O6 0.936589 0.146984 0.592656
O O7 0.808249 0.000000 0.478467
O O8 0.005407 0.624627 0.191828
O O9 0.750624 0.638484 0.086104
O O10 0.914163 0.800991 0.177197
O O11 0.845221 0.500000 0.837640
O O12 0.864603 0.709075 0.892820
O O13 0.879847 0.868732 0.776608
O O14 0.027677 0.000000 0.750868
O O15 0.500000 0.631689 0.000000
#
# Coordination Sequence:
#
# PCOD9170088 Si02
#       6
#     8   8   8   8   8   8
#     4  10  17  29  57  94 125 152 191 241 292 355
#     4   9  17  34  59  90 125 155 188 234 294 360
#     4  11  22  37  61  91 118 156 204 249 295 353
#     4  10  22  40  64  93 123 157 195 242 300 362
#     4  10  23  41  62  90 127 161 193 244 302 357
#     4  11  26  44  61  86 118 158 209 256 299 350
#
# _framework density 27.117100000000001
#
# number of rings (size 3 to 8) (size 9 to 14) (size 15 to 20)
#    0.000    1.833    3.333    0.500    0.000    8.667 
#    0.000    1.667    0.000    3.500    0.000    0.000 
#    0.000    0.000    0.000    0.000    0.000    0.000 
#
# Total GULP energy -134144.590102 kJ/mol
# GULP energy per Si atom -5589.357921 kJ/mol
# Density = 2.705538 g / cm^3
# Si number density = 27.117100 Si / 1000 Ang^3
#
#
#
# Elastic Constant Matrix: (Units=GPa)
#
#
# Indices 1 2 3 4 5 6 
#
# 1 88.6871 11.3199 -0.2924 0.0000 23.2329 0.0000
# 2 11.3199 111.5399 -7.0021 0.0000 3.4116 0.0000
# 3 -0.2924 -7.0021 83.7811 0.0000 29.3501 0.0000
# 4 0.0000 0.0000 0.0000 5.6763 0.0000 5.6213
# 5 23.2329 3.4116 29.3501 0.0000 41.1695 0.0000
# 6 0.0000 0.0000 0.0000 5.6213 0.0000 13.6322
#
#
#
# Elastic Compliance Matrix: (Units=1/GPa)
#
#
# Indices 1 2 3 4 5 6 
#
# 1 0.014159 -0.000885 0.003664 0.000000 -0.010529 0.000000
# 2 -0.000885 0.009159 0.001137 0.000000 -0.001071 0.000000
# 3 0.003664 0.001137 0.017062 0.000000 -0.014326 0.000000
# 4 0.000000 0.000000 0.000000 0.297764 0.000000 -0.122784
# 5 -0.010529 -0.001071 -0.014326 0.000000 0.040533 0.000000
# 6 0.000000 0.000000 0.000000 -0.122784 0.000000 0.123986
#
#
# Mechanical properties :
#
#
# Convention : Reuss Voigt Hill
#
# Bulk Modulus (GPa) = 20.74110 32.45099 26.59604
# Shear Modulus (GPa) = 9.78661 30.76113 20.27387
#
# Velocity S-wave (km/s) = 1.90180 3.37171 2.73727
# Velocity P-wave (km/s) = 3.53381 5.21065 4.45189
#
# Compressibility (1/GPa) = 0.04821345
#
# Stress axis : x y z
#
# Youngs Moduli (GPa) = 70.62733 109.17798 58.60867
#
# Poissons Ratio (x) = 0.09661 -0.21474
# Poissons Ratio (y) = 0.06250 -0.06666
# Poissons Ratio (z) = -0.25877 -0.12418
#
# Static dielectric constant tensor:
#      x y z
#    x 2.162270 0.000000 0.103840 
#    y 0.000000 2.132670 0.000000 
#    z 0.103840 0.000000 2.301510 
# 
# From -- ./inp_files/215022.got.cif
#   From: 2010.05.17/outbox.cif.g08.bks.cpg/sg12_108_cif.got.tgz:215022.got - 2010.06.03 13:09:07.
