data_PCOD9170984
_publ_section_title
;
Structure prediction by ZEFSAII (Michael W. Deem and Ramdas Pophale) SiO2 
 PCOD9170984
Probable space group: C 2/M
;
_chemical_formula_sum "Si O2"
_cell_formula_units_Z 56
_cell_length_a 33.533745
_cell_length_b 7.470728
_cell_length_c 14.172325
_cell_angle_alpha 90.000000
_cell_angle_beta 66.126087
_cell_angle_gamma 90.000000
_cell_volume 3246.687610
_symmetry_space_group_name_H-M "C 2/M"
_symmetry_group_IT_number 12
_symmetry_cell_setting 'monoclinic'
loop_
_space_group_symop_operation_xyz
x,y,z
-x,y,-z
-x,-y,-z
x,-y,z
1/2+x,1/2+y,z
1/2-x,1/2+y,-z
1/2-x,1/2-y,-z
1/2+x,1/2-y,z
loop_
_atom_site_type_symbol
_atom_site_label
_atom_site_fract_x
_atom_site_fract_y
_atom_site_fract_z
Si Si1 0.248786 0.786351 0.389070
Si Si2 0.521316 0.218099 0.123919
Si Si3 0.156724 0.292034 0.718252
Si Si4 0.344504 0.710343 0.499022
Si Si5 0.977574 0.718587 0.665612
Si Si6 0.932406 0.718852 0.109311
Si Si7 0.566550 0.215336 0.481013
O O1 0.250000 0.750000 0.500000
O O2 0.295074 0.713809 0.307517
O O3 0.200293 0.720837 0.409445
O O4 0.250115 0.000000 0.371643
O O5 0.531566 0.279029 0.219622
O O6 0.472608 0.271978 0.138379
O O7 0.521613 0.000000 0.124161
O O8 0.554112 0.273291 0.009330
O O9 0.158432 0.500000 0.744966
O O10 0.149892 0.288638 0.611349
O O11 0.114118 0.214928 0.809474
O O12 0.338030 0.500000 0.488791
O O13 0.387190 0.733629 0.520781
O O14 0.977228 0.500000 0.666774
O O15 0.944562 0.775936 0.614636
O O16 0.026026 0.773460 0.585468
O O17 0.931848 0.500000 0.111896
O O18 0.565184 0.000000 0.481511
#
# Coordination Sequence:
#
# PCOD9170984 Si02
#       7
#     8   8   8   8   8   8   8
#     4   8  15  25  36  51  73  97 122 150 182 217
#     4   8  12  19  31  54  83  99 110 144 189 219
#     4   9  15  25  40  56  74  99 127 152 177 217
#     4  10  18  26  36  54  78 101 122 151 188 221
#     4   8  14  24  38  55  77  99 122 153 185 214
#     4   8  13  19  33  57  79  96 117 144 181 221
#     4   9  16  26  40  57  73  97 129 154 179 217
#
# _framework density 17.248349000000001
#
# number of rings (size 3 to 8) (size 9 to 14) (size 15 to 20)
#    0.000    3.429    0.000    3.000    0.000    2.857 
#    0.000    1.429    0.000    0.000    0.000   10.000 
#    0.000    0.000    0.000    0.000    0.000    0.000 
#
# Total GULP energy -155877.928410 kJ/mol
# GULP energy per Si atom -5567.068872 kJ/mol
# Density = 1.720909 g / cm^3
# Si number density = 17.248349 Si / 1000 Ang^3
#
#
#
# Elastic Constant Matrix: (Units=GPa)
#
#
# Indices 1 2 3 4 5 6 
#
# 1 139.1295 -3.5690 67.7523 0.0000 -22.3437 0.0000
# 2 -3.5690 48.2753 -0.0477 0.0000 -3.0203 0.0000
# 3 67.7523 -0.0477 110.3038 0.0000 -14.3212 0.0000
# 4 0.0000 0.0000 0.0000 -1.9562 0.0000 -4.5488
# 5 -22.3437 -3.0203 -14.3212 0.0000 33.0894 0.0000
# 6 0.0000 0.0000 0.0000 -4.5488 0.0000 4.8223
#
#
#
# Elastic Compliance Matrix: (Units=1/GPa)
#
#
# Indices 1 2 3 4 5 6 
#
# 1 0.010971 0.001110 -0.006107 0.000000 0.004867 0.000000
# 2 0.001110 0.020953 -0.000346 0.000000 0.002512 0.000000
# 3 -0.006107 -0.000346 0.013008 0.000000 0.001475 0.000000
# 4 0.000000 0.000000 0.000000 -0.160079 0.000000 -0.150998
# 5 0.004867 0.002512 0.001475 0.000000 0.034375 0.000000
# 6 0.000000 0.000000 0.000000 -0.150998 0.000000 0.064937
#
#
# Mechanical properties :
#
#
# Convention : Reuss Voigt Hill
#
# Bulk Modulus (GPa) = 29.20048 47.33108 38.26578
# Shear Modulus (GPa) = 797.70557 22.76264 410.23411
#
# Velocity S-wave (km/s) = 21.52873 3.63671 15.43878
# Velocity P-wave (km/s) = 25.19817 6.71824 18.44021
#
# Compressibility (1/GPa) = 0.03424601
#
# Stress axis : x y z
#
# Youngs Moduli (GPa) = 91.14651 47.72507 76.87520
#
# Poissons Ratio (x) = -0.05295 0.46945
# Poissons Ratio (y) = -0.10113 0.02662
# Poissons Ratio (z) = 0.55660 0.01653
#
# Static dielectric constant tensor:
#      x y z
#    x 1.607670 0.000000 -0.031240 
#    y 0.000000 1.669110 0.000000 
#    z -0.031240 0.000000 1.576200 
# 
# From -- ./inp_files/247714.got.cif
#   From: 2010.05.17/outbox.cif.g08.bks.cpg/sg12_124_cif.got.tgz:247714.got - 2010.06.03 13:09:07.
