data_PCOD9170669
_publ_section_title
;
Structure prediction by ZEFSAII (Michael W. Deem and Ramdas Pophale) SiO2 
 PCOD9170669
Probable space group: C 2/M
;
_chemical_formula_sum "Si O2"
_cell_formula_units_Z 52
_cell_length_a 5.053790
_cell_length_b 30.918873
_cell_length_c 21.137197
_cell_angle_alpha 90.000000
_cell_angle_beta 119.742818
_cell_angle_gamma 90.000000
_cell_volume 2867.731854
_symmetry_space_group_name_H-M "C 2/M"
_symmetry_group_IT_number 12
_symmetry_cell_setting 'monoclinic'
loop_
_space_group_symop_operation_xyz
x,y,z
-x,y,-z
-x,-y,-z
x,-y,z
1/2+x,1/2+y,z
1/2-x,1/2+y,-z
1/2-x,1/2-y,-z
1/2+x,1/2-y,z
loop_
_atom_site_type_symbol
_atom_site_label
_atom_site_fract_x
_atom_site_fract_y
_atom_site_fract_z
Si Si1 0.858860 0.000000 0.051630
Si Si2 0.455478 0.452078 0.273551
Si Si3 0.669780 0.778912 0.587083
Si Si4 0.279120 0.159821 0.207330
Si Si5 0.027383 0.146799 0.696361
Si Si6 0.208586 0.222286 0.080902
Si Si7 0.741974 0.937232 0.822213
O O1 0.002714 0.040155 0.106039
O O2 0.500000 0.000000 0.000000
O O3 0.000000 0.000000 0.000000
O O4 0.494081 0.500000 0.308698
O O5 0.499071 0.405651 0.313918
O O6 0.684366 0.449299 0.241612
O O7 0.106896 0.450515 0.206358
O O8 0.500000 0.785441 0.500000
O O9 0.433549 0.756480 0.606580
O O10 0.808561 0.823750 0.627996
O O11 0.623386 0.159488 0.274721
O O12 0.247419 0.194790 0.148784
O O13 0.236790 0.113761 0.168943
O O14 0.053180 0.159690 0.240458
O O15 0.521356 0.235852 0.083949
O O16 0.000000 0.202539 0.000000
#
# Coordination Sequence:
#
# PCOD9170669 Si02
#       7
#     4   8   8   8   8   8   8
#     4  12  22  32  48  70  96 130 171 210 259 318
#     4  10  17  33  55  71 100 135 166 215 264 306
#     4  10  21  37  56  80 116 153 174 206 265 321
#     4  10  21  35  53  77 103 130 172 225 265 298
#     4  10  21  33  54  85 103 133 184 218 254 314
#     4  10  21  36  52  69  95 133 171 209 265 322
#     4  10  20  34  49  70  98 130 166 211 262 315
#
# _framework density 18.132797
#
# number of rings (size 3 to 8) (size 9 to 14) (size 15 to 20)
#    0.000    1.846    1.538    2.769    0.000    4.308 
#    0.000    2.308    0.000    0.462    0.000    0.000 
#    0.000   11.077    0.000    0.000    0.000    1.846 
#
# Total GULP energy -144924.098325 kJ/mol
# GULP energy per Si atom -5574.003782 kJ/mol
# Density = 1.809153 g / cm^3
# Si number density = 18.132797 Si / 1000 Ang^3
#
#
#
# Elastic Constant Matrix: (Units=GPa)
#
#
# Indices 1 2 3 4 5 6 
#
# 1 72.8259 0.7582 2.4250 0.0000 10.0135 0.0000
# 2 0.7582 98.9506 50.5227 0.0000 15.4372 0.0000
# 3 2.4250 50.5227 46.8844 0.0000 13.0361 0.0000
# 4 0.0000 0.0000 0.0000 55.4456 0.0000 15.9559
# 5 10.0135 15.4372 13.0361 0.0000 20.9461 0.0000
# 6 0.0000 0.0000 0.0000 15.9559 0.0000 18.8565
#
#
#
# Elastic Compliance Matrix: (Units=1/GPa)
#
#
# Indices 1 2 3 4 5 6 
#
# 1 0.014812 0.000869 0.000538 0.000000 -0.008056 0.000000
# 2 0.000869 0.022576 -0.023739 0.000000 -0.002279 0.000000
# 3 0.000538 -0.023739 0.050896 0.000000 -0.014438 0.000000
# 4 0.000000 0.000000 0.000000 0.023841 0.000000 -0.020174
# 5 -0.008056 -0.002279 -0.014438 0.000000 0.062258 0.000000
# 6 0.000000 0.000000 0.000000 -0.020174 0.000000 0.070103
#
#
# Mechanical properties :
#
#
# Convention : Reuss Voigt Hill
#
# Bulk Modulus (GPa) = 22.92544 36.23030 29.57787
# Shear Modulus (GPa) = 16.46409 30.04663 23.25536
#
# Velocity S-wave (km/s) = 3.01653 4.07508 3.58509
# Velocity P-wave (km/s) = 4.98027 6.49351 5.78657
#
# Compressibility (1/GPa) = 0.04361966
#
# Stress axis : x y z
#
# Youngs Moduli (GPa) = 67.51228 44.29558 19.64774
#
# Poissons Ratio (x) = -0.03849 -0.01056
# Poissons Ratio (y) = -0.05866 0.46641
# Poissons Ratio (z) = -0.03629 1.05152
#
# Static dielectric constant tensor:
#      x y z
#    x 1.623460 0.000000 0.008090 
#    y 0.000000 1.668780 0.000000 
#    z 0.008090 0.000000 1.590260 
# 
# From -- ./inp_files/298554.got.cif
#   From: 2010.05.17/outbox.cif.g08.bks.cpg/sg12_150_cif.got.tgz:298554.got - 2010.06.03 13:09:07.
