data_PCOD9170850
_publ_section_title
;
Structure prediction by ZEFSAII (Michael W. Deem and Ramdas Pophale) SiO2 
 PCOD9170850
Probable space group: C 2/M
;
_chemical_formula_sum "Si O2"
_cell_formula_units_Z 58
_cell_length_a 18.316649
_cell_length_b 18.869340
_cell_length_c 9.528047
_cell_angle_alpha 90.000000
_cell_angle_beta 64.808978
_cell_angle_gamma 90.000000
_cell_volume 2979.917337
_symmetry_space_group_name_H-M "C 2/M"
_symmetry_group_IT_number 12
_symmetry_cell_setting 'monoclinic'
loop_
_space_group_symop_operation_xyz
x,y,z
-x,y,-z
-x,-y,-z
x,-y,z
1/2+x,1/2+y,z
1/2-x,1/2+y,-z
1/2-x,1/2-y,-z
1/2+x,1/2-y,z
loop_
_atom_site_type_symbol
_atom_site_label
_atom_site_fract_x
_atom_site_fract_y
_atom_site_fract_z
Si Si1 0.071194 0.719204 0.216376
Si Si2 0.164266 0.730003 0.407796
Si Si3 0.000000 0.000000 0.500000
Si Si4 0.366263 0.605868 0.484468
Si Si5 0.686321 0.118193 0.642129
Si Si6 0.990549 0.575589 0.175901
Si Si7 0.174948 0.733084 0.869473
Si Si8 0.455823 0.330667 0.172152
O O1 0.093722 0.709975 0.359265
O O2 0.029252 0.647188 0.201350
O O3 0.015410 0.787237 0.226797
O O4 0.149260 0.731025 0.051871
O O5 0.145795 0.811237 0.463940
O O6 0.178135 0.680646 0.531242
O O7 0.245176 0.727624 0.247821
O O8 0.070851 0.061781 0.473191
O O9 0.273016 0.581263 0.555032
O O10 0.406998 0.611320 0.298257
O O11 0.603304 0.076279 0.704266
O O12 0.684572 0.155167 0.796652
O O13 0.026857 0.500000 0.193079
O O14 0.000000 0.578799 0.000000
O O15 0.101803 0.770982 0.847679
O O16 0.500000 0.361990 0.000000
#
# Coordination Sequence:
#
# PCOD9170850 Si02
#       8
#     8   8   2   8   8   8   8   8
#     4  11  20  33  57  94 126 152 199 259 309 363
#     4  11  21  35  63  94 124 153 196 273 313 352
#     4  12  28  40  62  88 126 162 206 260 286 372
#     4  11  22  41  59  91 121 157 206 244 307 361
#     4  11  20  38  64  89 120 155 204 254 305 358
#     4  11  22  38  60  85 118 169 206 239 304 378
#     4  10  17  35  56  91 119 155 197 246 308 368
#     4  10  18  34  63  85 119 156 201 254 310 367
#
# _framework density 19.463626999999999
#
# number of rings (size 3 to 8) (size 9 to 14) (size 15 to 20)
#    0.000    1.241    5.517    2.483    0.966    1.655 
#    0.000    1.724    0.000    0.000    0.000    0.000 
#    0.000    0.000    0.000    0.000    0.000    0.000 
#
# Total GULP energy -161438.609574 kJ/mol
# GULP energy per Si atom -5566.848606 kJ/mol
# Density = 1.941933 g / cm^3
# Si number density = 19.463627 Si / 1000 Ang^3
#
#
#
# Elastic Constant Matrix: (Units=GPa)
#
#
# Indices 1 2 3 4 5 6 
#
# 1 90.0187 22.1384 43.9496 0.0000 -10.5571 0.0000
# 2 22.1384 66.0135 14.3474 0.0000 -4.6156 0.0000
# 3 43.9496 14.3474 73.1004 0.0000 -23.7089 0.0000
# 4 0.0000 0.0000 0.0000 40.9244 0.0000 14.7193
# 5 -10.5571 -4.6156 -23.7089 0.0000 38.3776 0.0000
# 6 0.0000 0.0000 0.0000 14.7193 0.0000 21.4482
#
#
#
# Elastic Compliance Matrix: (Units=1/GPa)
#
#
# Indices 1 2 3 4 5 6 
#
# 1 0.016594 -0.003547 -0.009928 0.000000 -0.001995 0.000000
# 2 -0.003547 0.016582 -0.000990 0.000000 0.000407 0.000000
# 3 -0.009928 -0.000990 0.023659 0.000000 0.011766 0.000000
# 4 0.000000 0.000000 0.000000 0.032443 0.000000 -0.022265
# 5 -0.001995 0.000407 0.011766 0.000000 0.032826 0.000000
# 6 0.000000 0.000000 0.000000 -0.022265 0.000000 0.061904
#
#
# Mechanical properties :
#
#
# Convention : Reuss Voigt Hill
#
# Bulk Modulus (GPa) = 35.83511 43.33372 39.58442
# Shear Modulus (GPa) = 22.49841 30.06319 26.28080
#
# Velocity S-wave (km/s) = 3.40357 3.93438 3.67856
# Velocity P-wave (km/s) = 5.82212 6.55373 6.19873
#
# Compressibility (1/GPa) = 0.02790559
#
# Stress axis : x y z
#
# Youngs Moduli (GPa) = 60.26256 60.30816 42.26735
#
# Poissons Ratio (x) = 0.21390 0.41961
# Poissons Ratio (y) = 0.21374 0.04185
# Poissons Ratio (z) = 0.59826 0.05971
#
# Static dielectric constant tensor:
#      x y z
#    x 1.738170 0.000000 -0.038500 
#    y 0.000000 1.663560 0.000000 
#    z -0.038500 0.000000 1.710170 
# 
# From -- ./inp_files/77438.got.cif
#   From: 2010.05.17/outbox.cif.g08.bks.cpg/sg12_39_cif.got.tgz:77438.got - 2010.06.03 13:09:07.
