data_PCOD9170092
_publ_section_title
;
Structure prediction by ZEFSAII (Michael W. Deem and Ramdas Pophale) SiO2 
 PCOD9170092
Probable space group: C 2/M
;
_chemical_formula_sum "Si O2"
_cell_formula_units_Z 52
_cell_length_a 15.809025
_cell_length_b 34.246241
_cell_length_c 5.387777
_cell_angle_alpha 90.000000
_cell_angle_beta 82.824132
_cell_angle_gamma 90.000000
_cell_volume 2894.093519
_symmetry_space_group_name_H-M "C 2/M"
_symmetry_group_IT_number 12
_symmetry_cell_setting 'monoclinic'
loop_
_space_group_symop_operation_xyz
x,y,z
-x,y,-z
-x,-y,-z
x,-y,z
1/2+x,1/2+y,z
1/2-x,1/2+y,-z
1/2-x,1/2-y,-z
1/2+x,1/2-y,z
loop_
_atom_site_type_symbol
_atom_site_label
_atom_site_fract_x
_atom_site_fract_y
_atom_site_fract_z
Si Si1 0.895602 0.197276 0.197393
Si Si2 0.786772 0.656716 0.279962
Si Si3 0.655295 0.412422 0.372426
Si Si4 0.000000 0.141634 0.500000
Si Si5 0.151463 0.228991 0.287902
Si Si6 0.800306 0.682024 0.773173
Si Si7 0.899423 0.046409 0.091486
O O1 0.959504 0.166355 0.291646
O O2 0.888867 0.228685 0.423475
O O3 0.802769 0.175919 0.208520
O O4 0.906713 0.216766 0.924683
O O5 0.736121 0.616387 0.331783
O O6 0.721977 0.694484 0.282932
O O7 0.838955 0.665665 0.506851
O O8 0.833327 0.660063 0.001877
O O9 0.575376 0.383715 0.362634
O O10 0.636275 0.432319 0.647244
O O11 0.651338 0.441292 0.138807
O O12 0.188460 0.271415 0.219794
O O13 0.894044 0.000000 0.133870
O O14 0.000000 0.055341 0.000000
#
# Coordination Sequence:
#
# PCOD9170092 Si02
#       7
#     8   8   8   4   8   8   8
#     4  10  20  28  40  58  81 104 131 156 204 254
#     4  10  18  28  43  66  76  97 129 154 209 247
#     4  12  22  33  49  61  82 102 127 175 217 260
#     4  12  22  32  43  64  88 102 132 176 224 260
#     4  10  18  30  43  58  81 105 132 156 192 254
#     4  10  17  30  44  59  82 103 129 160 190 256
#     4  11  23  36  47  59  74 102 136 165 208 265
#
# _framework density 17.967628000000001
#
# number of rings (size 3 to 8) (size 9 to 14) (size 15 to 20)
#    0.000    1.385    4.615    6.000    2.154    3.077 
#    0.000    0.000    0.000    0.000    0.000    0.000 
#    0.000    0.000    0.000    0.000    0.000    0.000 
#
# Total GULP energy -145000.378649 kJ/mol
# GULP energy per Si atom -5576.937640 kJ/mol
# Density = 1.792673 g / cm^3
# Si number density = 17.967628 Si / 1000 Ang^3
#
#
#
# Elastic Constant Matrix: (Units=GPa)
#
#
# Indices 1 2 3 4 5 6 
#
# 1 2.5990 8.0983 4.0232 0.0000 1.3442 0.0000
# 2 8.0983 72.2720 35.1950 0.0000 -2.8775 0.0000
# 3 4.0232 35.1950 160.7601 0.0000 -5.4826 0.0000
# 4 0.0000 0.0000 0.0000 0.6046 0.0000 19.7126
# 5 1.3442 -2.8775 -5.4826 0.0000 15.7868 0.0000
# 6 0.0000 0.0000 0.0000 19.7126 0.0000 5.6989
#
#
#
# Elastic Compliance Matrix: (Units=1/GPa)
#
#
# Indices 1 2 3 4 5 6 
#
# 1 0.661183 -0.075752 -0.002382 0.000000 -0.070935 0.000000
# 2 -0.075752 0.024210 -0.003070 0.000000 0.009797 0.000000
# 3 -0.002382 -0.003070 0.007023 0.000000 0.002082 0.000000
# 4 0.000000 0.000000 0.000000 -0.014797 0.000000 0.051183
# 5 -0.070935 0.009797 0.002082 0.000000 0.071893 0.000000
# 6 0.000000 0.000000 0.000000 0.051183 0.000000 -0.001570
#
#
# Mechanical properties :
#
#
# Convention : Reuss Voigt Hill
#
# Bulk Modulus (GPa) = 1.88676 36.69600 19.29138
# Shear Modulus (GPa) = 4.59973 16.97237 10.78605
#
# Velocity S-wave (km/s) = 1.60174 3.07678 2.45277
# Velocity P-wave (km/s) = 2.11498 5.75238 4.33376
#
# Compressibility (1/GPa) = 0.53000808
#
# Stress axis : x y z
#
# Youngs Moduli (GPa) = 1.51244 41.30503 142.38388
#
# Poissons Ratio (x) = 3.12893 0.33911
# Poissons Ratio (y) = 0.11457 0.43718
# Poissons Ratio (z) = 0.00360 0.12682
#
# Static dielectric constant tensor:
#      x y z
#    x 1.671070 0.000000 -0.038680 
#    y 0.000000 1.622780 0.000000 
#    z -0.038680 0.000000 1.763710 
# 
# From -- ./inp_files/17997.got.cif
#   From: 2010.05.17/outbox.cif.g08.bks.cpg/sg12_9_cif.got.tgz:17997.got - 2010.06.03 13:09:07.
