data_PCOD9170186
_publ_section_title
;
Structure prediction by ZEFSAII (Michael W. Deem and Ramdas Pophale) SiO2 
 PCOD9170186
Probable space group: C 2/M
;
_chemical_formula_sum "Si O2"
_cell_formula_units_Z 36
_cell_length_a 20.060608
_cell_length_b 13.512423
_cell_length_c 10.390265
_cell_angle_alpha 90.000000
_cell_angle_beta 37.363260
_cell_angle_gamma 90.000000
_cell_volume 1709.216103
_symmetry_space_group_name_H-M "C 2/M"
_symmetry_group_IT_number 12
_symmetry_cell_setting 'monoclinic'
loop_
_space_group_symop_operation_xyz
x,y,z
-x,y,-z
-x,-y,-z
x,-y,z
1/2+x,1/2+y,z
1/2-x,1/2+y,-z
1/2-x,1/2-y,-z
1/2+x,1/2-y,z
loop_
_atom_site_type_symbol
_atom_site_label
_atom_site_fract_x
_atom_site_fract_y
_atom_site_fract_z
Si Si1 0.834394 0.186546 0.955076
Si Si2 0.786397 0.888066 0.439080
Si Si3 0.000000 0.777396 0.500000
Si Si4 0.645903 0.893165 0.401356
Si Si5 0.385164 0.211909 0.139953
O O1 0.929664 0.159572 0.709156
O O2 0.750000 0.250000 0.000000
O O3 0.756857 0.108425 0.145058
O O4 0.882686 0.252364 0.997201
O O5 0.690285 0.884788 0.478161
O O6 0.723545 0.851839 0.662800
O O7 0.872496 0.808251 0.253191
O O8 0.828121 0.000000 0.384363
O O9 0.075146 0.700670 0.466889
O O10 0.589854 0.000000 0.473084
O O11 0.500000 0.161776 0.000000
#
# Coordination Sequence:
#
# PCOD9170186 Si02
#       5
#     8   8   4   8   8
#     4   9  19  33  50  72 101 132 162 200 247 292
#     4   9  19  34  51  74 103 130 161 206 254 296
#     4  10  17  30  51  70  94 132 170 198 237 292
#     4   9  17  31  50  72  98 127 162 203 245 291
#     4  10  19  33  54  77 100 130 168 206 246 295
#
# _framework density 21.062287000000001
#
# number of rings (size 3 to 8) (size 9 to 14) (size 15 to 20)
#    0.000    2.667    0.000    1.667    0.000    2.667 
#    0.000    6.111    0.000    0.000    0.000    0.000 
#    0.000    0.000    0.000    0.000    0.000    0.000 
#
# Total GULP energy -100318.858750 kJ/mol
# GULP energy per Si atom -5573.269931 kJ/mol
# Density = 2.101435 g / cm^3
# Si number density = 21.062287 Si / 1000 Ang^3
#
#
#
# Elastic Constant Matrix: (Units=GPa)
#
#
# Indices 1 2 3 4 5 6 
#
# 1 54.3747 -18.1206 1.8991 0.0000 5.2322 0.0000
# 2 -18.1206 44.8720 -8.5305 0.0000 1.3929 0.0000
# 3 1.8991 -8.5305 114.8057 0.0000 8.4449 0.0000
# 4 0.0000 0.0000 0.0000 -1.5240 0.0000 -10.3546
# 5 5.2322 1.3929 8.4449 0.0000 25.1056 0.0000
# 6 0.0000 0.0000 0.0000 -10.3546 0.0000 7.0689
#
#
#
# Elastic Compliance Matrix: (Units=1/GPa)
#
#
# Indices 1 2 3 4 5 6 
#
# 1 0.021929 0.009155 0.000709 0.000000 -0.005316 0.000000
# 2 0.009155 0.026513 0.002120 0.000000 -0.004092 0.000000
# 3 0.000709 0.002120 0.009101 0.000000 -0.003327 0.000000
# 4 0.000000 0.000000 0.000000 -0.059910 0.000000 -0.087757
# 5 -0.005316 -0.004092 -0.003327 0.000000 0.042286 0.000000
# 6 0.000000 0.000000 0.000000 -0.087757 0.000000 0.012916
#
#
# Mechanical properties :
#
#
# Convention : Reuss Voigt Hill
#
# Bulk Modulus (GPa) = 12.26861 18.28316 15.27588
# Shear Modulus (GPa) = 89.22643 22.05039 55.63841
#
# Velocity S-wave (km/s) = 6.51576 3.23911 5.14524
# Velocity P-wave (km/s) = 7.90217 4.76325 6.52430
#
# Compressibility (1/GPa) = 0.08150886
#
# Stress axis : x y z
#
# Youngs Moduli (GPa) = 45.60232 37.71778 109.88002
#
# Poissons Ratio (x) = -0.34531 -0.07786
# Poissons Ratio (y) = -0.41750 -0.23290
# Poissons Ratio (z) = -0.03231 -0.07994
#
# Static dielectric constant tensor:
#      x y z
#    x 1.754170 0.000000 -0.023600 
#    y 0.000000 1.774320 0.000000 
#    z -0.023600 0.000000 1.834210 
# 
# From -- ./inp_files/46648.got.cif
#   From: 2010.05.17/outbox.cif.g08.bks.cpg/sg12_24_cif.got.tgz:46648.got - 2010.06.03 13:09:07.
