data_PCOD9170637
_publ_section_title
;
Structure prediction by ZEFSAII (Michael W. Deem and Ramdas Pophale) SiO2 
 PCOD9170637
Probable space group: C 2/M
;
_chemical_formula_sum "Si O2"
_cell_formula_units_Z 44
_cell_length_a 20.916777
_cell_length_b 25.550051
_cell_length_c 5.583917
_cell_angle_alpha 90.000000
_cell_angle_beta 116.987146
_cell_angle_gamma 90.000000
_cell_volume 2659.230640
_symmetry_space_group_name_H-M "C 2/M"
_symmetry_group_IT_number 12
_symmetry_cell_setting 'monoclinic'
loop_
_space_group_symop_operation_xyz
x,y,z
-x,y,-z
-x,-y,-z
x,-y,z
1/2+x,1/2+y,z
1/2-x,1/2+y,-z
1/2-x,1/2-y,-z
1/2+x,1/2-y,z
loop_
_atom_site_type_symbol
_atom_site_label
_atom_site_fract_x
_atom_site_fract_y
_atom_site_fract_z
Si Si1 0.500000 0.268818 0.500000
Si Si2 0.082862 0.079485 0.113086
Si Si3 0.641443 0.762683 0.979102
Si Si4 0.225530 0.830039 0.870212
Si Si5 0.602333 0.307853 0.293632
Si Si6 0.163889 0.057765 0.761991
O O1 0.430604 0.236584 0.299405
O O2 0.534647 0.304863 0.354711
O O3 0.090120 0.142399 0.105962
O O4 0.123070 0.065301 0.434407
O O5 0.113676 0.058389 0.914311
O O6 0.000000 0.064836 0.000000
O O7 0.689920 0.710899 0.998386
O O8 0.693667 0.811232 0.035584
O O9 0.611637 0.748308 0.188047
O O10 0.175847 0.818207 0.557424
O O11 0.214630 0.891698 0.891817
O O12 0.198163 0.000000 0.810354
#
# Coordination Sequence:
#
# PCOD9170637 Si02
#       6
#     4   8   8   8   8   8
#     4  10  20  28  48  78 104 132 162 210 260 314
#     4  11  22  34  54  73 103 138 180 217 254 293
#     4  10  17  33  50  73 102 128 170 206 260 310
#     4   9  20  32  50  73  96 135 172 211 254 305
#     4  10  19  31  50  73 103 136 168 208 256 306
#     4  11  23  38  51  72 102 137 181 220 254 298
#
# _framework density 16.546137000000002
#
# number of rings (size 3 to 8) (size 9 to 14) (size 15 to 20)
#    0.000    1.818    1.818    3.273    5.091    2.182 
#    0.000    0.000    0.000    0.000    0.000    0.636 
#    0.000    2.909    0.000    0.182    0.000    0.000 
#
# Total GULP energy -122471.468682 kJ/mol
# GULP energy per Si atom -5566.884940 kJ/mol
# Density = 1.650848 g / cm^3
# Si number density = 16.546137 Si / 1000 Ang^3
#
#
#
# Elastic Constant Matrix: (Units=GPa)
#
#
# Indices 1 2 3 4 5 6 
#
# 1 78.4024 45.9359 30.9527 0.0000 8.3670 0.0000
# 2 45.9359 106.1217 20.9542 0.0000 10.6408 0.0000
# 3 30.9527 20.9542 49.8367 0.0000 -6.5306 0.0000
# 4 0.0000 0.0000 0.0000 1.8583 0.0000 7.7413
# 5 8.3670 10.6408 -6.5306 0.0000 24.4490 0.0000
# 6 0.0000 0.0000 0.0000 7.7413 0.0000 10.9048
#
#
#
# Elastic Compliance Matrix: (Units=1/GPa)
#
#
# Indices 1 2 3 4 5 6 
#
# 1 0.022136 -0.006384 -0.012117 0.000000 -0.008034 0.000000
# 2 -0.006384 0.012987 -0.002021 0.000000 -0.004008 0.000000
# 3 -0.012117 -0.002021 0.030155 0.000000 0.013081 0.000000
# 4 0.000000 0.000000 0.000000 -0.274939 0.000000 0.195178
# 5 -0.008034 -0.004008 0.013081 0.000000 0.048889 0.000000
# 6 0.000000 0.000000 0.000000 0.195178 0.000000 -0.046854
#
#
# Mechanical properties :
#
#
# Convention : Reuss Voigt Hill
#
# Bulk Modulus (GPa) = 41.26245 47.78292 44.52268
# Shear Modulus (GPa) = -31.54493 16.54362 -7.50065
#
# Velocity S-wave (km/s) = -4.37107 3.16547 -2.13144
# Velocity P-wave (km/s) = 0.69499 6.50396 4.57266
#
# Compressibility (1/GPa) = 0.02423511
#
# Stress axis : x y z
#
# Youngs Moduli (GPa) = 45.17547 76.99837 33.16203
#
# Poissons Ratio (x) = 0.49153 0.40182
# Poissons Ratio (y) = 0.28839 0.06702
# Poissons Ratio (z) = 0.54738 0.15561
#
# Static dielectric constant tensor:
#      x y z
#    x 1.572950 0.000000 -0.052220 
#    y 0.000000 1.582220 0.000000 
#    z -0.052220 0.000000 1.633710 
# 
# From -- ./inp_files/16547.got.cif
#   From: 2010.05.17/outbox.cif.g08.bks.cpg/sg12_9_cif.got.tgz:16547.got - 2010.06.03 13:09:07.
