data_PCOD9170435
_publ_section_title
;
Structure prediction by ZEFSAII (Michael W. Deem and Ramdas Pophale) SiO2 
 PCOD9170435
Probable space group: C 2/M
;
_chemical_formula_sum "Si O2"
_cell_formula_units_Z 40
_cell_length_a 9.459280
_cell_length_b 27.234333
_cell_length_c 7.057042
_cell_angle_alpha 90.000000
_cell_angle_beta 51.935215
_cell_angle_gamma 90.000000
_cell_volume 1431.349082
_symmetry_space_group_name_H-M "C 2/M"
_symmetry_group_IT_number 12
_symmetry_cell_setting 'monoclinic'
loop_
_space_group_symop_operation_xyz
x,y,z
-x,y,-z
-x,-y,-z
x,-y,z
1/2+x,1/2+y,z
1/2-x,1/2+y,-z
1/2-x,1/2-y,-z
1/2+x,1/2-y,z
loop_
_atom_site_type_symbol
_atom_site_label
_atom_site_fract_x
_atom_site_fract_y
_atom_site_fract_z
Si Si1 0.625037 0.847000 0.179254
Si Si2 0.082312 0.212643 0.142203
Si Si3 0.053105 0.943171 0.730127
Si Si4 0.245726 0.162080 0.507141
Si Si5 0.650253 0.052219 0.037236
O O1 0.681511 0.828590 0.338504
O O2 0.436672 0.830091 0.248828
O O3 0.607933 0.904678 0.213096
O O4 0.802015 0.836481 0.911915
O O5 0.901740 0.203802 0.412180
O O6 0.250000 0.250000 0.000000
O O7 0.000000 0.214616 0.000000
O O8 0.164909 0.893776 0.579606
O O9 0.125584 0.000000 0.646036
O O10 0.855326 0.943550 0.795640
O O11 0.000000 0.937764 0.000000
O O12 0.636830 0.000000 0.144750
O O13 0.500000 0.055144 0.000000
#
# Coordination Sequence:
#
# PCOD9170435 Si02
#       5
#     8   8   8   8   8
#     4  10  20  35  59  83 112 145 185 228 273 324
#     4  10  21  39  60  82 109 142 179 227 283 333
#     4  10  17  31  56  82 111 148 188 225 263 319
#     4  10  19  35  58  87 110 139 187 235 271 318
#     4  10  20  34  54  81 118 156 185 219 272 328
#
# _framework density 27.945665000000002
#
# number of rings (size 3 to 8) (size 9 to 14) (size 15 to 20)
#    0.000    2.000    4.000    0.600    0.000    2.400 
#    0.000    3.000    0.000    3.600    0.000    0.000 
#    0.000    0.000    0.000    0.000    0.000    0.000 
#
# Total GULP energy -111569.290038 kJ/mol
# GULP energy per Si atom -5578.464502 kJ/mol
# Density = 2.788206 g / cm^3
# Si number density = 27.945665 Si / 1000 Ang^3
#
#
#
# Elastic Constant Matrix: (Units=GPa)
#
#
# Indices 1 2 3 4 5 6 
#
# 1 144.5921 32.1117 53.8499 0.0000 -49.5844 0.0000
# 2 32.1117 130.6306 46.3065 0.0000 -28.7073 0.0000
# 3 53.8499 46.3065 149.8916 0.0000 -56.6483 0.0000
# 4 0.0000 0.0000 0.0000 26.8062 0.0000 -18.5780
# 5 -49.5844 -28.7073 -56.6483 0.0000 61.8577 0.0000
# 6 0.0000 0.0000 0.0000 -18.5780 0.0000 34.3416
#
#
#
# Elastic Compliance Matrix: (Units=1/GPa)
#
#
# Indices 1 2 3 4 5 6 
#
# 1 0.009649 -0.000629 -0.000703 0.000000 0.006799 0.000000
# 2 -0.000629 0.008873 -0.001758 0.000000 0.002004 0.000000
# 3 -0.000703 -0.001758 0.010622 0.000000 0.008349 0.000000
# 4 0.000000 0.000000 0.000000 0.059681 0.000000 0.032286
# 5 0.006799 0.002004 0.008349 0.000000 0.030192 0.000000
# 6 0.000000 0.000000 0.000000 0.032286 0.000000 0.046585
#
#
# Mechanical properties :
#
#
# Convention : Reuss Voigt Hill
#
# Bulk Modulus (GPa) = 43.54279 76.62782 60.08530
# Shear Modulus (GPa) = 27.86512 44.12417 35.99464
#
# Velocity S-wave (km/s) = 3.16114 3.97788 3.59280
# Velocity P-wave (km/s) = 5.37948 6.96978 6.22562
#
# Compressibility (1/GPa) = 0.02296592
#
# Stress axis : x y z
#
# Youngs Moduli (GPa) = 103.63821 112.69739 94.14284
#
# Poissons Ratio (x) = 0.07084 0.06615
# Poissons Ratio (y) = 0.06515 0.16550
# Poissons Ratio (z) = 0.07282 0.19812
#
# Static dielectric constant tensor:
#      x y z
#    x 2.211010 0.000000 0.060540 
#    y 0.000000 2.365980 0.000000 
#    z 0.060540 0.000000 2.340010 
# 
# From -- ./inp_files/40423.got.cif
#   From: 2010.05.17/outbox.cif.g08.bks.cpg/sg12_21_cif.got.tgz:40423.got - 2010.06.03 13:09:07.
