data_PCOD9170886
_publ_section_title
;
Structure prediction by ZEFSAII (Michael W. Deem and Ramdas Pophale) SiO2 
 PCOD9170886
Probable space group: C 2/M
;
_chemical_formula_sum "Si O2"
_cell_formula_units_Z 48
_cell_length_a 29.989911
_cell_length_b 18.565410
_cell_length_c 9.876003
_cell_angle_alpha 90.000000
_cell_angle_beta 29.079644
_cell_angle_gamma 90.000000
_cell_volume 2672.510802
_symmetry_space_group_name_H-M "C 2/M"
_symmetry_group_IT_number 12
_symmetry_cell_setting 'monoclinic'
loop_
_space_group_symop_operation_xyz
x,y,z
-x,y,-z
-x,-y,-z
x,-y,z
1/2+x,1/2+y,z
1/2-x,1/2+y,-z
1/2-x,1/2-y,-z
1/2+x,1/2-y,z
loop_
_atom_site_type_symbol
_atom_site_label
_atom_site_fract_x
_atom_site_fract_y
_atom_site_fract_z
Si Si1 0.605647 0.360467 0.701004
Si Si2 0.897875 0.164643 0.775105
Si Si3 0.157947 0.700883 0.225945
Si Si4 0.099438 0.313801 0.683022
Si Si5 0.777874 0.172440 0.361933
Si Si6 0.713261 0.583999 0.160017
O O1 0.605600 0.273391 0.683653
O O2 0.673100 0.372828 0.649643
O O3 0.644835 0.396876 0.463259
O O4 0.500000 0.382393 0.000000
O O5 0.904725 0.243343 0.687119
O O6 0.831927 0.114986 0.857994
O O7 0.000000 0.133120 0.500000
O O8 0.851754 0.176435 0.043819
O O9 0.115944 0.677316 0.479814
O O10 0.250000 0.750000 0.000000
O O11 0.195037 0.630097 0.054616
O O12 0.182160 0.350612 0.546578
O O13 0.000000 0.336282 0.000000
O O14 0.750000 0.250000 0.500000
O O15 0.729778 0.500000 0.105941
#
# Coordination Sequence:
#
# PCOD9170886 Si02
#       6
#     8   8   8   8   8   8
#     4  10  19  33  53  81 116 147 184 232 295 354
#     4  11  21  35  60  89 113 146 192 245 293 340
#     4  10  17  36  56  81 110 145 193 240 282 334
#     4  10  18  31  56  85 112 140 187 248 297 329
#     4  10  19  31  52  84 116 137 184 243 292 342
#     4  11  22  38  57  78 119 164 189 226 288 355
#
# _framework density 17.960639
#
# number of rings (size 3 to 8) (size 9 to 14) (size 15 to 20)
#    0.000    1.667    6.667    2.000    4.667    0.667 
#    0.000    0.833    0.000    1.000    0.000    0.000 
#    0.000    0.000    0.000    0.000    0.000    0.000 
#
# Total GULP energy -133691.968473 kJ/mol
# GULP energy per Si atom -5570.498686 kJ/mol
# Density = 1.791976 g / cm^3
# Si number density = 17.960639 Si / 1000 Ang^3
#
#
#
# Elastic Constant Matrix: (Units=GPa)
#
#
# Indices 1 2 3 4 5 6 
#
# 1 40.1188 10.8255 19.5417 0.0000 8.9414 0.0000
# 2 10.8255 57.9630 8.1215 0.0000 0.2819 0.0000
# 3 19.5417 8.1215 113.4323 0.0000 14.3631 0.0000
# 4 0.0000 0.0000 0.0000 7.5597 0.0000 -0.5437
# 5 8.9414 0.2819 14.3631 0.0000 34.6701 0.0000
# 6 0.0000 0.0000 0.0000 -0.5437 0.0000 7.4397
#
#
#
# Elastic Compliance Matrix: (Units=1/GPa)
#
#
# Indices 1 2 3 4 5 6 
#
# 1 0.029515 -0.004926 -0.003982 0.000000 -0.005922 0.000000
# 2 -0.004926 0.018254 -0.000634 0.000000 0.001384 0.000000
# 3 -0.003982 -0.000634 0.009938 0.000000 -0.003085 0.000000
# 4 0.000000 0.000000 0.000000 0.132980 0.000000 0.009718
# 5 -0.005922 0.001384 -0.003085 0.000000 0.031637 0.000000
# 6 0.000000 0.000000 0.000000 0.009718 0.000000 0.135125
#
#
# Mechanical properties :
#
#
# Convention : Reuss Voigt Hill
#
# Bulk Modulus (GPa) = 25.89062 32.05460 28.97261
# Shear Modulus (GPa) = 12.84006 21.46892 17.15449
#
# Velocity S-wave (km/s) = 2.67666 3.46111 3.09385
# Velocity P-wave (km/s) = 4.89890 5.81878 5.37854
#
# Compressibility (1/GPa) = 0.03862403
#
# Stress axis : x y z
#
# Youngs Moduli (GPa) = 33.88152 54.78145 100.62532
#
# Poissons Ratio (x) = 0.26983 0.40071
# Poissons Ratio (y) = 0.16688 0.06377
# Poissons Ratio (z) = 0.13492 0.03472
#
# Static dielectric constant tensor:
#      x y z
#    x 1.658840 0.000000 -0.011390 
#    y 0.000000 1.598730 0.000000 
#    z -0.011390 0.000000 1.661460 
# 
# From -- ./inp_files/112750.got.cif
#   From: 2010.05.17/outbox.cif.g08.bks.cpg/sg12_57_cif.got.tgz:112750.got - 2010.06.03 13:09:07.
