data_PCOD9170822
_publ_section_title
;
Structure prediction by ZEFSAII (Michael W. Deem and Ramdas Pophale) SiO2 
 PCOD9170822
Probable space group: C 2/M
;
_chemical_formula_sum "Si O2"
_cell_formula_units_Z 44
_cell_length_a 9.563478
_cell_length_b 11.786284
_cell_length_c 17.138871
_cell_angle_alpha 90.000000
_cell_angle_beta 73.974428
_cell_angle_gamma 90.000000
_cell_volume 1856.782286
_symmetry_space_group_name_H-M "C 2/M"
_symmetry_group_IT_number 12
_symmetry_cell_setting 'monoclinic'
loop_
_space_group_symop_operation_xyz
x,y,z
-x,y,-z
-x,-y,-z
x,-y,z
1/2+x,1/2+y,z
1/2-x,1/2+y,-z
1/2-x,1/2-y,-z
1/2+x,1/2-y,z
loop_
_atom_site_type_symbol
_atom_site_label
_atom_site_fract_x
_atom_site_fract_y
_atom_site_fract_z
Si Si1 0.645543 0.229546 0.253560
Si Si2 0.075884 0.000000 0.090181
Si Si3 0.111831 0.249409 0.077672
Si Si4 0.305581 0.500000 0.203202
Si Si5 0.853634 0.500000 0.942150
Si Si6 0.180159 0.304842 0.640320
Si Si7 0.841699 0.376649 0.522343
O O1 0.653268 0.263488 0.162048
O O2 0.713131 0.319217 0.303115
O O3 0.482174 0.198964 0.302500
O O4 0.739907 0.114882 0.246651
O O5 0.030092 0.869461 0.072884
O O6 0.980232 0.000000 0.183954
O O7 0.243651 0.000000 0.034047
O O8 0.057097 0.380746 0.076749
O O9 0.250000 0.250000 0.000000
O O10 0.250573 0.500000 0.119504
O O11 0.197613 0.383396 0.562391
O O12 0.225131 0.187852 0.591080
O O13 0.862987 0.500000 0.554158
O O14 0.000000 0.316747 0.500000
#
# Coordination Sequence:
#
# PCOD9170822 Si02
#       7
#     8   4   8   4   4   8   8
#     4  11  23  40  62  94 131 171 222 274 333 393
#     4  10  17  34  61  91 124 171 232 281 334 383
#     4   9  19  37  60  94 136 181 225 282 335 393
#     4  10  21  34  61  88 119 173 225 270 312 395
#     4   8  17  34  58  86 124 173 230 278 329 392
#     4  11  23  40  65  96 128 163 213 273 331 403
#     4  10  22  43  70  93 123 168 214 265 332 416
#
# _framework density 23.696909000000002
#
# number of rings (size 3 to 8) (size 9 to 14) (size 15 to 20)
#    0.000    2.000    1.818    1.364    2.545    0.000 
#    3.273    3.636    0.000    4.364    0.000   44.545 
#    0.000    0.000    0.000    0.000    0.000    0.000 
#
# Total GULP energy -122486.740124 kJ/mol
# GULP energy per Si atom -5567.579097 kJ/mol
# Density = 2.364297 g / cm^3
# Si number density = 23.696909 Si / 1000 Ang^3
#
#
#
# Elastic Constant Matrix: (Units=GPa)
#
#
# Indices 1 2 3 4 5 6 
#
# 1 29.3164 20.7879 31.2383 0.0000 8.1413 0.0000
# 2 20.7879 151.8987 11.1517 0.0000 -6.6749 0.0000
# 3 31.2383 11.1517 166.6321 0.0000 14.2735 0.0000
# 4 0.0000 0.0000 0.0000 288.7688 0.0000 -175.6838
# 5 8.1413 -6.6749 14.2735 0.0000 51.0166 0.0000
# 6 0.0000 0.0000 0.0000 -175.6838 0.0000 101.7649
#
#
#
# Elastic Compliance Matrix: (Units=1/GPa)
#
#
# Indices 1 2 3 4 5 6 
#
# 1 0.049222 -0.006411 -0.008252 0.000000 -0.006385 0.000000
# 2 -0.006411 0.007502 0.000541 0.000000 0.001853 0.000000
# 3 -0.008252 0.000541 0.007575 0.000000 -0.000732 0.000000
# 4 0.000000 0.000000 0.000000 -0.068841 0.000000 -0.118845
# 5 -0.006385 0.001853 -0.000732 0.000000 0.021068 0.000000
# 6 0.000000 0.000000 0.000000 -0.118845 0.000000 -0.195343
#
#
# Mechanical properties :
#
#
# Convention : Reuss Voigt Hill
#
# Bulk Modulus (GPa) = 27.73455 52.68921 40.21188
# Shear Modulus (GPa) = -36.08683 107.28801 35.60059
#
# Velocity S-wave (km/s) = -3.90660 6.73598 3.88020
# Velocity P-wave (km/s) = 2.93589 9.09839 6.08939
#
# Compressibility (1/GPa) = 0.03605611
#
# Stress axis : x y z
#
# Youngs Moduli (GPa) = 20.31594 133.29008 132.01955
#
# Poissons Ratio (x) = 0.85453 1.08938
# Poissons Ratio (y) = 0.13025 -0.07143
# Poissons Ratio (z) = 0.16764 -0.07211
#
# Static dielectric constant tensor:
#      x y z
#    x 1.908850 0.000000 0.050070 
#    y 0.000000 1.964630 0.000000 
#    z 0.050070 0.000000 1.902130 
# 
# From -- ./inp_files/261598.got.cif
#   From: 2010.05.17/outbox.cif.g08.bks.cpg/sg12_131_cif.got.tgz:261598.got - 2010.06.03 13:09:07.
