data_PCOD9170259
_publ_section_title
;
Structure prediction by ZEFSAII (Michael W. Deem and Ramdas Pophale) SiO2 
 PCOD9170259
Probable space group: C 2/M
;
_chemical_formula_sum "Si O2"
_cell_formula_units_Z 60
_cell_length_a 29.978552
_cell_length_b 8.737368
_cell_length_c 13.091000
_cell_angle_alpha 90.000000
_cell_angle_beta 74.414486
_cell_angle_gamma 90.000000
_cell_volume 3302.891751
_symmetry_space_group_name_H-M "C 2/M"
_symmetry_group_IT_number 12
_symmetry_cell_setting 'monoclinic'
loop_
_space_group_symop_operation_xyz
x,y,z
-x,y,-z
-x,-y,-z
x,-y,z
1/2+x,1/2+y,z
1/2-x,1/2+y,-z
1/2-x,1/2-y,-z
1/2+x,1/2-y,z
loop_
_atom_site_type_symbol
_atom_site_label
_atom_site_fract_x
_atom_site_fract_y
_atom_site_fract_z
Si Si1 0.500000 0.231532 0.500000
Si Si2 0.898128 0.317241 0.298684
Si Si3 0.504328 0.816915 0.275041
Si Si4 0.909605 0.184717 0.891907
Si Si5 0.853622 0.817280 0.125651
Si Si6 0.159147 0.816975 0.248088
Si Si7 0.392461 0.173132 0.530268
Si Si8 0.243042 0.684188 0.890774
O O1 0.491917 0.284654 0.623044
O O2 0.448128 0.166123 0.513235
O O3 0.889844 0.500000 0.298491
O O4 0.871770 0.235396 0.224112
O O5 0.884579 0.263745 0.421225
O O6 0.953581 0.295282 0.259224
O O7 0.544017 0.767783 0.173002
O O8 0.508896 0.000000 0.300043
O O9 0.870155 0.228693 0.833886
O O10 0.915927 0.000000 0.883838
O O11 0.890896 0.226029 0.015156
O O12 0.804710 0.742861 0.126874
O O13 0.848544 0.000000 0.124838
O O14 0.132653 0.761426 0.364398
O O15 0.212090 0.765531 0.202460
O O16 0.159596 0.000000 0.249206
O O17 0.375146 0.000000 0.543331
O O18 0.242614 0.500000 0.896346
O O19 0.250000 0.750000 0.000000
#
# Coordination Sequence:
#
# PCOD9170259 Si02
#       8
#     4   8   8   8   8   8   8   8
#     4  10  17  30  53  82 113 146 185 232 277 320
#     4   9  21  39  57  82 116 153 193 238 280 329
#     4  10  19  33  55  82 113 151 194 232 275 335
#     4  10  21  36  53  81 119 149 182 233 285 333
#     4  11  23  41  61  82 113 151 194 237 284 342
#     4  10  21  37  55  84 121 146 176 232 290 338
#     4  10  19  34  58  84 114 149 190 234 278 333
#     4  11  22  39  62  87 116 147 185 236 290 340
#
# _framework density 18.165900000000001
#
# number of rings (size 3 to 8) (size 9 to 14) (size 15 to 20)
#    0.000    1.867    2.667    2.800    0.000    3.733 
#    0.000    6.000    0.000    0.000    0.000    0.000 
#    0.000    0.000    0.000    0.000    0.000    0.000 
#
# Total GULP energy -167159.770206 kJ/mol
# GULP energy per Si atom -5571.992340 kJ/mol
# Density = 1.812455 g / cm^3
# Si number density = 18.165900 Si / 1000 Ang^3
#
#
#
# Elastic Constant Matrix: (Units=GPa)
#
#
# Indices 1 2 3 4 5 6 
#
# 1 89.0034 29.4834 65.1024 0.0000 8.3225 0.0000
# 2 29.4834 26.5556 29.6906 0.0000 1.8125 0.0000
# 3 65.1024 29.6906 134.4962 0.0000 5.0085 0.0000
# 4 0.0000 0.0000 0.0000 17.4333 0.0000 12.4879
# 5 8.3225 1.8125 5.0085 0.0000 35.1426 0.0000
# 6 0.0000 0.0000 0.0000 12.4879 0.0000 7.4665
#
#
#
# Elastic Compliance Matrix: (Units=1/GPa)
#
#
# Indices 1 2 3 4 5 6 
#
# 1 0.022100 -0.016577 -0.006911 0.000000 -0.003394 0.000000
# 2 -0.016577 0.062467 -0.005823 0.000000 0.001534 0.000000
# 3 -0.006911 -0.005823 0.012058 0.000000 0.000219 0.000000
# 4 0.000000 0.000000 0.000000 -0.289582 0.000000 0.484336
# 5 -0.003394 0.001534 0.000219 0.000000 0.029149 0.000000
# 6 0.000000 0.000000 0.000000 0.484336 0.000000 -0.676137
#
#
# Mechanical properties :
#
#
# Convention : Reuss Voigt Hill
#
# Bulk Modulus (GPa) = 26.31454 55.40089 40.85772
# Shear Modulus (GPa) = -6.50487 20.39373 6.94443
#
# Velocity S-wave (km/s) = -1.89436 3.35421 1.95731
# Velocity P-wave (km/s) = 3.11967 6.75014 5.25817
#
# Compressibility (1/GPa) = 0.03800180
#
# Stress axis : x y z
#
# Youngs Moduli (GPa) = 45.24958 16.00839 82.93328
#
# Poissons Ratio (x) = 0.26537 0.57319
# Poissons Ratio (y) = 0.75011 0.48291
# Poissons Ratio (z) = 0.31274 0.09322
#
# Static dielectric constant tensor:
#      x y z
#    x 1.600590 0.000000 -0.004330 
#    y 0.000000 1.634540 0.000000 
#    z -0.004330 0.000000 1.620720 
# 
# From -- ./inp_files/187336.got.cif
#   From: 2010.05.17/outbox.cif.g08.bks.cpg/sg12_94_cif.got.tgz:187336.got - 2010.06.03 13:09:07.
