data_PCOD9170019
_publ_section_title
;
Structure prediction by ZEFSAII (Michael W. Deem and Ramdas Pophale) SiO2 
 PCOD9170019
Probable space group: C 2/M
;
_chemical_formula_sum "Si O2"
_cell_formula_units_Z 56
_cell_length_a 21.767131
_cell_length_b 13.370141
_cell_length_c 12.342011
_cell_angle_alpha 90.000000
_cell_angle_beta 65.170343
_cell_angle_gamma 90.000000
_cell_volume 3259.857158
_symmetry_space_group_name_H-M "C 2/M"
_symmetry_group_IT_number 12
_symmetry_cell_setting 'monoclinic'
loop_
_space_group_symop_operation_xyz
x,y,z
-x,y,-z
-x,-y,-z
x,-y,z
1/2+x,1/2+y,z
1/2-x,1/2+y,-z
1/2-x,1/2-y,-z
1/2+x,1/2-y,z
loop_
_atom_site_type_symbol
_atom_site_label
_atom_site_fract_x
_atom_site_fract_y
_atom_site_fract_z
Si Si1 0.434694 0.379439 0.824701
Si Si2 0.647016 0.677145 0.548631
Si Si3 0.429574 0.268558 0.604420
Si Si4 0.173785 0.122002 0.927525
Si Si5 0.072205 0.883831 0.817826
Si Si6 0.688386 0.884722 0.269860
Si Si7 0.794896 0.611940 0.488008
O O1 0.438599 0.500000 0.816461
O O2 0.443113 0.334742 0.699786
O O3 0.496483 0.343711 0.856109
O O4 0.363493 0.352415 0.933283
O O5 0.608859 0.671816 0.462910
O O6 0.607503 0.624601 0.674693
O O7 0.722777 0.633783 0.486667
O O8 0.655715 0.795270 0.571581
O O9 0.500000 0.232407 0.500000
O O10 0.379019 0.180533 0.677790
O O11 0.123639 0.158434 0.868843
O O12 0.250351 0.155717 0.849183
O O13 0.177009 0.000000 0.918058
O O14 0.063957 0.000000 0.854231
O O15 0.715840 0.884279 0.373733
O O16 0.673769 0.000000 0.252433
O O17 0.819046 0.500000 0.443531
#
# Coordination Sequence:
#
# PCOD9170019 Si02
#       7
#     8   8   8   8   8   8   8
#     4  10  21  33  47  71 104 136 158 188 239 297
#     4  10  18  29  49  72  97 128 159 195 240 295
#     4  11  22  34  46  70 105 134 161 190 235 302
#     4   9  17  32  53  75  94 119 165 209 242 279
#     4  10  17  29  51  74  97 124 156 201 246 280
#     4   9  18  33  54  73  92 123 165 213 247 269
#     4   9  17  30  48  73  98 123 158 204 246 278
#
# _framework density 17.178667000000001
#
# number of rings (size 3 to 8) (size 9 to 14) (size 15 to 20)
#    0.000    2.286    2.857    0.857    0.000    4.000 
#    0.000    0.000    0.000    0.000    0.000    0.000 
#    0.000    2.286    0.000    0.000    0.000    0.000 
#
# Total GULP energy -155983.213137 kJ/mol
# GULP energy per Si atom -5570.829041 kJ/mol
# Density = 1.713957 g / cm^3
# Si number density = 17.178667 Si / 1000 Ang^3
#
#
#
# Elastic Constant Matrix: (Units=GPa)
#
#
# Indices 1 2 3 4 5 6 
#
# 1 77.7867 15.6527 35.4317 0.0000 -17.3668 0.0000
# 2 15.6527 38.2902 13.3126 0.0000 -3.1877 0.0000
# 3 35.4317 13.3126 73.0283 0.0000 -21.9760 0.0000
# 4 0.0000 0.0000 0.0000 15.2666 0.0000 -5.7415
# 5 -17.3668 -3.1877 -21.9760 0.0000 27.1028 0.0000
# 6 0.0000 0.0000 0.0000 -5.7415 0.0000 13.5464
#
#
#
# Elastic Compliance Matrix: (Units=1/GPa)
#
#
# Indices 1 2 3 4 5 6 
#
# 1 0.017888 -0.004723 -0.006000 0.000000 0.006042 0.000000
# 2 -0.004723 0.029156 -0.003839 0.000000 -0.002710 0.000000
# 3 -0.006000 -0.003839 0.021179 0.000000 0.012877 0.000000
# 4 0.000000 0.000000 0.000000 0.077923 0.000000 0.033027
# 5 0.006042 -0.002710 0.012877 0.000000 0.050890 0.000000
# 6 0.000000 0.000000 0.000000 0.033027 0.000000 0.087818
#
#
# Mechanical properties :
#
#
# Convention : Reuss Voigt Hill
#
# Bulk Modulus (GPa) = 25.57593 35.32214 30.44903
# Shear Modulus (GPa) = 15.28997 19.49704 17.39351
#
# Velocity S-wave (km/s) = 2.98662 3.37257 3.18544
# Velocity P-wave (km/s) = 5.17819 5.98096 5.59399
#
# Compressibility (1/GPa) = 0.03909926
#
# Stress axis : x y z
#
# Youngs Moduli (GPa) = 55.90382 34.29792 47.21680
#
# Poissons Ratio (x) = 0.16201 0.28328
# Poissons Ratio (y) = 0.26406 0.18126
# Poissons Ratio (z) = 0.33540 0.13166
#
# Static dielectric constant tensor:
#      x y z
#    x 1.610650 0.000000 -0.013210 
#    y 0.000000 1.583430 0.000000 
#    z -0.013210 0.000000 1.585930 
# 
# From -- ./inp_files/156003.got.cif
#   From: 2010.05.17/outbox.cif.g08.bks.cpg/sg12_79_cif.got.tgz:156003.got - 2010.06.03 13:09:07.
