data_PCOD9170671
_publ_section_title
;
Structure prediction by ZEFSAII (Michael W. Deem and Ramdas Pophale) SiO2 
 PCOD9170671
Probable space group: C 2/M
;
_chemical_formula_sum "Si O2"
_cell_formula_units_Z 48
_cell_length_a 25.345845
_cell_length_b 14.981305
_cell_length_c 19.823202
_cell_angle_alpha 90.000000
_cell_angle_beta 20.651225
_cell_angle_gamma 90.000000
_cell_volume 2654.661019
_symmetry_space_group_name_H-M "C 2/M"
_symmetry_group_IT_number 12
_symmetry_cell_setting 'monoclinic'
loop_
_space_group_symop_operation_xyz
x,y,z
-x,y,-z
-x,-y,-z
x,-y,z
1/2+x,1/2+y,z
1/2-x,1/2+y,-z
1/2-x,1/2-y,-z
1/2+x,1/2-y,z
loop_
_atom_site_type_symbol
_atom_site_label
_atom_site_fract_x
_atom_site_fract_y
_atom_site_fract_z
Si Si1 0.834457 0.902256 0.668658
Si Si2 0.340441 0.838454 0.870873
Si Si3 0.433048 0.899267 0.908482
Si Si4 0.882555 0.233600 0.494306
Si Si5 0.130156 0.231731 0.701747
Si Si6 0.525365 0.397506 0.208393
O O1 0.831687 0.822455 0.619377
O O2 0.000000 0.904143 0.500000
O O3 0.803195 0.000000 0.674069
O O4 0.721992 0.892918 0.865542
O O5 0.403850 0.880325 0.864356
O O6 0.482402 0.804362 0.658014
O O7 0.250000 0.750000 0.000000
O O8 0.206164 0.894513 0.998761
O O9 0.535881 0.822751 0.816922
O O10 0.492428 0.000000 0.845437
O O11 0.735426 0.280816 0.640064
O O12 0.950959 0.161210 0.358217
O O13 0.250000 0.250000 0.500000
O O14 0.027672 0.151869 0.796566
O O15 0.475544 0.500000 0.271508
#
# Coordination Sequence:
#
# PCOD9170671 Si02
#       6
#     8   8   8   8   8   8
#     4  10  21  34  54  86 120 152 183 221 285 350
#     4  10  17  33  55  77 111 143 194 231 267 327
#     4  11  21  34  55  85 120 149 181 230 281 338
#     4  10  20  35  53  79 119 147 185 228 276 344
#     4  10  20  36  51  79 115 148 191 228 277 337
#     4  10  19  32  55  81 109 144 188 242 282 319
#
# _framework density 18.081405
#
# number of rings (size 3 to 8) (size 9 to 14) (size 15 to 20)
#    0.000    1.833    5.000    3.000    0.000    5.333 
#    0.000    1.667    0.000    0.000    0.000    5.833 
#    0.000    0.000    0.000    0.000    0.000    0.000 
#
# Total GULP energy -133695.814272 kJ/mol
# GULP energy per Si atom -5570.658928 kJ/mol
# Density = 1.804025 g / cm^3
# Si number density = 18.081405 Si / 1000 Ang^3
#
#
#
# Elastic Constant Matrix: (Units=GPa)
#
#
# Indices 1 2 3 4 5 6 
#
# 1 34.7809 4.3800 -0.9974 0.0005 -6.4101 -0.0003
# 2 4.3800 68.6232 17.1153 0.0007 -1.5782 -0.0005
# 3 -0.9974 17.1153 56.2712 0.0009 -9.2985 -0.0007
# 4 0.0005 0.0007 0.0009 20.5086 -0.0006 14.7536
# 5 -6.4101 -1.5782 -9.2985 -0.0006 28.9379 0.0004
# 6 -0.0003 -0.0005 -0.0007 14.7536 0.0004 4.9089
#
#
#
# Elastic Compliance Matrix: (Units=1/GPa)
#
#
# Indices 1 2 3 4 5 6 
#
# 1 0.030494 -0.002398 0.002497 0.000001 0.007426 -0.000003
# 2 -0.002398 0.015971 -0.005116 0.000001 -0.001304 -0.000002
# 3 0.002497 -0.005116 0.020505 0.000002 0.006863 -0.000003
# 4 0.000001 0.000001 0.000002 -0.041958 -0.000002 0.126105
# 5 0.007426 -0.001304 0.006863 -0.000002 0.038336 0.000003
# 6 -0.000003 -0.000002 -0.000003 0.126105 0.000003 -0.175295
#
#
# Mechanical properties :
#
#
# Convention : Reuss Voigt Hill
#
# Bulk Modulus (GPa) = 17.56344 22.29678 19.93011
# Shear Modulus (GPa) = -60.28882 20.14957 -20.06962
#
# Velocity S-wave (km/s) = -5.78060 3.34186 -3.33522
# Velocity P-wave (km/s) = 5.90078 5.22004 1.94556
#
# Compressibility (1/GPa) = 0.05693645
#
# Stress axis : x y z
#
# Youngs Moduli (GPa) = 32.79370 62.61209 48.76752
#
# Poissons Ratio (x) = 0.15017 -0.12178
# Poissons Ratio (y) = 0.07865 0.24949
# Poissons Ratio (z) = -0.08189 0.32031
#
# Static dielectric constant tensor:
#      x y z
#    x 1.653220 0.000000 -0.018810 
#    y 0.000000 1.650020 0.000000 
#    z -0.018810 0.000000 1.615850 
# 
# From -- ./inp_files/328207.got.cif
#   From: 2010.05.17/outbox.cif.g08.bks.cpg/sg12_165_cif.got.tgz:328207.got - 2010.06.03 13:09:07.
