data_PCOD9170670
_publ_section_title
;
Structure prediction by ZEFSAII (Michael W. Deem and Ramdas Pophale) SiO2 
 PCOD9170670
Probable space group: C 2/M
;
_chemical_formula_sum "Si O2"
_cell_formula_units_Z 48
_cell_length_a 16.292235
_cell_length_b 17.915029
_cell_length_c 16.353298
_cell_angle_alpha 90.000000
_cell_angle_beta 145.401504
_cell_angle_gamma 90.000000
_cell_volume 2710.290560
_symmetry_space_group_name_H-M "C 2/M"
_symmetry_group_IT_number 12
_symmetry_cell_setting 'monoclinic'
loop_
_space_group_symop_operation_xyz
x,y,z
-x,y,-z
-x,-y,-z
x,-y,z
1/2+x,1/2+y,z
1/2-x,1/2+y,-z
1/2-x,1/2-y,-z
1/2+x,1/2-y,z
loop_
_atom_site_type_symbol
_atom_site_label
_atom_site_fract_x
_atom_site_fract_y
_atom_site_fract_z
Si Si1 0.115621 0.703829 0.429075
Si Si2 0.521861 0.692283 0.923791
Si Si3 0.556705 0.585939 0.803570
Si Si4 0.264215 0.414357 0.456261
Si Si5 0.768369 0.216771 0.330945
Si Si6 0.815754 0.218444 0.178627
O O1 0.250000 0.750000 0.500000
O O2 0.144953 0.621532 0.419383
O O3 0.137358 0.721775 0.542477
O O4 0.962582 0.737165 0.277075
O O5 0.515819 0.624379 0.855705
O O6 0.394027 0.750889 0.800965
O O7 0.500000 0.668222 0.000000
O O8 0.674992 0.733998 0.041351
O O9 0.599870 0.500000 0.848052
O O10 0.416050 0.589039 0.629465
O O11 0.675178 0.639339 0.859114
O O12 0.233998 0.500000 0.410671
O O13 0.275893 0.360315 0.387436
O O14 0.814354 0.207069 0.275307
#
# Coordination Sequence:
#
# PCOD9170670 Si02
#       6
#     8   8   8   8   8   8
#     4  10  17  33  55  77 107 141 183 219 259 313
#     4  10  22  39  58  81 107 146 189 227 266 321
#     4  11  21  35  55  82 113 145 179 225 276 326
#     4  10  20  34  56  83 114 145 177 224 276 324
#     4  10  19  36  58  81 110 143 183 225 270 318
#     4  11  21  35  58  85 109 142 185 227 268 326
#
# _framework density 17.710277999999999
#
# number of rings (size 3 to 8) (size 9 to 14) (size 15 to 20)
#    0.000    1.667    5.000    2.000    0.000    1.000 
#    0.000    5.000    0.000    6.000    0.000    0.000 
#    0.000    0.000    0.000    0.000    0.000    0.000 
#
# Total GULP energy -133908.526169 kJ/mol
# GULP energy per Si atom -5579.521924 kJ/mol
# Density = 1.766997 g / cm^3
# Si number density = 17.710278 Si / 1000 Ang^3
#
#
#
# Elastic Constant Matrix: (Units=GPa)
#
#
# Indices 1 2 3 4 5 6 
#
# 1 82.5642 30.9406 19.8001 -0.0001 -2.4093 0.0000
# 2 30.9406 73.9918 7.9952 -0.0003 -3.3886 -0.0001
# 3 19.8001 7.9952 61.0689 -0.0003 6.0112 -0.0001
# 4 -0.0001 -0.0003 -0.0003 17.0645 -0.0002 -5.4508
# 5 -2.4093 -3.3886 6.0112 -0.0002 35.9604 0.0000
# 6 0.0000 -0.0001 -0.0001 -5.4508 0.0000 12.8578
#
#
#
# Elastic Compliance Matrix: (Units=1/GPa)
#
#
# Indices 1 2 3 4 5 6 
#
# 1 0.015405 -0.005918 -0.004338 0.000000 0.001200 0.000000
# 2 -0.005918 0.016076 -0.000301 0.000000 0.001169 0.000000
# 3 -0.004338 -0.000301 0.018151 0.000000 -0.003353 0.000000
# 4 0.000000 0.000000 0.000000 0.067779 0.000000 0.028734
# 5 0.001200 0.001169 -0.003353 0.000000 0.028559 0.000000
# 6 0.000000 0.000000 0.000000 0.028734 0.000000 0.089955
#
#
# Mechanical properties :
#
#
# Convention : Reuss Voigt Hill
#
# Bulk Modulus (GPa) = 35.06593 37.23296 36.14944
# Shear Modulus (GPa) = 18.75857 23.76916 21.26387
#
# Velocity S-wave (km/s) = 3.25805 3.66746 3.46880
# Velocity P-wave (km/s) = 5.83060 6.24521 6.04147
#
# Compressibility (1/GPa) = 0.02851771
#
# Stress axis : x y z
#
# Youngs Moduli (GPa) = 64.91461 62.20553 55.09380
#
# Poissons Ratio (x) = 0.36814 0.23899
# Poissons Ratio (y) = 0.38417 0.01658
# Poissons Ratio (z) = 0.28159 0.01872
#
# Static dielectric constant tensor:
#      x y z
#    x 1.643670 0.000000 -0.019300 
#    y 0.000000 1.595750 0.000000 
#    z -0.019300 0.000000 1.626540 
# 
# From -- ./inp_files/278612.got.cif
#   From: 2010.05.17/outbox.cif.g08.bks.cpg/sg12_140_cif.got.tgz:278612.got - 2010.06.03 13:09:07.
