data_PCOD9170332
_publ_section_title
;
Structure prediction by ZEFSAII (Michael W. Deem and Ramdas Pophale) SiO2 
 PCOD9170332
Probable space group: C 2/M
;
_chemical_formula_sum "Si O2"
_cell_formula_units_Z 52
_cell_length_a 15.283701
_cell_length_b 23.007524
_cell_length_c 10.969700
_cell_angle_alpha 90.000000
_cell_angle_beta 59.854483
_cell_angle_gamma 90.000000
_cell_volume 3335.685617
_symmetry_space_group_name_H-M "C 2/M"
_symmetry_group_IT_number 12
_symmetry_cell_setting 'monoclinic'
loop_
_space_group_symop_operation_xyz
x,y,z
-x,y,-z
-x,-y,-z
x,-y,z
1/2+x,1/2+y,z
1/2-x,1/2+y,-z
1/2-x,1/2-y,-z
1/2+x,1/2-y,z
loop_
_atom_site_type_symbol
_atom_site_label
_atom_site_fract_x
_atom_site_fract_y
_atom_site_fract_z
Si Si1 0.088281 0.354767 0.344411
Si Si2 0.701153 0.155776 0.494668
Si Si3 0.118392 0.761865 0.182029
Si Si4 0.611123 0.276398 0.654491
Si Si5 0.453654 0.932054 0.283652
Si Si6 0.000000 0.372957 0.000000
Si Si7 0.833784 0.727215 0.118763
O O1 0.183465 0.361264 0.366114
O O2 0.107769 0.305557 0.230989
O O3 0.000000 0.335196 0.500000
O O4 0.042027 0.411511 0.314364
O O5 0.645671 0.217625 0.560501
O O6 0.817339 0.170982 0.436695
O O7 0.643896 0.107144 0.612863
O O8 0.213768 0.785486 0.191842
O O9 0.007251 0.787474 0.280768
O O10 0.142072 0.763196 0.021373
O O11 0.636464 0.260677 0.778330
O O12 0.433713 0.000000 0.305982
O O13 0.490058 0.912268 0.125709
O O14 0.096710 0.329980 0.935137
#
# Coordination Sequence:
#
# PCOD9170332 Si02
#       7
#     8   8   8   8   8   4   8
#     4  10  17  31  45  68 101 132 165 206 251 302
#     4  10  20  30  50  70 102 135 168 209 255 311
#     4  11  19  29  47  77 104 139 168 201 255 318
#     4  11  18  32  48  74 108 137 166 210 260 313
#     4  11  22  35  53  74 100 139 179 217 260 303
#     4  12  19  38  50  76 108 134 173 216 258 310
#     4  11  19  29  52  72 106 142 166 203 261 311
#
# _framework density 15.589
#
# number of rings (size 3 to 8) (size 9 to 14) (size 15 to 20)
#    0.000    1.231    9.231    0.231    0.000    2.769 
#    0.000    0.000    0.000    0.000    0.000    3.231 
#    0.000    2.462    0.000    0.000    0.000    0.000 
#
# Total GULP energy -144873.827545 kJ/mol
# GULP energy per Si atom -5572.070290 kJ/mol
# Density = 1.555352 g / cm^3
# Si number density = 15.589000 Si / 1000 Ang^3
#
#
#
# Elastic Constant Matrix: (Units=GPa)
#
#
# Indices 1 2 3 4 5 6 
#
# 1 102.0865 33.6514 26.4909 0.0000 -26.3271 0.0000
# 2 33.6514 82.7702 25.3191 0.0000 -8.9604 0.0000
# 3 26.4909 25.3191 53.2500 0.0000 0.0011 0.0000
# 4 0.0000 0.0000 0.0000 12.3129 0.0000 -4.4269
# 5 -26.3271 -8.9604 0.0011 0.0000 34.0712 0.0000
# 6 0.0000 0.0000 0.0000 -4.4269 0.0000 12.6495
#
#
#
# Elastic Compliance Matrix: (Units=1/GPa)
#
#
# Indices 1 2 3 4 5 6 
#
# 1 0.015234 -0.003148 -0.006082 0.000000 0.010944 0.000000
# 2 -0.003148 0.015276 -0.005697 0.000000 0.001585 0.000000
# 3 -0.006082 -0.005697 0.024514 0.000000 -0.006199 0.000000
# 4 0.000000 0.000000 0.000000 0.092905 0.000000 0.032514
# 5 0.010944 0.001585 -0.006199 0.000000 0.038223 0.000000
# 6 0.000000 0.000000 0.000000 0.032514 0.000000 0.090433
#
#
# Mechanical properties :
#
#
# Convention : Reuss Voigt Hill
#
# Bulk Modulus (GPa) = 39.73129 45.44770 42.58949
# Shear Modulus (GPa) = 15.88159 21.98308 18.93234
#
# Velocity S-wave (km/s) = 3.19528 3.75929 3.48870
# Velocity P-wave (km/s) = 6.25741 6.93253 6.60360
#
# Compressibility (1/GPa) = 0.02516908
#
# Stress axis : x y z
#
# Youngs Moduli (GPa) = 65.64319 65.46228 40.79322
#
# Poissons Ratio (x) = 0.20610 0.24810
# Poissons Ratio (y) = 0.20667 0.23240
# Poissons Ratio (z) = 0.39923 0.37294
#
# Static dielectric constant tensor:
#      x y z
#    x 1.580900 0.000000 0.006690 
#    y 0.000000 1.478910 0.000000 
#    z 0.006690 0.000000 1.560560 
# 
# From -- ./inp_files/146990.got.cif
#   From: 2010.05.17/outbox.cif.g08.bks.cpg/sg12_74_cif.got.tgz:146990.got - 2010.06.03 13:09:07.
