data_PCOD9170521
_publ_section_title
;
Structure prediction by ZEFSAII (Michael W. Deem and Ramdas Pophale) SiO2 
 PCOD9170521
Probable space group: C 2/M
;
_chemical_formula_sum "Si O2"
_cell_formula_units_Z 60
_cell_length_a 23.017031
_cell_length_b 15.842794
_cell_length_c 20.502760
_cell_angle_alpha 90.000000
_cell_angle_beta 153.032993
_cell_angle_gamma 90.000000
_cell_volume 3390.384909
_symmetry_space_group_name_H-M "C 2/M"
_symmetry_group_IT_number 12
_symmetry_cell_setting 'monoclinic'
loop_
_space_group_symop_operation_xyz
x,y,z
-x,y,-z
-x,-y,-z
x,-y,z
1/2+x,1/2+y,z
1/2-x,1/2+y,-z
1/2-x,1/2-y,-z
1/2+x,1/2-y,z
loop_
_atom_site_type_symbol
_atom_site_label
_atom_site_fract_x
_atom_site_fract_y
_atom_site_fract_z
Si Si1 0.247368 0.095657 0.545388
Si Si2 0.500000 0.283668 0.000000
Si Si3 0.357508 0.249697 0.734080
Si Si4 0.501484 0.684342 0.252076
Si Si5 0.676203 0.095938 0.596688
Si Si6 0.723481 0.599306 0.167303
Si Si7 0.972898 0.362924 0.670085
Si Si8 0.748738 0.402505 0.042043
O O1 0.281760 0.168872 0.631431
O O2 0.105788 0.114489 0.376219
O O3 0.351082 0.108426 0.591034
O O4 0.256897 0.000000 0.579135
O O5 0.566280 0.231335 0.123568
O O6 0.604881 0.344624 0.072161
O O7 0.452562 0.278960 0.771682
O O8 0.267889 0.330415 0.660617
O O9 0.517209 0.761964 0.317434
O O10 0.357434 0.651599 0.101363
O O11 0.670994 0.108595 0.669518
O O12 0.550483 0.103454 0.426274
O O13 0.727104 0.000000 0.637903
O O14 0.689139 0.500000 0.132006
O O15 0.754286 0.623088 0.124030
O O16 0.104729 0.394467 0.833689
O O17 0.708979 0.500000 0.998667
#
# Coordination Sequence:
#
# PCOD9170521 Si02
#       8
#     8   4   8   8   8   8   8   8
#     4  11  21  36  56  78 103 136 179 224 263 303
#     4  10  17  32  53  72 106 134 170 216 266 298
#     4  10  19  33  53  79 101 132 175 218 258 308
#     4  11  20  36  52  77 103 139 180 217 252 311
#     4  10  18  31  52  76 103 137 171 206 254 310
#     4   9  19  30  47  75 106 139 173 206 248 312
#     4  11  21  35  52  75 109 142 174 212 264 313
#     4  11  22  34  49  77 111 142 174 210 259 311
#
# _framework density 17.697106000000002
#
# number of rings (size 3 to 8) (size 9 to 14) (size 15 to 20)
#    0.000    1.600    4.000    3.000    0.000    1.600 
#    0.000    2.333    0.000    0.000    0.000    0.000 
#    0.000    4.267    0.000    0.000    0.000    0.000 
#
# Total GULP energy -167285.632705 kJ/mol
# GULP energy per Si atom -5576.187757 kJ/mol
# Density = 1.765683 g / cm^3
# Si number density = 17.697106 Si / 1000 Ang^3
#
#
#
# Elastic Constant Matrix: (Units=GPa)
#
#
# Indices 1 2 3 4 5 6 
#
# 1 28.2104 12.4781 16.3867 -0.0001 -9.5162 0.0000
# 2 12.4781 87.4310 34.6780 -0.0001 -8.6432 0.0000
# 3 16.3867 34.6780 116.2103 -0.0002 -7.8283 0.0000
# 4 -0.0001 -0.0001 -0.0002 26.7057 -0.0001 -1.5052
# 5 -9.5162 -8.6432 -7.8283 -0.0001 25.7905 0.0000
# 6 0.0000 0.0000 0.0000 -1.5052 0.0000 5.4154
#
#
#
# Elastic Compliance Matrix: (Units=1/GPa)
#
#
# Indices 1 2 3 4 5 6 
#
# 1 0.044054 -0.003202 -0.004322 0.000000 0.013870 0.000000
# 2 -0.003202 0.013476 -0.003415 0.000000 0.002298 0.000000
# 3 -0.004322 -0.003415 0.010259 0.000000 0.000375 0.000000
# 4 0.000000 0.000000 0.000000 0.038041 0.000000 0.010574
# 5 0.013870 0.002298 0.000375 0.000000 0.044776 0.000000
# 6 0.000000 0.000000 0.000000 0.010574 0.000000 0.187596
#
#
# Mechanical properties :
#
#
# Convention : Reuss Voigt Hill
#
# Bulk Modulus (GPa) = 21.78149 39.88190 30.83170
# Shear Modulus (GPa) = 13.31971 22.80293 18.06132
#
# Velocity S-wave (km/s) = 2.74642 3.59348 3.19812
# Velocity P-wave (km/s) = 4.73199 6.30890 5.57647
#
# Compressibility (1/GPa) = 0.04591053
#
# Stress axis : x y z
#
# Youngs Moduli (GPa) = 22.69963 74.20435 97.47643
#
# Poissons Ratio (x) = 0.23759 0.42131
# Poissons Ratio (y) = 0.07268 0.33289
# Poissons Ratio (z) = 0.09811 0.25342
#
# Static dielectric constant tensor:
#      x y z
#    x 1.606560 0.000000 0.005390 
#    y 0.000000 1.600380 0.000000 
#    z 0.005390 0.000000 1.646310 
# 
# From -- ./inp_files/325558.got.cif
#   From: 2010.05.17/outbox.cif.g08.bks.cpg/sg12_163_cif.got.tgz:325558.got - 2010.06.03 13:09:07.
