data_PCOD9170014
_publ_section_title
;
Structure prediction by ZEFSAII (Michael W. Deem and Ramdas Pophale) SiO2 
 PCOD9170014
Probable space group: C 2/M
;
_chemical_formula_sum "Si O2"
_cell_formula_units_Z 48
_cell_length_a 22.539345
_cell_length_b 16.313132
_cell_length_c 6.113793
_cell_angle_alpha 90.000000
_cell_angle_beta 83.125617
_cell_angle_gamma 90.000000
_cell_volume 2231.803390
_symmetry_space_group_name_H-M "C 2/M"
_symmetry_group_IT_number 12
_symmetry_cell_setting 'monoclinic'
loop_
_space_group_symop_operation_xyz
x,y,z
-x,y,-z
-x,-y,-z
x,-y,z
1/2+x,1/2+y,z
1/2-x,1/2+y,-z
1/2-x,1/2-y,-z
1/2+x,1/2-y,z
loop_
_atom_site_type_symbol
_atom_site_label
_atom_site_fract_x
_atom_site_fract_y
_atom_site_fract_z
Si Si1 0.478563 0.885778 0.758990
Si Si2 0.354967 0.307939 0.964268
Si Si3 0.141448 0.653202 0.343713
Si Si4 0.883984 0.093198 0.565190
Si Si5 0.266676 0.337742 0.382737
Si Si6 0.938749 0.242191 0.308721
O O1 0.500000 0.915060 0.500000
O O2 0.407437 0.895986 0.773648
O O3 0.499197 0.790069 0.737961
O O4 0.500000 0.910723 0.000000
O O5 0.297022 0.322300 0.135815
O O6 0.409137 0.281406 0.094589
O O7 0.343367 0.233796 0.804116
O O8 0.374634 0.387824 0.823582
O O9 0.204013 0.615176 0.386248
O O10 0.105472 0.689083 0.567189
O O11 0.819363 0.116525 0.489511
O O12 0.931061 0.159976 0.453498
O O13 0.899847 0.000000 0.510862
O O14 0.250000 0.250000 0.500000
#
# Coordination Sequence:
#
# PCOD9170014 Si02
#       6
#     8   8   8   8   8   8
#     4  10  19  31  51  79 110 142 175 227 286 326
#     4  10  17  29  51  70 102 134 178 218 276 325
#     4  10  18  29  48  79 104 133 168 225 281 326
#     4  10  22  35  50  75 111 149 188 225 271 329
#     4  11  19  31  52  80 102 133 176 229 283 332
#     4   9  18  32  51  72 102 140 177 220 272 324
#
# _framework density 21.507269999999998
#
# number of rings (size 3 to 8) (size 9 to 14) (size 15 to 20)
#    0.000    2.000    6.667    0.500    0.000    2.667 
#    0.000    0.000    0.000   13.000    0.000    0.000 
#    0.000    6.667    0.000    0.500    0.000    0.000 
#
# Total GULP energy -133669.512066 kJ/mol
# GULP energy per Si atom -5569.563003 kJ/mol
# Density = 2.145832 g / cm^3
# Si number density = 21.507270 Si / 1000 Ang^3
#
#
#
# Elastic Constant Matrix: (Units=GPa)
#
#
# Indices 1 2 3 4 5 6 
#
# 1 119.9772 22.7901 25.8399 0.0000 14.1509 0.0000
# 2 22.7901 94.1580 12.3070 0.0000 -1.2797 0.0000
# 3 25.8399 12.3070 115.1619 0.0000 2.9806 0.0000
# 4 0.0000 0.0000 0.0000 127.8739 0.0000 -26.1184
# 5 14.1509 -1.2797 2.9806 0.0000 39.3357 0.0000
# 6 0.0000 0.0000 0.0000 -26.1184 0.0000 5.4855
#
#
#
# Elastic Compliance Matrix: (Units=1/GPa)
#
#
# Indices 1 2 3 4 5 6 
#
# 1 0.009525 -0.002113 -0.001825 0.000000 -0.003357 0.000000
# 2 -0.002113 0.011247 -0.000759 0.000000 0.001183 0.000000
# 3 -0.001825 -0.000759 0.009176 0.000000 -0.000064 0.000000
# 4 0.000000 0.000000 0.000000 0.284483 0.000000 1.354522
# 5 -0.003357 0.001183 -0.000064 0.000000 0.026673 0.000000
# 6 0.000000 0.000000 0.000000 1.354522 0.000000 6.631655
#
#
# Mechanical properties :
#
#
# Convention : Reuss Voigt Hill
#
# Bulk Modulus (GPa) = 48.64709 50.13012 49.38860
# Shear Modulus (GPa) = 0.71541 52.42969 26.57255
#
# Velocity S-wave (km/s) = 0.57737 4.94273 3.51880
# Velocity P-wave (km/s) = 4.80754 7.47885 6.28672
#
# Compressibility (1/GPa) = 0.02055622
#
# Stress axis : x y z
#
# Youngs Moduli (GPa) = 104.98531 88.91247 108.98552
#
# Poissons Ratio (x) = 0.18784 0.19885
# Poissons Ratio (y) = 0.22179 0.08267
# Poissons Ratio (z) = 0.19155 0.06744
#
# Static dielectric constant tensor:
#      x y z
#    x 1.828550 0.000000 0.025800 
#    y 0.000000 1.776720 0.000000 
#    z 0.025800 0.000000 1.861310 
# 
# From -- ./inp_files/25249.got.cif
#   From: 2010.05.17/outbox.cif.g08.bks.cpg/sg12_13_cif.got.tgz:25249.got - 2010.06.03 13:09:07.
