data_PCOD9170891
_publ_section_title
;
Structure prediction by ZEFSAII (Michael W. Deem and Ramdas Pophale) SiO2 
 PCOD9170891
Probable space group: C 2/M
;
_chemical_formula_sum "Si O2"
_cell_formula_units_Z 48
_cell_length_a 18.945475
_cell_length_b 18.372781
_cell_length_c 25.954178
_cell_angle_alpha 90.000000
_cell_angle_beta 162.386333
_cell_angle_gamma 90.000000
_cell_volume 2733.711334
_symmetry_space_group_name_H-M "C 2/M"
_symmetry_group_IT_number 12
_symmetry_cell_setting 'monoclinic'
loop_
_space_group_symop_operation_xyz
x,y,z
-x,y,-z
-x,-y,-z
x,-y,z
1/2+x,1/2+y,z
1/2-x,1/2+y,-z
1/2-x,1/2-y,-z
1/2+x,1/2-y,z
loop_
_atom_site_type_symbol
_atom_site_label
_atom_site_fract_x
_atom_site_fract_y
_atom_site_fract_z
Si Si1 0.533022 0.305665 0.962108
Si Si2 0.248286 0.794647 0.551186
Si Si3 0.167137 0.801459 0.665947
Si Si4 0.104193 0.417806 0.816210
Si Si5 0.133698 0.212413 0.868487
Si Si6 0.435405 0.916583 0.088586
O O1 0.308726 0.272828 0.776911
O O2 0.500000 0.310962 0.000000
O O3 0.645475 0.379788 0.018759
O O4 0.731466 0.246461 0.086468
O O5 0.250000 0.750000 0.500000
O O6 0.408427 0.865816 0.655892
O O7 0.374632 0.742187 0.681512
O O8 0.998162 0.815304 0.399927
O O9 0.356130 0.865837 0.787997
O O10 0.000000 0.797813 0.500000
O O11 0.100866 0.500000 0.794719
O O12 0.046460 0.417812 0.836813
O O13 0.250000 0.250000 0.000000
O O14 0.195718 0.127814 0.911865
O O15 0.439861 0.000000 0.073261
#
# Coordination Sequence:
#
# PCOD9170891 Si02
#       6
#     8   8   8   8   8   8
#     4  10  20  34  54  79 105 142 184 224 262 319
#     4  11  21  35  56  85 113 142 176 227 280 324
#     4  11  20  32  55  85 110 134 177 231 272 315
#     4  10  20  36  56  77 107 147 186 220 267 326
#     4  10  17  36  58  76 106 146 191 216 256 326
#     4  10  20  34  56  83 109 143 185 227 268 320
#
# _framework density 17.558547000000001
#
# number of rings (size 3 to 8) (size 9 to 14) (size 15 to 20)
#    0.000    1.667    5.000    3.000    0.000    1.333 
#    0.000    0.833    0.000   18.500    0.000    0.000 
#    0.000    0.000    0.000    0.000    0.000    0.000 
#
# Total GULP energy -133702.769681 kJ/mol
# GULP energy per Si atom -5570.948737 kJ/mol
# Density = 1.751858 g / cm^3
# Si number density = 17.558547 Si / 1000 Ang^3
#
#
#
# Elastic Constant Matrix: (Units=GPa)
#
#
# Indices 1 2 3 4 5 6 
#
# 1 89.1152 37.5303 11.3474 -0.0770 8.4772 -0.0010
# 2 37.5303 162.6319 54.8345 0.0136 5.9919 0.0163
# 3 11.3474 54.8345 51.1801 -0.0502 8.9504 0.0512
# 4 -0.0770 0.0136 -0.0502 22.1680 0.0352 -1.4092
# 5 8.4772 5.9919 8.9504 0.0352 21.7619 0.0122
# 6 -0.0010 0.0163 0.0512 -1.4092 0.0122 20.9066
#
#
#
# Elastic Compliance Matrix: (Units=1/GPa)
#
#
# Indices 1 2 3 4 5 6 
#
# 1 0.012871 -0.003307 0.001517 0.000058 -0.004727 0.000006
# 2 -0.003307 0.010536 -0.011069 -0.000047 0.002940 0.000014
# 3 0.001517 -0.011069 0.033007 0.000101 -0.011118 -0.000059
# 4 0.000058 -0.000047 0.000101 0.045305 -0.000126 0.003054
# 5 -0.004727 0.002940 -0.011118 -0.000126 0.051557 -0.000014
# 6 0.000006 0.000014 -0.000059 0.003054 -0.000014 0.048038
#
#
# Mechanical properties :
#
#
# Convention : Reuss Voigt Hill
#
# Bulk Modulus (GPa) = 32.58005 56.70573 44.64289
# Shear Modulus (GPa) = 21.07353 26.24829 23.66091
#
# Velocity S-wave (km/s) = 3.46813 3.87059 3.67487
# Velocity P-wave (km/s) = 5.88495 7.23468 6.59444
#
# Compressibility (1/GPa) = 0.03069363
#
# Stress axis : x y z
#
# Youngs Moduli (GPa) = 77.69451 94.91281 30.29683
#
# Poissons Ratio (x) = 0.31392 -0.04595
# Poissons Ratio (y) = 0.25697 0.33536
# Poissons Ratio (z) = -0.11783 1.05061
#
# Static dielectric constant tensor:
#      x y z
#    x 1.637290 -0.000010 0.012610 
#    y -0.000010 1.610740 -0.000040 
#    z 0.012610 -0.000040 1.652320 
# 
# From -- ./inp_files/344492.got.cif
#   From: 2010.05.17/outbox.cif.g08.bks.cpg/sg12_173_cif.got.tgz:344492.got - 2010.06.03 13:09:07.
