data_PCOD9170845
_publ_section_title
;
Structure prediction by ZEFSAII (Michael W. Deem and Ramdas Pophale) SiO2 
 PCOD9170845
Probable space group: C 2/M
;
_chemical_formula_sum "Si O2"
_cell_formula_units_Z 40
_cell_length_a 20.339245
_cell_length_b 26.243177
_cell_length_c 8.895010
_cell_angle_alpha 90.000000
_cell_angle_beta 29.598831
_cell_angle_gamma 90.000000
_cell_volume 2345.081379
_symmetry_space_group_name_H-M "C 2/M"
_symmetry_group_IT_number 12
_symmetry_cell_setting 'monoclinic'
loop_
_space_group_symop_operation_xyz
x,y,z
-x,y,-z
-x,-y,-z
x,-y,z
1/2+x,1/2+y,z
1/2-x,1/2+y,-z
1/2-x,1/2-y,-z
1/2+x,1/2-y,z
loop_
_atom_site_type_symbol
_atom_site_label
_atom_site_fract_x
_atom_site_fract_y
_atom_site_fract_z
Si Si1 0.653783 0.387577 0.143824
Si Si2 0.267086 0.721605 0.126959
Si Si3 0.589803 0.889324 0.169011
Si Si4 0.488579 0.788719 0.844468
Si Si5 0.847814 0.000000 0.856995
Si Si6 0.407983 0.000000 0.832027
O O1 0.500000 0.384084 0.500000
O O2 0.674012 0.443792 0.027663
O O3 0.691750 0.337390 0.976077
O O4 0.758002 0.386080 0.075633
O O5 0.128135 0.724082 0.489109
O O6 0.250000 0.750000 0.000000
O O7 0.379311 0.750217 0.997626
O O8 0.500000 0.884254 0.500000
O O9 0.553686 0.844521 0.129378
O O10 0.566167 0.945387 0.146725
O O11 0.500000 0.786486 0.000000
O O12 0.000000 0.000000 0.500000
O O13 0.743582 0.000000 0.926475
O O14 0.500000 0.000000 0.500000
#
# Coordination Sequence:
#
# PCOD9170845 Si02
#       6
#     8   8   8   8   4   4
#     4  10  18  31  56  85 108 138 182 228 274 317
#     4  12  22  39  60  81 106 146 193 228 272 332
#     4  10  17  35  55  81 109 144 186 228 271 326
#     4  12  25  39  54  81 116 147 180 231 286 337
#     4   8  16  28  46  82 115 129 166 235 279 308
#     4   8  16  26  53  80 105 137 181 230 269 311
#
# _framework density 17.056977
#
# number of rings (size 3 to 8) (size 9 to 14) (size 15 to 20)
#    0.000    1.600    4.000    2.400    0.000    0.000 
#    0.000    0.500    0.000    0.000    0.000    0.700 
#    0.000    0.000    0.000    0.000    0.000    0.000 
#
# Total GULP energy -111436.801740 kJ/mol
# GULP energy per Si atom -5571.840087 kJ/mol
# Density = 1.701815 g / cm^3
# Si number density = 17.056977 Si / 1000 Ang^3
#
#
#
# Elastic Constant Matrix: (Units=GPa)
#
#
# Indices 1 2 3 4 5 6 
#
# 1 101.4597 72.7995 56.5041 -0.0001 -0.6681 0.0000
# 2 72.7995 193.9357 45.3557 -0.0001 -5.8626 -0.0001
# 3 56.5041 45.3557 122.8573 -0.0005 -20.9690 -0.0001
# 4 -0.0001 -0.0001 -0.0005 22.1828 0.0001 -9.1684
# 5 -0.6681 -5.8626 -20.9690 0.0001 19.3277 0.0000
# 6 0.0000 -0.0001 -0.0001 -9.1684 0.0000 14.2954
#
#
#
# Elastic Compliance Matrix: (Units=1/GPa)
#
#
# Indices 1 2 3 4 5 6 
#
# 1 0.017942 -0.005157 -0.007988 0.000000 -0.009611 0.000000
# 2 -0.005157 0.007133 0.000095 0.000000 0.002089 0.000000
# 3 -0.007988 0.000095 0.014403 0.000000 0.015379 0.000000
# 4 0.000000 0.000000 0.000000 0.061340 0.000000 0.039340
# 5 -0.009611 0.002089 0.015379 0.000000 0.068726 0.000000
# 6 0.000000 0.000000 0.000000 0.039340 0.000000 0.095184
#
#
# Mechanical properties :
#
#
# Convention : Reuss Voigt Hill
#
# Bulk Modulus (GPa) = 74.75322 85.28572 80.01947
# Shear Modulus (GPa) = 16.93260 27.40072 22.16666
#
# Velocity S-wave (km/s) = 3.15415 4.01237 3.60886
# Velocity P-wave (km/s) = 7.56211 8.46017 8.02372
#
# Compressibility (1/GPa) = 0.01337735
#
# Stress axis : x y z
#
# Youngs Moduli (GPa) = 55.73454 140.18847 69.42884
#
# Poissons Ratio (x) = 0.72301 0.55462
# Poissons Ratio (y) = 0.28745 -0.00660
# Poissons Ratio (z) = 0.44522 -0.01333
#
# Static dielectric constant tensor:
#      x y z
#    x 1.525370 0.000000 -0.015000 
#    y 0.000000 1.642570 0.000000 
#    z -0.015000 0.000000 1.570290 
# 
# From -- ./inp_files/40370.got.cif
#   From: 2010.05.17/outbox.cif.g08.bks.cpg/sg12_21_cif.got.tgz:40370.got - 2010.06.03 13:09:07.
