data_PCOD9170715
_publ_section_title
;
Structure prediction by ZEFSAII (Michael W. Deem and Ramdas Pophale) SiO2 
 PCOD9170715
Probable space group: C 2/M
;
_chemical_formula_sum "Si O2"
_cell_formula_units_Z 64
_cell_length_a 25.980089
_cell_length_b 23.016014
_cell_length_c 11.898108
_cell_angle_alpha 90.000000
_cell_angle_beta 29.825180
_cell_angle_gamma 90.000000
_cell_volume 3538.468887
_symmetry_space_group_name_H-M "C 2/M"
_symmetry_group_IT_number 12
_symmetry_cell_setting 'monoclinic'
loop_
_space_group_symop_operation_xyz
x,y,z
-x,y,-z
-x,-y,-z
x,-y,z
1/2+x,1/2+y,z
1/2-x,1/2+y,-z
1/2-x,1/2-y,-z
1/2+x,1/2-y,z
loop_
_atom_site_type_symbol
_atom_site_label
_atom_site_fract_x
_atom_site_fract_y
_atom_site_fract_z
Si Si1 0.117524 0.321025 0.965818
Si Si2 0.619422 0.273004 0.765650
Si Si3 0.674431 0.600475 0.677797
Si Si4 0.995548 0.932054 0.187481
Si Si5 0.902410 0.729060 0.439858
Si Si6 0.721724 0.733025 0.927585
Si Si7 0.487172 0.662541 0.656287
Si Si8 0.884154 0.432734 0.171245
O O1 0.000576 0.311878 0.231693
O O2 0.127824 0.278778 0.838129
O O3 0.191017 0.292035 0.919187
O O4 0.136851 0.385904 0.887156
O O5 0.684012 0.330030 0.670206
O O6 0.635609 0.250785 0.609374
O O7 0.500000 0.293414 0.000000
O O8 0.600855 0.586903 0.709312
O O9 0.788900 0.575304 0.439578
O O10 0.603243 0.577948 0.915044
O O11 0.996075 0.892701 0.296812
O O12 0.984978 0.000000 0.230994
O O13 0.813293 0.702992 0.684841
O O14 0.938847 0.785872 0.439893
O O15 0.750000 0.750000 0.000000
O O16 0.625197 0.690091 0.110091
O O17 0.500000 0.651446 0.500000
O O18 0.884272 0.500000 0.134758
O O19 0.000000 0.419756 0.000000
#
# Coordination Sequence:
#
# PCOD9170715 Si02
#       8
#     8   8   8   8   8   8   8   8
#     4  10  23  34  57  90 116 153 191 237 292 352
#     4  10  17  33  58  90 120 140 181 237 303 353
#     4  11  19  37  60  84 119 154 190 239 289 350
#     4  11  22  36  58  87 114 152 196 235 288 348
#     4  10  19  36  56  81 116 144 186 241 290 354
#     4  11  22  37  59  85 113 152 189 240 305 352
#     4  11  22  37  56  80 113 149 192 243 289 348
#     4  11  24  39  54  81 125 168 201 233 279 345
#
# _framework density 18.086919999999999
#
# number of rings (size 3 to 8) (size 9 to 14) (size 15 to 20)
#    0.000    1.375    3.750    4.875    0.000    5.250 
#    0.000    0.000    0.000    0.750    0.000    0.875 
#    0.000    0.000    0.000    0.875    0.000    0.000 
#
# Total GULP energy -178789.975716 kJ/mol
# GULP energy per Si atom -5587.186741 kJ/mol
# Density = 1.804575 g / cm^3
# Si number density = 18.086920 Si / 1000 Ang^3
#
#
#
# Elastic Constant Matrix: (Units=GPa)
#
#
# Indices 1 2 3 4 5 6 
#
# 1 87.6927 31.1742 33.4299 0.0000 18.5407 0.0000
# 2 31.1742 88.2683 21.0544 0.0000 4.9940 0.0000
# 3 33.4299 21.0544 129.0475 0.0000 -4.1513 0.0000
# 4 0.0000 0.0000 0.0000 13.8046 0.0000 -0.3881
# 5 18.5407 4.9940 -4.1513 0.0000 32.7736 0.0000
# 6 0.0000 0.0000 0.0000 -0.3881 0.0000 -2.9744
#
#
#
# Elastic Compliance Matrix: (Units=1/GPa)
#
#
# Indices 1 2 3 4 5 6 
#
# 1 0.016311 -0.004340 -0.003808 0.000000 -0.009049 0.000000
# 2 -0.004340 0.013081 -0.000999 0.000000 0.000336 0.000000
# 3 -0.003808 -0.000999 0.009010 0.000000 0.003448 0.000000
# 4 0.000000 0.000000 0.000000 0.072175 0.000000 -0.009417
# 5 -0.009049 0.000336 0.003448 0.000000 0.036017 0.000000
# 6 0.000000 0.000000 0.000000 -0.009417 0.000000 -0.334975
#
#
# Mechanical properties :
#
#
# Convention : Reuss Voigt Hill
#
# Bulk Modulus (GPa) = 49.73512 52.92506 51.33009
# Shear Modulus (GPa) = -30.60294 23.34410 -3.62942
#
# Velocity S-wave (km/s) = -4.11785 3.59648 -1.41810
# Velocity P-wave (km/s) = 2.22456 6.82431 5.07542
#
# Compressibility (1/GPa) = 0.02010652
#
# Stress axis : x y z
#
# Youngs Moduli (GPa) = 61.30661 76.44469 110.99295
#
# Poissons Ratio (x) = 0.33180 0.42271
# Poissons Ratio (y) = 0.26610 0.11089
# Poissons Ratio (z) = 0.23348 0.07637
#
# Static dielectric constant tensor:
#      x y z
#    x 1.627260 0.000000 -0.037330 
#    y 0.000000 1.603710 0.000000 
#    z -0.037330 0.000000 1.681010 
# 
# From -- ./inp_files/184943.got.cif
#   From: 2010.05.17/outbox.cif.g08.bks.cpg/sg12_93_cif.got.tgz:184943.got - 2010.06.03 13:09:07.
