data_PCOD9170093
_publ_section_title
;
Structure prediction by ZEFSAII (Michael W. Deem and Ramdas Pophale) SiO2 
 PCOD9170093
Probable space group: C 2/M
;
_chemical_formula_sum "Si O2"
_cell_formula_units_Z 56
_cell_length_a 32.484701
_cell_length_b 23.701512
_cell_length_c 5.455249
_cell_angle_alpha 90.000000
_cell_angle_beta 80.310599
_cell_angle_gamma 90.000000
_cell_volume 4140.278106
_symmetry_space_group_name_H-M "C 2/M"
_symmetry_group_IT_number 12
_symmetry_cell_setting 'monoclinic'
loop_
_space_group_symop_operation_xyz
x,y,z
-x,y,-z
-x,-y,-z
x,-y,z
1/2+x,1/2+y,z
1/2-x,1/2+y,-z
1/2-x,1/2-y,-z
1/2+x,1/2-y,z
loop_
_atom_site_type_symbol
_atom_site_label
_atom_site_fract_x
_atom_site_fract_y
_atom_site_fract_z
Si Si1 0.793157 0.500000 0.751225
Si Si2 0.156450 0.500000 0.799722
Si Si3 0.747787 0.677974 0.248866
Si Si4 0.321599 0.228977 0.673226
Si Si5 0.594052 0.103579 0.912782
Si Si6 0.949955 0.432957 0.541327
Si Si7 0.737415 0.125826 0.265700
Si Si8 0.153755 0.710539 0.851717
O O1 0.826416 0.500000 0.494341
O O2 0.769961 0.559435 0.739049
O O3 0.810329 0.500000 0.012155
O O4 0.128560 0.554762 0.866119
O O5 0.720931 0.734920 0.283560
O O6 0.740309 0.643333 0.504508
O O7 0.797477 0.690107 0.197502
O O8 0.739435 0.646187 0.003107
O O9 0.306276 0.162881 0.689043
O O10 0.347682 0.241860 0.404777
O O11 0.347652 0.242040 0.889376
O O12 0.566900 0.095139 0.692624
O O13 0.619795 0.161445 0.886818
O O14 0.568971 0.093905 0.191419
O O15 0.938789 0.500000 0.547549
O O16 0.000000 0.429101 0.500000
#
# Coordination Sequence:
#
# PCOD9170093 Si02
#       8
#     4   4   8   8   8   8   8   8
#     4  12  22  30  40  56  89 110 130 160 222 270
#     4  12  20  30  41  58  78 104 122 158 212 274
#     4  10  18  30  44  58  78 107 138 160 193 252
#     4  10  17  30  44  60  79 108 134 160 196 250
#     4  12  21  33  46  67  80 100 131 170 221 258
#     4  11  22  38  50  60  76 105 142 174 208 266
#     4  10  18  28  38  55  72 105 132 164 190 244
#     4  10  18  27  42  62  83  94 119 163 203 247
#
# _framework density 13.52566
#
# number of rings (size 3 to 8) (size 9 to 14) (size 15 to 20)
#    0.000    1.286    1.429   10.714    0.000    1.143 
#    0.000    0.000    0.000    0.000    0.000    0.000 
#    0.000    0.000    0.000    0.000    0.000    0.000 
#
# Total GULP energy -156034.850199 kJ/mol
# GULP energy per Si atom -5572.673221 kJ/mol
# Density = 1.349488 g / cm^3
# Si number density = 13.525660 Si / 1000 Ang^3
#
#
#
# Elastic Constant Matrix: (Units=GPa)
#
#
# Indices 1 2 3 4 5 6 
#
# 1 47.7820 19.3607 26.5797 0.0000 8.0682 0.0000
# 2 19.3607 43.3819 11.7233 0.0000 -0.4630 0.0000
# 3 26.5797 11.7233 114.9813 0.0000 17.0312 0.0000
# 4 0.0000 0.0000 0.0000 12.7339 0.0000 -1.8096
# 5 8.0682 -0.4630 17.0312 0.0000 24.4712 0.0000
# 6 0.0000 0.0000 0.0000 -1.8096 0.0000 23.5790
#
#
#
# Elastic Compliance Matrix: (Units=1/GPa)
#
#
# Indices 1 2 3 4 5 6 
#
# 1 0.029480 -0.011987 -0.004593 0.000000 -0.006750 0.000000
# 2 -0.011987 0.028703 -0.000916 0.000000 0.005133 0.000000
# 3 -0.004593 -0.000916 0.010737 0.000000 -0.005976 0.000000
# 4 0.000000 0.000000 0.000000 0.079396 0.000000 0.006093
# 5 -0.006750 0.005133 -0.005976 0.000000 0.047346 0.000000
# 6 0.000000 0.000000 0.000000 0.006093 0.000000 0.042878
#
#
# Mechanical properties :
#
#
# Convention : Reuss Voigt Hill
#
# Bulk Modulus (GPa) = 29.47352 35.71917 32.59635
# Shear Modulus (GPa) = 17.55356 22.05560 19.80458
#
# Velocity S-wave (km/s) = 3.60640 4.04251 3.83067
# Velocity P-wave (km/s) = 6.25936 6.94658 6.61191
#
# Compressibility (1/GPa) = 0.03392876
#
# Stress axis : x y z
#
# Youngs Moduli (GPa) = 33.92117 34.83939 93.13355
#
# Poissons Ratio (x) = 0.41764 0.42774
# Poissons Ratio (y) = 0.40663 0.08528
# Poissons Ratio (z) = 0.15579 0.03190
#
# Static dielectric constant tensor:
#      x y z
#    x 1.429380 0.000000 0.035100 
#    y 0.000000 1.429650 0.000000 
#    z 0.035100 0.000000 1.545360 
# 
# From -- ./inp_files/32235.got.cif
#   From: 2010.05.17/outbox.cif.g08.bks.cpg/sg12_17_cif.got.tgz:32235.got - 2010.06.03 13:09:07.
