data_PCOD9170546
_publ_section_title
;
Structure prediction by ZEFSAII (Michael W. Deem and Ramdas Pophale) SiO2 
 PCOD9170546
Probable space group: C 2/M
;
_chemical_formula_sum "Si O2"
_cell_formula_units_Z 60
_cell_length_a 12.208615
_cell_length_b 22.332987
_cell_length_c 17.249641
_cell_angle_alpha 90.000000
_cell_angle_beta 42.561520
_cell_angle_gamma 90.000000
_cell_volume 3181.155967
_symmetry_space_group_name_H-M "C 2/M"
_symmetry_group_IT_number 12
_symmetry_cell_setting 'monoclinic'
loop_
_space_group_symop_operation_xyz
x,y,z
-x,y,-z
-x,-y,-z
x,-y,z
1/2+x,1/2+y,z
1/2-x,1/2+y,-z
1/2-x,1/2-y,-z
1/2+x,1/2-y,z
loop_
_atom_site_type_symbol
_atom_site_label
_atom_site_fract_x
_atom_site_fract_y
_atom_site_fract_z
Si Si1 0.672948 0.564311 0.009555
Si Si2 0.406858 0.703903 0.628346
Si Si3 0.419498 0.932216 0.737039
Si Si4 0.849328 0.353864 0.019690
Si Si5 0.260926 0.672946 0.250158
Si Si6 0.986527 0.200260 0.751909
Si Si7 0.000000 0.160482 0.000000
Si Si8 0.437088 0.832803 0.240477
O O1 0.589262 0.500000 0.060610
O O2 0.798523 0.560323 0.873077
O O3 0.764919 0.583242 0.039726
O O4 0.561676 0.617348 0.036306
O O5 0.500000 0.696661 0.500000
O O6 0.361659 0.773807 0.664904
O O7 0.500351 0.681595 0.655418
O O8 0.235566 0.670457 0.710601
O O9 0.326485 0.889644 0.724143
O O10 0.552931 0.888586 0.706139
O O11 0.463700 0.000000 0.689040
O O12 0.698603 0.313212 0.125471
O O13 0.000000 0.356924 0.000000
O O14 0.926248 0.334009 0.897630
O O15 0.387471 0.669703 0.254981
O O16 0.357340 0.693528 0.120564
O O17 0.030931 0.270293 0.733607
#
# Coordination Sequence:
#
# PCOD9170546 Si02
#       8
#     8   8   8   8   8   8   4   8
#     4   9  18  30  49  79 117 157 190 219 272 341
#     4  11  24  40  60  84 113 152 196 246 296 346
#     4   9  18  36  59  87 120 156 194 229 278 344
#     4  11  20  33  53  81 117 150 187 235 286 346
#     4  10  21  35  57  89 118 153 189 232 289 342
#     4  11  21  37  55  84 117 150 188 237 294 345
#     4  10  17  32  54  82 120 152 187 222 280 346
#     4  10  21  36  59  86 117 154 190 230 292 347
#
# _framework density 18.861069000000001
#
# number of rings (size 3 to 8) (size 9 to 14) (size 15 to 20)
#    0.000    1.867    4.000    0.600    0.000    5.067 
#    0.000    0.000    0.000    1.600    0.000    0.000 
#    0.000    0.000    0.000    0.000    0.000    0.000 
#
# Total GULP energy -167127.828910 kJ/mol
# GULP energy per Si atom -5570.927630 kJ/mol
# Density = 1.881814 g / cm^3
# Si number density = 18.861069 Si / 1000 Ang^3
#
#
#
# Elastic Constant Matrix: (Units=GPa)
#
#
# Indices 1 2 3 4 5 6 
#
# 1 150.5021 45.9353 -2.7554 0.0002 15.8471 -0.0001
# 2 45.9353 87.1400 2.8351 -0.0001 3.7296 0.0000
# 3 -2.7554 2.8351 15.0970 -0.0003 21.2758 0.0001
# 4 0.0002 -0.0001 -0.0003 0.8119 -0.0001 4.1819
# 5 15.8471 3.7296 21.2758 -0.0001 15.7326 0.0002
# 6 -0.0001 0.0000 0.0001 4.1819 0.0002 -7.0076
#
#
#
# Elastic Compliance Matrix: (Units=1/GPa)
#
#
# Indices 1 2 3 4 5 6 
#
# 1 0.006545 -0.003482 -0.011013 -0.000001 0.009126 -0.000001
# 2 -0.003482 0.013399 0.003995 0.000001 -0.005071 0.000001
# 3 -0.011013 0.003995 -0.054293 -0.000002 0.083569 0.000000
# 4 -0.000001 0.000001 -0.000002 0.302338 0.000005 0.180425
# 5 0.009126 -0.005071 0.083569 0.000005 -0.057442 0.000002
# 6 -0.000001 0.000001 0.000000 0.180425 0.000002 -0.035030
#
#
# Mechanical properties :
#
#
# Convention : Reuss Voigt Hill
#
# Bulk Modulus (GPa) = -18.06680 38.30768 10.12044
# Shear Modulus (GPa) = 28.07948 15.68899 21.88423
#
# Velocity S-wave (km/s) = 3.86262 2.88726 3.40999
# Velocity P-wave (km/s) = 3.20834 5.60977 4.56963
#
# Compressibility (1/GPa) = -0.05535016
#
# Stress axis : x y z
#
# Youngs Moduli (GPa) = 152.79462 74.63499 -18.41851
#
# Poissons Ratio (x) = 0.25990 -0.20284
# Poissons Ratio (y) = 0.53208 0.07358
# Poissons Ratio (z) = 1.68267 -0.29816
#
# Static dielectric constant tensor:
#      x y z
#    x 1.710410 0.000000 -0.017880 
#    y 0.000000 1.715430 0.000000 
#    z -0.017880 0.000000 1.657990 
# 
# From -- ./inp_files/265695.got.cif
#   From: 2010.05.17/outbox.cif.g08.bks.cpg/sg12_133_cif.got.tgz:265695.got - 2010.06.03 13:09:07.
