data_PCOD9170275
_publ_section_title
;
Structure prediction by ZEFSAII (Michael W. Deem and Ramdas Pophale) SiO2 
 PCOD9170275
Probable space group: C 2/M
;
_chemical_formula_sum "Si O2"
_cell_formula_units_Z 64
_cell_length_a 18.646726
_cell_length_b 31.699001
_cell_length_c 14.005261
_cell_angle_alpha 90.000000
_cell_angle_beta 159.707499
_cell_angle_gamma 90.000000
_cell_volume 2871.009364
_symmetry_space_group_name_H-M "C 2/M"
_symmetry_group_IT_number 12
_symmetry_cell_setting 'monoclinic'
loop_
_space_group_symop_operation_xyz
x,y,z
-x,y,-z
-x,-y,-z
x,-y,z
1/2+x,1/2+y,z
1/2-x,1/2+y,-z
1/2-x,1/2-y,-z
1/2+x,1/2-y,z
loop_
_atom_site_type_symbol
_atom_site_label
_atom_site_fract_x
_atom_site_fract_y
_atom_site_fract_z
Si Si1 0.487683 0.952678 0.743281
Si Si2 0.793106 0.565399 0.794523
Si Si3 0.434678 0.628030 0.070135
Si Si4 0.845656 0.625286 0.454256
Si Si5 0.222709 0.837313 0.724135
Si Si6 0.446477 0.454130 0.679559
Si Si7 0.570328 0.800131 0.842045
Si Si8 0.985028 0.208277 0.698346
O O1 0.470094 0.916298 0.642383
O O2 0.272422 0.951568 0.535668
O O3 0.508584 0.000000 0.730911
O O4 0.667671 0.944000 0.045682
O O5 0.774792 0.615525 0.758744
O O6 0.607885 0.547262 0.500476
O O7 0.000000 0.550065 0.000000
O O8 0.633919 0.623053 0.251070
O O9 0.433862 0.587772 0.139323
O O10 0.475159 0.671800 0.174888
O O11 0.231493 0.628117 0.750627
O O12 0.965697 0.666638 0.640076
O O13 0.000000 0.839628 0.500000
O O14 0.189818 0.806956 0.593255
O O15 0.396330 0.821327 0.013767
O O16 0.539055 0.500000 0.819005
O O17 0.456383 0.755334 0.701486
O O18 0.802359 0.791200 0.096266
#
# Coordination Sequence:
#
# PCOD9170275 Si02
#       8
#     8   8   8   8   8   8   8   8
#     4   9  17  30  51  79 108 138 175 218 262 311
#     4  10  17  30  54  80 106 138 176 215 263 317
#     4  10  21  36  54  80 111 141 178 222 265 312
#     4  10  21  36  54  80 111 141 178 222 265 312
#     4  10  20  35  55  81 108 134 173 221 266 314
#     4   9  17  30  51  79 108 138 175 218 262 311
#     4  10  22  38  58  80 105 140 180 220 264 317
#     4  10  22  38  58  80 105 140 180 220 264 317
#
# _framework density 22.291812
#
# number of rings (size 3 to 8) (size 9 to 14) (size 15 to 20)
#    0.000    2.250    2.500    0.375    1.750    3.000 
#    0.000    2.500    0.000    3.750    0.000    1.750 
#    0.000    0.000    0.000    0.000    0.000    0.000 
#
# Total GULP energy -178794.375187 kJ/mol
# GULP energy per Si atom -5587.324225 kJ/mol
# Density = 2.224108 g / cm^3
# Si number density = 22.291812 Si / 1000 Ang^3
#
#
#
# Elastic Constant Matrix: (Units=GPa)
#
#
# Indices 1 2 3 4 5 6 
#
# 1 12.6903 -8.6248 18.3188 0.0011 0.2454 -0.0064
# 2 -8.6248 180.9736 38.6915 0.0010 -40.6194 -0.0049
# 3 18.3188 38.6915 78.6060 -0.0024 -28.5875 0.0115
# 4 0.0011 0.0010 -0.0024 20.6300 -0.0023 32.7767
# 5 0.2454 -40.6194 -28.5875 -0.0023 56.6505 0.0078
# 6 -0.0064 -0.0049 0.0115 32.7767 0.0078 -227.2775
#
#
#
# Elastic Compliance Matrix: (Units=1/GPa)
#
#
# Indices 1 2 3 4 5 6 
#
# 1 0.163548 0.015249 -0.051320 -0.000003 -0.015672 -0.000009
# 2 0.015249 0.008239 -0.006717 0.000000 0.002452 -0.000001
# 3 -0.051320 -0.006717 0.032233 0.000002 0.011671 0.000004
# 4 -0.000003 0.000000 0.000002 0.039437 0.000002 0.005687
# 5 -0.015672 0.002452 0.011671 0.000002 0.025367 0.000002
# 6 -0.000009 -0.000001 0.000004 0.005687 0.000002 -0.003580
#
#
# Mechanical properties :
#
#
# Convention : Reuss Voigt Hill
#
# Bulk Modulus (GPa) = 8.44290 41.00455 24.72373
# Shear Modulus (GPa) = 12.81060 -15.07377 -1.13159
#
# Velocity S-wave (km/s) = 2.39984 -2.60321 -0.71325
# Velocity P-wave (km/s) = 3.38743 3.06574 3.23059
#
# Compressibility (1/GPa) = 0.11844270
#
# Stress axis : x y z
#
# Youngs Moduli (GPa) = 6.11441 121.37728 31.02449
#
# Poissons Ratio (x) = -1.85084 1.59217
# Poissons Ratio (y) = -0.09324 0.20840
# Poissons Ratio (z) = 0.31379 0.81534
#
# Static dielectric constant tensor:
#      x y z
#    x 1.851030 0.000000 0.034970 
#    y 0.000000 1.780660 0.000000 
#    z 0.034970 0.000000 1.820500 
# 
# From -- ./inp_files/236028.got.cif
#   From: 2010.05.17/outbox.cif.g08.bks.cpg/sg12_119_cif.got.tgz:236028.got - 2010.06.03 13:09:07.
