data_PCOD9170793
_publ_section_title
;
Structure prediction by ZEFSAII (Michael W. Deem and Ramdas Pophale) SiO2 
 PCOD9170793
Probable space group: C 2/M
;
_chemical_formula_sum "Si O2"
_cell_formula_units_Z 64
_cell_length_a 20.575468
_cell_length_b 19.248312
_cell_length_c 17.750692
_cell_angle_alpha 90.000000
_cell_angle_beta 151.484056
_cell_angle_gamma 90.000000
_cell_volume 3356.163210
_symmetry_space_group_name_H-M "C 2/M"
_symmetry_group_IT_number 12
_symmetry_cell_setting 'monoclinic'
loop_
_space_group_symop_operation_xyz
x,y,z
-x,y,-z
-x,-y,-z
x,-y,z
1/2+x,1/2+y,z
1/2-x,1/2+y,-z
1/2-x,1/2-y,-z
1/2+x,1/2-y,z
loop_
_atom_site_type_symbol
_atom_site_label
_atom_site_fract_x
_atom_site_fract_y
_atom_site_fract_z
Si Si1 0.995249 0.147792 0.705696
Si Si2 0.783145 0.681057 0.195429
Si Si3 0.129371 0.797638 0.183807
Si Si4 0.466990 0.582186 0.096928
Si Si5 0.739060 0.165542 0.087972
Si Si6 0.536237 0.809025 0.751170
Si Si7 0.315516 0.827582 0.644802
Si Si8 0.978663 0.424819 0.065527
O O1 0.004076 0.097911 0.785973
O O2 0.842722 0.156736 0.522479
O O3 0.112679 0.131277 0.765628
O O4 0.043352 0.226439 0.773713
O O5 0.758608 0.693474 0.259592
O O6 0.738607 0.754130 0.112080
O O7 0.927065 0.671596 0.297748
O O8 0.678031 0.619175 0.068857
O O9 0.077575 0.871433 0.163983
O O10 0.156263 0.743141 0.278668
O O11 0.000000 0.773314 0.000000
O O12 0.469064 0.500000 0.082632
O O13 0.656088 0.158902 0.924859
O O14 0.648665 0.124523 0.053944
O O15 0.390088 0.826336 0.638963
O O16 0.392217 0.888222 0.766502
O O17 0.954620 0.500000 0.076715
O O18 0.000000 0.431871 0.000000
#
# Coordination Sequence:
#
# PCOD9170793 Si02
#       8
#     8   8   8   8   8   8   8   8
#     4  11  20  35  57  88 115 143 181 242 292 333
#     4  10  18  34  56  82 112 140 193 240 284 326
#     4  10  20  35  56  83 115 151 190 237 285 340
#     4  11  21  34  55  84 117 153 189 234 287 339
#     4  10  18  35  61  82 113 143 193 239 285 333
#     4  10  17  34  58  84 110 144 184 238 279 335
#     4  11  21  35  62  83 116 146 189 235 297 340
#     4  10  21  38  57  79 111 153 193 229 281 349
#
# _framework density 19.069395
#
# number of rings (size 3 to 8) (size 9 to 14) (size 15 to 20)
#    0.000    1.625    3.750    4.500    0.000    3.250 
#    0.000    5.625    0.000    1.500    0.000    0.875 
#    0.000    0.000    0.000    0.000    0.000    0.000 
#
# Total GULP energy -178292.130198 kJ/mol
# GULP energy per Si atom -5571.629069 kJ/mol
# Density = 1.902599 g / cm^3
# Si number density = 19.069395 Si / 1000 Ang^3
#
#
#
# Elastic Constant Matrix: (Units=GPa)
#
#
# Indices 1 2 3 4 5 6 
#
# 1 86.0472 -12.7633 37.2855 0.0002 21.2965 0.0001
# 2 -12.7633 46.4731 21.0878 0.0002 4.6279 0.0001
# 3 37.2855 21.0878 65.5615 0.0003 28.3882 0.0002
# 4 0.0002 0.0002 0.0003 0.2884 0.0002 -6.5615
# 5 21.2965 4.6279 28.3882 0.0002 22.0484 0.0001
# 6 0.0001 0.0001 0.0002 -6.5615 0.0001 14.8153
#
#
#
# Elastic Compliance Matrix: (Units=1/GPa)
#
#
# Indices 1 2 3 4 5 6 
#
# 1 0.020489 0.012190 -0.013325 0.000000 -0.005193 0.000000
# 2 0.012190 0.033840 -0.021793 0.000002 0.009182 0.000001
# 3 -0.013325 -0.021793 0.050367 0.000000 -0.047405 0.000000
# 4 0.000000 0.000002 0.000000 -0.382037 0.000005 -0.169199
# 5 -0.005193 0.009182 -0.047405 0.000005 0.109478 0.000002
# 6 0.000000 0.000001 0.000000 -0.169199 0.000002 -0.007438
#
#
# Mechanical properties :
#
#
# Convention : Reuss Voigt Hill
#
# Bulk Modulus (GPa) = 16.99517 32.14465 24.56991
# Shear Modulus (GPa) = -45.52407 17.59523 -13.96442
#
# Velocity S-wave (km/s) = -4.89129 3.04088 -2.70903
# Velocity P-wave (km/s) = 4.79249 5.40579 1.76842
#
# Compressibility (1/GPa) = 0.05884024
#
# Stress axis : x y z
#
# Youngs Moduli (GPa) = 48.80761 29.55056 19.85437
#
# Poissons Ratio (x) = -0.36023 0.26455
# Poissons Ratio (y) = -0.59498 0.43269
# Poissons Ratio (z) = 0.65034 0.64400
#
# Static dielectric constant tensor:
#      x y z
#    x 1.754540 0.000000 0.018930 
#    y 0.000000 1.659850 0.000000 
#    z 0.018930 0.000000 1.678060 
# 
# From -- ./inp_files/285238.got.cif
#   From: 2010.05.17/outbox.cif.g08.bks.cpg/sg12_143_cif.got.tgz:285238.got - 2010.06.03 13:09:07.
