data_PCOD9170573
_publ_section_title
;
Structure prediction by ZEFSAII (Michael W. Deem and Ramdas Pophale) SiO2 
 PCOD9170573
Probable space group: C 2/M
;
_chemical_formula_sum "Si O2"
_cell_formula_units_Z 32
_cell_length_a 9.254066
_cell_length_b 15.232461
_cell_length_c 17.121766
_cell_angle_alpha 90.000000
_cell_angle_beta 139.287511
_cell_angle_gamma 90.000000
_cell_volume 1574.252515
_symmetry_space_group_name_H-M "C 2/M"
_symmetry_group_IT_number 12
_symmetry_cell_setting 'monoclinic'
loop_
_space_group_symop_operation_xyz
x,y,z
-x,y,-z
-x,-y,-z
x,-y,z
1/2+x,1/2+y,z
1/2-x,1/2+y,-z
1/2-x,1/2-y,-z
1/2+x,1/2-y,z
loop_
_atom_site_type_symbol
_atom_site_label
_atom_site_fract_x
_atom_site_fract_y
_atom_site_fract_z
Si Si1 0.178241 0.146740 0.131618
Si Si2 0.665912 0.903974 0.347558
Si Si3 0.963204 0.230196 0.767145
Si Si4 0.256178 0.897904 0.438200
O O1 0.397727 0.091686 0.239951
O O2 0.289358 0.231898 0.135965
O O3 0.000000 0.107375 0.000000
O O4 0.923803 0.177336 0.829228
O O5 0.695092 0.817030 0.306979
O O6 0.740096 0.886226 0.466737
O O7 0.750895 0.000000 0.356573
O O8 0.907053 0.168330 0.671442
O O9 0.500000 0.882267 0.500000
O O10 0.202283 0.000000 0.400491
#
# Coordination Sequence:
#
# PCOD9170573 Si02
#       4
#     8   8   8   8
#     4  10  21  35  57  78 110 148 189 222 264 318
#     4   9  20  33  55  83 111 140 177 223 272 326
#     4  10  20  35  58  81 112 144 180 226 278 315
#     4  10  17  32  56  85 110 136 183 229 268 325
#
# _framework density 20.327107000000002
#
# number of rings (size 3 to 8) (size 9 to 14) (size 15 to 20)
#    1.500    0.750    2.500    1.500    0.000    0.500 
#    0.000    1.250    0.000    5.250    0.000    0.000 
#    0.000    0.000    0.000    0.000    0.000    0.000 
#
# Total GULP energy -89134.299189 kJ/mol
# GULP energy per Si atom -5570.893699 kJ/mol
# Density = 2.028084 g / cm^3
# Si number density = 20.327107 Si / 1000 Ang^3
#
#
#
# Elastic Constant Matrix: (Units=GPa)
#
#
# Indices 1 2 3 4 5 6 
#
# 1 27.2129 -6.3720 14.6378 0.0000 2.4301 0.0000
# 2 -6.3720 53.6748 42.5240 0.0000 -6.4605 0.0000
# 3 14.6378 42.5240 94.4205 0.0001 -6.8576 0.0001
# 4 0.0000 0.0000 0.0001 -35.9102 0.0000 29.3978
# 5 2.4301 -6.4605 -6.8576 0.0000 25.6356 0.0000
# 6 0.0000 0.0000 0.0001 29.3978 0.0000 0.0780
#
#
#
# Elastic Compliance Matrix: (Units=1/GPa)
#
#
# Indices 1 2 3 4 5 6 
#
# 1 0.050314 0.018453 -0.016439 0.000000 -0.004516 0.000000
# 2 0.018453 0.036118 -0.018962 0.000000 0.002281 0.000000
# 3 -0.016439 -0.018962 0.021870 0.000000 0.002630 0.000000
# 4 0.000000 0.000000 0.000000 -0.000090 0.000000 0.033906
# 5 -0.004516 0.002281 0.002630 0.000000 0.040715 0.000000
# 6 0.000000 0.000000 0.000000 0.033906 0.000000 0.041417
#
#
# Mechanical properties :
#
#
# Convention : Reuss Voigt Hill
#
# Bulk Modulus (GPa) = 13.43953 30.76532 22.10243
# Shear Modulus (GPa) = 20.07700 6.26192 13.16946
#
# Velocity S-wave (km/s) = 3.14617 1.75706 2.54810
# Velocity P-wave (km/s) = 4.45240 4.39139 4.42200
#
# Compressibility (1/GPa) = 0.07440738
#
# Stress axis : x y z
#
# Youngs Moduli (GPa) = 19.87532 27.68680 45.72453
#
# Poissons Ratio (x) = -0.51090 0.75165
# Poissons Ratio (y) = -0.36676 0.86701
# Poissons Ratio (z) = 0.32672 0.52499
#
# Static dielectric constant tensor:
#      x y z
#    x 1.736540 0.000000 0.023220 
#    y 0.000000 1.724630 0.000000 
#    z 0.023220 0.000000 1.675490 
# 
# From -- ./inp_files/46135.got.cif
#   From: 2010.05.17/outbox.cif.g08.bks.cpg/sg12_24_cif.got.tgz:46135.got - 2010.06.03 13:09:07.
