data_PCOD9170055
_publ_section_title
;
Structure prediction by ZEFSAII (Michael W. Deem and Ramdas Pophale) SiO2 
 PCOD9170055
Probable space group: C 2/M
;
_chemical_formula_sum "Si O2"
_cell_formula_units_Z 60
_cell_length_a 18.054062
_cell_length_b 15.507144
_cell_length_c 12.384727
_cell_angle_alpha 90.000000
_cell_angle_beta 51.880259
_cell_angle_gamma 90.000000
_cell_volume 2727.813604
_symmetry_space_group_name_H-M "C 2/M"
_symmetry_group_IT_number 12
_symmetry_cell_setting 'monoclinic'
loop_
_space_group_symop_operation_xyz
x,y,z
-x,y,-z
-x,-y,-z
x,-y,z
1/2+x,1/2+y,z
1/2-x,1/2+y,-z
1/2-x,1/2-y,-z
1/2+x,1/2-y,z
loop_
_atom_site_type_symbol
_atom_site_label
_atom_site_fract_x
_atom_site_fract_y
_atom_site_fract_z
Si Si1 0.376405 0.599355 0.003797
Si Si2 0.883251 0.622480 0.496173
Si Si3 0.697041 0.592592 0.304443
Si Si4 0.302813 0.000000 0.388044
Si Si5 0.920083 0.815690 0.422808
Si Si6 0.606097 0.906634 0.265294
Si Si7 0.896427 0.098330 0.226164
Si Si8 0.358971 0.283659 0.819527
O O1 0.346119 0.500000 0.011443
O O2 0.490265 0.597800 0.891338
O O3 0.343799 0.669227 0.946862
O O4 0.354131 0.621563 0.148190
O O5 0.823481 0.574446 0.460699
O O6 0.877441 0.725239 0.497578
O O7 0.864588 0.594989 0.635552
O O8 0.992477 0.600503 0.370610
O O9 0.679420 0.500000 0.263389
O O10 0.781010 0.573867 0.312659
O O11 0.610925 0.613417 0.462969
O O12 0.704857 0.669150 0.212302
O O13 0.880116 0.841093 0.341963
O O14 0.032707 0.805955 0.313006
O O15 0.643661 0.819714 0.176955
O O16 0.630601 0.000000 0.195059
O O17 0.868956 0.000000 0.279040
#
# Coordination Sequence:
#
# PCOD9170055 Si02
#       8
#     8   8   8   4   8   8   8   8
#     4   8  14  25  43  66  98 130 149 192 237 290
#     4  10  17  32  48  66  92 124 169 199 230 275
#     4  10  21  30  40  68 102 133 152 180 241 290
#     4  10  22  33  43  62  98 141 158 189 232 288
#     4  10  18  28  47  69  96 128 159 200 233 280
#     4  10  17  29  53  71  86 123 168 206 233 273
#     4   8  14  25  42  67  95 125 159 188 241 283
#     4  10  18  29  45  73  99 124 160 194 237 287
#
# _framework density 21.995638
#
# number of rings (size 3 to 8) (size 9 to 14) (size 15 to 20)
#    0.400    2.133    2.667    2.400    0.000    2.667 
#    0.000    0.000    0.000    0.000    1.733    3.733 
#    4.000    0.000    0.000    0.000    0.000    0.000 
#
# Total GULP energy -167010.624678 kJ/mol
# GULP energy per Si atom -5567.020823 kJ/mol
# Density = 2.194558 g / cm^3
# Si number density = 21.995638 Si / 1000 Ang^3
#
#
#
# Elastic Constant Matrix: (Units=GPa)
#
#
# Indices 1 2 3 4 5 6 
#
# 1 69.5200 17.0683 32.0122 0.0000 6.7869 0.0000
# 2 17.0683 141.7699 40.2176 0.0000 31.8091 0.0000
# 3 32.0122 40.2176 44.9201 0.0000 30.6353 0.0000
# 4 0.0000 0.0000 0.0000 63.2838 0.0000 0.4048
# 5 6.7869 31.8091 30.6353 0.0000 42.6285 0.0000
# 6 0.0000 0.0000 0.0000 0.4048 0.0000 20.7255
#
#
#
# Elastic Compliance Matrix: (Units=1/GPa)
#
#
# Indices 1 2 3 4 5 6 
#
# 1 0.028095 0.002293 -0.035023 0.000000 0.018985 0.000000
# 2 0.002293 0.009722 -0.010085 0.000000 -0.000372 0.000000
# 3 -0.035023 -0.010085 0.092795 0.000000 -0.053587 0.000000
# 4 0.000000 0.000000 0.000000 0.015804 0.000000 -0.000309
# 5 0.018985 -0.000372 -0.053587 0.000000 0.059224 0.000000
# 6 0.000000 0.000000 0.000000 -0.000309 0.000000 0.048256
#
#
# Mechanical properties :
#
#
# Convention : Reuss Voigt Hill
#
# Bulk Modulus (GPa) = 22.22991 48.31177 35.27084
# Shear Modulus (GPa) = 14.10362 36.45500 25.27931
#
# Velocity S-wave (km/s) = 2.53494 4.07550 3.39379
# Velocity P-wave (km/s) = 4.32393 6.64517 5.60600
#
# Compressibility (1/GPa) = 0.04498443
#
# Stress axis : x y z
#
# Youngs Moduli (GPa) = 35.59365 102.86026 10.77639
#
# Poissons Ratio (x) = -0.23587 0.37742
# Poissons Ratio (y) = -0.08162 0.10867
# Poissons Ratio (z) = 1.24658 1.03730
#
# Static dielectric constant tensor:
#      x y z
#    x 1.864360 0.000000 -0.019580 
#    y 0.000000 1.800990 0.000000 
#    z -0.019580 0.000000 1.768890 
# 
# From -- ./inp_files/166728.got.cif
#   From: 2010.05.17/outbox.cif.g08.bks.cpg/sg12_84_cif.got.tgz:166728.got - 2010.06.03 13:09:07.
