data_PCOD9170659
_publ_section_title
;
Structure prediction by ZEFSAII (Michael W. Deem and Ramdas Pophale) SiO2 
 PCOD9170659
Probable space group: C 2/M
;
_chemical_formula_sum "Si O2"
_cell_formula_units_Z 40
_cell_length_a 18.313963
_cell_length_b 18.891885
_cell_length_c 7.461076
_cell_angle_alpha 90.000000
_cell_angle_beta 49.179027
_cell_angle_gamma 90.000000
_cell_volume 1953.506498
_symmetry_space_group_name_H-M "C 2/M"
_symmetry_group_IT_number 12
_symmetry_cell_setting 'monoclinic'
loop_
_space_group_symop_operation_xyz
x,y,z
-x,y,-z
-x,-y,-z
x,-y,z
1/2+x,1/2+y,z
1/2-x,1/2+y,-z
1/2-x,1/2-y,-z
1/2+x,1/2-y,z
loop_
_atom_site_type_symbol
_atom_site_label
_atom_site_fract_x
_atom_site_fract_y
_atom_site_fract_z
Si Si1 0.929711 0.841751 0.835209
Si Si2 0.767277 0.308097 0.703961
Si Si3 0.388066 0.582441 0.523137
Si Si4 0.579460 0.821624 0.237143
Si Si5 0.803410 0.649992 0.271864
O O1 0.896639 0.878397 0.701923
O O2 0.950437 0.758699 0.766939
O O3 0.028450 0.880307 0.728224
O O4 0.837792 0.843936 0.112171
O O5 0.824152 0.316039 0.797006
O O6 0.826715 0.340227 0.443158
O O7 0.746037 0.225527 0.702139
O O8 0.409011 0.500000 0.509082
O O9 0.281273 0.594029 0.620355
O O10 0.500000 0.851907 0.500000
O O11 0.608850 0.859877 0.006296
#
# Coordination Sequence:
#
# PCOD9170659 Si02
#       5
#     8   8   8   8   8
#     4  10  17  33  53  82 112 147 183 213 279 329
#     4  10  19  33  56  78 112 141 183 239 273 329
#     4  11  20  34  55  83 120 153 183 214 265 349
#     4  11  18  33  58  79 110 139 182 242 277 317
#     4  10  20  34  52  82 109 147 185 225 282 317
#
# _framework density 20.476002000000001
#
# number of rings (size 3 to 8) (size 9 to 14) (size 15 to 20)
#    0.000    1.600    6.000    2.400    0.000    1.600 
#    0.000    9.000    0.000    0.600    0.000    1.400 
#    0.000    0.000    0.000    0.000    0.000    0.000 
#
# Total GULP energy -111642.290629 kJ/mol
# GULP energy per Si atom -5582.114531 kJ/mol
# Density = 2.042940 g / cm^3
# Si number density = 20.476002 Si / 1000 Ang^3
#
#
#
# Elastic Constant Matrix: (Units=GPa)
#
#
# Indices 1 2 3 4 5 6 
#
# 1 23.1979 13.6583 9.0208 0.0000 7.3731 0.0000
# 2 13.6583 50.9620 20.1379 0.0000 -12.5599 0.0000
# 3 9.0208 20.1379 146.3659 0.0000 4.5089 0.0000
# 4 0.0000 0.0000 0.0000 4.1802 0.0000 -4.0822
# 5 7.3731 -12.5599 4.5089 0.0000 30.4328 0.0000
# 6 0.0000 0.0000 0.0000 -4.0822 0.0000 10.2064
#
#
#
# Elastic Compliance Matrix: (Units=1/GPa)
#
#
# Indices 1 2 3 4 5 6 
#
# 1 0.065281 -0.023839 0.000047 0.000000 -0.025661 0.000000
# 2 -0.023839 0.032259 -0.003573 0.000000 0.019618 0.000000
# 3 0.000047 -0.003573 0.007401 0.000000 -0.002583 0.000000
# 4 0.000000 0.000000 0.000000 0.392534 0.000000 0.156998
# 5 -0.025661 0.019618 -0.002583 0.000000 0.047556 0.000000
# 6 0.000000 0.000000 0.000000 0.156998 0.000000 0.160770
#
#
# Mechanical properties :
#
#
# Convention : Reuss Voigt Hill
#
# Bulk Modulus (GPa) = 19.91655 34.01774 26.96715
# Shear Modulus (GPa) = 6.43280 20.81115 13.62198
#
# Velocity S-wave (km/s) = 1.77439 3.19151 2.58207
# Velocity P-wave (km/s) = 3.73441 5.49823 4.69981
#
# Compressibility (1/GPa) = 0.05020949
#
# Stress axis : x y z
#
# Youngs Moduli (GPa) = 15.31842 30.99947 135.12583
#
# Poissons Ratio (x) = 0.73899 -0.00635
# Poissons Ratio (y) = 0.36517 0.48287
# Poissons Ratio (z) = -0.00072 0.11078
#
# Static dielectric constant tensor:
#      x y z
#    x 1.748120 0.000000 -0.006740 
#    y 0.000000 1.693190 0.000000 
#    z -0.006740 0.000000 1.813130 
# 
# From -- ./inp_files/88979.got.cif
#   From: 2010.05.17/outbox.cif.g08.bks.cpg/sg12_45_cif.got.tgz:88979.got - 2010.06.03 13:09:07.
