data_PCOD9170983
_publ_section_title
;
Structure prediction by ZEFSAII (Michael W. Deem and Ramdas Pophale) SiO2 
 PCOD9170983
Probable space group: C 2/M
;
_chemical_formula_sum "Si O2"
_cell_formula_units_Z 64
_cell_length_a 28.539725
_cell_length_b 7.416879
_cell_length_c 24.830544
_cell_angle_alpha 90.000000
_cell_angle_beta 45.046338
_cell_angle_gamma 90.000000
_cell_volume 3719.573686
_symmetry_space_group_name_H-M "C 2/M"
_symmetry_group_IT_number 12
_symmetry_cell_setting 'monoclinic'
loop_
_space_group_symop_operation_xyz
x,y,z
-x,y,-z
-x,-y,-z
x,-y,z
1/2+x,1/2+y,z
1/2-x,1/2+y,-z
1/2-x,1/2-y,-z
1/2+x,1/2-y,z
loop_
_atom_site_type_symbol
_atom_site_label
_atom_site_fract_x
_atom_site_fract_y
_atom_site_fract_z
Si Si1 0.931113 0.721429 0.029241
Si Si2 0.555889 0.290704 0.501709
Si Si3 0.753430 0.782558 0.090867
Si Si4 0.707653 0.208628 0.818922
Si Si5 0.609265 0.784660 0.172240
Si Si6 0.948529 0.216098 0.666305
Si Si7 0.658803 0.278104 0.334885
Si Si8 0.397671 0.208715 0.937692
O O1 0.928169 0.500000 0.030809
O O2 0.866323 0.784085 0.114942
O O3 0.923391 0.784551 0.973598
O O4 0.000000 0.773719 0.000000
O O5 0.500000 0.287749 0.500000
O O6 0.570852 0.500000 0.501524
O O7 0.516945 0.213586 0.584624
O O8 0.621010 0.216617 0.419553
O O9 0.763529 0.717313 0.143753
O O10 0.683328 0.717440 0.125350
O O11 0.754164 0.000000 0.090684
O O12 0.817662 0.718110 0.006277
O O13 0.766190 0.284828 0.734499
O O14 0.699969 0.000000 0.809405
O O15 0.564833 0.754121 0.260757
O O16 0.583957 0.713134 0.135401
O O17 0.615434 0.000000 0.160864
O O18 0.886937 0.278013 0.678952
O O19 0.950145 0.000000 0.658628
O O20 0.658910 0.500000 0.334672
O O21 0.418555 0.000000 0.921321
#
# Coordination Sequence:
#
# PCOD9170983 Si02
#       8
#     8   8   8   8   8   8   8   8
#     4   8  14  25  41  58  73  89 115 153 190 220
#     4   7  11  19  32  51  71  92 122 155 179 203
#     4  10  18  26  36  52  75  98 122 153 182 206
#     4   9  15  24  40  58  74  97 125 149 180 220
#     4  10  19  27  35  51  76 101 123 151 181 212
#     4   9  15  23  37  53  71  99 128 151 177 210
#     4   8  12  20  35  54  73  94 124 154 177 209
#     4   9  18  30  41  52  69  96 126 151 183 221
#
# _framework density 17.206272999999999
#
# number of rings (size 3 to 8) (size 9 to 14) (size 15 to 20)
#    0.000    3.250    1.250    3.000    0.000    1.000 
#    0.000    0.000    0.000   10.125    0.000    0.000 
#    0.000    1.000    0.000    0.750    0.000    1.500 
#
# Total GULP energy -178170.772593 kJ/mol
# GULP energy per Si atom -5567.836644 kJ/mol
# Density = 1.716711 g / cm^3
# Si number density = 17.206273 Si / 1000 Ang^3
#
#
#
# Elastic Constant Matrix: (Units=GPa)
#
#
# Indices 1 2 3 4 5 6 
#
# 1 70.9595 3.9511 78.5428 -0.0060 -10.4153 0.0000
# 2 3.9511 57.0487 -2.7781 -0.0376 -2.3904 0.0219
# 3 78.5428 -2.7781 165.6724 0.0020 -1.3299 -0.0067
# 4 -0.0060 -0.0376 0.0020 5.9696 -0.0022 5.9278
# 5 -10.4153 -2.3904 -1.3299 -0.0022 18.4698 0.0155
# 6 0.0000 0.0219 -0.0067 5.9278 0.0155 3.8496
#
#
#
# Elastic Compliance Matrix: (Units=1/GPa)
#
#
# Indices 1 2 3 4 5 6 
#
# 1 0.035391 -0.002491 -0.016672 -0.000229 0.018434 0.000263
# 2 -0.002491 0.017816 0.001488 -0.000400 0.001008 0.000513
# 3 -0.016672 0.001488 0.013899 0.000120 -0.008208 -0.000137
# 4 -0.000229 -0.000400 0.000120 -0.316614 -0.000618 0.487545
# 5 0.018434 0.001008 -0.008208 -0.000618 0.064076 0.000675
# 6 0.000263 0.000513 -0.000137 0.487545 0.000675 -0.490984
#
#
# Mechanical properties :
#
#
# Convention : Reuss Voigt Hill
#
# Bulk Modulus (GPa) = 31.49095 50.34579 40.91837
# Shear Modulus (GPa) = -7.93044 19.92212 5.99584
#
# Velocity S-wave (km/s) = -2.14920 3.40640 1.86876
# Velocity P-wave (km/s) = 3.49042 6.69291 5.33751
#
# Compressibility (1/GPa) = 0.03175515
#
# Stress axis : x y z
#
# Youngs Moduli (GPa) = 28.25609 56.13057 71.94771
#
# Poissons Ratio (x) = 0.13981 1.19951
# Poissons Ratio (y) = 0.07038 -0.10704
# Poissons Ratio (z) = 0.47108 -0.08351
#
# Static dielectric constant tensor:
#      x y z
#    x 1.548120 -0.000010 0.005130 
#    y -0.000010 1.668320 0.000020 
#    z 0.005130 0.000020 1.646530 
# 
# From -- ./inp_files/350917.got.cif
#   From: 2010.05.17/outbox.cif.g08.bks.cpg/sg12_176_cif.got.tgz:350917.got - 2010.06.03 13:09:07.
