data_PCOD9170499
_publ_section_title
;
Structure prediction by ZEFSAII (Michael W. Deem and Ramdas Pophale) SiO2 
 PCOD9170499
Probable space group: C 2/M
;
_chemical_formula_sum "Si O2"
_cell_formula_units_Z 56
_cell_length_a 20.717658
_cell_length_b 18.763416
_cell_length_c 8.728540
_cell_angle_alpha 90.000000
_cell_angle_beta 98.965506
_cell_angle_gamma 90.000000
_cell_volume 3351.625076
_symmetry_space_group_name_H-M "C 2/M"
_symmetry_group_IT_number 12
_symmetry_cell_setting 'monoclinic'
loop_
_space_group_symop_operation_xyz
x,y,z
-x,y,-z
-x,-y,-z
x,-y,z
1/2+x,1/2+y,z
1/2-x,1/2+y,-z
1/2-x,1/2-y,-z
1/2+x,1/2-y,z
loop_
_atom_site_type_symbol
_atom_site_label
_atom_site_fract_x
_atom_site_fract_y
_atom_site_fract_z
Si Si1 0.721653 0.311694 0.164074
Si Si2 0.922871 0.363997 0.982917
Si Si3 0.769018 0.419413 0.417868
Si Si4 0.162009 0.677542 0.322254
Si Si5 0.355856 0.740169 0.121022
Si Si6 0.092140 0.576426 0.705261
Si Si7 0.070593 0.727730 0.564381
O O1 0.723388 0.376047 0.283952
O O2 0.697051 0.240446 0.241557
O O3 0.795073 0.293357 0.135540
O O4 0.676263 0.319847 0.997452
O O5 0.883394 0.368106 0.809976
O O6 0.907600 0.284295 0.039022
O O7 0.898189 0.414936 0.109385
O O8 0.000000 0.375229 0.000000
O O9 0.747699 0.500000 0.443172
O O10 0.785231 0.371658 0.572087
O O11 0.838967 0.423756 0.356681
O O12 0.115394 0.712946 0.433542
O O13 0.389813 0.726592 0.295587
O O14 0.059249 0.500000 0.662524
O O15 0.058353 0.649239 0.636763
O O16 0.000000 0.758366 0.500000
#
# Coordination Sequence:
#
# PCOD9170499 Si02
#       7
#     8   8   8   8   8   8   8
#     4  10  17  32  51  68  91 121 163 193 232 288
#     4  10  18  30  44  63  94 123 161 199 224 260
#     4  10  19  32  47  67  96 125 155 195 238 274
#     4  10  19  28  49  73  91 124 156 197 239 271
#     4   9  18  30  48  68  86 124 153 191 240 271
#     4   9  18  31  42  57  89 134 170 186 218 264
#     4  10  18  31  45  67  95 120 154 196 236 268
#
# _framework density 16.708311999999999
#
# number of rings (size 3 to 8) (size 9 to 14) (size 15 to 20)
#    0.000    2.286    4.286    2.143    0.000    1.143 
#    0.000    2.857    0.000    0.000    0.000    0.000 
#    0.000   21.714    0.000    0.000    0.000    0.000 
#
# Total GULP energy -155884.682279 kJ/mol
# GULP energy per Si atom -5567.310081 kJ/mol
# Density = 1.667028 g / cm^3
# Si number density = 16.708312 Si / 1000 Ang^3
#
#
#
# Elastic Constant Matrix: (Units=GPa)
#
#
# Indices 1 2 3 4 5 6 
#
# 1 34.3120 13.7005 20.9550 0.0000 11.2550 0.0000
# 2 13.7005 43.2491 15.9982 0.0000 6.5746 0.0000
# 3 20.9550 15.9982 100.3865 0.0000 13.2965 0.0000
# 4 0.0000 0.0000 0.0000 8.4508 0.0000 3.1144
# 5 11.2550 6.5746 13.2965 0.0000 26.2783 0.0000
# 6 0.0000 0.0000 0.0000 3.1144 0.0000 7.7801
#
#
#
# Elastic Compliance Matrix: (Units=1/GPa)
#
#
# Indices 1 2 3 4 5 6 
#
# 1 0.039912 -0.008825 -0.005309 0.000000 -0.012200 0.000000
# 2 -0.008825 0.027020 -0.002218 0.000000 -0.001858 0.000000
# 3 -0.005309 -0.002218 0.011842 0.000000 -0.003163 0.000000
# 4 0.000000 0.000000 0.000000 0.138809 0.000000 -0.055565
# 5 -0.012200 -0.001858 -0.003163 0.000000 0.045345 0.000000
# 6 0.000000 0.000000 0.000000 -0.055565 0.000000 0.150776
#
#
# Mechanical properties :
#
#
# Convention : Reuss Voigt Hill
#
# Bulk Modulus (GPa) = 21.70561 31.02832 26.36696
# Shear Modulus (GPa) = 10.82801 16.98811 13.90806
#
# Velocity S-wave (km/s) = 2.54847 3.19211 2.88827
# Velocity P-wave (km/s) = 4.65604 5.67424 5.19017
#
# Compressibility (1/GPa) = 0.04607104
#
# Stress axis : x y z
#
# Youngs Moduli (GPa) = 25.05503 37.00916 84.44414
#
# Poissons Ratio (x) = 0.32660 0.44832
# Poissons Ratio (y) = 0.22111 0.18728
# Poissons Ratio (z) = 0.13302 0.08208
#
# Static dielectric constant tensor:
#      x y z
#    x 1.562820 0.000000 0.011250 
#    y 0.000000 1.570670 0.000000 
#    z 0.011250 0.000000 1.627790 
# 
# From -- ./inp_files/88760.got.cif
#   From: 2010.05.17/outbox.cif.g08.bks.cpg/sg12_45_cif.got.tgz:88760.got - 2010.06.03 13:09:07.
