data_PCOD9170798
_publ_section_title
;
Structure prediction by ZEFSAII (Michael W. Deem and Ramdas Pophale) SiO2 
 PCOD9170798
Probable space group: C 2/M
;
_chemical_formula_sum "Si O2"
_cell_formula_units_Z 50
_cell_length_a 9.267253
_cell_length_b 17.663146
_cell_length_c 14.042363
_cell_angle_alpha 90.000000
_cell_angle_beta 113.846138
_cell_angle_gamma 90.000000
_cell_volume 2102.358675
_symmetry_space_group_name_H-M "C 2/M"
_symmetry_group_IT_number 12
_symmetry_cell_setting 'monoclinic'
loop_
_space_group_symop_operation_xyz
x,y,z
-x,y,-z
-x,-y,-z
x,-y,z
1/2+x,1/2+y,z
1/2-x,1/2+y,-z
1/2-x,1/2-y,-z
1/2+x,1/2-y,z
loop_
_atom_site_type_symbol
_atom_site_label
_atom_site_fract_x
_atom_site_fract_y
_atom_site_fract_z
Si Si1 0.253150 0.913101 0.281453
Si Si2 0.599740 0.808711 0.830474
Si Si3 0.163959 0.852342 0.620613
Si Si4 0.633326 0.279964 0.367799
Si Si5 0.181502 0.674280 0.130971
Si Si6 0.000000 0.000000 0.500000
Si Si7 0.569424 0.586325 0.920889
O O1 0.365764 0.880003 0.228769
O O2 0.243884 0.848463 0.360148
O O3 0.075050 0.914910 0.192179
O O4 0.291437 0.000000 0.320069
O O5 0.477107 0.749831 0.749075
O O6 0.759046 0.759778 0.874157
O O7 0.505642 0.829583 0.900515
O O8 0.270782 0.796515 0.585296
O O9 0.248188 0.854467 0.747106
O O10 0.998279 0.811618 0.598130
O O11 0.124098 0.933476 0.568525
O O12 0.279547 0.626522 0.081198
O O13 0.615355 0.500000 0.954765
O O14 0.500000 0.619005 0.000000
#
# Coordination Sequence:
#
# PCOD9170798 Si02
#       7
#     8   8   8   8   8   2   8
#     4  11  20  34  59  92 120 158 211 256 295 357
#     4  10  17  34  58  90 114 151 215 246 299 359
#     4  10  22  39  64  87 125 153 203 244 301 364
#     4  10  18  39  65  84 117 169 190 245 305 364
#     4  10  18  35  62  81 116 163 201 244 302 365
#     4  12  28  40  60 106 116 152 206 248 294 368
#     4  10  21  36  56  86 125 165 208 254 303 354
#
# _framework density 23.782810999999999
#
# number of rings (size 3 to 8) (size 9 to 14) (size 15 to 20)
#    0.000    1.760    8.000    0.000    2.240    1.280 
#    4.320    4.000    0.000    3.840    0.000    0.000 
#    0.000    0.000    0.000    0.000    0.000    0.000 
#
# Total GULP energy -139413.452894 kJ/mol
# GULP energy per Si atom -5576.538116 kJ/mol
# Density = 2.372868 g / cm^3
# Si number density = 23.782811 Si / 1000 Ang^3
#
#
#
# Elastic Constant Matrix: (Units=GPa)
#
#
# Indices 1 2 3 4 5 6 
#
# 1 175.3787 76.1094 18.3766 0.0000 -19.3249 0.0000
# 2 76.1094 205.6912 30.7387 0.0000 -5.7578 0.0000
# 3 18.3766 30.7387 41.8060 0.0000 -3.7420 0.0000
# 4 0.0000 0.0000 0.0000 25.7390 0.0000 -2.0638
# 5 -19.3249 -5.7578 -3.7420 0.0000 33.3401 0.0000
# 6 0.0000 0.0000 0.0000 -2.0638 0.0000 28.8466
#
#
#
# Elastic Compliance Matrix: (Units=1/GPa)
#
#
# Indices 1 2 3 4 5 6 
#
# 1 0.007274 -0.002426 -0.001084 0.000000 0.003675 0.000000
# 2 -0.002426 0.006279 -0.003616 0.000000 -0.000728 0.000000
# 3 -0.001084 -0.003616 0.027216 0.000000 0.001802 0.000000
# 4 0.000000 0.000000 0.000000 0.039076 0.000000 0.002796
# 5 0.003675 -0.000728 0.001802 0.000000 0.032201 0.000000
# 6 0.000000 0.000000 0.000000 0.002796 0.000000 0.034866
#
#
# Mechanical properties :
#
#
# Convention : Reuss Voigt Hill
#
# Bulk Modulus (GPa) = 37.71194 74.81392 56.26293
# Shear Modulus (GPa) = 29.41120 37.42854 33.41987
#
# Velocity S-wave (km/s) = 3.52043 3.97137 3.75268
# Velocity P-wave (km/s) = 5.69349 7.24945 6.51806
#
# Compressibility (1/GPa) = 0.02651680
#
# Stress axis : x y z
#
# Youngs Moduli (GPa) = 137.48495 159.25005 36.74267
#
# Poissons Ratio (x) = 0.38641 0.03984
# Poissons Ratio (y) = 0.33360 0.13285
# Poissons Ratio (z) = 0.14906 0.57579
#
# Static dielectric constant tensor:
#      x y z
#    x 1.907100 0.000000 -0.025410 
#    y 0.000000 1.865110 0.000000 
#    z -0.025410 0.000000 2.135930 
# 
# From -- ./inp_files/257274.got.cif
#   From: 2010.05.17/outbox.cif.g08.bks.cpg/sg12_129_cif.got.tgz:257274.got - 2010.06.03 13:09:07.
