data_PCOD9170951
_publ_section_title
;
Structure prediction by ZEFSAII (Michael W. Deem and Ramdas Pophale) SiO2 
 PCOD9170951
Probable space group: C 2/M
;
_chemical_formula_sum "Si O2"
_cell_formula_units_Z 44
_cell_length_a 9.577153
_cell_length_b 23.179978
_cell_length_c 10.801632
_cell_angle_alpha 90.000000
_cell_angle_beta 135.048337
_cell_angle_gamma 90.000000
_cell_volume 1694.170546
_symmetry_space_group_name_H-M "C 2/M"
_symmetry_group_IT_number 12
_symmetry_cell_setting 'monoclinic'
loop_
_space_group_symop_operation_xyz
x,y,z
-x,y,-z
-x,-y,-z
x,-y,z
1/2+x,1/2+y,z
1/2-x,1/2+y,-z
1/2-x,1/2-y,-z
1/2+x,1/2-y,z
loop_
_atom_site_type_symbol
_atom_site_label
_atom_site_fract_x
_atom_site_fract_y
_atom_site_fract_z
Si Si1 0.230182 0.404691 0.962496
Si Si2 0.849007 0.274141 0.688219
Si Si3 0.631115 0.687916 0.781501
Si Si4 0.110642 0.500000 0.235161
Si Si5 0.224647 0.892434 0.537382
Si Si6 0.694753 0.433849 0.253838
O O1 0.064304 0.450605 0.892327
O O2 0.236340 0.395552 0.817938
O O3 0.220576 0.351248 0.049006
O O4 0.456755 0.429417 0.120891
O O5 0.750000 0.250000 0.500000
O O6 0.868943 0.342143 0.676017
O O7 0.027003 0.230191 0.813207
O O8 0.717245 0.272858 0.727464
O O9 0.477168 0.643112 0.619083
O O10 0.267182 0.447728 0.369437
O O11 0.287028 0.916597 0.442191
O O12 0.746625 0.500000 0.255325
#
# Coordination Sequence:
#
# PCOD9170951 Si02
#       6
#     8   8   8   4   8   8
#     4  10  21  38  65 100 149 195 234 296 356 441
#     4  10  21  48  76 106 135 186 251 310 353 427
#     4  10  23  47  78 102 144 190 249 301 368 431
#     4  12  22  40  64 109 153 193 234 294 366 443
#     4  10  22  37  69 105 140 181 245 304 351 422
#     4  10  17  38  62  93 147 192 254 278 363 426
#
# _framework density 25.971412999999998
#
# number of rings (size 3 to 8) (size 9 to 14) (size 15 to 20)
#    0.000    1.818    2.727    2.727    0.000    1.455 
#   19.636    5.455   12.000    0.000    0.000    0.000 
#    0.000    0.000    0.000    0.000    0.000    0.000 
#
# Total GULP energy -122614.207536 kJ/mol
# GULP energy per Si atom -5573.373070 kJ/mol
# Density = 2.591230 g / cm^3
# Si number density = 25.971413 Si / 1000 Ang^3
#
#
#
# Elastic Constant Matrix: (Units=GPa)
#
#
# Indices 1 2 3 4 5 6 
#
# 1 106.1544 36.7411 22.2840 0.0000 8.5152 0.0000
# 2 36.7411 167.7016 35.2654 0.0000 16.6902 0.0000
# 3 22.2840 35.2654 118.3296 0.0000 23.4634 0.0000
# 4 0.0000 0.0000 0.0000 56.1993 0.0000 -1.5647
# 5 8.5152 16.6902 23.4634 0.0000 23.4356 0.0000
# 6 0.0000 0.0000 0.0000 -1.5647 0.0000 37.7802
#
#
#
# Elastic Compliance Matrix: (Units=1/GPa)
#
#
# Indices 1 2 3 4 5 6 
#
# 1 0.010426 -0.001917 -0.001137 0.000000 -0.001284 0.000000
# 2 -0.001917 0.006923 -0.001076 0.000000 -0.003156 0.000000
# 3 -0.001137 -0.001076 0.010920 0.000000 -0.009753 0.000000
# 4 0.000000 0.000000 0.000000 0.017814 0.000000 0.000738
# 5 -0.001284 -0.003156 -0.009753 0.000000 0.055149 0.000000
# 6 0.000000 0.000000 0.000000 0.000738 0.000000 0.026499
#
#
# Mechanical properties :
#
#
# Convention : Reuss Voigt Hill
#
# Bulk Modulus (GPa) = 49.98276 64.52963 57.25619
# Shear Modulus (GPa) = 35.04772 43.34270 39.19521
#
# Velocity S-wave (km/s) = 3.67750 4.08960 3.88901
# Velocity P-wave (km/s) = 6.10894 6.87024 6.50074
#
# Compressibility (1/GPa) = 0.02000690
#
# Stress axis : x y z
#
# Youngs Moduli (GPa) = 95.91832 144.43575 91.57620
#
# Poissons Ratio (x) = 0.27690 0.10416
# Poissons Ratio (y) = 0.18389 0.09858
# Poissons Ratio (z) = 0.10910 0.15548
#
# Static dielectric constant tensor:
#      x y z
#    x 2.061520 0.000000 0.042780 
#    y 0.000000 1.973690 0.000000 
#    z 0.042780 0.000000 2.193420 
# 
# From -- ./inp_files/322840.got.cif
#   From: 2010.05.17/outbox.cif.g08.bks.cpg/sg12_162_cif.got.tgz:322840.got - 2010.06.03 13:09:07.
