data_PCOD9170424
_publ_section_title
;
Structure prediction by ZEFSAII (Michael W. Deem and Ramdas Pophale) SiO2 
 PCOD9170424
Probable space group: C 2/M
;
_chemical_formula_sum "Si O2"
_cell_formula_units_Z 64
_cell_length_a 28.577628
_cell_length_b 13.301921
_cell_length_c 9.536611
_cell_angle_alpha 90.000000
_cell_angle_beta 98.255845
_cell_angle_gamma 90.000000
_cell_volume 3587.652927
_symmetry_space_group_name_H-M "C 2/M"
_symmetry_group_IT_number 12
_symmetry_cell_setting 'monoclinic'
loop_
_space_group_symop_operation_xyz
x,y,z
-x,y,-z
-x,-y,-z
x,-y,z
1/2+x,1/2+y,z
1/2-x,1/2+y,-z
1/2-x,1/2-y,-z
1/2+x,1/2-y,z
loop_
_atom_site_type_symbol
_atom_site_label
_atom_site_fract_x
_atom_site_fract_y
_atom_site_fract_z
Si Si1 0.580229 0.878708 0.734686
Si Si2 0.735046 0.619235 0.894023
Si Si3 0.737994 0.781640 0.654263
Si Si4 0.618479 0.798328 0.214261
Si Si5 0.837201 0.384739 0.032552
Si Si6 0.676188 0.383411 0.143611
Si Si7 0.645156 0.881260 0.515874
Si Si8 0.984185 0.382677 0.830606
O O1 0.597760 0.861756 0.585209
O O2 0.528525 0.844372 0.758523
O O3 0.578586 0.000000 0.756419
O O4 0.622630 0.837991 0.851134
O O5 0.740594 0.500000 0.862264
O O6 0.730235 0.685776 0.752798
O O7 0.783710 0.653115 0.993580
O O8 0.693317 0.627203 0.989724
O O9 0.750000 0.750000 0.500000
O O10 0.780307 0.845451 0.741277
O O11 0.690448 0.847477 0.624798
O O12 0.640302 0.876302 0.111812
O O13 0.633154 0.690153 0.161154
O O14 0.643086 0.819483 0.372497
O O15 0.563254 0.819530 0.205359
O O16 0.832009 0.500000 0.076523
O O17 0.666471 0.500000 0.166170
O O18 0.647883 0.000000 0.488057
O O19 0.973942 0.500000 0.789604
O O20 0.000000 0.381323 0.000000
#
# Coordination Sequence:
#
# PCOD9170424 Si02
#       8
#     8   8   8   8   8   8   8   8
#     4   9  19  33  53  82 115 147 175 219 284 342
#     4  10  22  37  58  85 114 150 194 238 278 333
#     4  12  22  37  57  86 117 155 191 228 284 341
#     4  12  22  35  56  81 108 153 189 228 278 337
#     4  10  17  31  55  82 110 143 180 222 272 334
#     4  11  24  41  57  80 114 153 200 247 281 320
#     4  11  23  37  53  82 120 153 185 225 276 341
#     4  10  19  33  56  88 116 140 178 229 286 346
#
# _framework density 17.83896
#
# number of rings (size 3 to 8) (size 9 to 14) (size 15 to 20)
#    0.000    1.375    3.750    2.625    1.750    4.500 
#    0.000    1.875    0.000    0.375    0.000    2.625 
#    0.000    0.000    0.000    0.000    0.000    0.000 
#
# Total GULP energy -178660.704953 kJ/mol
# GULP energy per Si atom -5583.147030 kJ/mol
# Density = 1.779836 g / cm^3
# Si number density = 17.838960 Si / 1000 Ang^3
#
#
#
# Elastic Constant Matrix: (Units=GPa)
#
#
# Indices 1 2 3 4 5 6 
#
# 1 108.3805 35.6966 30.3164 0.0000 -12.2369 0.0000
# 2 35.6966 99.2796 31.9065 0.0000 -4.5304 0.0000
# 3 30.3164 31.9065 71.4041 0.0000 -6.8817 0.0000
# 4 0.0000 0.0000 0.0000 20.8309 0.0000 -2.0684
# 5 -12.2369 -4.5304 -6.8817 0.0000 25.3545 0.0000
# 6 0.0000 0.0000 0.0000 -2.0684 0.0000 29.4406
#
#
#
# Elastic Compliance Matrix: (Units=1/GPa)
#
#
# Indices 1 2 3 4 5 6 
#
# 1 0.011561 -0.002940 -0.003191 0.000000 0.004188 0.000000
# 2 -0.002940 0.012521 -0.004383 0.000000 -0.000371 0.000000
# 3 -0.003191 -0.004383 0.017553 0.000000 0.002441 0.000000
# 4 0.000000 0.000000 0.000000 0.048343 0.000000 0.003396
# 5 0.004188 -0.000371 0.002441 0.000000 0.042058 0.000000
# 6 0.000000 0.000000 0.000000 0.003396 0.000000 0.034205
#
#
# Mechanical properties :
#
#
# Convention : Reuss Voigt Hill
#
# Bulk Modulus (GPa) = 48.52511 52.76702 50.64607
# Shear Modulus (GPa) = 25.75492 27.20152 26.47822
#
# Velocity S-wave (km/s) = 3.80379 3.90915 3.85683
# Velocity P-wave (km/s) = 6.82294 7.07242 6.94880
#
# Compressibility (1/GPa) = 0.02060789
#
# Stress axis : x y z
#
# Youngs Moduli (GPa) = 86.50120 79.86469 56.96980
#
# Poissons Ratio (x) = 0.23481 0.18179
# Poissons Ratio (y) = 0.25432 0.24967
# Poissons Ratio (z) = 0.27602 0.35001
#
# Static dielectric constant tensor:
#      x y z
#    x 1.634910 0.000000 -0.011110 
#    y 0.000000 1.616530 0.000000 
#    z -0.011110 0.000000 1.633650 
# 
# From -- ./inp_files/104630.got.cif
#   From: 2010.05.17/outbox.cif.g08.bks.cpg/sg12_53_cif.got.tgz:104630.got - 2010.06.03 13:09:07.
