data_PCOD9170299
_publ_section_title
;
Structure prediction by ZEFSAII (Michael W. Deem and Ramdas Pophale) SiO2 
 PCOD9170299
Probable space group: C 2/M
;
_chemical_formula_sum "Si O2"
_cell_formula_units_Z 48
_cell_length_a 10.188257
_cell_length_b 28.104037
_cell_length_c 14.379143
_cell_angle_alpha 90.000000
_cell_angle_beta 31.753250
_cell_angle_gamma 90.000000
_cell_volume 2166.724753
_symmetry_space_group_name_H-M "C 2/M"
_symmetry_group_IT_number 12
_symmetry_cell_setting 'monoclinic'
loop_
_space_group_symop_operation_xyz
x,y,z
-x,y,-z
-x,-y,-z
x,-y,z
1/2+x,1/2+y,z
1/2-x,1/2+y,-z
1/2-x,1/2-y,-z
1/2+x,1/2-y,z
loop_
_atom_site_type_symbol
_atom_site_label
_atom_site_fract_x
_atom_site_fract_y
_atom_site_fract_z
Si Si1 0.600793 0.843578 0.248551
Si Si2 0.263661 0.785331 0.336403
Si Si3 0.793973 0.148585 0.797739
Si Si4 0.774883 0.554785 0.879590
Si Si5 0.216423 0.051138 0.135319
Si Si6 0.993219 0.808017 0.147482
O O1 0.369793 0.808708 0.366373
O O2 0.568030 0.900153 0.252653
O O3 0.744613 0.833006 0.257186
O O4 0.792008 0.826325 0.051433
O O5 0.204297 0.828532 0.303384
O O6 0.449572 0.748542 0.174565
O O7 0.000000 0.758802 0.500000
O O8 0.899434 0.095426 0.741790
O O9 0.933215 0.178346 0.792767
O O10 0.500000 0.146694 0.000000
O O11 0.864681 0.500000 0.810209
O O12 0.500000 0.558641 0.000000
O O13 0.736206 0.561137 0.013530
O O14 0.092133 0.000000 0.224077
O O15 0.500000 0.047527 0.000000
#
# Coordination Sequence:
#
# PCOD9170299 Si02
#       6
#     8   8   8   8   8   8
#     4  11  20  38  60  88 119 151 190 238 291 343
#     4  12  27  41  56  81 117 156 199 246 289 338
#     4  11  20  36  60  84 111 151 193 233 288 348
#     4  10  17  30  55  90 121 142 177 234 291 337
#     4   9  16  28  49  80 112 141 179 228 277 332
#     4  11  22  36  60  85 112 153 196 237 284 344
#
# _framework density 22.153252999999999
#
# number of rings (size 3 to 8) (size 9 to 14) (size 15 to 20)
#    0.000    1.333    5.000    2.500    2.333    2.667 
#    0.000    0.000    0.000    2.000    0.000    0.000 
#    0.000    8.667    0.000    0.000    0.000    0.000 
#
# Total GULP energy -134012.411521 kJ/mol
# GULP energy per Si atom -5583.850480 kJ/mol
# Density = 2.210283 g / cm^3
# Si number density = 22.153253 Si / 1000 Ang^3
#
#
#
# Elastic Constant Matrix: (Units=GPa)
#
#
# Indices 1 2 3 4 5 6 
#
# 1 139.8687 24.5971 0.1804 0.0000 -13.6483 0.0000
# 2 24.5971 153.9779 4.6518 0.0000 -2.1025 0.0000
# 3 0.1804 4.6518 38.9641 0.0000 -8.7786 0.0000
# 4 0.0000 0.0000 0.0000 -1.9552 0.0000 0.9169
# 5 -13.6483 -2.1025 -8.7786 0.0000 18.5029 0.0000
# 6 0.0000 0.0000 0.0000 0.9169 0.0000 35.5425
#
#
#
# Elastic Compliance Matrix: (Units=1/GPa)
#
#
# Indices 1 2 3 4 5 6 
#
# 1 0.008000 -0.001237 0.001577 0.000000 0.006509 0.000000
# 2 -0.001237 0.006712 -0.000929 0.000000 -0.000590 0.000000
# 3 0.001577 -0.000929 0.029119 0.000000 0.014873 0.000000
# 4 0.000000 0.000000 0.000000 -0.505349 0.000000 0.013036
# 5 0.006509 -0.000590 0.014873 0.000000 0.065836 0.000000
# 6 0.000000 0.000000 0.000000 0.013036 0.000000 0.027799
#
#
# Mechanical properties :
#
#
# Convention : Reuss Voigt Hill
#
# Bulk Modulus (GPa) = 23.44400 43.51879 33.48140
# Shear Modulus (GPa) = -14.18491 30.64348 8.22928
#
# Velocity S-wave (km/s) = -2.53318 3.72324 1.92945
# Velocity P-wave (km/s) = 1.43166 6.17822 4.48442
#
# Compressibility (1/GPa) = 0.04265483
#
# Stress axis : x y z
#
# Youngs Moduli (GPa) = 124.99765 148.98693 34.34167
#
# Poissons Ratio (x) = 0.18426 -0.05416
# Poissons Ratio (y) = 0.15459 0.03189
# Poissons Ratio (z) = -0.19713 0.13834
#
# Static dielectric constant tensor:
#      x y z
#    x 1.757130 0.000000 -0.062030 
#    y 0.000000 1.897010 0.000000 
#    z -0.062030 0.000000 1.871750 
# 
# From -- ./inp_files/265844.got.cif
#   From: 2010.05.17/outbox.cif.g08.bks.cpg/sg12_133_cif.got.tgz:265844.got - 2010.06.03 13:09:07.
