data_PCOD9170748
_publ_section_title
;
Structure prediction by ZEFSAII (Michael W. Deem and Ramdas Pophale) SiO2 
 PCOD9170748
Probable space group: C 2/M
;
_chemical_formula_sum "Si O2"
_cell_formula_units_Z 52
_cell_length_a 23.147285
_cell_length_b 22.669911
_cell_length_c 5.351917
_cell_angle_alpha 90.000000
_cell_angle_beta 66.123803
_cell_angle_gamma 90.000000
_cell_volume 2568.064926
_symmetry_space_group_name_H-M "C 2/M"
_symmetry_group_IT_number 12
_symmetry_cell_setting 'monoclinic'
loop_
_space_group_symop_operation_xyz
x,y,z
-x,y,-z
-x,-y,-z
x,-y,z
1/2+x,1/2+y,z
1/2-x,1/2+y,-z
1/2-x,1/2-y,-z
1/2+x,1/2-y,z
loop_
_atom_site_type_symbol
_atom_site_label
_atom_site_fract_x
_atom_site_fract_y
_atom_site_fract_z
Si Si1 0.931711 0.821180 0.743109
Si Si2 0.602912 0.564417 0.500999
Si Si3 0.301906 0.699923 0.896200
Si Si4 0.500000 0.611891 0.000000
Si Si5 0.072945 0.428074 0.365496
Si Si6 0.213648 0.124483 0.572904
Si Si7 0.852576 0.428618 0.264903
O O1 0.902366 0.880982 0.676485
O O2 0.874062 0.776989 0.810388
O O3 0.947479 0.842695 0.992191
O O4 0.000000 0.807659 0.500000
O O5 0.612916 0.500000 0.371444
O O6 0.657961 0.577732 0.605951
O O7 0.534230 0.570076 0.746273
O O8 0.295321 0.672209 0.632228
O O9 0.250000 0.750000 0.000000
O O10 0.290470 0.654108 0.146576
O O11 0.071916 0.500000 0.362086
O O12 0.108297 0.410611 0.557563
O O13 0.000000 0.408392 0.500000
O O14 0.111255 0.409401 0.051070
O O15 0.281960 0.095602 0.411968
O O16 0.849933 0.500000 0.265263
#
# Coordination Sequence:
#
# PCOD9170748 Si02
#       7
#     8   8   8   4   8   8   8
#     4   9  20  36  57  84 116 154 200 248 289 353
#     4  10  20  32  51  82 124 164 194 229 280 340
#     4  11  23  42  64  85 108 147 198 250 302 345
#     4  10  17  34  52  80 120 154 202 230 273 340
#     4   9  17  30  50  77 107 148 196 228 264 328
#     4  11  22  39  57  87 117 149 194 241 287 349
#     4  10  19  32  53  82 117 153 183 226 287 348
#
# _framework density 20.248709999999999
#
# number of rings (size 3 to 8) (size 9 to 14) (size 15 to 20)
#    0.000    2.000    1.538    2.538    0.000    5.231 
#    0.000    1.538    0.000    5.538    0.000    0.000 
#    0.000    0.000    0.000    0.000    0.000    0.000 
#
# Total GULP energy -144898.102877 kJ/mol
# GULP energy per Si atom -5573.003957 kJ/mol
# Density = 2.020262 g / cm^3
# Si number density = 20.248710 Si / 1000 Ang^3
#
#
#
# Elastic Constant Matrix: (Units=GPa)
#
#
# Indices 1 2 3 4 5 6 
#
# 1 151.5404 16.0062 34.5503 0.0000 -17.0839 0.0000
# 2 16.0062 16.4672 3.4553 0.0000 -8.8040 0.0000
# 3 34.5503 3.4553 112.5184 0.0000 -7.2525 0.0000
# 4 0.0000 0.0000 0.0000 16.7086 0.0000 -6.6565
# 5 -17.0839 -8.8040 -7.2525 0.0000 39.3808 0.0000
# 6 0.0000 0.0000 0.0000 -6.6565 0.0000 24.8896
#
#
#
# Elastic Compliance Matrix: (Units=1/GPa)
#
#
# Indices 1 2 3 4 5 6 
#
# 1 0.007946 -0.006408 -0.002139 0.000000 0.001621 0.000000
# 2 -0.006408 0.074283 0.000585 0.000000 0.013935 0.000000
# 3 -0.002139 0.000585 0.009589 0.000000 0.000969 0.000000
# 4 0.000000 0.000000 0.000000 0.066986 0.000000 0.017915
# 5 0.001621 0.013935 0.000969 0.000000 0.029390 0.000000
# 6 0.000000 0.000000 0.000000 0.017915 0.000000 0.044969
#
#
# Mechanical properties :
#
#
# Convention : Reuss Voigt Hill
#
# Bulk Modulus (GPa) = 13.17638 43.17216 28.17427
# Shear Modulus (GPa) = 18.22254 31.29674 24.75964
#
# Velocity S-wave (km/s) = 3.00315 3.93570 3.50062
# Velocity P-wave (km/s) = 4.30658 6.48230 5.50303
#
# Compressibility (1/GPa) = 0.07589335
#
# Stress axis : x y z
#
# Youngs Moduli (GPa) = 125.84805 13.46197 104.29009
#
# Poissons Ratio (x) = 0.08627 0.22305
# Poissons Ratio (y) = 0.80649 -0.06099
# Poissons Ratio (z) = 0.26915 -0.00787
#
# Static dielectric constant tensor:
#      x y z
#    x 1.774050 0.000000 -0.012000 
#    y 0.000000 1.727480 0.000000 
#    z -0.012000 0.000000 1.756590 
# 
# From -- ./inp_files/21588.got.cif
#   From: 2010.05.17/outbox.cif.g08.bks.cpg/sg12_11_cif.got.tgz:21588.got - 2010.06.03 13:09:07.
