data_PCOD9170351
_publ_section_title
;
Structure prediction by ZEFSAII (Michael W. Deem and Ramdas Pophale) SiO2 
 PCOD9170351
Probable space group: C 2/M
;
_chemical_formula_sum "Si O2"
_cell_formula_units_Z 56
_cell_length_a 22.699091
_cell_length_b 30.152709
_cell_length_c 18.377301
_cell_angle_alpha 90.000000
_cell_angle_beta 163.095858
_cell_angle_gamma 90.000000
_cell_volume 3657.363802
_symmetry_space_group_name_H-M "C 2/M"
_symmetry_group_IT_number 12
_symmetry_cell_setting 'monoclinic'
loop_
_space_group_symop_operation_xyz
x,y,z
-x,y,-z
-x,-y,-z
x,-y,z
1/2+x,1/2+y,z
1/2-x,1/2+y,-z
1/2-x,1/2-y,-z
1/2+x,1/2-y,z
loop_
_atom_site_type_symbol
_atom_site_label
_atom_site_fract_x
_atom_site_fract_y
_atom_site_fract_z
Si Si1 0.350084 0.949412 0.752734
Si Si2 0.394619 0.121491 0.015471
Si Si3 0.194899 0.814884 0.883963
Si Si4 0.170349 0.821167 0.638954
Si Si5 0.712509 0.720070 0.218738
Si Si6 0.925686 0.951416 0.328775
Si Si7 0.159859 0.288003 0.794687
O O1 0.122214 0.944651 0.511885
O O2 0.373532 0.000000 0.750591
O O3 0.500000 0.947970 0.000000
O O4 0.413759 0.909056 0.775815
O O5 0.372019 0.162112 0.045137
O O6 0.314578 0.141694 0.843838
O O7 0.235441 0.087152 0.862001
O O8 0.184205 0.763369 0.847477
O O9 0.970230 0.832608 0.596208
O O10 0.244253 0.816612 0.027316
O O11 0.276752 0.773733 0.758185
O O12 0.000000 0.814930 0.500000
O O13 0.737265 0.708730 0.162753
O O14 0.919470 0.703341 0.501267
O O15 0.500000 0.704267 0.000000
O O16 0.000000 0.952342 0.500000
O O17 0.838395 0.000000 0.208983
#
# Coordination Sequence:
#
# PCOD9170351 Si02
#       7
#     8   8   8   8   8   8   8
#     4  10  20  29  40  60  84 116 155 189 214 245
#     4  11  18  30  44  63  84 117 154 191 216 246
#     4   9  17  30  48  59  89 115 139 183 239 252
#     4   9  16  30  41  62  84 110 144 183 221 246
#     4  10  17  31  50  62  78 111 147 176 222 274
#     4  10  18  29  41  55  80 114 151 184 214 247
#     4   9  17  35  45  61  88 111 138 189 225 273
#
# _framework density 15.311574
#
# number of rings (size 3 to 8) (size 9 to 14) (size 15 to 20)
#    0.000    2.286    5.714    1.714    0.000    0.571 
#    2.571    7.857    0.000    0.000    0.000    0.000 
#    0.000    0.000    0.000   10.286    0.000   28.571 
#
# Total GULP energy -155873.786052 kJ/mol
# GULP energy per Si atom -5566.920930 kJ/mol
# Density = 1.527672 g / cm^3
# Si number density = 15.311574 Si / 1000 Ang^3
#
#
#
# Elastic Constant Matrix: (Units=GPa)
#
#
# Indices 1 2 3 4 5 6 
#
# 1 82.9678 20.5732 56.1097 0.0013 -3.4789 -0.0032
# 2 20.5732 37.9356 14.5327 0.0000 -2.4449 0.0011
# 3 56.1097 14.5327 60.1956 0.0028 5.4035 -0.0027
# 4 0.0013 0.0000 0.0028 13.0692 0.0019 3.0653
# 5 -3.4789 -2.4449 5.4035 0.0019 27.7471 -0.0044
# 6 -0.0032 0.0011 -0.0027 3.0653 -0.0044 25.6927
#
#
#
# Elastic Compliance Matrix: (Units=1/GPa)
#
#
# Indices 1 2 3 4 5 6 
#
# 1 0.037043 -0.006397 -0.033944 0.000001 0.010691 0.000003
# 2 -0.006397 0.030593 -0.001622 0.000001 0.002210 -0.000002
# 3 -0.033944 -0.001622 0.049912 -0.000005 -0.014119 -0.000001
# 4 0.000001 0.000001 -0.000005 0.078719 -0.000006 -0.009392
# 5 0.010691 0.002210 -0.014119 -0.000006 0.040324 0.000007
# 6 0.000003 -0.000002 -0.000001 -0.009392 0.000007 0.040042
#
#
# Mechanical properties :
#
#
# Convention : Reuss Voigt Hill
#
# Bulk Modulus (GPa) = 29.74185 40.39224 35.06705
# Shear Modulus (GPa) = 13.44930 19.29402 16.37166
#
# Velocity S-wave (km/s) = 2.96695 3.55363 3.27346
# Velocity P-wave (km/s) = 5.58603 6.57839 6.10241
#
# Compressibility (1/GPa) = 0.03362265
#
# Stress axis : x y z
#
# Youngs Moduli (GPa) = 26.99544 32.68701 20.03534
#
# Poissons Ratio (x) = 0.20908 0.68009
# Poissons Ratio (y) = 0.17268 0.03250
# Poissons Ratio (z) = 0.91634 0.05302
#
# Static dielectric constant tensor:
#      x y z
#    x 1.527290 0.000000 0.009350 
#    y 0.000000 1.559340 0.000000 
#    z 0.009350 0.000000 1.523380 
# 
# From -- ./inp_files/286751.got.cif
#   From: 2010.05.17/outbox.cif.g08.bks.cpg/sg12_144_cif.got.tgz:286751.got - 2010.06.03 13:09:07.
