data_PCOD9170651
_publ_section_title
;
Structure prediction by ZEFSAII (Michael W. Deem and Ramdas Pophale) SiO2 
 PCOD9170651
Probable space group: C 2/M
;
_chemical_formula_sum "Si O2"
_cell_formula_units_Z 44
_cell_length_a 15.338779
_cell_length_b 18.497275
_cell_length_c 11.478186
_cell_angle_alpha 90.000000
_cell_angle_beta 122.174739
_cell_angle_gamma 90.000000
_cell_volume 2756.524358
_symmetry_space_group_name_H-M "C 2/M"
_symmetry_group_IT_number 12
_symmetry_cell_setting 'monoclinic'
loop_
_space_group_symop_operation_xyz
x,y,z
-x,y,-z
-x,-y,-z
x,-y,z
1/2+x,1/2+y,z
1/2-x,1/2+y,-z
1/2-x,1/2-y,-z
1/2+x,1/2-y,z
loop_
_atom_site_type_symbol
_atom_site_label
_atom_site_fract_x
_atom_site_fract_y
_atom_site_fract_z
Si Si1 0.748425 0.134279 0.075004
Si Si2 0.333666 0.000000 0.865080
Si Si3 0.211765 0.082796 0.150424
Si Si4 0.559697 0.872285 0.662033
Si Si5 0.913583 0.254172 0.150005
Si Si6 0.500000 0.667885 0.000000
Si Si7 0.492604 0.000000 0.196385
O O1 0.838808 0.193091 0.151131
O O2 0.726689 0.075885 0.159906
O O3 0.775940 0.087493 0.980539
O O4 0.652334 0.185066 0.968293
O O5 0.398038 0.000000 0.791480
O O6 0.411958 0.000000 0.031783
O O7 0.316489 0.120931 0.269578
O O8 0.103329 0.121541 0.096132
O O9 0.211163 0.000000 0.188965
O O10 0.500000 0.882674 0.500000
O O11 0.535500 0.796693 0.707823
O O12 0.527592 0.932471 0.733780
O O13 0.982225 0.216107 0.101811
#
# Coordination Sequence:
#
# PCOD9170651 Si02
#       7
#     8   4   8   8   8   4   4
#     4   9  16  31  51  74 106 132 162 216 262 307
#     4  11  18  30  54  82 104 125 167 227 266 295
#     4  10  17  33  52  79 104 134 173 204 263 304
#     4  11  21  37  54  71 106 144 171 204 252 317
#     4   9  19  31  49  76 102 137 171 204 260 298
#     4  10  21  30  54  79 108 130 164 230 254 295
#     4  11  21  30  52  82 102 130 167 218 265 297
#
# _framework density 15.962130999999999
#
# number of rings (size 3 to 8) (size 9 to 14) (size 15 to 20)
#    0.000    2.000    5.455    1.636    2.545    0.000 
#    0.000    0.909    0.000    0.000    0.000    0.636 
#    0.000    0.000    0.000    0.000    0.000    0.000 
#
# Total GULP energy -122470.514085 kJ/mol
# GULP energy per Si atom -5566.841549 kJ/mol
# Density = 1.592580 g / cm^3
# Si number density = 15.962131 Si / 1000 Ang^3
#
#
#
# Elastic Constant Matrix: (Units=GPa)
#
#
# Indices 1 2 3 4 5 6 
#
# 1 109.2036 44.6733 31.4755 0.0000 6.8611 0.0000
# 2 44.6733 89.2679 21.5538 0.0000 2.1811 0.0000
# 3 31.4755 21.5538 66.2292 0.0000 -2.0678 0.0000
# 4 0.0000 0.0000 0.0000 4.7637 0.0000 0.6720
# 5 6.8611 2.1811 -2.0678 0.0000 13.8049 0.0000
# 6 0.0000 0.0000 0.0000 0.6720 0.0000 12.7122
#
#
#
# Elastic Compliance Matrix: (Units=1/GPa)
#
#
# Indices 1 2 3 4 5 6 
#
# 1 0.013056 -0.005244 -0.004697 0.000000 -0.006364 0.000000
# 2 -0.005244 0.014352 -0.002178 0.000000 0.000013 0.000000
# 3 -0.004697 -0.002178 0.018209 0.000000 0.005406 0.000000
# 4 0.000000 0.000000 0.000000 0.211498 0.000000 -0.011180
# 5 -0.006364 0.000013 0.005406 0.000000 0.076409 0.000000
# 6 0.000000 0.000000 0.000000 -0.011180 0.000000 0.079256
#
#
# Mechanical properties :
#
#
# Convention : Reuss Voigt Hill
#
# Bulk Modulus (GPa) = 46.77541 51.12288 48.94914
# Shear Modulus (GPa) = 11.25758 17.38936 14.32347
#
# Velocity S-wave (km/s) = 2.65857 3.30421 2.99881
# Velocity P-wave (km/s) = 6.22829 6.83039 6.53627
#
# Compressibility (1/GPa) = 0.02137876
#
# Stress axis : x y z
#
# Youngs Moduli (GPa) = 76.59216 69.67532 54.91810
#
# Poissons Ratio (x) = 0.36540 0.25795
# Poissons Ratio (y) = 0.40167 0.11962
# Poissons Ratio (z) = 0.35975 0.15176
#
# Static dielectric constant tensor:
#      x y z
#    x 1.551760 0.000000 0.022020 
#    y 0.000000 1.574640 0.000000 
#    z 0.022020 0.000000 1.513010 
# 
# From -- ./inp_files/76131.got.cif
#   From: 2010.05.17/outbox.cif.g08.bks.cpg/sg12_39_cif.got.tgz:76131.got - 2010.06.03 13:09:07.
