data_PCOD9170188
_publ_section_title
;
Structure prediction by ZEFSAII (Michael W. Deem and Ramdas Pophale) SiO2 
 PCOD9170188
Probable space group: C 2/M
;
_chemical_formula_sum "Si O2"
_cell_formula_units_Z 64
_cell_length_a 14.620543
_cell_length_b 13.439490
_cell_length_c 19.026500
_cell_angle_alpha 90.000000
_cell_angle_beta 92.915086
_cell_angle_gamma 90.000000
_cell_volume 3733.729542
_symmetry_space_group_name_H-M "C 2/M"
_symmetry_group_IT_number 12
_symmetry_cell_setting 'monoclinic'
loop_
_space_group_symop_operation_xyz
x,y,z
-x,y,-z
-x,-y,-z
x,-y,z
1/2+x,1/2+y,z
1/2-x,1/2+y,-z
1/2-x,1/2-y,-z
1/2+x,1/2-y,z
loop_
_atom_site_type_symbol
_atom_site_label
_atom_site_fract_x
_atom_site_fract_y
_atom_site_fract_z
Si Si1 0.151264 0.384980 0.728159
Si Si2 0.246298 0.756279 0.838087
Si Si3 0.764809 0.705753 0.396512
Si Si4 0.406808 0.257595 0.520231
Si Si5 0.220915 0.612826 0.296666
Si Si6 0.025443 0.387159 0.357411
Si Si7 0.903137 0.116185 0.904813
Si Si8 0.615582 0.384520 0.927253
O O1 0.139418 0.500000 0.745283
O O2 0.182551 0.323766 0.796239
O O3 0.222624 0.370479 0.666827
O O4 0.058033 0.343574 0.690319
O O5 0.266830 0.837849 0.778727
O O6 0.336055 0.695647 0.866172
O O7 0.189774 0.810871 0.897031
O O8 0.671769 0.688360 0.436830
O O9 0.849292 0.709929 0.453885
O O10 0.761813 0.813293 0.357379
O O11 0.500000 0.313133 0.500000
O O12 0.446528 0.173080 0.573064
O O13 0.256906 0.500000 0.301376
O O14 0.113887 0.610001 0.311397
O O15 0.999915 0.500000 0.376175
O O16 0.011418 0.135797 0.897016
O O17 0.884722 0.000000 0.883533
O O18 0.887340 0.122498 0.988281
O O19 0.636619 0.500000 0.910328
#
# Coordination Sequence:
#
# PCOD9170188 Si02
#       8
#     8   8   8   8   8   8   8   8
#     4  10  20  33  48  75 107 133 165 209 261 314
#     4  11  20  31  57  80 103 139 178 218 257 302
#     4   9  19  32  49  74  94 133 161 210 257 302
#     4  10  17  30  51  71  95 122 168 211 254 301
#     4   9  19  34  49  72 103 133 170 211 258 309
#     4   9  18  31  48  70  99 131 163 209 264 313
#     4   9  19  36  55  79 111 142 175 217 261 310
#     4   9  19  36  57  80 107 141 181 217 255 310
#
# _framework density 17.141038000000002
#
# number of rings (size 3 to 8) (size 9 to 14) (size 15 to 20)
#    0.000    2.500    1.250    1.875    1.750    0.750 
#    0.000    1.875    0.000    1.500    0.000    5.250 
#    0.000    0.000    0.000    0.000    0.000    0.000 
#
# Total GULP energy -178199.178007 kJ/mol
# GULP energy per Si atom -5568.724313 kJ/mol
# Density = 1.710202 g / cm^3
# Si number density = 17.141038 Si / 1000 Ang^3
#
#
#
# Elastic Constant Matrix: (Units=GPa)
#
#
# Indices 1 2 3 4 5 6 
#
# 1 67.2962 19.7722 9.9994 0.0000 9.8107 0.0000
# 2 19.7722 57.8258 17.2675 0.0000 8.6057 0.0000
# 3 9.9994 17.2675 38.4369 0.0000 8.5629 0.0000
# 4 0.0000 0.0000 0.0000 8.1508 0.0000 4.9535
# 5 9.8107 8.6057 8.5629 0.0000 31.3676 0.0000
# 6 0.0000 0.0000 0.0000 4.9535 0.0000 21.8624
#
#
#
# Elastic Compliance Matrix: (Units=1/GPa)
#
#
# Indices 1 2 3 4 5 6 
#
# 1 0.017025 -0.004854 -0.001447 0.000000 -0.003598 0.000000
# 2 -0.004854 0.021668 -0.007970 0.000000 -0.002251 0.000000
# 3 -0.001447 -0.007970 0.031288 0.000000 -0.005902 0.000000
# 4 0.000000 0.000000 0.000000 0.142278 0.000000 -0.032237
# 5 -0.003598 -0.002251 -0.005902 0.000000 0.035234 0.000000
# 6 0.000000 0.000000 0.000000 -0.032237 0.000000 0.053045
#
#
# Mechanical properties :
#
#
# Convention : Reuss Voigt Hill
#
# Bulk Modulus (GPa) = 24.13128 28.62636 26.37882
# Shear Modulus (GPa) = 14.58178 20.04417 17.31297
#
# Velocity S-wave (km/s) = 2.91983 3.42331 3.18155
# Velocity P-wave (km/s) = 5.04736 5.68877 5.37764
#
# Compressibility (1/GPa) = 0.04143998
#
# Stress axis : x y z
#
# Youngs Moduli (GPa) = 58.73586 46.15125 31.96072
#
# Poissons Ratio (x) = 0.22401 0.04625
# Poissons Ratio (y) = 0.28510 0.25473
# Poissons Ratio (z) = 0.08499 0.36782
#
# Static dielectric constant tensor:
#      x y z
#    x 1.604750 0.000000 -0.018230 
#    y 0.000000 1.576870 0.000000 
#    z -0.018230 0.000000 1.574350 
# 
# From -- ./inp_files/269899.got.cif
#   From: 2010.05.17/outbox.cif.g08.bks.cpg/sg12_135_cif.got.tgz:269899.got - 2010.06.03 13:09:07.
