data_PCOD9170238
_publ_section_title
;
Structure prediction by ZEFSAII (Michael W. Deem and Ramdas Pophale) SiO2 
 PCOD9170238
Probable space group: C 2/M
;
_chemical_formula_sum "Si O2"
_cell_formula_units_Z 48
_cell_length_a 21.624642
_cell_length_b 19.935161
_cell_length_c 19.312925
_cell_angle_alpha 90.000000
_cell_angle_beta 19.845312
_cell_angle_gamma 90.000000
_cell_volume 2826.398258
_symmetry_space_group_name_H-M "C 2/M"
_symmetry_group_IT_number 12
_symmetry_cell_setting 'monoclinic'
loop_
_space_group_symop_operation_xyz
x,y,z
-x,y,-z
-x,-y,-z
x,-y,z
1/2+x,1/2+y,z
1/2-x,1/2+y,-z
1/2-x,1/2-y,-z
1/2+x,1/2-y,z
loop_
_atom_site_type_symbol
_atom_site_label
_atom_site_fract_x
_atom_site_fract_y
_atom_site_fract_z
Si Si1 0.981332 0.923487 0.301534
Si Si2 0.396905 0.246676 0.176102
Si Si3 0.236428 0.320700 0.471949
Si Si4 0.249694 0.263454 0.887971
Si Si5 0.185265 0.647507 0.088798
Si Si6 0.935632 0.150340 0.495605
O O1 0.868451 0.872736 0.371414
O O2 0.955658 0.897455 0.407673
O O3 0.919729 0.000000 0.360703
O O4 0.192011 0.917121 0.054547
O O5 0.294523 0.300165 0.332892
O O6 0.260509 0.186557 0.299093
O O7 0.500000 0.274634 0.000000
O O8 0.561410 0.219607 0.049906
O O9 0.250000 0.250000 0.500000
O O10 0.032497 0.350478 0.686851
O O11 0.261692 0.185877 0.896427
O O12 0.420843 0.288620 0.664828
O O13 0.255999 0.305184 0.951994
O O14 0.000000 0.117529 0.500000
#
# Coordination Sequence:
#
# PCOD9170238 Si02
#       6
#     8   8   8   8   8   8
#     4  11  24  38  56  83 117 159 201 238 284 346
#     4  12  21  31  54  92 119 143 183 247 301 340
#     4  12  19  36  63  87 111 149 198 251 294 339
#     4  10  17  30  52  83 107 137 182 238 290 333
#     4  10  18  32  56  78 107 142 189 240 286 329
#     4  11  21  34  54  82 119 156 191 233 286 346
#
# _framework density 16.982745000000001
#
# number of rings (size 3 to 8) (size 9 to 14) (size 15 to 20)
#    0.000    1.000    8.333    1.000    0.000    1.000 
#    0.000    0.000    0.000    1.000    0.000    1.167 
#    0.000    0.000    0.000    0.000    0.000    0.000 
#
# Total GULP energy -133678.990489 kJ/mol
# GULP energy per Si atom -5569.957937 kJ/mol
# Density = 1.694409 g / cm^3
# Si number density = 16.982745 Si / 1000 Ang^3
#
#
#
# Elastic Constant Matrix: (Units=GPa)
#
#
# Indices 1 2 3 4 5 6 
#
# 1 45.2825 37.4825 19.4623 -0.0049 -6.7404 -0.0058
# 2 37.4825 81.5960 26.1627 0.0162 1.0104 0.0035
# 3 19.4623 26.1627 97.5937 0.0037 -6.8863 -0.0001
# 4 -0.0049 0.0162 0.0037 14.2349 -0.0036 -4.9408
# 5 -6.7404 1.0104 -6.8863 -0.0036 41.4647 -0.0037
# 6 -0.0058 0.0035 -0.0001 -4.9408 -0.0037 8.6069
#
#
#
# Elastic Compliance Matrix: (Units=1/GPa)
#
#
# Indices 1 2 3 4 5 6 
#
# 1 0.037913 -0.016636 -0.002669 0.000058 0.006125 0.000068
# 2 -0.016636 0.020744 -0.002499 -0.000046 -0.003625 -0.000048
# 3 -0.002669 -0.002499 0.011558 -0.000001 0.001547 0.000000
# 4 0.000058 -0.000046 -0.000001 0.087730 0.000023 0.050362
# 5 0.006125 -0.003625 0.001547 0.000023 0.025458 0.000029
# 6 0.000068 -0.000048 0.000000 0.050362 0.000029 0.145096
#
#
# Mechanical properties :
#
#
# Convention : Reuss Voigt Hill
#
# Bulk Modulus (GPa) = 37.58456 43.40969 40.49712
# Shear Modulus (GPa) = 13.12421 22.28559 17.70490
#
# Velocity S-wave (km/s) = 2.78294 3.62643 3.23232
# Velocity P-wave (km/s) = 5.70135 6.56896 6.15047
#
# Compressibility (1/GPa) = 0.02660667
#
# Stress axis : x y z
#
# Youngs Moduli (GPa) = 26.37633 48.20723 86.52128
#
# Poissons Ratio (x) = 0.80198 0.23090
# Poissons Ratio (y) = 0.43880 0.21623
# Poissons Ratio (z) = 0.07039 0.12048
#
# Static dielectric constant tensor:
#      x y z
#    x 1.625460 0.000000 0.016520 
#    y 0.000000 1.557250 0.000000 
#    z 0.016520 0.000000 1.626680 
# 
# From -- ./inp_files/285862.got.cif
#   From: 2010.05.17/outbox.cif.g08.bks.cpg/sg12_143_cif.got.tgz:285862.got - 2010.06.03 13:09:07.
