data_PCOD9170487
_publ_section_title
;
Structure prediction by ZEFSAII (Michael W. Deem and Ramdas Pophale) SiO2 
 PCOD9170487
Probable space group: C 2/M
;
_chemical_formula_sum "Si O2"
_cell_formula_units_Z 52
_cell_length_a 29.304567
_cell_length_b 15.953279
_cell_length_c 20.935304
_cell_angle_alpha 90.000000
_cell_angle_beta 18.428164
_cell_angle_gamma 90.000000
_cell_volume 3093.928166
_symmetry_space_group_name_H-M "C 2/M"
_symmetry_group_IT_number 12
_symmetry_cell_setting 'monoclinic'
loop_
_space_group_symop_operation_xyz
x,y,z
-x,y,-z
-x,-y,-z
x,-y,z
1/2+x,1/2+y,z
1/2-x,1/2+y,-z
1/2-x,1/2-y,-z
1/2+x,1/2-y,z
loop_
_atom_site_type_symbol
_atom_site_label
_atom_site_fract_x
_atom_site_fract_y
_atom_site_fract_z
Si Si1 0.409991 0.757405 0.315887
Si Si2 0.452336 0.593892 0.923463
Si Si3 0.742333 0.907065 0.686853
Si Si4 0.000000 0.837562 0.000000
Si Si5 0.474596 0.093396 0.140291
Si Si6 0.618046 0.904240 0.397505
Si Si7 0.323870 0.769883 0.573200
O O1 0.250000 0.750000 0.500000
O O2 0.485122 0.668594 0.202114
O O3 0.483790 0.831719 0.177882
O O4 0.393710 0.780625 0.411236
O O5 0.497687 0.500000 0.844136
O O6 0.498523 0.610270 0.936124
O O7 0.278872 0.598863 0.154481
O O8 0.664727 0.896379 0.720872
O O9 0.841772 0.827515 0.567423
O O10 0.808269 0.000000 0.601386
O O11 0.612354 0.905232 0.910689
O O12 0.149189 0.785209 0.801744
O O13 0.465471 0.000000 0.181393
O O14 0.500000 0.888449 0.500000
O O15 0.615706 0.835917 0.456501
O O16 0.597999 0.000000 0.448329
#
# Coordination Sequence:
#
# PCOD9170487 Si02
#       7
#     8   8   8   4   8   8   8
#     4  12  21  30  43  77 117 142 160 197 262 327
#     4  10  20  33  52  76 107 141 173 216 264 311
#     4   9  16  28  46  65  91 135 178 202 228 282
#     4  10  17  32  49  72 106 138 181 216 251 310
#     4   9  17  29  43  62  96 139 173 199 231 288
#     4   9  20  40  62  78  93 128 184 233 268 303
#     4  11  20  31  51  75 106 137 169 210 261 310
#
# _framework density 16.807113000000001
#
# number of rings (size 3 to 8) (size 9 to 14) (size 15 to 20)
#    0.000    2.000    3.077    3.923    0.000    2.462 
#    0.000    0.769    0.000    0.462    0.000    0.000 
#    0.000    0.000    0.000    0.000    0.000    0.000 
#
# Total GULP energy -145000.307659 kJ/mol
# GULP energy per Si atom -5576.934910 kJ/mol
# Density = 1.676886 g / cm^3
# Si number density = 16.807113 Si / 1000 Ang^3
#
#
#
# Elastic Constant Matrix: (Units=GPa)
#
#
# Indices 1 2 3 4 5 6 
#
# 1 76.1986 70.4865 35.0951 -0.0001 3.9074 0.0000
# 2 70.4865 178.1691 40.0770 -0.0001 15.1150 0.0000
# 3 35.0951 40.0770 32.0459 -0.0002 8.8603 0.0000
# 4 -0.0001 -0.0001 -0.0002 7.0005 0.0002 -6.9542
# 5 3.9074 15.1150 8.8603 0.0002 25.2651 0.0000
# 6 0.0000 0.0000 0.0000 -6.9542 0.0000 10.5714
#
#
#
# Elastic Compliance Matrix: (Units=1/GPa)
#
#
# Indices 1 2 3 4 5 6 
#
# 1 0.033003 -0.007159 -0.029858 -0.000003 0.009650 -0.000002
# 2 -0.007159 0.009406 -0.002961 0.000000 -0.003482 0.000000
# 3 -0.029858 -0.002961 0.072910 0.000007 -0.019180 0.000005
# 4 -0.000003 0.000000 0.000007 0.412242 -0.000005 0.271185
# 5 0.009650 -0.003482 -0.019180 -0.000005 0.046897 -0.000004
# 6 -0.000002 0.000000 0.000005 0.271185 -0.000004 0.272989
#
#
# Mechanical properties :
#
#
# Convention : Reuss Voigt Hill
#
# Bulk Modulus (GPa) = 28.27762 64.19231 46.23497
# Shear Modulus (GPa) = 5.32374 17.95106 11.63740
#
# Velocity S-wave (km/s) = 1.78169 3.27167 2.63422
# Velocity P-wave (km/s) = 4.59281 7.24901 6.06804
#
# Compressibility (1/GPa) = 0.03536365
#
# Stress axis : x y z
#
# Youngs Moduli (GPa) = 30.30049 106.31313 13.71552
#
# Poissons Ratio (x) = 0.76108 0.40952
# Poissons Ratio (y) = 0.21692 0.04061
# Poissons Ratio (z) = 0.90471 0.31477
#
# Static dielectric constant tensor:
#      x y z
#    x 1.546660 0.000000 0.018310 
#    y 0.000000 1.616810 0.000000 
#    z 0.018310 0.000000 1.572860 
# 
# From -- ./inp_files/155331.got.cif
#   From: 2010.05.17/outbox.cif.g08.bks.cpg/sg12_78_cif.got.tgz:155331.got - 2010.06.03 13:09:07.
