data_PCOD9170104
_publ_section_title
;
Structure prediction by ZEFSAII (Michael W. Deem and Ramdas Pophale) SiO2 
 PCOD9170104
Probable space group: C 2/M
;
_chemical_formula_sum "Si O2"
_cell_formula_units_Z 48
_cell_length_a 19.548243
_cell_length_b 21.192766
_cell_length_c 5.400756
_cell_angle_alpha 90.000000
_cell_angle_beta 53.280404
_cell_angle_gamma 90.000000
_cell_volume 1793.461400
_symmetry_space_group_name_H-M "C 2/M"
_symmetry_group_IT_number 12
_symmetry_cell_setting 'monoclinic'
loop_
_space_group_symop_operation_xyz
x,y,z
-x,y,-z
-x,-y,-z
x,-y,z
1/2+x,1/2+y,z
1/2-x,1/2+y,-z
1/2-x,1/2-y,-z
1/2+x,1/2-y,z
loop_
_atom_site_type_symbol
_atom_site_label
_atom_site_fract_x
_atom_site_fract_y
_atom_site_fract_z
Si Si1 0.672650 0.700948 0.647367
Si Si2 0.368077 0.428758 0.139108
Si Si3 0.903911 0.588314 0.175470
Si Si4 0.615102 0.613914 0.393579
Si Si5 0.086031 0.707564 0.155465
Si Si6 0.813174 0.401596 0.878006
O O1 0.750000 0.750000 0.500000
O O2 0.698960 0.629767 0.669847
O O3 0.627593 0.684964 0.481178
O O4 0.606323 0.725342 0.994808
O O5 0.338066 0.500000 0.168107
O O6 0.414110 0.424860 0.304808
O O7 0.422418 0.404056 0.789410
O O8 0.853950 0.575695 0.535121
O O9 0.913428 0.663057 0.090898
O O10 0.859171 0.567978 0.017316
O O11 0.000000 0.565742 0.000000
O O12 0.713006 0.590990 0.126162
O O13 0.161070 0.673106 0.150089
O O14 0.000000 0.702501 0.500000
#
# Coordination Sequence:
#
# PCOD9170104 Si02
#       6
#     8   8   8   8   8   8
#     4  10  21  37  57  91 121 153 188 251 301 349
#     4  10  22  40  58  82 118 159 198 241 295 354
#     4  10  17  30  45  71 115 158 181 220 279 353
#     4  10  21  36  58  83 114 151 192 241 296 350
#     4  10  19  33  50  79 120 159 186 234 291 357
#     4  10  18  30  50  76 113 144 188 229 285 342
#
# _framework density 26.763884999999998
#
# number of rings (size 3 to 8) (size 9 to 14) (size 15 to 20)
#    2.000    0.000    3.333    2.000    2.333    2.000 
#    0.000    0.000    0.000    0.500    0.000    1.167 
#    0.000  127.333    0.000    0.000    0.000    0.000 
#
# Total GULP energy -133862.554992 kJ/mol
# GULP energy per Si atom -5577.606458 kJ/mol
# Density = 2.670297 g / cm^3
# Si number density = 26.763885 Si / 1000 Ang^3
#
#
#
# Elastic Constant Matrix: (Units=GPa)
#
#
# Indices 1 2 3 4 5 6 
#
# 1 85.8809 15.7898 58.5851 0.0000 21.7105 0.0000
# 2 15.7898 191.3930 36.3779 0.0000 13.6300 0.0000
# 3 58.5851 36.3779 235.7383 0.0000 37.8322 0.0000
# 4 0.0000 0.0000 0.0000 -107.0980 0.0000 -59.7570
# 5 21.7105 13.6300 37.8322 0.0000 63.2522 0.0000
# 6 0.0000 0.0000 0.0000 -59.7570 0.0000 -63.2718
#
#
#
# Elastic Compliance Matrix: (Units=1/GPa)
#
#
# Indices 1 2 3 4 5 6 
#
# 1 0.014592 -0.000401 -0.003069 0.000000 -0.003086 0.000000
# 2 -0.000401 0.005425 -0.000633 0.000000 -0.000653 0.000000
# 3 -0.003069 -0.000633 0.005433 0.000000 -0.002060 0.000000
# 4 0.000000 0.000000 0.000000 -0.019739 0.000000 0.018643
# 5 -0.003086 -0.000653 -0.002060 0.000000 0.018242 0.000000
# 6 0.000000 0.000000 0.000000 0.018643 0.000000 -0.033412
#
#
# Mechanical properties :
#
#
# Convention : Reuss Voigt Hill
#
# Bulk Modulus (GPa) = 57.99086 81.61310 69.80198
# Shear Modulus (GPa) = 1112.87428 5.39378 559.13403
#
# Velocity S-wave (km/s) = 20.41359 1.42116 14.46953
# Velocity P-wave (km/s) = 24.02778 5.76653 17.47265
#
# Compressibility (1/GPa) = 0.01724410
#
# Stress axis : x y z
#
# Youngs Moduli (GPa) = 68.53275 184.34297 184.06300
#
# Poissons Ratio (x) = 0.07386 0.56491
# Poissons Ratio (y) = 0.02746 0.11647
# Poissons Ratio (z) = 0.21034 0.11664
#
# Static dielectric constant tensor:
#      x y z
#    x 2.242240 0.000000 0.086650 
#    y 0.000000 2.155500 0.000000 
#    z 0.086650 0.000000 2.089230 
# 
# From -- ./inp_files/26382.got.cif
#   From: 2010.05.17/outbox.cif.g08.bks.cpg/sg12_14_cif.got.tgz:26382.got - 2010.06.03 13:09:07.
