data_PCOD9170142
_publ_section_title
;
Structure prediction by ZEFSAII (Michael W. Deem and Ramdas Pophale) SiO2 
 PCOD9170142
Probable space group: C 2/M
;
_chemical_formula_sum "Si O2"
_cell_formula_units_Z 64
_cell_length_a 29.454747
_cell_length_b 7.735663
_cell_length_c 16.183248
_cell_angle_alpha 90.000000
_cell_angle_beta 92.236994
_cell_angle_gamma 90.000000
_cell_volume 3684.575293
_symmetry_space_group_name_H-M "C 2/M"
_symmetry_group_IT_number 12
_symmetry_cell_setting 'monoclinic'
loop_
_space_group_symop_operation_xyz
x,y,z
-x,y,-z
-x,-y,-z
x,-y,z
1/2+x,1/2+y,z
1/2-x,1/2+y,-z
1/2-x,1/2-y,-z
1/2+x,1/2-y,z
loop_
_atom_site_type_symbol
_atom_site_label
_atom_site_fract_x
_atom_site_fract_y
_atom_site_fract_z
Si Si1 0.689995 0.212756 0.665686
Si Si2 0.793936 0.204774 0.692798
Si Si3 0.149422 0.793514 0.148403
Si Si4 0.551373 0.792111 0.096123
Si Si5 0.802854 0.206495 0.015075
Si Si6 0.803324 0.294757 0.513445
Si Si7 0.361031 0.795634 0.177187
Si Si8 0.450481 0.788358 0.094989
O O1 0.742075 0.271412 0.685248
O O2 0.675727 0.267117 0.572005
O O3 0.658678 0.273911 0.738376
O O4 0.690536 0.000000 0.665956
O O5 0.822939 0.276196 0.771003
O O6 0.816694 0.228114 0.604543
O O7 0.789586 0.000000 0.705447
O O8 0.095786 0.761727 0.148591
O O9 0.156055 0.000000 0.146985
O O10 0.169458 0.726038 0.062898
O O11 0.501565 0.734392 0.122517
O O12 0.550414 0.000000 0.094674
O O13 0.556785 0.734635 0.000924
O O14 0.824418 0.275656 0.101139
O O15 0.807498 0.000000 0.018497
O O16 0.750000 0.250000 0.000000
O O17 0.808168 0.500000 0.516568
O O18 0.750000 0.250000 0.500000
O O19 0.409015 0.724649 0.147754
O O20 0.367722 0.000000 0.190528
O O21 0.449474 0.000000 0.095330
#
# Coordination Sequence:
#
# PCOD9170142 Si02
#       8
#     8   8   8   8   8   8   8   8
#     4   8  15  27  45  65  87 114 143 176 216 258
#     4   9  17  30  44  61  87 117 147 181 218 260
#     4  10  20  32  45  64  90 119 150 185 224 260
#     4   9  16  29  46  66  88 113 148 187 221 261
#     4  11  22  33  43  60  89 122 153 182 212 252
#     4   9  16  28  44  64  87 112 143 181 220 258
#     4  10  17  30  49  66  86 119 151 177 216 264
#     4   8  15  27  46  67  88 113 145 185 224 260
#
# _framework density 17.369707999999999
#
# number of rings (size 3 to 8) (size 9 to 14) (size 15 to 20)
#    0.000    2.750    1.250    3.000    0.000    3.000 
#    0.000    7.500    0.000    0.000    0.000    0.875 
#    0.000    7.000    0.000    0.000    0.000    0.000 
#
# Total GULP energy -178310.817877 kJ/mol
# GULP energy per Si atom -5572.213059 kJ/mol
# Density = 1.733017 g / cm^3
# Si number density = 17.369708 Si / 1000 Ang^3
#
#
#
# Elastic Constant Matrix: (Units=GPa)
#
#
# Indices 1 2 3 4 5 6 
#
# 1 91.5893 -3.6911 40.3179 0.0000 -21.9679 0.0000
# 2 -3.6911 23.0325 -3.0454 0.0000 -2.1994 0.0000
# 3 40.3179 -3.0454 96.3075 0.0000 -27.3811 0.0000
# 4 0.0000 0.0000 0.0000 13.8020 0.0000 3.9975
# 5 -21.9679 -2.1994 -27.3811 0.0000 19.4085 0.0000
# 6 0.0000 0.0000 0.0000 3.9975 0.0000 14.8252
#
#
#
# Elastic Compliance Matrix: (Units=1/GPa)
#
#
# Indices 1 2 3 4 5 6 
#
# 1 0.015625 0.003662 -0.002136 0.000000 0.015087 0.000000
# 2 0.003662 0.046050 0.004317 0.000000 0.015453 0.000000
# 3 -0.002136 0.004317 0.018143 0.000000 0.023667 0.000000
# 4 0.000000 0.000000 0.000000 0.078591 0.000000 -0.021192
# 5 0.015087 0.015453 0.023667 0.000000 0.103741 0.000000
# 6 0.000000 0.000000 0.000000 -0.021192 0.000000 0.073167
#
#
# Mechanical properties :
#
#
# Convention : Reuss Voigt Hill
#
# Bulk Modulus (GPa) = 10.92853 30.89913 20.91383
# Shear Modulus (GPa) = 14.11900 21.43030 17.77465
#
# Velocity S-wave (km/s) = 2.85415 3.51632 3.20240
# Velocity P-wave (km/s) = 4.14330 5.85779 5.07349
#
# Compressibility (1/GPa) = 0.09150360
#
# Stress axis : x y z
#
# Youngs Moduli (GPa) = 64.00097 21.71540 55.11801
#
# Poissons Ratio (x) = -0.07953 0.11773
# Poissons Ratio (y) = -0.23438 -0.23792
# Poissons Ratio (z) = 0.13670 -0.09374
#
# Static dielectric constant tensor:
#      x y z
#    x 1.588240 0.000000 -0.017320 
#    y 0.000000 1.772660 0.000000 
#    z -0.017320 0.000000 1.614360 
# 
# From -- ./inp_files/248352.got.cif
#   From: 2010.05.17/outbox.cif.g08.bks.cpg/sg12_125_cif.got.tgz:248352.got - 2010.06.03 13:09:07.
