data_PCOD9170265
_publ_section_title
;
Structure prediction by ZEFSAII (Michael W. Deem and Ramdas Pophale) SiO2 
 PCOD9170265
Probable space group: C 2/M
;
_chemical_formula_sum "Si O2"
_cell_formula_units_Z 54
_cell_length_a 18.824323
_cell_length_b 20.032574
_cell_length_c 7.355382
_cell_angle_alpha 90.000000
_cell_angle_beta 127.096094
_cell_angle_gamma 90.000000
_cell_volume 2212.382115
_symmetry_space_group_name_H-M "C 2/M"
_symmetry_group_IT_number 12
_symmetry_cell_setting 'monoclinic'
loop_
_space_group_symop_operation_xyz
x,y,z
-x,y,-z
-x,-y,-z
x,-y,z
1/2+x,1/2+y,z
1/2-x,1/2+y,-z
1/2-x,1/2-y,-z
1/2+x,1/2-y,z
loop_
_atom_site_type_symbol
_atom_site_label
_atom_site_fract_x
_atom_site_fract_y
_atom_site_fract_z
Si Si1 0.904322 0.294208 0.431634
Si Si2 0.698694 0.687816 0.585933
Si Si3 0.000000 0.652328 0.000000
Si Si4 0.825366 0.577545 0.731792
Si Si5 0.868096 0.886377 0.151359
Si Si6 0.500000 0.500000 0.500000
Si Si7 0.669297 0.074834 0.815457
Si Si8 0.872557 0.251161 0.009226
O O1 0.874856 0.246650 0.551419
O O2 0.887659 0.372765 0.388559
O O3 0.842944 0.273347 0.164937
O O4 0.000000 0.275319 0.500000
O O5 0.744030 0.626096 0.546444
O O6 0.655794 0.647147 0.689677
O O7 0.786618 0.732461 0.757635
O O8 0.080263 0.605631 0.190144
O O9 0.952323 0.700874 0.069723
O O10 0.809954 0.500000 0.665756
O O11 0.835479 0.583155 0.970321
O O12 0.896283 0.826330 0.060944
O O13 0.774049 0.915466 0.937566
O O14 0.941346 0.941648 0.303247
O O15 0.640775 0.000000 0.730060
#
# Coordination Sequence:
#
# PCOD9170265 Si02
#       8
#     8   8   4   8   8   2   8   8
#     4  11  19  30  49  78 107 137 177 226 277 322
#     4   9  17  31  50  71 102 142 172 214 275 328
#     4  10  17  30  54  75 100 140 196 224 249 314
#     4   9  17  28  49  77 104 132 177 226 273 312
#     4  10  18  31  48  80 111 131 170 212 282 329
#     4  12  24  28  52  94 114 134 158 240 298 328
#     4  10  17  32  51  73 107 137 171 221 277 339
#     4  10  18  33  52  75 104 141 182 220 259 327
#
# _framework density 24.408079000000001
#
# number of rings (size 3 to 8) (size 9 to 14) (size 15 to 20)
#    0.000    2.074    6.667    1.111    5.185    0.296 
#    0.000    0.000    0.000    4.000    0.000    0.000 
#    0.000    0.000    0.000    0.000    0.000    0.000 
#
# Total GULP energy -150323.332209 kJ/mol
# GULP energy per Si atom -5567.530823 kJ/mol
# Density = 2.435253 g / cm^3
# Si number density = 24.408079 Si / 1000 Ang^3
#
#
#
# Elastic Constant Matrix: (Units=GPa)
#
#
# Indices 1 2 3 4 5 6 
#
# 1 74.7867 48.2365 40.7721 0.0000 12.8217 0.0000
# 2 48.2365 220.7827 39.8050 0.0000 30.8728 0.0000
# 3 40.7721 39.8050 44.1229 0.0000 14.9029 0.0000
# 4 0.0000 0.0000 0.0000 22.0866 0.0000 9.1649
# 5 12.8217 30.8728 14.9029 0.0000 38.8041 0.0000
# 6 0.0000 0.0000 0.0000 9.1649 0.0000 17.5723
#
#
#
# Elastic Compliance Matrix: (Units=1/GPa)
#
#
# Indices 1 2 3 4 5 6 
#
# 1 0.027569 -0.001872 -0.024374 0.000000 0.001741 0.000000
# 2 -0.001872 0.005813 -0.002483 0.000000 -0.003053 0.000000
# 3 -0.024374 -0.002483 0.050604 0.000000 -0.009405 0.000000
# 4 0.000000 0.000000 0.000000 0.057781 0.000000 -0.030136
# 5 0.001741 -0.003053 -0.009405 0.000000 0.031236 0.000000
# 6 0.000000 0.000000 0.000000 -0.030136 0.000000 0.072625
#
#
# Mechanical properties :
#
#
# Convention : Reuss Voigt Hill
#
# Bulk Modulus (GPa) = 37.69784 66.36883 52.03334
# Shear Modulus (GPa) = 16.02933 29.75120 22.89027
#
# Velocity S-wave (km/s) = 2.56544 3.49507 3.06570
# Velocity P-wave (km/s) = 4.92480 6.59831 5.82200
#
# Compressibility (1/GPa) = 0.02652672
#
# Stress axis : x y z
#
# Youngs Moduli (GPa) = 36.27312 172.03157 19.76135
#
# Poissons Ratio (x) = 0.32209 0.48167
# Poissons Ratio (y) = 0.06791 0.04907
# Poissons Ratio (z) = 0.88413 0.42715
#
# Static dielectric constant tensor:
#      x y z
#    x 2.010260 0.000000 -0.084490 
#    y 0.000000 1.987310 0.000000 
#    z -0.084490 0.000000 2.043060 
# 
# From -- ./inp_files/169516.got.cif
#   From: 2010.05.17/outbox.cif.g08.bks.cpg/sg12_85_cif.got.tgz:169516.got - 2010.06.03 13:09:07.
