data_PCOD9170571
_publ_section_title
;
Structure prediction by ZEFSAII (Michael W. Deem and Ramdas Pophale) SiO2 
 PCOD9170571
Probable space group: C 2/M
;
_chemical_formula_sum "Si O2"
_cell_formula_units_Z 32
_cell_length_a 7.928017
_cell_length_b 23.999752
_cell_length_c 13.001864
_cell_angle_alpha 90.000000
_cell_angle_beta 151.520287
_cell_angle_gamma 90.000000
_cell_volume 1179.659076
_symmetry_space_group_name_H-M "C 2/M"
_symmetry_group_IT_number 12
_symmetry_cell_setting 'monoclinic'
loop_
_space_group_symop_operation_xyz
x,y,z
-x,y,-z
-x,-y,-z
x,-y,z
1/2+x,1/2+y,z
1/2-x,1/2+y,-z
1/2-x,1/2-y,-z
1/2+x,1/2-y,z
loop_
_atom_site_type_symbol
_atom_site_label
_atom_site_fract_x
_atom_site_fract_y
_atom_site_fract_z
Si Si1 0.594933 0.282033 0.743426
Si Si2 0.756997 0.830191 0.770576
Si Si3 0.008554 0.063172 0.178393
Si Si4 0.708203 0.597825 0.712821
O O1 0.480876 0.218168 0.651889
O O2 0.411887 0.303846 0.749081
O O3 0.657763 0.335604 0.703704
O O4 0.000000 0.271719 0.000000
O O5 0.699129 0.893776 0.706832
O O6 0.000000 0.836102 0.000000
O O7 0.941852 0.069432 0.264555
O O8 0.086732 0.000000 0.192966
O O9 0.623304 0.082596 0.928873
O O10 0.500000 0.581182 0.500000
#
# Coordination Sequence:
#
# PCOD9170571 Si02
#       4
#     8   8   8   8
#     4  10  17  32  56  83 112 143 180 229 282 332
#     4  10  19  32  60  82 113 151 182 229 284 327
#     4  10  21  36  54  82 114 149 192 226 271 335
#     4  10  19  34  58  87 111 144 188 235 281 325
#
# _framework density 27.126483
#
# number of rings (size 3 to 8) (size 9 to 14) (size 15 to 20)
#    0.000    2.000    5.000    4.500    0.000    2.500 
#    0.000    5.000    0.000    0.000    0.000    8.750 
#    0.000    0.000    0.000    0.000    0.000    0.000 
#
# Total GULP energy -89557.420313 kJ/mol
# GULP energy per Si atom -5597.338770 kJ/mol
# Density = 2.706474 g / cm^3
# Si number density = 27.126483 Si / 1000 Ang^3
#
#
#
# Elastic Constant Matrix: (Units=GPa)
#
#
# Indices 1 2 3 4 5 6 
#
# 1 61.0640 59.9325 36.4829 0.0000 -11.9324 0.0000
# 2 59.9325 287.0894 36.8478 0.0000 4.4805 0.0000
# 3 36.4829 36.8478 129.3847 0.0000 -34.2767 0.0000
# 4 0.0000 0.0000 0.0000 18.8842 0.0000 4.4200
# 5 -11.9324 4.4805 -34.2767 0.0000 50.2007 0.0000
# 6 0.0000 0.0000 0.0000 4.4200 0.0000 12.8120
#
#
#
# Elastic Compliance Matrix: (Units=1/GPa)
#
#
# Indices 1 2 3 4 5 6 
#
# 1 0.024197 -0.004483 -0.004781 0.000000 0.002887 0.000000
# 2 -0.004483 0.004511 -0.000500 0.000000 -0.001810 0.000000
# 3 -0.004781 -0.000500 0.010902 0.000000 0.006352 0.000000
# 4 0.000000 0.000000 0.000000 0.057606 0.000000 -0.019874
# 5 0.002887 -0.001810 0.006352 0.000000 0.025105 0.000000
# 6 0.000000 0.000000 0.000000 -0.019874 0.000000 0.084908
#
#
# Mechanical properties :
#
#
# Convention : Reuss Voigt Hill
#
# Bulk Modulus (GPa) = 49.79612 82.67383 66.23498
# Shear Modulus (GPa) = 21.41766 39.33103 30.37434
#
# Velocity S-wave (km/s) = 2.81294 3.81190 3.34987
# Velocity P-wave (km/s) = 5.38024 7.06523 6.27951
#
# Compressibility (1/GPa) = 0.02008188
#
# Stress axis : x y z
#
# Youngs Moduli (GPa) = 41.32818 221.65675 91.72272
#
# Poissons Ratio (x) = 0.99360 0.43856
# Poissons Ratio (y) = 0.18526 0.04589
# Poissons Ratio (z) = 0.19761 0.11090
#
# Static dielectric constant tensor:
#      x y z
#    x 2.068110 0.000000 0.089000 
#    y 0.000000 2.114040 0.000000 
#    z 0.089000 0.000000 3.201760 
# 
# From -- ./inp_files/121568.got.cif
#   From: 2010.05.17/outbox.cif.g08.bks.cpg/sg12_61_cif.got.tgz:121568.got - 2010.06.03 13:09:07.
