data_PCOD9170367
_publ_section_title
;
Structure prediction by ZEFSAII (Michael W. Deem and Ramdas Pophale) SiO2 
 PCOD9170367
Probable space group: C 2/M
;
_chemical_formula_sum "Si O2"
_cell_formula_units_Z 64
_cell_length_a 7.247284
_cell_length_b 26.790547
_cell_length_c 17.899204
_cell_angle_alpha 90.000000
_cell_angle_beta 57.648653
_cell_angle_gamma 90.000000
_cell_volume 2935.861407
_symmetry_space_group_name_H-M "C 2/M"
_symmetry_group_IT_number 12
_symmetry_cell_setting 'monoclinic'
loop_
_space_group_symop_operation_xyz
x,y,z
-x,y,-z
-x,-y,-z
x,-y,z
1/2+x,1/2+y,z
1/2-x,1/2+y,-z
1/2-x,1/2-y,-z
1/2+x,1/2-y,z
loop_
_atom_site_type_symbol
_atom_site_label
_atom_site_fract_x
_atom_site_fract_y
_atom_site_fract_z
Si Si1 0.258654 0.679606 0.120331
Si Si2 0.807306 0.054806 0.597386
Si Si3 0.410377 0.556274 0.748178
Si Si4 0.035277 0.840703 0.684527
Si Si5 0.966878 0.615918 0.090055
Si Si6 0.865931 0.793623 0.860914
Si Si7 0.225128 0.808069 0.495315
Si Si8 0.586491 0.850490 0.683404
O O1 0.194687 0.736302 0.111553
O O2 0.188484 0.635296 0.080199
O O3 0.113628 0.665444 0.223782
O O4 0.497093 0.684898 0.902874
O O5 0.900909 0.051330 0.660638
O O6 0.610733 0.092760 0.650429
O O7 0.000000 0.072145 0.500000
O O8 0.739597 0.000000 0.586020
O O9 0.460988 0.500000 0.766128
O O10 0.558583 0.606318 0.723126
O O11 0.178503 0.576759 0.831083
O O12 0.010124 0.798349 0.753332
O O13 0.801611 0.841223 0.689615
O O14 0.206253 0.833052 0.580587
O O15 0.830883 0.668012 0.111706
O O16 0.000000 0.595800 0.000000
O O17 0.250000 0.750000 0.500000
O O18 0.406084 0.822067 0.396027
O O19 0.000000 0.818457 0.500000
#
# Coordination Sequence:
#
# PCOD9170367 Si02
#       8
#     8   8   8   8   8   8   8   8
#     4  12  21  38  59  84 116 159 195 242 296 356
#     4   9  15  26  51  85 114 147 192 240 291 345
#     4   9  17  34  60  86 115 152 196 247 299 349
#     4   9  17  34  51  81 117 151 200 242 286 348
#     4  11  24  42  61  87 120 152 196 249 298 363
#     4  11  22  38  60  84 116 159 197 239 297 359
#     4  10  20  29  46  74 113 160 197 240 281 338
#     4  10  17  31  51  75 115 154 191 244 286 336
#
# _framework density 21.799393999999999
#
# number of rings (size 3 to 8) (size 9 to 14) (size 15 to 20)
#    0.000    1.875    5.000    2.625    0.000    4.250 
#    0.000    0.000    0.000    6.000    0.000    4.375 
#    0.000   28.000    0.000    0.000    0.000    0.000 
#
# Total GULP energy -178432.792498 kJ/mol
# GULP energy per Si atom -5576.024766 kJ/mol
# Density = 2.174978 g / cm^3
# Si number density = 21.799394 Si / 1000 Ang^3
#
#
#
# Elastic Constant Matrix: (Units=GPa)
#
#
# Indices 1 2 3 4 5 6 
#
# 1 66.7872 0.0282 4.0335 0.0000 14.4251 0.0000
# 2 0.0282 99.5157 4.3894 0.0000 -0.7785 0.0000
# 3 4.0335 4.3894 118.1579 0.0000 7.9576 0.0000
# 4 0.0000 0.0000 0.0000 18.6215 0.0000 0.7437
# 5 14.4251 -0.7785 7.9576 0.0000 19.4248 0.0000
# 6 0.0000 0.0000 0.0000 0.7437 0.0000 16.2893
#
#
#
# Elastic Compliance Matrix: (Units=1/GPa)
#
#
# Indices 1 2 3 4 5 6 
#
# 1 0.017845 -0.000123 0.000296 0.000000 -0.013378 0.000000
# 2 -0.000123 0.010072 -0.000415 0.000000 0.000665 0.000000
# 3 0.000296 -0.000415 0.008725 0.000000 -0.003811 0.000000
# 4 0.000000 0.000000 0.000000 0.053800 0.000000 -0.002456
# 5 -0.013378 0.000665 -0.003811 0.000000 0.063003 0.000000
# 6 0.000000 0.000000 0.000000 -0.002456 0.000000 0.061502
#
#
# Mechanical properties :
#
#
# Convention : Reuss Voigt Hill
#
# Bulk Modulus (GPa) = 27.65515 33.48479 30.56997
# Shear Modulus (GPa) = 21.97975 29.26777 25.62376
#
# Velocity S-wave (km/s) = 3.17878 3.66812 3.43218
# Velocity P-wave (km/s) = 5.11728 5.77355 5.45529
#
# Compressibility (1/GPa) = 0.03615963
#
# Stress axis : x y z
#
# Youngs Moduli (GPa) = 56.03958 99.28328 114.61042
#
# Poissons Ratio (x) = 0.01219 -0.03397
# Poissons Ratio (y) = 0.00688 0.04753
# Poissons Ratio (z) = -0.01661 0.04118
#
# Static dielectric constant tensor:
#      x y z
#    x 2.013340 0.000000 0.035370 
#    y 0.000000 1.805060 0.000000 
#    z 0.035370 0.000000 1.887700 
# 
# From -- ./inp_files/307353.got.cif
#   From: 2010.05.17/outbox.cif.g08.bks.cpg/sg12_154_cif.got.tgz:307353.got - 2010.06.03 13:09:07.
