data_PCOD9170138
_publ_section_title
;
Structure prediction by ZEFSAII (Michael W. Deem and Ramdas Pophale) SiO2 
 PCOD9170138
Probable space group: C 2/M
;
_chemical_formula_sum "Si O2"
_cell_formula_units_Z 36
_cell_length_a 8.845860
_cell_length_b 23.974714
_cell_length_c 9.076397
_cell_angle_alpha 90.000000
_cell_angle_beta 44.426869
_cell_angle_gamma 90.000000
_cell_volume 1347.423062
_symmetry_space_group_name_H-M "C 2/M"
_symmetry_group_IT_number 12
_symmetry_cell_setting 'monoclinic'
loop_
_space_group_symop_operation_xyz
x,y,z
-x,y,-z
-x,-y,-z
x,-y,z
1/2+x,1/2+y,z
1/2-x,1/2+y,-z
1/2-x,1/2-y,-z
1/2+x,1/2-y,z
loop_
_atom_site_type_symbol
_atom_site_label
_atom_site_fract_x
_atom_site_fract_y
_atom_site_fract_z
Si Si1 0.079076 0.500000 0.177844
Si Si2 0.500000 0.098643 0.000000
Si Si3 0.369563 0.621589 0.262715
Si Si4 0.560046 0.155672 0.250225
Si Si5 0.013109 0.222891 0.654041
Si Si6 0.327990 0.500000 0.316240
O O1 0.854034 0.500000 0.428519
O O2 0.085166 0.552459 0.062155
O O3 0.238185 0.500000 0.209696
O O4 0.473448 0.145026 0.148004
O O5 0.147476 0.634934 0.509730
O O6 0.517857 0.672361 0.213009
O O7 0.441899 0.559569 0.254347
O O8 0.270183 0.623689 0.168230
O O9 0.621237 0.220558 0.235882
O O10 0.250000 0.250000 0.500000
O O11 0.000000 0.199043 0.500000
#
# Coordination Sequence:
#
# PCOD9170138 Si02
#       6
#     4   4   8   8   8   4
#     4  10  18  26  48  74 110 134 170 222 264 301
#     4  11  18  26  44  82 112 129 166 224 276 303
#     4  10  18  31  51  74  99 139 178 209 260 303
#     4  10  17  30  48  75 105 133 169 218 263 306
#     4  10  18  33  56  75 100 138 180 218 255 300
#     4  11  16  32  49  72 102 140 178 210 252 314
#
# _framework density 26.717669000000001
#
# number of rings (size 3 to 8) (size 9 to 14) (size 15 to 20)
#    0.000    1.778    8.889    1.333    0.000    0.000 
#    0.000    1.667    0.000    0.000    0.000    0.000 
#    0.000    9.778    0.000    0.000    0.000    0.000 
#
# Total GULP energy -100277.810023 kJ/mol
# GULP energy per Si atom -5570.989446 kJ/mol
# Density = 2.665686 g / cm^3
# Si number density = 26.717669 Si / 1000 Ang^3
#
#
#
# Elastic Constant Matrix: (Units=GPa)
#
#
# Indices 1 2 3 4 5 6 
#
# 1 80.5192 17.0377 65.7095 0.0000 19.7325 0.0000
# 2 17.0377 225.3375 34.6736 0.0000 12.4416 0.0000
# 3 65.7095 34.6736 135.4507 0.0000 47.0041 0.0000
# 4 0.0000 0.0000 0.0000 39.3583 0.0000 27.3591
# 5 19.7325 12.4416 47.0041 0.0000 45.4527 0.0000
# 6 0.0000 0.0000 0.0000 27.3591 0.0000 24.4026
#
#
#
# Elastic Compliance Matrix: (Units=1/GPa)
#
#
# Indices 1 2 3 4 5 6 
#
# 1 0.020696 -0.000025 -0.010790 0.000000 0.002181 0.000000
# 2 -0.000025 0.004620 -0.001147 0.000000 -0.000067 0.000000
# 3 -0.010790 -0.001147 0.017432 0.000000 -0.013029 0.000000
# 4 0.000000 0.000000 0.000000 0.115148 0.000000 -0.129099
# 5 0.002181 -0.000067 -0.013029 0.000000 0.034546 0.000000
# 6 0.000000 0.000000 0.000000 -0.129099 0.000000 0.185719
#
#
# Mechanical properties :
#
#
# Convention : Reuss Voigt Hill
#
# Bulk Modulus (GPa) = 53.12529 75.12765 64.12647
# Shear Modulus (GPa) = 12.24410 43.43516 27.83963
#
# Velocity S-wave (km/s) = 2.14306 4.03638 3.23149
# Velocity P-wave (km/s) = 5.10399 7.06423 6.16255
#
# Compressibility (1/GPa) = 0.01882343
#
# Stress axis : x y z
#
# Youngs Moduli (GPa) = 48.31856 216.45438 57.36494
#
# Poissons Ratio (x) = 0.00538 0.61899
# Poissons Ratio (y) = 0.00120 0.06581
# Poissons Ratio (z) = 0.52137 0.24831
#
# Static dielectric constant tensor:
#      x y z
#    x 2.099340 0.000000 -0.133580 
#    y 0.000000 2.149370 0.000000 
#    z -0.133580 0.000000 2.179560 
# 
# From -- ./inp_files/40273.got.cif
#   From: 2010.05.17/outbox.cif.g08.bks.cpg/sg12_21_cif.got.tgz:40273.got - 2010.06.03 13:09:07.
