data_PCOD9170205
_publ_section_title
;
Structure prediction by ZEFSAII (Michael W. Deem and Ramdas Pophale) SiO2 
 PCOD9170205
Probable space group: C 2/M
;
_chemical_formula_sum "Si O2"
_cell_formula_units_Z 56
_cell_length_a 24.355836
_cell_length_b 9.233842
_cell_length_c 15.735697
_cell_angle_alpha 90.000000
_cell_angle_beta 118.800990
_cell_angle_gamma 90.000000
_cell_volume 3101.154914
_symmetry_space_group_name_H-M "C 2/M"
_symmetry_group_IT_number 12
_symmetry_cell_setting 'monoclinic'
loop_
_space_group_symop_operation_xyz
x,y,z
-x,y,-z
-x,-y,-z
x,-y,z
1/2+x,1/2+y,z
1/2-x,1/2+y,-z
1/2-x,1/2-y,-z
1/2+x,1/2-y,z
loop_
_atom_site_type_symbol
_atom_site_label
_atom_site_fract_x
_atom_site_fract_y
_atom_site_fract_z
Si Si1 0.021879 0.168546 0.785362
Si Si2 0.308219 0.834434 0.504353
Si Si3 0.546200 0.324277 0.612147
Si Si4 0.562501 0.322600 0.993646
Si Si5 0.184506 0.176597 0.190048
Si Si6 0.322008 0.831320 0.312822
Si Si7 0.877477 0.832813 0.682668
O O1 0.025439 0.224788 0.691636
O O2 0.059112 0.230862 0.893541
O O3 0.949799 0.170531 0.761294
O O4 0.041065 0.000000 0.792529
O O5 0.250000 0.750000 0.500000
O O6 0.309567 0.828790 0.404526
O O7 0.367563 0.758219 0.590854
O O8 0.305124 0.000000 0.528809
O O9 0.500000 0.277385 0.500000
O O10 0.546488 0.500000 0.609645
O O11 0.616340 0.262972 0.655421
O O12 0.561371 0.500000 0.991837
O O13 0.500000 0.279300 0.000000
O O14 0.627576 0.278832 0.086586
O O15 0.255865 0.220514 0.223141
O O16 0.164095 0.221674 0.269970
O O17 0.185087 0.000000 0.192050
O O18 0.333073 0.000000 0.296705
O O19 0.860076 0.000000 0.652756
#
# Coordination Sequence:
#
# PCOD9170205 Si02
#       7
#     8   8   8   8   8   8   8
#     4   9  17  29  50  78 105 134 175 221 262 306
#     4  11  21  32  48  73 104 134 170 210 256 314
#     4  10  21  37  54  75 103 138 177 218 262 305
#     4   9  14  24  47  79 108 134 167 214 267 308
#     4   9  16  28  47  75 108 134 164 210 262 311
#     4  10  21  36  51  72 104 140 174 211 256 312
#     4  10  17  30  51  76 107 135 164 211 264 312
#
# _framework density 18.057789
#
# number of rings (size 3 to 8) (size 9 to 14) (size 15 to 20)
#    0.000    2.286    2.857    1.286    0.000    2.571 
#    0.000    1.429    0.000    0.000    0.000    4.000 
#    0.000    0.000    0.000    0.000    0.000    0.000 
#
# Total GULP energy -155907.410282 kJ/mol
# GULP energy per Si atom -5568.121796 kJ/mol
# Density = 1.801669 g / cm^3
# Si number density = 18.057789 Si / 1000 Ang^3
#
#
#
# Elastic Constant Matrix: (Units=GPa)
#
#
# Indices 1 2 3 4 5 6 
#
# 1 88.1986 10.3411 45.5213 0.0000 10.6457 0.0000
# 2 10.3411 18.0215 16.6989 0.0000 2.7982 0.0000
# 3 45.5213 16.6989 141.1155 0.0000 14.9245 0.0000
# 4 0.0000 0.0000 0.0000 10.0744 0.0000 3.9687
# 5 10.6457 2.7982 14.9245 0.0000 28.7923 0.0000
# 6 0.0000 0.0000 0.0000 3.9687 0.0000 20.2293
#
#
#
# Elastic Compliance Matrix: (Units=1/GPa)
#
#
# Indices 1 2 3 4 5 6 
#
# 1 0.014111 -0.004173 -0.003755 0.000000 -0.002865 0.000000
# 2 -0.004173 0.063709 -0.006032 0.000000 -0.001522 0.000000
# 3 -0.003755 -0.006032 0.009313 0.000000 -0.002853 0.000000
# 4 0.000000 0.000000 0.000000 0.107575 0.000000 -0.021105
# 5 -0.002865 -0.001522 -0.002853 0.000000 0.037418 0.000000
# 6 0.000000 0.000000 0.000000 -0.021105 0.000000 0.053574
#
#
# Mechanical properties :
#
#
# Convention : Reuss Voigt Hill
#
# Bulk Modulus (GPa) = 16.88793 43.60646 30.24720
# Shear Modulus (GPa) = 14.99886 23.47082 19.23484
#
# Velocity S-wave (km/s) = 2.88515 3.60913 3.26725
# Velocity P-wave (km/s) = 4.52451 6.44736 5.56955
#
# Compressibility (1/GPa) = 0.05921388
#
# Stress axis : x y z
#
# Youngs Moduli (GPa) = 70.86508 15.69630 107.37357
#
# Poissons Ratio (x) = 0.06550 0.40321
# Poissons Ratio (y) = 0.29571 0.64768
# Poissons Ratio (z) = 0.26611 0.09468
#
# Static dielectric constant tensor:
#      x y z
#    x 1.633750 0.000000 0.021290 
#    y 0.000000 1.605630 0.000000 
#    z 0.021290 0.000000 1.680220 
# 
# From -- ./inp_files/287866.got.cif
#   From: 2010.05.17/outbox.cif.g08.bks.cpg/sg12_144_cif.got.tgz:287866.got - 2010.06.03 13:09:07.
