data_PCOD9170996
_publ_section_title
;
Structure prediction by ZEFSAII (Michael W. Deem and Ramdas Pophale) SiO2 
 PCOD9170996
Probable space group: C 2/M
;
_chemical_formula_sum "Si O2"
_cell_formula_units_Z 64
_cell_length_a 29.491070
_cell_length_b 7.516376
_cell_length_c 15.188781
_cell_angle_alpha 90.000000
_cell_angle_beta 87.769615
_cell_angle_gamma 90.000000
_cell_volume 3364.285231
_symmetry_space_group_name_H-M "C 2/M"
_symmetry_group_IT_number 12
_symmetry_cell_setting 'monoclinic'
loop_
_space_group_symop_operation_xyz
x,y,z
-x,y,-z
-x,-y,-z
x,-y,z
1/2+x,1/2+y,z
1/2-x,1/2+y,-z
1/2-x,1/2-y,-z
1/2+x,1/2-y,z
loop_
_atom_site_type_symbol
_atom_site_label
_atom_site_fract_x
_atom_site_fract_y
_atom_site_fract_z
Si Si1 0.412715 0.216408 0.828889
Si Si2 0.395509 0.798602 0.168070
Si Si3 0.774012 0.216472 0.872408
Si Si4 0.694193 0.211507 0.761530
Si Si5 0.238048 0.289186 0.400769
Si Si6 0.507640 0.217801 0.898087
Si Si7 0.341344 0.206843 0.705101
Si Si8 0.346355 0.292565 0.996449
O O1 0.464180 0.270051 0.843772
O O2 0.388211 0.280587 0.741258
O O3 0.381991 0.277313 0.913245
O O4 0.411185 0.000000 0.829323
O O5 0.356836 0.714996 0.233113
O O6 0.444518 0.717352 0.144390
O O7 0.404510 0.000000 0.198573
O O8 0.369089 0.803182 0.076672
O O9 0.725168 0.278376 0.840910
O O10 0.807407 0.278860 0.791374
O O11 0.798544 0.277236 0.960213
O O12 0.774641 0.000000 0.873490
O O13 0.722653 0.234259 0.670374
O O14 0.689949 0.000000 0.775187
O O15 0.234610 0.500000 0.391502
O O16 0.250000 0.250000 0.500000
O O17 0.189449 0.214299 0.370671
O O18 0.509466 0.000000 0.900230
O O19 0.500000 0.273949 0.000000
O O20 0.350114 0.000000 0.683692
O O21 0.341587 0.500000 0.018982
#
# Coordination Sequence:
#
# PCOD9170996 Si02
#       8
#     8   8   8   8   8   8   8   8
#     4   9  15  27  45  61  84 116 151 189 224 255
#     4  10  19  30  43  60  84 118 156 189 222 261
#     4   8  15  27  40  56  82 115 147 180 217 256
#     4   9  18  32  47  63  87 117 148 181 218 261
#     4  10  19  32  51  74  96 114 137 169 214 269
#     4   9  15  25  43  64  84 113 156 197 226 254
#     4   8  15  26  43  67  88 110 141 177 213 256
#     4  10  18  26  38  58  84 115 152 190 224 255
#
# _framework density 19.023356
#
# number of rings (size 3 to 8) (size 9 to 14) (size 15 to 20)
#    0.000    2.875    1.250    0.750    0.000    2.000 
#    0.000    1.250    0.000    0.000    0.000    0.875 
#    0.000    7.000    0.000    0.000    0.000    0.000 
#
# Total GULP energy -178304.128211 kJ/mol
# GULP energy per Si atom -5572.004007 kJ/mol
# Density = 1.898006 g / cm^3
# Si number density = 19.023356 Si / 1000 Ang^3
#
#
#
# Elastic Constant Matrix: (Units=GPa)
#
#
# Indices 1 2 3 4 5 6 
#
# 1 181.3797 4.9568 55.7873 0.0000 12.5930 0.0000
# 2 4.9568 61.1681 -2.4071 0.0000 0.5542 0.0000
# 3 55.7873 -2.4071 88.1346 0.0000 18.1697 0.0000
# 4 0.0000 0.0000 0.0000 10.2301 0.0000 -0.6474
# 5 12.5930 0.5542 18.1697 0.0000 24.0893 0.0000
# 6 0.0000 0.0000 0.0000 -0.6474 0.0000 6.7797
#
#
#
# Elastic Compliance Matrix: (Units=1/GPa)
#
#
# Indices 1 2 3 4 5 6 
#
# 1 0.006881 -0.000724 -0.004307 0.000000 -0.000332 0.000000
# 2 -0.000724 0.016457 0.001075 0.000000 -0.000811 0.000000
# 3 -0.004307 0.001075 0.016155 0.000000 -0.009958 0.000000
# 4 0.000000 0.000000 0.000000 0.098345 0.000000 0.009391
# 5 -0.000332 -0.000811 -0.009958 0.000000 0.049215 0.000000
# 6 0.000000 0.000000 0.000000 0.009391 0.000000 0.148395
#
#
# Mechanical properties :
#
#
# Convention : Reuss Voigt Hill
#
# Bulk Modulus (GPa) = 31.66512 49.70628 40.68570
# Shear Modulus (GPa) = 14.12885 26.37619 20.25252
#
# Velocity S-wave (km/s) = 2.72823 3.72764 3.26638
# Velocity P-wave (km/s) = 5.15808 6.68676 5.97154
#
# Compressibility (1/GPa) = 0.03158049
#
# Stress axis : x y z
#
# Youngs Moduli (GPa) = 145.33291 60.76543 61.90159
#
# Poissons Ratio (x) = 0.04400 0.26659
# Poissons Ratio (y) = 0.10523 -0.06654
# Poissons Ratio (z) = 0.62591 -0.06532
#
# Static dielectric constant tensor:
#      x y z
#    x 1.733600 0.000000 0.033970 
#    y 0.000000 1.994280 0.000000 
#    z 0.033970 0.000000 1.502260 
# 
# From -- ./inp_files/244211.got.cif
#   From: 2010.05.17/outbox.cif.g08.bks.cpg/sg12_123_cif.got.tgz:244211.got - 2010.06.03 13:09:07.
