data_PCOD9170790
_publ_section_title
;
Structure prediction by ZEFSAII (Michael W. Deem and Ramdas Pophale) SiO2 
 PCOD9170790
Probable space group: C 2/M
;
_chemical_formula_sum "Si O2"
_cell_formula_units_Z 64
_cell_length_a 11.820332
_cell_length_b 30.247544
_cell_length_c 9.569033
_cell_angle_alpha 90.000000
_cell_angle_beta 87.962185
_cell_angle_gamma 90.000000
_cell_volume 3419.110204
_symmetry_space_group_name_H-M "C 2/M"
_symmetry_group_IT_number 12
_symmetry_cell_setting 'monoclinic'
loop_
_space_group_symop_operation_xyz
x,y,z
-x,y,-z
-x,-y,-z
x,-y,z
1/2+x,1/2+y,z
1/2-x,1/2+y,-z
1/2-x,1/2-y,-z
1/2+x,1/2-y,z
loop_
_atom_site_type_symbol
_atom_site_label
_atom_site_fract_x
_atom_site_fract_y
_atom_site_fract_z
Si Si1 0.633788 0.781507 0.833263
Si Si2 0.229130 0.627495 0.758621
Si Si3 0.611727 0.816550 0.137763
Si Si4 0.514289 0.088162 0.148252
Si Si5 0.264468 0.948046 0.741567
Si Si6 0.871390 0.110627 0.476104
Si Si7 0.664301 0.318858 0.743303
Si Si8 0.370668 0.394472 0.029150
O O1 0.706383 0.819691 0.756730
O O2 0.503677 0.794002 0.815637
O O3 0.642560 0.731942 0.779406
O O4 0.655158 0.790359 0.998713
O O5 0.299213 0.614443 0.619664
O O6 0.106913 0.602815 0.782168
O O7 0.306081 0.616728 0.889580
O O8 0.580749 0.866732 0.101537
O O9 0.699775 0.820393 0.257813
O O10 0.602621 0.064259 0.246740
O O11 0.500000 0.063594 0.000000
O O12 0.199314 0.921301 0.623443
O O13 0.201487 0.930838 0.884234
O O14 0.252184 0.000000 0.723310
O O15 0.879909 0.157739 0.393803
O O16 0.000000 0.095534 0.500000
O O17 0.626485 0.350502 0.873274
O O18 0.500000 0.408460 0.000000
#
# Coordination Sequence:
#
# PCOD9170790 Si02
#       8
#     8   8   8   8   8   8   8   8
#     4  10  20  31  60  94 123 165 211 270 311 365
#     4  11  21  39  64  91 131 173 210 256 320 381
#     4  10  17  34  57  91 126 158 206 262 322 364
#     4  11  17  40  68  97 128 154 203 261 332 385
#     4  11  24  45  70  95 125 163 209 271 333 388
#     4  11  26  46  61  86 132 181 213 258 319 387
#     4  11  21  37  58  87 127 166 223 265 308 368
#     4  11  22  38  64  95 123 169 217 264 320 377
#
# _framework density 18.718319999999999
#
# number of rings (size 3 to 8) (size 9 to 14) (size 15 to 20)
#    0.000    1.250    7.500    1.875    1.750    2.750 
#    0.000    1.875    0.000    0.000    0.000    0.000 
#    0.000    0.000    0.000    0.000    0.000    0.000 
#
# Total GULP energy -178444.063062 kJ/mol
# GULP energy per Si atom -5576.376971 kJ/mol
# Density = 1.867572 g / cm^3
# Si number density = 18.718320 Si / 1000 Ang^3
#
#
#
# Elastic Constant Matrix: (Units=GPa)
#
#
# Indices 1 2 3 4 5 6 
#
# 1 110.9120 28.4533 45.6661 0.0000 9.2082 0.0000
# 2 28.4533 87.9326 39.6366 0.0000 -6.7239 0.0000
# 3 45.6661 39.6366 109.2717 0.0000 -2.5504 0.0000
# 4 0.0000 0.0000 0.0000 3.3987 0.0000 0.5892
# 5 9.2082 -6.7239 -2.5504 0.0000 27.3796 0.0000
# 6 0.0000 0.0000 0.0000 0.5892 0.0000 12.1780
#
#
#
# Elastic Compliance Matrix: (Units=1/GPa)
#
#
# Indices 1 2 3 4 5 6 
#
# 1 0.011733 -0.002283 -0.004190 0.000000 -0.004897 0.000000
# 2 -0.002283 0.014271 -0.004132 0.000000 0.003887 0.000000
# 3 -0.004190 -0.004132 0.012438 0.000000 0.001553 0.000000
# 4 0.000000 0.000000 0.000000 0.296720 0.000000 -0.014357
# 5 -0.004897 0.003887 0.001553 0.000000 0.039270 0.000000
# 6 0.000000 0.000000 0.000000 -0.014357 0.000000 0.082810
#
#
# Mechanical properties :
#
#
# Convention : Reuss Voigt Hill
#
# Bulk Modulus (GPa) = 58.02792 59.51426 58.77109
# Shear Modulus (GPa) = 10.32644 21.54863 15.93753
#
# Velocity S-wave (km/s) = 2.35133 3.39662 2.92111
# Velocity P-wave (km/s) = 6.19996 6.87360 6.54545
#
# Compressibility (1/GPa) = 0.01723308
#
# Stress axis : x y z
#
# Youngs Moduli (GPa) = 85.22689 70.07393 80.40193
#
# Poissons Ratio (x) = 0.15994 0.33688
# Poissons Ratio (y) = 0.19453 0.33221
# Poissons Ratio (z) = 0.35709 0.28953
#
# Static dielectric constant tensor:
#      x y z
#    x 1.686820 0.000000 0.019130 
#    y 0.000000 1.673960 0.000000 
#    z 0.019130 0.000000 1.667090 
# 
# From -- ./inp_files/54728.got.cif
#   From: 2010.05.17/outbox.cif.g08.bks.cpg/sg12_28_cif.got.tgz:54728.got - 2010.06.03 13:09:07.
