data_PCOD9170362
_publ_section_title
;
Structure prediction by ZEFSAII (Michael W. Deem and Ramdas Pophale) SiO2 
 PCOD9170362
Probable space group: C 2/M
;
_chemical_formula_sum "Si O2"
_cell_formula_units_Z 44
_cell_length_a 24.701713
_cell_length_b 14.976721
_cell_length_c 9.230564
_cell_angle_alpha 90.000000
_cell_angle_beta 48.915080
_cell_angle_gamma 90.000000
_cell_volume 2573.899164
_symmetry_space_group_name_H-M "C 2/M"
_symmetry_group_IT_number 12
_symmetry_cell_setting 'monoclinic'
loop_
_space_group_symop_operation_xyz
x,y,z
-x,y,-z
-x,-y,-z
x,-y,z
1/2+x,1/2+y,z
1/2-x,1/2+y,-z
1/2-x,1/2-y,-z
1/2+x,1/2-y,z
loop_
_atom_site_type_symbol
_atom_site_label
_atom_site_fract_x
_atom_site_fract_y
_atom_site_fract_z
Si Si1 0.958219 0.000000 0.420696
Si Si2 0.805080 0.000000 0.816633
Si Si3 0.022498 0.500000 0.633101
Si Si4 0.192127 0.500000 0.331260
Si Si5 0.344365 0.500000 0.091947
Si Si6 0.965198 0.144445 0.905025
Si Si7 0.790008 0.345587 0.935673
Si Si8 0.044951 0.682019 0.271138
O O1 0.000000 0.000000 0.500000
O O2 0.982992 0.084315 0.284972
O O3 0.874415 0.000000 0.596896
O O4 0.756887 0.911984 0.882068
O O5 0.833777 0.000000 0.934411
O O6 0.987819 0.592729 0.743077
O O7 0.000000 0.500000 0.500000
O O8 0.107596 0.500000 0.515315
O O9 0.264481 0.500000 0.300756
O O10 0.203208 0.407880 0.220032
O O11 0.391702 0.586848 0.045739
O O12 0.957085 0.235898 0.833979
O O13 0.000000 0.156260 0.000000
O O14 0.871857 0.333275 0.838232
O O15 0.750000 0.250000 0.000000
O O16 0.000000 0.699358 0.500000
#
# Coordination Sequence:
#
# PCOD9170362 Si02
#       8
#     4   4   4   4   4   8   8   8
#     4  11  20  35  60  85 112 134 188 234 281 332
#     4  10  20  32  53  92 109 134 179 236 287 331
#     4  10  17  33  53  83 110 139 183 240 276 314
#     4  10  17  31  50  84 113 133 177 229 293 320
#     4   9  18  34  55  77 113 141 176 223 281 336
#     4  11  23  37  55  81 116 155 183 223 280 339
#     4  10  19  29  49  82 118 138 167 229 291 318
#     4  11  20  34  59  83 111 143 194 233 270 326
#
# _framework density 17.094687
#
# number of rings (size 3 to 8) (size 9 to 14) (size 15 to 20)
#    0.000    1.818    5.455    4.364    2.545    0.000 
#    0.000    0.455    0.000    6.545    0.000    0.000 
#    0.000    0.000    0.000    0.000    0.000    0.000 
#
# Total GULP energy -122486.738125 kJ/mol
# GULP energy per Si atom -5567.579006 kJ/mol
# Density = 1.705578 g / cm^3
# Si number density = 17.094687 Si / 1000 Ang^3
#
#
#
# Elastic Constant Matrix: (Units=GPa)
#
#
# Indices 1 2 3 4 5 6 
#
# 1 117.7369 66.6542 63.1125 0.0000 -34.0298 0.0000
# 2 66.6542 171.8141 44.3286 0.0000 -22.4992 0.0000
# 3 63.1125 44.3286 65.7655 0.0000 -34.6000 0.0000
# 4 0.0000 0.0000 0.0000 -0.7812 0.0000 -17.1020
# 5 -34.0298 -22.4992 -34.6000 0.0000 47.0782 0.0000
# 6 0.0000 0.0000 0.0000 -17.1020 0.0000 46.3552
#
#
#
# Elastic Compliance Matrix: (Units=1/GPa)
#
#
# Indices 1 2 3 4 5 6 
#
# 1 0.018853 -0.003207 -0.015600 0.000000 0.000630 0.000000
# 2 -0.003207 0.007592 -0.002202 0.000000 -0.000308 0.000000
# 3 -0.015600 -0.002202 0.041044 0.000000 0.017837 0.000000
# 4 0.000000 0.000000 0.000000 -0.141029 0.000000 -0.052030
# 5 0.000630 -0.000308 0.017837 0.000000 0.034659 0.000000
# 6 0.000000 0.000000 0.000000 -0.052030 0.000000 0.002377
#
#
# Mechanical properties :
#
#
# Convention : Reuss Voigt Hill
#
# Bulk Modulus (GPa) = 39.25708 78.16745 58.71227
# Shear Modulus (GPa) = 357.02923 30.61184 193.82054
#
# Velocity S-wave (km/s) = 14.46746 4.23628 10.65958
# Velocity P-wave (km/s) = 17.38076 8.35186 13.63533
#
# Compressibility (1/GPa) = 0.02547311
#
# Stress axis : x y z
#
# Youngs Moduli (GPa) = 53.04133 131.71639 24.36381
#
# Poissons Ratio (x) = 0.42237 0.38007
# Poissons Ratio (y) = 0.17009 0.05365
# Poissons Ratio (z) = 0.82742 0.29005
#
# Static dielectric constant tensor:
#      x y z
#    x 1.591960 0.000000 -0.023510 
#    y 0.000000 1.618340 0.000000 
#    z -0.023510 0.000000 1.590540 
# 
# From -- ./inp_files/96173.got.cif
#   From: 2010.05.17/outbox.cif.g08.bks.cpg/sg12_49_cif.got.tgz:96173.got - 2010.06.03 13:09:07.
