data_PCOD9170777
_publ_section_title
;
Structure prediction by ZEFSAII (Michael W. Deem and Ramdas Pophale) SiO2 
 PCOD9170777
Probable space group: C 2/M
;
_chemical_formula_sum "Si O2"
_cell_formula_units_Z 56
_cell_length_a 29.251474
_cell_length_b 15.683741
_cell_length_c 9.036388
_cell_angle_alpha 90.000000
_cell_angle_beta 49.106587
_cell_angle_gamma 90.000000
_cell_volume 3133.813467
_symmetry_space_group_name_H-M "C 2/M"
_symmetry_group_IT_number 12
_symmetry_cell_setting 'monoclinic'
loop_
_space_group_symop_operation_xyz
x,y,z
-x,y,-z
-x,-y,-z
x,-y,z
1/2+x,1/2+y,z
1/2-x,1/2+y,-z
1/2-x,1/2-y,-z
1/2+x,1/2-y,z
loop_
_atom_site_type_symbol
_atom_site_label
_atom_site_fract_x
_atom_site_fract_y
_atom_site_fract_z
Si Si1 0.780216 0.821829 0.250413
Si Si2 0.657209 0.227782 0.631023
Si Si3 0.123332 0.741645 0.379941
Si Si4 0.474575 0.093728 0.389444
Si Si5 0.398555 0.904360 0.041517
Si Si6 0.795742 0.348685 0.027880
Si Si7 0.826220 0.904910 0.864582
O O1 0.715215 0.830904 0.464557
O O2 0.824396 0.800895 0.292622
O O3 0.777598 0.733565 0.162746
O O4 0.803462 0.888840 0.081376
O O5 0.636848 0.265477 0.519561
O O6 0.612073 0.165492 0.810862
O O7 0.067633 0.676479 0.514584
O O8 0.173601 0.684508 0.188499
O O9 0.126979 0.829402 0.278484
O O10 0.500000 0.086492 0.500000
O O11 0.533878 0.105024 0.163697
O O12 0.445976 0.000000 0.413450
O O13 0.348225 0.892403 0.016486
O O14 0.391404 0.000000 0.114666
O O15 0.734087 0.395036 0.110628
O O16 0.850548 0.000000 0.796662
#
# Coordination Sequence:
#
# PCOD9170777 Si02
#       7
#     8   8   8   8   8   8   8
#     4   9  18  34  51  75 113 150 188 217 279 338
#     4  10  19  33  54  75 114 155 179 223 279 346
#     4  11  20  36  57  81 113 149 189 230 279 325
#     4  10  21  37  58  85 112 147 190 228 272 332
#     4  10  21  34  51  83 117 146 184 226 278 340
#     4  10  17  34  56  80 109 147 185 230 271 331
#     4  11  21  34  56  87 114 144 194 238 275 327
#
# _framework density 17.869603000000001
#
# number of rings (size 3 to 8) (size 9 to 14) (size 15 to 20)
#    0.000    1.857    4.286    1.286    0.000    2.286 
#    0.000    2.143    0.000    0.429    0.000    1.000 
#    0.000    0.000    0.000    0.000    0.000    0.000 
#
# Total GULP energy -155916.184045 kJ/mol
# GULP energy per Si atom -5568.435144 kJ/mol
# Density = 1.782893 g / cm^3
# Si number density = 17.869603 Si / 1000 Ang^3
#
#
#
# Elastic Constant Matrix: (Units=GPa)
#
#
# Indices 1 2 3 4 5 6 
#
# 1 35.9372 12.6342 14.2694 0.0000 6.5961 0.0000
# 2 12.6342 88.4288 28.8336 0.0000 -14.9303 0.0000
# 3 14.2694 28.8336 80.7090 0.0000 4.4850 0.0000
# 4 0.0000 0.0000 0.0000 28.3984 0.0000 -0.6691
# 5 6.5961 -14.9303 4.4850 0.0000 31.0721 0.0000
# 6 0.0000 0.0000 0.0000 -0.6691 0.0000 20.1853
#
#
#
# Elastic Compliance Matrix: (Units=1/GPa)
#
#
# Indices 1 2 3 4 5 6 
#
# 1 0.032590 -0.005011 -0.003481 0.000000 -0.008823 0.000000
# 2 -0.005011 0.015209 -0.005053 0.000000 0.009101 0.000000
# 3 -0.003481 -0.005053 0.015025 0.000000 -0.003858 0.000000
# 4 0.000000 0.000000 0.000000 0.035241 0.000000 0.001168
# 5 -0.008823 0.009101 -0.003858 0.000000 0.038986 0.000000
# 6 0.000000 0.000000 0.000000 0.001168 0.000000 0.049580
#
#
# Mechanical properties :
#
#
# Convention : Reuss Voigt Hill
#
# Bulk Modulus (GPa) = 27.98534 35.17214 31.57874
# Shear Modulus (GPa) = 22.15993 25.88701 24.02347
#
# Velocity S-wave (km/s) = 3.52531 3.81026 3.67055
# Velocity P-wave (km/s) = 5.68026 6.25163 5.97278
#
# Compressibility (1/GPa) = 0.03573299
#
# Stress axis : x y z
#
# Youngs Moduli (GPa) = 30.68445 65.75173 66.55412
#
# Poissons Ratio (x) = 0.32947 0.23170
# Poissons Ratio (y) = 0.15375 0.33631
# Poissons Ratio (z) = 0.10683 0.33226
#
# Static dielectric constant tensor:
#      x y z
#    x 1.680560 0.000000 -0.019520 
#    y 0.000000 1.627200 0.000000 
#    z -0.019520 0.000000 1.647490 
# 
# From -- ./inp_files/111579.got.cif
#   From: 2010.05.17/outbox.cif.g08.bks.cpg/sg12_56_cif.got.tgz:111579.got - 2010.06.03 13:09:07.
