data_PCOD9170529
_publ_section_title
;
Structure prediction by ZEFSAII (Michael W. Deem and Ramdas Pophale) SiO2 
 PCOD9170529
Probable space group: C 2/M
;
_chemical_formula_sum "Si O2"
_cell_formula_units_Z 48
_cell_length_a 10.908347
_cell_length_b 14.585122
_cell_length_c 25.418463
_cell_angle_alpha 90.000000
_cell_angle_beta 29.468735
_cell_angle_gamma 90.000000
_cell_volume 1989.472704
_symmetry_space_group_name_H-M "C 2/M"
_symmetry_group_IT_number 12
_symmetry_cell_setting 'monoclinic'
loop_
_space_group_symop_operation_xyz
x,y,z
-x,y,-z
-x,-y,-z
x,-y,z
1/2+x,1/2+y,z
1/2-x,1/2+y,-z
1/2-x,1/2-y,-z
1/2+x,1/2-y,z
loop_
_atom_site_type_symbol
_atom_site_label
_atom_site_fract_x
_atom_site_fract_y
_atom_site_fract_z
Si Si1 0.237502 0.352474 0.577556
Si Si2 0.190723 0.854236 0.558919
Si Si3 0.085042 0.098673 0.711434
Si Si4 0.984462 0.358452 0.065415
Si Si5 0.679488 0.655148 0.973384
Si Si6 0.141839 0.301282 0.725678
O O1 0.500000 0.391070 0.500000
O O2 0.174675 0.393292 0.543642
O O3 0.081037 0.342911 0.689974
O O4 0.279896 0.247345 0.542729
O O5 0.203537 0.904706 0.609288
O O6 0.899354 0.843765 0.650722
O O7 0.788780 0.116023 0.813281
O O8 0.171139 0.191551 0.707924
O O9 0.117250 0.000000 0.725981
O O10 0.208173 0.393124 0.017937
O O11 0.031106 0.247735 0.046278
O O12 0.000000 0.390139 0.000000
O O13 0.923281 0.682909 0.848690
O O14 0.500000 0.604859 0.000000
#
# Coordination Sequence:
#
# PCOD9170529 Si02
#       6
#     8   8   8   8   8   8
#     4   8  16  28  52  80 100 126 185 234 274 323
#     4   9  17  32  53  77 109 141 184 230 281 339
#     4  11  21  33  52  83 118 148 183 236 296 342
#     4  10  19  32  48  77 113 147 189 234 280 332
#     4  10  18  31  53  82 112 143 194 249 277 322
#     4  10  17  32  53  79 108 146 190 237 277 336
#
# _framework density 24.126998
#
# number of rings (size 3 to 8) (size 9 to 14) (size 15 to 20)
#    0.000    2.333    5.000    0.000    0.000    0.333 
#    0.000    0.000    0.000   55.000    0.000    8.167 
#    0.000    0.667    0.000    0.000    0.000    0.000 
#
# Total GULP energy -133845.198627 kJ/mol
# GULP energy per Si atom -5576.883276 kJ/mol
# Density = 2.407208 g / cm^3
# Si number density = 24.126998 Si / 1000 Ang^3
#
#
#
# Elastic Constant Matrix: (Units=GPa)
#
#
# Indices 1 2 3 4 5 6 
#
# 1 138.0387 1.6374 30.9959 0.0049 7.3177 0.0011
# 2 1.6374 84.0008 18.0313 0.0060 5.0128 -0.0005
# 3 30.9959 18.0313 91.8882 0.0161 9.7409 0.0030
# 4 0.0049 0.0060 0.0161 -15.6545 -0.0021 8.0243
# 5 7.3177 5.0128 9.7409 -0.0021 50.4920 -0.0038
# 6 0.0011 -0.0005 0.0030 8.0243 -0.0038 -13.9081
#
#
#
# Elastic Compliance Matrix: (Units=1/GPa)
#
#
# Indices 1 2 3 4 5 6 
#
# 1 0.007875 0.000461 -0.002676 0.000000 -0.000671 0.000000
# 2 0.000461 0.012485 -0.002518 0.000003 -0.000820 0.000001
# 3 -0.002676 -0.002518 0.012467 0.000018 -0.001767 0.000014
# 4 0.000000 0.000003 0.000018 -0.090704 -0.000011 -0.052332
# 5 -0.000671 -0.000820 -0.001767 -0.000011 0.020325 -0.000013
# 6 0.000000 0.000001 0.000014 -0.052332 -0.000013 -0.102094
#
#
# Mechanical properties :
#
#
# Convention : Reuss Voigt Hill
#
# Bulk Modulus (GPa) = 42.80699 46.13963 44.47331
# Shear Modulus (GPa) = -40.85233 21.73676 -9.55779
#
# Velocity S-wave (km/s) = -4.11934 3.00481 -1.99250
# Velocity P-wave (km/s) = 2.20100 5.58602 3.63038
#
# Compressibility (1/GPa) = 0.02336067
#
# Stress axis : x y z
#
# Youngs Moduli (GPa) = 126.97948 80.09464 80.21203
#
# Poissons Ratio (x) = -0.03692 0.21463
# Poissons Ratio (y) = -0.05853 0.20201
# Poissons Ratio (z) = 0.33978 0.20172
#
# Static dielectric constant tensor:
#      x y z
#    x 2.026350 0.000000 0.022080 
#    y 0.000000 1.950230 0.000010 
#    z 0.022080 0.000010 1.942180 
# 
# From -- ./inp_files/263786.got.cif
#   From: 2010.05.17/outbox.cif.g08.bks.cpg/sg12_132_cif.got.tgz:263786.got - 2010.06.03 13:09:07.
