data_PCOD9170221
_publ_section_title
;
Structure prediction by ZEFSAII (Michael W. Deem and Ramdas Pophale) SiO2 
 PCOD9170221
Probable space group: C 2/M
;
_chemical_formula_sum "Si O2"
_cell_formula_units_Z 58
_cell_length_a 11.757987
_cell_length_b 30.530091
_cell_length_c 9.285509
_cell_angle_alpha 90.000000
_cell_angle_beta 83.521949
_cell_angle_gamma 90.000000
_cell_volume 3311.959321
_symmetry_space_group_name_H-M "C 2/M"
_symmetry_group_IT_number 12
_symmetry_cell_setting 'monoclinic'
loop_
_space_group_symop_operation_xyz
x,y,z
-x,y,-z
-x,-y,-z
x,-y,z
1/2+x,1/2+y,z
1/2-x,1/2+y,-z
1/2-x,1/2-y,-z
1/2+x,1/2-y,z
loop_
_atom_site_type_symbol
_atom_site_label
_atom_site_fract_x
_atom_site_fract_y
_atom_site_fract_z
Si Si1 0.750432 0.808603 0.360127
Si Si2 0.500000 0.500000 0.500000
Si Si3 0.736098 0.949403 0.633108
Si Si4 0.502317 0.050813 0.162543
Si Si5 0.025351 0.912045 0.345484
Si Si6 0.113315 0.220824 0.388017
Si Si7 0.381233 0.898839 0.603217
Si Si8 0.020565 0.831712 0.828108
O O1 0.799488 0.803340 0.515696
O O2 0.672344 0.766600 0.339116
O O3 0.680271 0.853225 0.362447
O O4 0.858613 0.811558 0.238756
O O5 0.473281 0.459986 0.385278
O O6 0.624674 0.948634 0.749779
O O7 0.839376 0.921288 0.681882
O O8 0.696292 0.929968 0.486580
O O9 0.779674 0.000000 0.610973
O O10 0.584890 0.077637 0.254191
O O11 0.539117 0.000000 0.154969
O O12 0.500000 0.067314 0.000000
O O13 0.000000 0.886642 0.500000
O O14 0.980861 0.882397 0.223813
O O15 0.000000 0.229555 0.500000
O O16 0.075263 0.192578 0.255920
O O17 0.500000 0.892028 0.500000
O O18 0.000000 0.827570 0.000000
#
# Coordination Sequence:
#
# PCOD9170221 Si02
#       8
#     8   2   8   8   8   8   8   8
#     4  10  20  36  59  78 104 137 177 229 267 314
#     4   8  20  32  62  80 104 140 188 232 262 302
#     4  10  17  30  52  72  97 132 173 219 266 308
#     4   9  19  33  46  66 102 139 172 208 258 321
#     4  10  18  35  56  80 105 137 185 225 264 312
#     4   9  19  38  60  82 102 136 182 224 270 322
#     4  10  19  30  50  78  98 126 172 223 266 310
#     4  11  23  36  54  82 115 148 175 215 276 336
#
# _framework density 17.512293
#
# number of rings (size 3 to 8) (size 9 to 14) (size 15 to 20)
#    0.414    1.793    0.690    3.724    0.000    3.310 
#    0.000    1.034    0.000    0.000    0.000    0.000 
#    0.000    0.000    0.000    0.000    0.000    0.000 
#
# Total GULP energy -161499.395762 kJ/mol
# GULP energy per Si atom -5568.944681 kJ/mol
# Density = 1.747243 g / cm^3
# Si number density = 17.512293 Si / 1000 Ang^3
#
#
#
# Elastic Constant Matrix: (Units=GPa)
#
#
# Indices 1 2 3 4 5 6 
#
# 1 41.7369 33.7447 16.5792 0.0000 6.8609 0.0000
# 2 33.7447 95.9565 54.4313 0.0000 1.0867 0.0000
# 3 16.5792 54.4313 123.0531 0.0000 -4.1825 0.0000
# 4 0.0000 0.0000 0.0000 13.6032 0.0000 7.7688
# 5 6.8609 1.0867 -4.1825 0.0000 9.5480 0.0000
# 6 0.0000 0.0000 0.0000 7.7688 0.0000 36.5860
#
#
#
# Elastic Compliance Matrix: (Units=1/GPa)
#
#
# Indices 1 2 3 4 5 6 
#
# 1 0.039273 -0.013334 -0.000305 0.000000 -0.026836 0.000000
# 2 -0.013334 0.018619 -0.006279 0.000000 0.004711 0.000000
# 3 -0.000305 -0.006279 0.011143 0.000000 0.005815 0.000000
# 4 0.000000 0.000000 0.000000 0.083657 0.000000 -0.017764
# 5 -0.026836 0.004711 0.005815 0.000000 0.126029 0.000000
# 6 0.000000 0.000000 0.000000 -0.017764 0.000000 0.031105
#
#
# Mechanical properties :
#
#
# Convention : Reuss Voigt Hill
#
# Bulk Modulus (GPa) = 34.24908 52.25074 43.24991
# Shear Modulus (GPa) = 13.91225 22.34685 18.12955
#
# Velocity S-wave (km/s) = 2.82162 3.57608 3.22102
# Velocity P-wave (km/s) = 5.49682 6.85219 6.21158
#
# Compressibility (1/GPa) = 0.02919786
#
# Stress axis : x y z
#
# Youngs Moduli (GPa) = 25.46289 53.70852 89.74274
#
# Poissons Ratio (x) = 0.71614 0.02741
# Poissons Ratio (y) = 0.33952 0.56352
# Poissons Ratio (z) = 0.00778 0.33725
#
# Static dielectric constant tensor:
#      x y z
#    x 1.497200 0.000000 0.011780 
#    y 0.000000 1.606510 0.000000 
#    z 0.011780 0.000000 1.575660 
# 
# From -- ./inp_files/54280.got.cif
#   From: 2010.05.17/outbox.cif.g08.bks.cpg/sg12_28_cif.got.tgz:54280.got - 2010.06.03 13:09:07.
