data_PCOD9170474
_publ_section_title
;
Structure prediction by ZEFSAII (Michael W. Deem and Ramdas Pophale) SiO2 
 PCOD9170474
Probable space group: C 2/M
;
_chemical_formula_sum "Si O2"
_cell_formula_units_Z 56
_cell_length_a 18.062678
_cell_length_b 12.938156
_cell_length_c 19.174155
_cell_angle_alpha 90.000000
_cell_angle_beta 53.287599
_cell_angle_gamma 90.000000
_cell_volume 3592.142334
_symmetry_space_group_name_H-M "C 2/M"
_symmetry_group_IT_number 12
_symmetry_cell_setting 'monoclinic'
loop_
_space_group_symop_operation_xyz
x,y,z
-x,y,-z
-x,-y,-z
x,-y,z
1/2+x,1/2+y,z
1/2-x,1/2+y,-z
1/2-x,1/2-y,-z
1/2+x,1/2-y,z
loop_
_atom_site_type_symbol
_atom_site_label
_atom_site_fract_x
_atom_site_fract_y
_atom_site_fract_z
Si Si1 0.714609 0.378792 0.219944
Si Si2 0.720220 0.685243 0.378438
Si Si3 0.425616 0.125040 0.097456
Si Si4 0.943210 0.273514 0.703355
Si Si5 0.950306 0.115353 0.452660
Si Si6 0.103043 0.381607 0.409732
Si Si7 0.072625 0.624873 0.742549
O O1 0.701162 0.500000 0.211805
O O2 0.705734 0.363822 0.309163
O O3 0.819237 0.346968 0.142416
O O4 0.639840 0.302885 0.228744
O O5 0.657369 0.626128 0.469517
O O6 0.675735 0.799640 0.399789
O O7 0.828055 0.674012 0.332505
O O8 0.446358 0.152502 0.165921
O O9 0.427502 0.000000 0.093887
O O10 0.500000 0.164387 0.000000
O O11 0.905887 0.354229 0.666909
O O12 0.013778 0.199972 0.620969
O O13 0.994645 0.331040 0.736205
O O14 0.000000 0.130363 0.500000
O O15 0.973676 0.000000 0.415283
O O16 0.130291 0.500000 0.405853
O O17 0.000000 0.368097 0.500000
O O18 0.080007 0.500000 0.733267
#
# Coordination Sequence:
#
# PCOD9170474 Si02
#       7
#     8   8   8   8   8   8   8
#     4   9  16  28  50  73  94 122 158 200 236 270
#     4  10  17  32  47  67  88 126 171 205 228 270
#     4   8  15  31  54  75  92 116 152 192 237 288
#     4  11  19  30  43  69  99 129 158 193 236 286
#     4  11  18  28  47  69  92 126 168 205 230 263
#     4  10  18  31  46  62  88 127 168 199 228 272
#     4  10  21  33  48  69  98 125 151 198 249 283
#
# _framework density 15.589582
#
# number of rings (size 3 to 8) (size 9 to 14) (size 15 to 20)
#    0.000    2.143    4.286    3.000    0.000    0.571 
#    0.000    2.143    0.000    0.000    0.000    0.000 
#    0.000   64.000    0.000    0.000    0.000    0.000 
#
# Total GULP energy -156058.075403 kJ/mol
# GULP energy per Si atom -5573.502693 kJ/mol
# Density = 1.555410 g / cm^3
# Si number density = 15.589582 Si / 1000 Ang^3
#
#
#
# Elastic Constant Matrix: (Units=GPa)
#
#
# Indices 1 2 3 4 5 6 
#
# 1 78.4196 33.4307 27.4413 0.0000 -9.8947 0.0000
# 2 33.4307 91.8203 23.1818 0.0000 -5.4171 0.0000
# 3 27.4413 23.1818 87.5580 0.0000 -17.8163 0.0000
# 4 0.0000 0.0000 0.0000 8.7699 0.0000 -1.6880
# 5 -9.8947 -5.4171 -17.8163 0.0000 14.0566 0.0000
# 6 0.0000 0.0000 0.0000 -1.6880 0.0000 24.4752
#
#
#
# Elastic Compliance Matrix: (Units=1/GPa)
#
#
# Indices 1 2 3 4 5 6 
#
# 1 0.016606 -0.005018 -0.002548 0.000000 0.006526 0.000000
# 2 -0.005018 0.013194 -0.002162 0.000000 -0.001188 0.000000
# 3 -0.002548 -0.002162 0.016517 0.000000 0.018308 0.000000
# 4 0.000000 0.000000 0.000000 0.115560 0.000000 0.007970
# 5 0.006526 -0.001188 0.018308 0.000000 0.098482 0.000000
# 6 0.000000 0.000000 0.000000 0.007970 0.000000 0.041407
#
#
# Mechanical properties :
#
#
# Convention : Reuss Voigt Hill
#
# Bulk Modulus (GPa) = 37.22883 47.32283 42.27583
# Shear Modulus (GPa) = 15.14341 21.04329 18.09335
#
# Velocity S-wave (km/s) = 3.12008 3.67799 3.41046
# Velocity P-wave (km/s) = 6.07555 6.96119 6.53339
#
# Compressibility (1/GPa) = 0.02686090
#
# Stress axis : x y z
#
# Youngs Moduli (GPa) = 60.21890 75.79457 60.54204
#
# Poissons Ratio (x) = 0.38032 0.15426
# Poissons Ratio (y) = 0.30216 0.13091
# Poissons Ratio (z) = 0.15344 0.16389
#
# Static dielectric constant tensor:
#      x y z
#    x 1.527130 0.000000 -0.018170 
#    y 0.000000 1.525420 0.000000 
#    z -0.018170 0.000000 1.527520 
# 
# From -- ./inp_files/315278.got.cif
#   From: 2010.05.17/outbox.cif.g08.bks.cpg/sg12_158_cif.got.tgz:315278.got - 2010.06.03 13:09:07.
