data_PCOD9170313
_publ_section_title
;
Structure prediction by ZEFSAII (Michael W. Deem and Ramdas Pophale) SiO2 
 PCOD9170313
Probable space group: C 2/M
;
_chemical_formula_sum "Si O2"
_cell_formula_units_Z 48
_cell_length_a 14.031075
_cell_length_b 27.781430
_cell_length_c 11.270175
_cell_angle_alpha 90.000000
_cell_angle_beta 30.313545
_cell_angle_gamma 90.000000
_cell_volume 2217.363027
_symmetry_space_group_name_H-M "C 2/M"
_symmetry_group_IT_number 12
_symmetry_cell_setting 'monoclinic'
loop_
_space_group_symop_operation_xyz
x,y,z
-x,y,-z
-x,-y,-z
x,-y,z
1/2+x,1/2+y,z
1/2-x,1/2+y,-z
1/2-x,1/2-y,-z
1/2+x,1/2-y,z
loop_
_atom_site_type_symbol
_atom_site_label
_atom_site_fract_x
_atom_site_fract_y
_atom_site_fract_z
Si Si1 0.527385 0.367389 0.598274
Si Si2 0.915156 0.636345 0.304644
Si Si3 0.772229 0.551060 0.746787
Si Si4 0.711359 0.658634 0.761798
Si Si5 0.226756 0.554618 0.979654
Si Si6 0.763173 0.693926 0.963617
O O1 0.500000 0.343845 0.500000
O O2 0.746223 0.373205 0.395363
O O3 0.396328 0.415404 0.737450
O O4 0.431363 0.333427 0.799038
O O5 0.818794 0.663105 0.522066
O O6 0.033039 0.586168 0.191158
O O7 0.088989 0.672606 0.099099
O O8 0.717520 0.500000 0.748468
O O9 0.700030 0.600372 0.773198
O O10 0.714854 0.551106 0.945412
O O11 0.000000 0.553241 0.500000
O O12 0.808867 0.677193 0.778852
O O13 0.500000 0.678889 0.000000
O O14 0.200134 0.500000 0.963494
O O15 0.750000 0.750000 0.000000
#
# Coordination Sequence:
#
# PCOD9170313 Si02
#       6
#     8   8   8   8   8   8
#     4  11  25  45  62  91 130 172 222 273 319 384
#     4  11  22  42  70  92 129 173 211 269 336 382
#     4  10  17  30  56  92 128 160 198 251 314 386
#     4  12  20  39  66  96 133 167 205 265 334 394
#     4  10  21  38  63  96 132 171 220 263 316 390
#     4  11  25  44  65  99 126 163 218 268 331 398
#
# _framework density 21.647334000000001
#
# number of rings (size 3 to 8) (size 9 to 14) (size 15 to 20)
#    0.000    1.167    6.667    0.500    0.000    6.000 
#    3.000    0.833    0.000    0.000    0.000    0.000 
#    0.000    0.000    0.000    0.000    0.000    0.000 
#
# Total GULP energy -133682.034174 kJ/mol
# GULP energy per Si atom -5570.084757 kJ/mol
# Density = 2.159806 g / cm^3
# Si number density = 21.647334 Si / 1000 Ang^3
#
#
#
# Elastic Constant Matrix: (Units=GPa)
#
#
# Indices 1 2 3 4 5 6 
#
# 1 66.4980 -7.6798 24.7303 0.0002 -18.6894 0.0003
# 2 -7.6798 108.8971 9.3653 0.0000 -12.5293 0.0000
# 3 24.7303 9.3653 58.7627 0.0002 -23.5263 0.0004
# 4 0.0002 0.0000 0.0002 -84.7724 -0.0004 -83.0810
# 5 -18.6894 -12.5293 -23.5263 -0.0004 43.0480 -0.0006
# 6 0.0003 0.0000 0.0004 -83.0810 -0.0006 -82.0269
#
#
#
# Elastic Compliance Matrix: (Units=1/GPa)
#
#
# Indices 1 2 3 4 5 6 
#
# 1 0.019249 0.002548 -0.006227 0.000001 0.005696 -0.000001
# 2 0.002548 0.009851 -0.001346 0.000001 0.003238 -0.000001
# 3 -0.006227 -0.001346 0.023827 -0.000005 0.009927 0.000005
# 4 0.000001 0.000001 -0.000005 -1.603528 0.000005 1.624135
# 5 0.005696 0.003238 0.009927 0.000005 0.032070 -0.000005
# 6 -0.000001 -0.000001 0.000005 1.624135 -0.000005 -1.657199
#
#
# Mechanical properties :
#
#
# Convention : Reuss Voigt Hill
#
# Bulk Modulus (GPa) = 23.32221 31.88772 27.60497
# Shear Modulus (GPa) = -1.58660 -10.90078 -6.24369
#
# Velocity S-wave (km/s) = -0.85704 -2.24645 -1.70016
# Velocity P-wave (km/s) = 3.13333 2.83439 2.98760
#
# Compressibility (1/GPa) = 0.04287758
#
# Stress axis : x y z
#
# Youngs Moduli (GPa) = 51.95127 101.51248 41.96943
#
# Poissons Ratio (x) = -0.25869 0.26133
# Poissons Ratio (y) = -0.13239 0.05650
# Poissons Ratio (z) = 0.32349 0.13665
#
# Static dielectric constant tensor:
#      x y z
#    x 1.856800 0.000000 -0.070290 
#    y 0.000000 1.828580 0.000000 
#    z -0.070290 0.000000 2.007800 
# 
# From -- ./inp_files/149632.got.cif
#   From: 2010.05.17/outbox.cif.g08.bks.cpg/sg12_75_cif.got.tgz:149632.got - 2010.06.03 13:09:07.
