data_PCOD9170463
_publ_section_title
;
Structure prediction by ZEFSAII (Michael W. Deem and Ramdas Pophale) SiO2 
 PCOD9170463
Probable space group: C 2/M
;
_chemical_formula_sum "Si O2"
_cell_formula_units_Z 64
_cell_length_a 18.188034
_cell_length_b 14.910549
_cell_length_c 18.609733
_cell_angle_alpha 90.000000
_cell_angle_beta 39.768696
_cell_angle_gamma 90.000000
_cell_volume 3228.412284
_symmetry_space_group_name_H-M "C 2/M"
_symmetry_group_IT_number 12
_symmetry_cell_setting 'monoclinic'
loop_
_space_group_symop_operation_xyz
x,y,z
-x,y,-z
-x,-y,-z
x,-y,z
1/2+x,1/2+y,z
1/2-x,1/2+y,-z
1/2-x,1/2-y,-z
1/2+x,1/2-y,z
loop_
_atom_site_type_symbol
_atom_site_label
_atom_site_fract_x
_atom_site_fract_y
_atom_site_fract_z
Si Si1 0.595568 0.790492 0.990566
Si Si2 0.079556 0.394223 0.776352
Si Si3 0.733267 0.605025 0.240524
Si Si4 0.882473 0.260431 0.379440
Si Si5 0.406762 0.601417 0.254369
Si Si6 0.946134 0.742346 0.618355
Si Si7 0.865345 0.098343 0.012698
Si Si8 0.248897 0.399073 0.246596
O O1 0.686857 0.853441 0.881992
O O2 0.660951 0.704925 0.976463
O O3 0.500000 0.764744 0.000000
O O4 0.523440 0.844384 0.104126
O O5 0.056088 0.500000 0.786907
O O6 0.191987 0.383930 0.742703
O O7 0.099992 0.345164 0.685929
O O8 0.713865 0.500000 0.243181
O O9 0.617488 0.661915 0.331748
O O10 0.750000 0.250000 0.500000
O O11 0.921920 0.173156 0.304735
O O12 0.958366 0.266765 0.393116
O O13 0.386496 0.500000 0.296075
O O14 0.301478 0.630845 0.282666
O O15 0.513938 0.596606 0.119298
O O16 0.847277 0.668943 0.705830
O O17 0.000000 0.727416 0.500000
O O18 0.848818 0.095727 0.111383
O O19 0.810224 0.000000 0.032214
O O20 0.203746 0.500000 0.288783
#
# Coordination Sequence:
#
# PCOD9170463 Si02
#       8
#     8   8   8   8   8   8   8   8
#     4  10  17  31  60  94 129 161 200 245 292 358
#     4  10  21  39  64  93 125 163 205 248 296 356
#     4  10  21  39  64  93 124 162 207 251 296 351
#     4  12  26  43  63  86 118 159 206 256 309 364
#     4  10  20  37  63  94 125 158 199 246 298 356
#     4  12  26  43  63  86 118 159 206 256 309 364
#     4  10  18  30  59  99 132 162 197 242 297 361
#     4  10  20  37  63  94 126 159 197 243 299 362
#
# _framework density 19.823986000000001
#
# number of rings (size 3 to 8) (size 9 to 14) (size 15 to 20)
#    0.000    1.500    2.500    3.750    0.000    6.250 
#    0.000    2.500    0.000    3.000    0.000    0.000 
#    0.000    0.000    0.000    0.000    0.000    0.000 
#
# Total GULP energy -178420.882932 kJ/mol
# GULP energy per Si atom -5575.652592 kJ/mol
# Density = 1.977887 g / cm^3
# Si number density = 19.823986 Si / 1000 Ang^3
#
#
#
# Elastic Constant Matrix: (Units=GPa)
#
#
# Indices 1 2 3 4 5 6 
#
# 1 84.5711 54.1929 46.3603 0.0000 18.0133 0.0000
# 2 54.1929 124.5100 42.7608 0.0000 17.7904 0.0000
# 3 46.3603 42.7608 102.7934 0.0000 18.6453 0.0000
# 4 0.0000 0.0000 0.0000 6.5843 0.0000 2.5279
# 5 18.0133 17.7904 18.6453 0.0000 11.8678 0.0000
# 6 0.0000 0.0000 0.0000 2.5279 0.0000 14.5519
#
#
#
# Elastic Compliance Matrix: (Units=1/GPa)
#
#
# Indices 1 2 3 4 5 6 
#
# 1 0.021301 -0.005289 -0.004168 0.000000 -0.017855 0.000000
# 2 -0.005289 0.011855 -0.001089 0.000000 -0.008033 0.000000
# 3 -0.004168 -0.001089 0.014849 0.000000 -0.015369 0.000000
# 4 0.000000 0.000000 0.000000 0.162729 0.000000 -0.028269
# 5 -0.017855 -0.008033 -0.015369 0.000000 0.147551 0.000000
# 6 0.000000 0.000000 0.000000 -0.028269 0.000000 0.073630
#
#
# Mechanical properties :
#
#
# Convention : Reuss Voigt Hill
#
# Bulk Modulus (GPa) = 37.15668 66.50028 51.82848
# Shear Modulus (GPa) = 10.82297 17.83817 14.33057
#
# Velocity S-wave (km/s) = 2.33910 3.00297 2.69158
# Velocity P-wave (km/s) = 5.10678 6.75588 5.98837
#
# Compressibility (1/GPa) = 0.02691306
#
# Stress axis : x y z
#
# Youngs Moduli (GPa) = 46.94510 84.35069 67.34386
#
# Poissons Ratio (x) = 0.44611 0.28071
# Poissons Ratio (y) = 0.24828 0.07336
# Poissons Ratio (z) = 0.19568 0.09189
#
# Static dielectric constant tensor:
#      x y z
#    x 1.723710 0.000000 -0.015390 
#    y 0.000000 1.737110 0.000000 
#    z -0.015390 0.000000 1.678500 
# 
# From -- ./inp_files/278153.got.cif
#   From: 2010.05.17/outbox.cif.g08.bks.cpg/sg12_140_cif.got.tgz:278153.got - 2010.06.03 13:09:07.
