data_PCOD9170426
_publ_section_title
;
Structure prediction by ZEFSAII (Michael W. Deem and Ramdas Pophale) SiO2 
 PCOD9170426
Probable space group: C 2/M
;
_chemical_formula_sum "Si O2"
_cell_formula_units_Z 40
_cell_length_a 9.410485
_cell_length_b 17.307144
_cell_length_c 23.639514
_cell_angle_alpha 90.000000
_cell_angle_beta 152.642081
_cell_angle_gamma 90.000000
_cell_volume 1769.320310
_symmetry_space_group_name_H-M "C 2/M"
_symmetry_group_IT_number 12
_symmetry_cell_setting 'monoclinic'
loop_
_space_group_symop_operation_xyz
x,y,z
-x,y,-z
-x,-y,-z
x,-y,z
1/2+x,1/2+y,z
1/2-x,1/2+y,-z
1/2-x,1/2-y,-z
1/2+x,1/2-y,z
loop_
_atom_site_type_symbol
_atom_site_label
_atom_site_fract_x
_atom_site_fract_y
_atom_site_fract_z
Si Si1 0.239909 0.157809 0.752805
Si Si2 0.120403 0.906783 0.482114
Si Si3 0.362929 0.588350 0.009525
Si Si4 0.670117 0.295433 0.914225
Si Si5 0.781766 0.411231 0.367142
O O1 0.501308 0.100103 0.869360
O O2 0.404668 0.239151 0.797177
O O3 0.084874 0.126815 0.641040
O O4 0.980280 0.150868 0.710150
O O5 0.479975 0.888719 0.597652
O O6 0.000000 0.879728 0.500000
O O7 0.095444 0.000000 0.470569
O O8 0.458307 0.500000 0.044523
O O9 0.500000 0.625005 0.000000
O O10 0.447933 0.625284 0.099784
O O11 0.750000 0.250000 0.000000
O O12 0.000000 0.305951 0.000000
O O13 0.665156 0.500000 0.317423
O O14 0.000000 0.414997 0.500000
#
# Coordination Sequence:
#
# PCOD9170426 Si02
#       5
#     8   8   8   8   8
#     4  10  17  31  55  84 124 165 193 230 299 361
#     4   9  17  30  50  83 126 164 205 255 299 350
#     4  10  21  39  64  93 120 151 198 250 304 367
#     4  10  21  38  59  87 120 161 203 245 299 360
#     4   8  14  26  47  77 114 157 203 247 293 351
#
# _framework density 22.60755
#
# number of rings (size 3 to 8) (size 9 to 14) (size 15 to 20)
#    0.000    2.600    0.000    5.400    0.000    0.400 
#    0.000   10.000    0.000    4.800    0.000  163.800 
#    0.000   12.800    0.000    0.000    0.000    0.000 
#
# Total GULP energy -111511.353007 kJ/mol
# GULP energy per Si atom -5575.567650 kJ/mol
# Density = 2.255609 g / cm^3
# Si number density = 22.607550 Si / 1000 Ang^3
#
#
#
# Elastic Constant Matrix: (Units=GPa)
#
#
# Indices 1 2 3 4 5 6 
#
# 1 181.9439 38.0343 38.1094 -0.0041 39.5882 -0.0022
# 2 38.0343 59.8869 15.7904 -0.0025 10.7986 -0.0013
# 3 38.1094 15.7904 70.6906 0.0127 14.7452 0.0010
# 4 -0.0041 -0.0025 0.0127 17.0663 0.0029 -11.9659
# 5 39.5882 10.7986 14.7452 0.0029 28.6386 -0.0007
# 6 -0.0022 -0.0013 0.0010 -11.9659 -0.0007 27.6788
#
#
#
# Elastic Compliance Matrix: (Units=1/GPa)
#
#
# Indices 1 2 3 4 5 6 
#
# 1 0.008720 -0.003258 -0.001922 0.000007 -0.009836 0.000003
# 2 -0.003258 0.019682 -0.002276 0.000007 -0.001746 0.000003
# 3 -0.001922 -0.002276 0.016757 -0.000019 -0.005113 -0.000009
# 4 0.000007 0.000007 -0.000019 0.084081 -0.000010 0.036350
# 5 -0.009836 -0.001746 -0.005113 -0.000010 0.051806 -0.000004
# 6 0.000003 0.000003 -0.000009 0.036350 -0.000004 0.051843
#
#
# Mechanical properties :
#
#
# Convention : Reuss Voigt Hill
#
# Bulk Modulus (GPa) = 33.05938 55.15439 44.10689
# Shear Modulus (GPa) = 19.38866 29.38255 24.38561
#
# Velocity S-wave (km/s) = 2.93169 3.60902 3.28784
# Velocity P-wave (km/s) = 5.11025 6.46654 5.82798
#
# Compressibility (1/GPa) = 0.03024860
#
# Stress axis : x y z
#
# Youngs Moduli (GPa) = 114.68053 50.80745 59.67648
#
# Poissons Ratio (x) = 0.16552 0.11467
# Poissons Ratio (y) = 0.37360 0.13582
# Poissons Ratio (z) = 0.22036 0.11564
#
# Static dielectric constant tensor:
#      x y z
#    x 1.967170 0.000000 -0.006970 
#    y 0.000000 1.982370 0.000000 
#    z -0.006970 0.000000 1.878790 
# 
# From -- ./inp_files/333479.got.cif
#   From: 2010.05.17/outbox.cif.g08.bks.cpg/sg12_167_cif.got.tgz:333479.got - 2010.06.03 13:09:07.
