data_PCOD9170747
_publ_section_title
;
Structure prediction by ZEFSAII (Michael W. Deem and Ramdas Pophale) SiO2 
 PCOD9170747
Probable space group: C 2/M
;
_chemical_formula_sum "Si O2"
_cell_formula_units_Z 40
_cell_length_a 5.372992
_cell_length_b 32.527300
_cell_length_c 13.172771
_cell_angle_alpha 90.000000
_cell_angle_beta 70.763378
_cell_angle_gamma 90.000000
_cell_volume 2173.650405
_symmetry_space_group_name_H-M "C 2/M"
_symmetry_group_IT_number 12
_symmetry_cell_setting 'monoclinic'
loop_
_space_group_symop_operation_xyz
x,y,z
-x,y,-z
-x,-y,-z
x,-y,z
1/2+x,1/2+y,z
1/2-x,1/2+y,-z
1/2-x,1/2-y,-z
1/2+x,1/2-y,z
loop_
_atom_site_type_symbol
_atom_site_label
_atom_site_fract_x
_atom_site_fract_y
_atom_site_fract_z
Si Si1 0.784084 0.378443 0.116759
Si Si2 0.500000 0.424316 0.000000
Si Si3 0.386480 0.902550 0.622436
Si Si4 0.454510 0.953876 0.810080
Si Si5 0.650354 0.349690 0.334279
Si Si6 0.000000 0.776954 0.500000
O O1 0.532369 0.392727 0.088498
O O2 0.744642 0.344037 0.205444
O O3 0.851358 0.419171 0.173164
O O4 0.000000 0.371288 0.000000
O O5 0.265820 0.452345 0.071579
O O6 0.500000 0.918526 0.500000
O O7 0.358913 0.937398 0.713081
O O8 0.611530 0.871378 0.635619
O O9 0.111666 0.878602 0.638065
O O10 0.559853 0.000000 0.787660
O O11 0.577935 0.307663 0.398553
O O12 0.250000 0.750000 0.500000
#
# Coordination Sequence:
#
# PCOD9170747 Si02
#       6
#     8   4   8   8   8   4
#     4   9  20  35  56  83 109 157 208 236 289 340
#     4  10  17  34  52  78 106 150 212 242 296 332
#     4  11  20  37  59  82 111 165 200 232 290 341
#     4  10  21  32  49  78 118 154 201 257 296 325
#     4  11  21  40  62  85 123 148 186 242 278 351
#     4  12  24  40  66 100 119 144 179 226 298 354
#
# _framework density 18.402221999999998
#
# number of rings (size 3 to 8) (size 9 to 14) (size 15 to 20)
#    0.000    1.600    4.000    1.500    0.000    4.800 
#    0.000    0.000    0.000    4.800    0.000    0.000 
#    0.000    0.000    0.000    0.000    0.000    0.000 
#
# Total GULP energy -111375.628274 kJ/mol
# GULP energy per Si atom -5568.781414 kJ/mol
# Density = 1.836034 g / cm^3
# Si number density = 18.402222 Si / 1000 Ang^3
#
#
#
# Elastic Constant Matrix: (Units=GPa)
#
#
# Indices 1 2 3 4 5 6 
#
# 1 79.6177 22.6255 13.4237 0.0000 2.1994 0.0000
# 2 22.6255 85.7900 48.4262 0.0000 -0.3948 0.0000
# 3 13.4237 48.4262 137.8969 0.0000 6.5111 0.0000
# 4 0.0000 0.0000 0.0000 26.2121 0.0000 4.8192
# 5 2.1994 -0.3948 6.5111 0.0000 26.1308 0.0000
# 6 0.0000 0.0000 0.0000 4.8192 0.0000 5.5561
#
#
#
# Elastic Compliance Matrix: (Units=1/GPa)
#
#
# Indices 1 2 3 4 5 6 
#
# 1 0.013615 -0.003592 -0.000007 0.000000 -0.001198 0.000000
# 2 -0.003592 0.015545 -0.005196 0.000000 0.001832 0.000000
# 3 -0.000007 -0.005196 0.009189 0.000000 -0.002368 0.000000
# 4 0.000000 0.000000 0.000000 0.045388 0.000000 -0.039368
# 5 -0.001198 0.001832 -0.002368 0.000000 0.038987 0.000000
# 6 0.000000 0.000000 0.000000 -0.039368 0.000000 0.214129
#
#
# Mechanical properties :
#
#
# Convention : Reuss Voigt Hill
#
# Bulk Modulus (GPa) = 48.17294 52.47283 50.32288
# Shear Modulus (GPa) = 13.83646 26.16842 20.00244
#
# Velocity S-wave (km/s) = 2.74504 3.77507 3.30048
# Velocity P-wave (km/s) = 6.02342 6.89767 6.47531
#
# Compressibility (1/GPa) = 0.02075854
#
# Stress axis : x y z
#
# Youngs Moduli (GPa) = 73.44755 64.32893 108.82605
#
# Poissons Ratio (x) = 0.23108 0.00080
# Poissons Ratio (y) = 0.26383 0.56545
# Poissons Ratio (z) = 0.00054 0.33425
#
# Static dielectric constant tensor:
#      x y z
#    x 1.714830 0.000000 -0.011610 
#    y 0.000000 1.613560 0.000000 
#    z -0.011610 0.000000 1.705090 
# 
# From -- ./inp_files/116048.got.cif
#   From: 2010.05.17/outbox.cif.g08.bks.cpg/sg12_59_cif.got.tgz:116048.got - 2010.06.03 13:09:07.
