data_PCOD9170478
_publ_section_title
;
Structure prediction by ZEFSAII (Michael W. Deem and Ramdas Pophale) SiO2 
 PCOD9170478
Probable space group: C 2/M
;
_chemical_formula_sum "Si O2"
_cell_formula_units_Z 64
_cell_length_a 25.218151
_cell_length_b 17.854242
_cell_length_c 18.189842
_cell_angle_alpha 90.000000
_cell_angle_beta 155.773817
_cell_angle_gamma 90.000000
_cell_volume 3360.680600
_symmetry_space_group_name_H-M "C 2/M"
_symmetry_group_IT_number 12
_symmetry_cell_setting 'monoclinic'
loop_
_space_group_symop_operation_xyz
x,y,z
-x,y,-z
-x,-y,-z
x,-y,z
1/2+x,1/2+y,z
1/2-x,1/2+y,-z
1/2-x,1/2-y,-z
1/2+x,1/2-y,z
loop_
_atom_site_type_symbol
_atom_site_label
_atom_site_fract_x
_atom_site_fract_y
_atom_site_fract_z
Si Si1 0.615494 0.844989 0.346311
Si Si2 0.365580 0.416289 0.740876
Si Si3 0.207168 0.088006 0.046442
Si Si4 0.360103 0.775917 0.865327
Si Si5 0.276338 0.876949 0.302327
Si Si6 0.533532 0.912006 0.714203
Si Si7 0.482575 0.296007 0.149583
Si Si8 0.638884 0.083379 0.214296
O O1 0.739106 0.882061 0.541485
O O2 0.497871 0.870254 0.249948
O O3 0.601436 0.754652 0.327050
O O4 0.618014 0.879984 0.267969
O O5 0.395220 0.500000 0.751911
O O6 0.326298 0.419881 0.776082
O O7 0.472928 0.356349 0.855298
O O8 0.256989 0.102176 0.193110
O O9 0.327152 0.102500 0.144320
O O10 0.169133 0.000000 0.991658
O O11 0.095624 0.150561 0.894228
O O12 0.261986 0.708472 0.727592
O O13 0.299058 0.853034 0.759115
O O14 0.500000 0.768277 0.000000
O O15 0.395201 0.764411 0.995344
O O16 0.420274 0.893050 0.512577
O O17 0.522074 0.000000 0.714851
O O18 0.697533 0.000000 0.293896
O O19 0.500000 0.074544 0.000000
#
# Coordination Sequence:
#
# PCOD9170478 Si02
#       8
#     8   8   8   8   8   8   8   8
#     4  11  20  34  51  72 102 133 165 208 250 296
#     4  11  21  32  49  77 106 133 165 198 249 306
#     4  10  21  35  53  73  99 136 173 207 243 288
#     4  10  17  32  47  76 106 134 161 200 243 296
#     4  10  18  31  54  75 105 136 163 200 248 295
#     4  10  21  36  51  74 102 131 172 212 244 287
#     4  11  21  34  51  72 106 135 166 204 250 299
#     4  10  18  31  52  74 100 131 163 203 251 298
#
# _framework density 19.043761
#
# number of rings (size 3 to 8) (size 9 to 14) (size 15 to 20)
#    0.000    1.625    3.750    4.125    0.000    2.500 
#    0.000    1.875    0.000    0.000    0.000    0.000 
#    0.000   10.000    0.000    2.500    0.000    0.000 
#
# Total GULP energy -178312.468153 kJ/mol
# GULP energy per Si atom -5572.264630 kJ/mol
# Density = 1.900042 g / cm^3
# Si number density = 19.043761 Si / 1000 Ang^3
#
#
#
# Elastic Constant Matrix: (Units=GPa)
#
#
# Indices 1 2 3 4 5 6 
#
# 1 62.6560 35.0160 17.4736 -0.0001 2.5739 -0.0001
# 2 35.0160 154.9215 16.4989 0.0000 8.9103 0.0000
# 3 17.4736 16.4989 29.0387 -0.0001 0.3518 -0.0001
# 4 -0.0001 0.0000 -0.0001 19.0941 -0.0001 -1.2948
# 5 2.5739 8.9103 0.3518 -0.0001 23.8434 -0.0001
# 6 -0.0001 0.0000 -0.0001 -1.2948 -0.0001 42.4423
#
#
#
# Elastic Compliance Matrix: (Units=1/GPa)
#
#
# Indices 1 2 3 4 5 6 
#
# 1 0.020927 -0.003561 -0.010560 0.000000 -0.000773 0.000000
# 2 -0.003561 0.007630 -0.002163 0.000000 -0.002435 0.000000
# 3 -0.010560 -0.002163 0.042004 0.000000 0.001329 0.000000
# 4 0.000000 0.000000 0.000000 0.052481 0.000000 0.001601
# 5 -0.000773 -0.002435 0.001329 0.000000 0.042914 0.000000
# 6 0.000000 0.000000 0.000000 0.001601 0.000000 0.023610
#
#
# Mechanical properties :
#
#
# Convention : Reuss Voigt Hill
#
# Bulk Modulus (GPa) = 26.32037 42.73256 34.52647
# Shear Modulus (GPa) = 21.29490 28.91782 25.10636
#
# Velocity S-wave (km/s) = 3.34759 3.90101 3.63485
# Velocity P-wave (km/s) = 5.36589 6.54052 5.98211
#
# Compressibility (1/GPa) = 0.03799338
#
# Stress axis : x y z
#
# Youngs Moduli (GPa) = 47.78535 131.05904 23.80732
#
# Poissons Ratio (x) = 0.46669 0.25140
# Poissons Ratio (y) = 0.17016 0.05149
# Poissons Ratio (z) = 0.50461 0.28348
#
# Static dielectric constant tensor:
#      x y z
#    x 1.672020 0.000000 -0.008320 
#    y 0.000000 1.738200 0.000000 
#    z -0.008320 0.000000 1.711940 
# 
# From -- ./inp_files/290464.got.cif
#   From: 2010.05.17/outbox.cif.g08.bks.cpg/sg12_146_cif.got.tgz:290464.got - 2010.06.03 13:09:07.
