data_PCOD9170085
_publ_section_title
;
Structure prediction by ZEFSAII (Michael W. Deem and Ramdas Pophale) SiO2 
 PCOD9170085
Probable space group: C 2/M
;
_chemical_formula_sum "Si O2"
_cell_formula_units_Z 34
_cell_length_a 7.855780
_cell_length_b 27.826391
_cell_length_c 12.759554
_cell_angle_alpha 90.000000
_cell_angle_beta 29.147559
_cell_angle_gamma 90.000000
_cell_volume 1358.515500
_symmetry_space_group_name_H-M "C 2/M"
_symmetry_group_IT_number 12
_symmetry_cell_setting 'monoclinic'
loop_
_space_group_symop_operation_xyz
x,y,z
-x,y,-z
-x,-y,-z
x,-y,z
1/2+x,1/2+y,z
1/2-x,1/2+y,-z
1/2-x,1/2-y,-z
1/2+x,1/2-y,z
loop_
_atom_site_type_symbol
_atom_site_label
_atom_site_fract_x
_atom_site_fract_y
_atom_site_fract_z
Si Si1 0.989389 0.588215 0.841787
Si Si2 0.755439 0.818865 0.765682
Si Si3 0.319550 0.115523 0.704701
Si Si4 0.407082 0.221103 0.744706
Si Si5 0.500000 0.000000 0.000000
O O1 0.960655 0.586206 0.730360
O O2 0.292334 0.626065 0.711718
O O3 0.026603 0.541764 0.892935
O O4 0.599130 0.609229 0.076348
O O5 0.599865 0.794631 0.746123
O O6 0.016004 0.776456 0.659080
O O7 0.500000 0.823757 0.000000
O O8 0.500000 0.100110 0.500000
O O9 0.390775 0.172245 0.684794
O O10 0.000000 0.226760 0.000000
#
# Coordination Sequence:
#
# PCOD9170085 Si02
#       5
#     8   8   8   8   2
#     4  10  22  41  63  91 118 158 205 258 305 353
#     4  10  17  29  57  83 120 160 193 241 301 344
#     4  10  21  41  63  89 126 164 199 239 298 373
#     4  10  17  29  56  86 118 163 198 227 290 360
#     4  12  24  42  74  92 112 152 212 260 314 368
#
# _framework density 25.027318999999999
#
# number of rings (size 3 to 8) (size 9 to 14) (size 15 to 20)
#    0.000    1.882    5.882    2.824    0.000    1.882 
#    0.000    9.412    0.000    0.000    0.000    0.000 
#    0.000    0.000    0.000    0.000    0.000    0.000 
#
# Total GULP energy -94696.180091 kJ/mol
# GULP energy per Si atom -5570.363535 kJ/mol
# Density = 2.497036 g / cm^3
# Si number density = 25.027319 Si / 1000 Ang^3
#
#
#
# Elastic Constant Matrix: (Units=GPa)
#
#
# Indices 1 2 3 4 5 6 
#
# 1 87.7802 92.9023 54.0380 0.0000 37.0556 0.0000
# 2 92.9023 234.9757 42.5912 0.0000 24.6363 0.0000
# 3 54.0380 42.5912 128.4338 0.0000 40.6038 0.0000
# 4 0.0000 0.0000 0.0000 25.5048 0.0000 36.9869
# 5 37.0556 24.6363 40.6038 0.0000 55.5713 0.0000
# 6 0.0000 0.0000 0.0000 36.9869 0.0000 24.1209
#
#
#
# Elastic Compliance Matrix: (Units=1/GPa)
#
#
# Indices 1 2 3 4 5 6 
#
# 1 0.029959 -0.009590 -0.005791 0.000000 -0.011494 0.000000
# 2 -0.009590 0.007658 0.000711 0.000000 0.002480 0.000000
# 3 -0.005791 0.000711 0.011529 0.000000 -0.004877 0.000000
# 4 0.000000 0.000000 0.000000 -0.032040 0.000000 0.049130
# 5 -0.011494 0.002480 -0.004877 0.000000 0.028124 0.000000
# 6 0.000000 0.000000 0.000000 0.049130 0.000000 -0.033879
#
#
# Mechanical properties :
#
#
# Convention : Reuss Voigt Hill
#
# Bulk Modulus (GPa) = 50.48843 92.25030 71.36937
# Shear Modulus (GPa) = 105.72517 38.48328 72.10422
#
# Velocity S-wave (km/s) = 6.50658 3.92554 5.37334
# Velocity P-wave (km/s) = 8.75583 7.58198 8.18996
#
# Compressibility (1/GPa) = 0.01980652
#
# Stress axis : x y z
#
# Youngs Moduli (GPa) = 33.37917 130.57491 86.73957
#
# Poissons Ratio (x) = 1.25222 0.50231
# Poissons Ratio (y) = 0.32011 -0.06170
# Poissons Ratio (z) = 0.19330 -0.09288
#
# Static dielectric constant tensor:
#      x y z
#    x 2.073550 0.000000 -0.040730 
#    y 0.000000 1.950490 0.000000 
#    z -0.040730 0.000000 1.492500 
# 
# From -- ./inp_files/123344.got.cif
#   From: 2010.05.17/outbox.cif.g08.bks.cpg/sg12_62_cif.got.tgz:123344.got - 2010.06.03 13:09:07.
