data_PCOD9170526
_publ_section_title
;
Structure prediction by ZEFSAII (Michael W. Deem and Ramdas Pophale) SiO2 
 PCOD9170526
Probable space group: C 2/M
;
_chemical_formula_sum "Si O2"
_cell_formula_units_Z 56
_cell_length_a 25.655773
_cell_length_b 19.831930
_cell_length_c 9.106069
_cell_angle_alpha 90.000000
_cell_angle_beta 136.106036
_cell_angle_gamma 90.000000
_cell_volume 3212.317443
_symmetry_space_group_name_H-M "C 2/M"
_symmetry_group_IT_number 12
_symmetry_cell_setting 'monoclinic'
loop_
_space_group_symop_operation_xyz
x,y,z
-x,y,-z
-x,-y,-z
x,-y,z
1/2+x,1/2+y,z
1/2-x,1/2+y,-z
1/2-x,1/2-y,-z
1/2+x,1/2-y,z
loop_
_atom_site_type_symbol
_atom_site_label
_atom_site_fract_x
_atom_site_fract_y
_atom_site_fract_z
Si Si1 0.715054 0.641732 0.385029
Si Si2 0.687226 0.213613 0.187362
Si Si3 0.466874 0.606307 0.272610
Si Si4 0.689990 0.321571 0.795819
Si Si5 0.432691 0.757747 0.270083
Si Si6 0.610517 0.422554 0.409534
Si Si7 0.790633 0.924151 0.921766
O O1 0.686298 0.713039 0.261159
O O2 0.782971 0.660119 0.633316
O O3 0.647597 0.606674 0.337695
O O4 0.739654 0.596060 0.299072
O O5 0.751815 0.213616 0.193998
O O6 0.609303 0.202054 0.943816
O O7 0.500000 0.585765 0.500000
O O8 0.465090 0.687797 0.268742
O O9 0.521140 0.581611 0.253773
O O10 0.381635 0.581268 0.091210
O O11 0.632239 0.269785 0.752378
O O12 0.643343 0.375365 0.604989
O O13 0.729351 0.366876 0.000641
O O14 0.500000 0.790105 0.500000
O O15 0.633801 0.500000 0.474692
O O16 0.770583 0.000000 0.924536
#
# Coordination Sequence:
#
# PCOD9170526 Si02
#       7
#     8   8   8   8   8   8   8
#     4  10  22  34  48  68 102 145 182 210 262 304
#     4  10  20  37  52  69 100 142 181 223 262 304
#     4  10  18  31  46  72 106 144 178 210 250 284
#     4  10  19  31  54  76  97 141 181 221 261 296
#     4  10  17  32  53  77  98 127 180 225 257 298
#     4  11  20  32  48  72 108 148 182 210 250 307
#     4  11  20  32  49  76 107 137 179 219 252 311
#
# _framework density 17.432897000000001
#
# number of rings (size 3 to 8) (size 9 to 14) (size 15 to 20)
#    0.000    1.714    7.143    1.714    0.000    1.143 
#    0.000    1.429    0.000    0.000    0.000    0.000 
#    0.000   21.714    0.000    0.000    0.000    0.000 
#
# Total GULP energy -156170.189054 kJ/mol
# GULP energy per Si atom -5577.506752 kJ/mol
# Density = 1.739322 g / cm^3
# Si number density = 17.432897 Si / 1000 Ang^3
#
#
#
# Elastic Constant Matrix: (Units=GPa)
#
#
# Indices 1 2 3 4 5 6 
#
# 1 38.2168 7.3426 12.0075 0.0000 -13.1446 0.0000
# 2 7.3426 27.6075 15.6301 0.0000 4.1057 0.0000
# 3 12.0075 15.6301 107.9375 0.0000 -1.9080 0.0000
# 4 0.0000 0.0000 0.0000 8.1985 0.0000 1.3679
# 5 -13.1446 4.1057 -1.9080 0.0000 21.0923 0.0000
# 6 0.0000 0.0000 0.0000 1.3679 0.0000 12.9469
#
#
#
# Elastic Compliance Matrix: (Units=1/GPa)
#
#
# Indices 1 2 3 4 5 6 
#
# 1 0.038281 -0.012996 -0.001913 0.000000 0.026213 0.000000
# 2 -0.012996 0.045342 -0.005428 0.000000 -0.017416 0.000000
# 3 -0.001913 -0.005428 0.010277 0.000000 0.000794 0.000000
# 4 0.000000 0.000000 0.000000 0.124163 0.000000 -0.013119
# 5 0.026213 -0.017416 0.000794 0.000000 0.067208 0.000000
# 6 0.000000 0.000000 0.000000 -0.013119 0.000000 0.078625
#
#
# Mechanical properties :
#
#
# Convention : Reuss Voigt Hill
#
# Bulk Modulus (GPa) = 18.78824 27.08025 22.93425
# Shear Modulus (GPa) = 11.83958 17.69964 14.76961
#
# Velocity S-wave (km/s) = 2.60888 3.18984 2.91387
# Velocity P-wave (km/s) = 4.45824 5.39763 4.95027
#
# Compressibility (1/GPa) = 0.05322478
#
# Stress axis : x y z
#
# Youngs Moduli (GPa) = 26.12292 22.05476 97.30018
#
# Poissons Ratio (x) = 0.28663 0.18615
# Poissons Ratio (y) = 0.33950 0.52813
# Poissons Ratio (z) = 0.04998 0.11971
#
# Static dielectric constant tensor:
#      x y z
#    x 1.597310 0.000000 -0.017460 
#    y 0.000000 1.597260 0.000000 
#    z -0.017460 0.000000 1.660790 
# 
# From -- ./inp_files/98915.got.cif
#   From: 2010.05.17/outbox.cif.g08.bks.cpg/sg12_50_cif.got.tgz:98915.got - 2010.06.03 13:09:07.
