data_PCOD9170997
_publ_section_title
;
Structure prediction by ZEFSAII (Michael W. Deem and Ramdas Pophale) SiO2 
 PCOD9170997
Probable space group: C 2/M
;
_chemical_formula_sum "Si O2"
_cell_formula_units_Z 64
_cell_length_a 32.783134
_cell_length_b 8.921210
_cell_length_c 16.663782
_cell_angle_alpha 90.000000
_cell_angle_beta 110.293475
_cell_angle_gamma 90.000000
_cell_volume 4571.066200
_symmetry_space_group_name_H-M "C 2/M"
_symmetry_group_IT_number 12
_symmetry_cell_setting 'monoclinic'
loop_
_space_group_symop_operation_xyz
x,y,z
-x,y,-z
-x,-y,-z
x,-y,z
1/2+x,1/2+y,z
1/2-x,1/2+y,-z
1/2-x,1/2-y,-z
1/2+x,1/2-y,z
loop_
_atom_site_type_symbol
_atom_site_label
_atom_site_fract_x
_atom_site_fract_y
_atom_site_fract_z
Si Si1 0.294484 0.320063 0.997116
Si Si2 0.832912 0.180142 0.184744
Si Si3 0.911685 0.679057 0.336548
Si Si4 0.002452 0.172691 0.404373
Si Si5 0.318929 0.320891 0.521529
Si Si6 0.241218 0.179996 0.371133
Si Si7 0.243213 0.180867 0.189407
Si Si8 0.593022 0.821022 0.476961
O O1 0.291532 0.500000 0.998904
O O2 0.293333 0.279230 0.902239
O O3 0.250000 0.250000 0.000000
O O4 0.330273 0.277583 0.087962
O O5 0.873962 0.249654 0.257455
O O6 0.788561 0.242469 0.194680
O O7 0.833769 0.000000 0.192293
O O8 0.911473 0.500000 0.328820
O O9 0.959050 0.743444 0.346637
O O10 0.903565 0.715300 0.425305
O O11 0.000000 0.175027 0.500000
O O12 0.047665 0.253019 0.414903
O O13 0.002507 0.000000 0.378441
O O14 0.322317 0.500000 0.517374
O O15 0.284688 0.259549 0.432657
O O16 0.297198 0.283054 0.592679
O O17 0.365398 0.247081 0.538652
O O18 0.231979 0.220879 0.272930
O O19 0.248004 0.000000 0.379931
O O20 0.249420 0.000000 0.190687
O O21 0.592293 0.000000 0.469153
#
# Coordination Sequence:
#
# PCOD9170997 Si02
#       8
#     8   8   8   8   8   8   8   8
#     4   8  15  26  39  55  76 102 131 164 199 235
#     4  10  18  26  38  59  83 105 133 167 200 234
#     4  10  19  29  41  58  81 109 137 162 192 233
#     4   9  17  29  44  61  80 102 130 165 200 231
#     4  10  19  29  41  58  80 105 135 171 205 234
#     4   9  18  30  42  57  78 105 137 171 204 237
#     4   9  16  28  43  56  75 106 139 167 200 240
#     4  10  19  30  43  58  79 108 138 164 194 235
#
# _framework density 14.001110000000001
#
# number of rings (size 3 to 8) (size 9 to 14) (size 15 to 20)
#    0.000    2.625    0.000    2.625    0.000    7.500 
#    0.000    0.000    0.000    0.000    0.000    0.000 
#    0.000    1.000    0.000   11.750    0.000    2.250 
#
# Total GULP energy -178218.599150 kJ/mol
# GULP energy per Si atom -5569.331223 kJ/mol
# Density = 1.396924 g / cm^3
# Si number density = 14.001110 Si / 1000 Ang^3
#
#
#
# Elastic Constant Matrix: (Units=GPa)
#
#
# Indices 1 2 3 4 5 6 
#
# 1 87.4107 34.4004 40.3227 0.0000 9.6162 0.0000
# 2 34.4004 35.8438 33.0975 0.0000 5.5528 0.0000
# 3 40.3227 33.0975 104.2212 0.0000 4.4971 0.0000
# 4 0.0000 0.0000 0.0000 16.8694 0.0000 3.8273
# 5 9.6162 5.5528 4.4971 0.0000 20.8711 0.0000
# 6 0.0000 0.0000 0.0000 3.8273 0.0000 23.8289
#
#
#
# Elastic Compliance Matrix: (Units=1/GPa)
#
#
# Indices 1 2 3 4 5 6 
#
# 1 0.019065 -0.015576 -0.002251 0.000000 -0.004155 0.000000
# 2 -0.015576 0.053524 -0.010767 0.000000 -0.004744 0.000000
# 3 -0.002251 -0.010767 0.013845 0.000000 0.000918 0.000000
# 4 0.000000 0.000000 0.000000 0.061521 0.000000 -0.009881
# 5 -0.004155 -0.004744 0.000918 0.000000 0.050892 0.000000
# 6 0.000000 0.000000 0.000000 -0.009881 0.000000 0.043553
#
#
# Mechanical properties :
#
#
# Convention : Reuss Voigt Hill
#
# Bulk Modulus (GPa) = 34.18976 49.23523 41.71249
# Shear Modulus (GPa) = 16.16365 20.29088 18.22727
#
# Velocity S-wave (km/s) = 3.40141 3.81101 3.61202
# Velocity P-wave (km/s) = 6.31652 7.38963 6.87405
#
# Compressibility (1/GPa) = 0.02924853
#
# Stress axis : x y z
#
# Youngs Moduli (GPa) = 52.45099 18.68322 72.22665
#
# Poissons Ratio (x) = 0.29100 0.16256
# Poissons Ratio (y) = 0.81696 0.77764
# Poissons Ratio (z) = 0.11805 0.20116
#
# Static dielectric constant tensor:
#      x y z
#    x 1.430740 0.000000 -0.006290 
#    y 0.000000 1.467660 0.000000 
#    z -0.006290 0.000000 1.480040 
# 
# From -- ./inp_files/294591.got.cif
#   From: 2010.05.17/outbox.cif.g08.bks.cpg/sg12_148_cif.got.tgz:294591.got - 2010.06.03 13:09:07.
