data_PCOD9170914
_publ_section_title
;
Structure prediction by ZEFSAII (Michael W. Deem and Ramdas Pophale) SiO2 
 PCOD9170914
Probable space group: C 2/M
;
_chemical_formula_sum "Si O2"
_cell_formula_units_Z 64
_cell_length_a 8.371858
_cell_length_b 29.997305
_cell_length_c 18.525323
_cell_angle_alpha 90.000000
_cell_angle_beta 142.390460
_cell_angle_gamma 90.000000
_cell_volume 2839.206217
_symmetry_space_group_name_H-M "C 2/M"
_symmetry_group_IT_number 12
_symmetry_cell_setting 'monoclinic'
loop_
_space_group_symop_operation_xyz
x,y,z
-x,y,-z
-x,-y,-z
x,-y,z
1/2+x,1/2+y,z
1/2-x,1/2+y,-z
1/2-x,1/2-y,-z
1/2+x,1/2-y,z
loop_
_atom_site_type_symbol
_atom_site_label
_atom_site_fract_x
_atom_site_fract_y
_atom_site_fract_z
Si Si1 0.562371 0.691996 0.192135
Si Si2 0.996562 0.288132 0.224578
Si Si3 0.244338 0.139633 0.034212
Si Si4 0.010267 0.837015 0.422552
Si Si5 0.435524 0.865403 0.400206
Si Si6 0.915811 0.549199 0.623096
Si Si7 0.898562 0.067097 0.345121
Si Si8 0.015505 0.451779 0.092051
O O1 0.806172 0.701751 0.224227
O O2 0.451284 0.738493 0.180190
O O3 0.357465 0.661960 0.075799
O O4 0.679664 0.663848 0.299988
O O5 0.305755 0.296795 0.348546
O O6 0.922791 0.323700 0.137083
O O7 0.373604 0.092045 0.069793
O O8 0.000000 0.133935 0.000000
O O9 0.917084 0.879568 0.344249
O O10 0.000000 0.855914 0.500000
O O11 0.317629 0.831545 0.519783
O O12 0.500000 0.886782 0.500000
O O13 0.428739 0.905665 0.340515
O O14 0.039014 0.500000 0.659821
O O15 0.669957 0.551183 0.478803
O O16 0.810001 0.554441 0.666935
O O17 0.799928 0.049433 0.233064
O O18 0.898104 0.500000 0.070772
O O19 0.000000 0.449453 0.000000
#
# Coordination Sequence:
#
# PCOD9170914 Si02
#       8
#     8   8   8   8   8   8   8   8
#     4  11  25  43  63  93 127 165 216 264 321 388
#     4  11  23  42  68  94 121 166 216 268 320 380
#     4  10  24  44  67  90 129 169 217 266 314 381
#     4  11  19  39  68  93 127 163 208 265 319 379
#     4  11  25  40  59  95 135 164 203 263 328 385
#     4  10  19  34  63  95 122 166 215 259 315 382
#     4  10  17  36  64  94 124 161 216 265 307 379
#     4  11  24  40  64  99 133 169 216 267 322 378
#
# _framework density 22.541512000000001
#
# number of rings (size 3 to 8) (size 9 to 14) (size 15 to 20)
#    0.000    1.375    5.000    1.875    3.500    4.500 
#    0.000    0.625    0.000    0.000    0.000    0.000 
#    0.000    0.000    0.000    0.000    0.000    0.000 
#
# Total GULP energy -178672.097714 kJ/mol
# GULP energy per Si atom -5583.503054 kJ/mol
# Density = 2.249021 g / cm^3
# Si number density = 22.541512 Si / 1000 Ang^3
#
#
#
# Elastic Constant Matrix: (Units=GPa)
#
#
# Indices 1 2 3 4 5 6 
#
# 1 18.1893 7.6053 14.2681 0.0000 -9.7708 0.0000
# 2 7.6053 139.2092 29.6101 0.0000 -0.6504 0.0000
# 3 14.2681 29.6101 93.6234 0.0001 -19.9554 0.0000
# 4 0.0000 0.0000 0.0001 22.7237 0.0000 -2.0201
# 5 -9.7708 -0.6504 -19.9554 0.0000 25.8884 0.0000
# 6 0.0000 0.0000 0.0000 -2.0201 0.0000 10.3317
#
#
#
# Elastic Compliance Matrix: (Units=1/GPa)
#
#
# Indices 1 2 3 4 5 6 
#
# 1 0.072791 -0.002752 -0.005243 0.000000 0.023362 0.000000
# 2 -0.002752 0.007894 -0.002700 0.000000 -0.002922 0.000000
# 3 -0.005243 -0.002700 0.014237 0.000000 0.008927 0.000000
# 4 0.000000 0.000000 0.000000 0.044785 0.000000 0.008757
# 5 0.023362 -0.002922 0.008927 0.000000 0.054253 0.000000
# 6 0.000000 0.000000 0.000000 0.008757 0.000000 0.098502
#
#
# Mechanical properties :
#
#
# Convention : Reuss Voigt Hill
#
# Bulk Modulus (GPa) = 13.59974 39.33208 26.46591
# Shear Modulus (GPa) = 14.77702 25.09131 19.93416
#
# Velocity S-wave (km/s) = 2.56314 3.33996 2.97700
# Velocity P-wave (km/s) = 3.84784 5.68862 4.85625
#
# Compressibility (1/GPa) = 0.07353080
#
# Stress axis : x y z
#
# Youngs Moduli (GPa) = 13.73804 126.67117 70.23985
#
# Poissons Ratio (x) = 0.34864 0.36828
# Poissons Ratio (y) = 0.03781 0.18965
# Poissons Ratio (z) = 0.07203 0.34202
#
# Static dielectric constant tensor:
#      x y z
#    x 1.888370 0.000000 0.006060 
#    y 0.000000 1.809240 0.000000 
#    z 0.006060 0.000000 1.875030 
# 
# From -- ./inp_files/260387.got.cif
#   From: 2010.05.17/outbox.cif.g08.bks.cpg/sg12_131_cif.got.tgz:260387.got - 2010.06.03 13:09:07.
