data_PCOD9170304
_publ_section_title
;
Structure prediction by ZEFSAII (Michael W. Deem and Ramdas Pophale) SiO2 
 PCOD9170304
Probable space group: C 2/M
;
_chemical_formula_sum "Si O2"
_cell_formula_units_Z 40
_cell_length_a 13.727551
_cell_length_b 11.789323
_cell_length_c 11.795427
_cell_angle_alpha 90.000000
_cell_angle_beta 129.165707
_cell_angle_gamma 90.000000
_cell_volume 1480.055711
_symmetry_space_group_name_H-M "C 2/M"
_symmetry_group_IT_number 12
_symmetry_cell_setting 'monoclinic'
loop_
_space_group_symop_operation_xyz
x,y,z
-x,y,-z
-x,-y,-z
x,-y,z
1/2+x,1/2+y,z
1/2-x,1/2+y,-z
1/2-x,1/2-y,-z
1/2+x,1/2-y,z
loop_
_atom_site_type_symbol
_atom_site_label
_atom_site_fract_x
_atom_site_fract_y
_atom_site_fract_z
Si Si1 0.402044 0.846114 0.524688
Si Si2 0.984906 0.121895 0.335344
Si Si3 0.770598 0.630169 0.949098
Si Si4 0.367246 0.623683 0.777633
Si Si5 0.068665 0.374849 0.182706
O O1 0.500000 0.886077 0.500000
O O2 0.424841 0.712067 0.542465
O O3 0.263694 0.878107 0.386103
O O4 0.425270 0.874260 0.673839
O O5 0.018053 0.123187 0.226009
O O6 0.022209 0.000000 0.403590
O O7 0.836139 0.139920 0.227145
O O8 0.744917 0.500000 0.978088
O O9 0.920801 0.625352 0.045164
O O10 0.750000 0.750000 0.000000
O O11 0.371325 0.500000 0.843301
O O12 0.375902 0.754899 0.823580
O O13 0.122075 0.500000 0.190207
#
# Coordination Sequence:
#
# PCOD9170304 Si02
#       5
#     8   8   8   8   8
#     4  11  22  33  49  76 110 146 173 210 261 321
#     4   9  18  34  56  79 104 135 177 222 259 303
#     4  10  17  30  56  85 105 127 170 224 267 302
#     4  10  20  34  53  76 105 140 179 219 258 303
#     4  10  20  34  57  83 105 135 176 218 262 310
#
# _framework density 27.026011
#
# number of rings (size 3 to 8) (size 9 to 14) (size 15 to 20)
#    0.000    2.000    4.000    3.000    0.000    4.400 
#    0.000    0.000    0.000    4.800    0.000   14.000 
#    0.000    0.000    0.000    0.000    0.000    0.000 
#
# Total GULP energy -111518.696912 kJ/mol
# GULP energy per Si atom -5575.934846 kJ/mol
# Density = 2.696450 g / cm^3
# Si number density = 27.026011 Si / 1000 Ang^3
#
#
#
# Elastic Constant Matrix: (Units=GPa)
#
#
# Indices 1 2 3 4 5 6 
#
# 1 101.4109 32.8565 29.5613 0.0000 19.7961 0.0000
# 2 32.8565 340.8519 64.9265 0.0000 13.6782 0.0000
# 3 29.5613 64.9265 134.1548 0.0000 11.3564 0.0000
# 4 0.0000 0.0000 0.0000 25.1064 0.0000 20.0143
# 5 19.7961 13.6782 11.3564 0.0000 50.2089 0.0000
# 6 0.0000 0.0000 0.0000 20.0143 0.0000 32.5053
#
#
#
# Elastic Compliance Matrix: (Units=1/GPa)
#
#
# Indices 1 2 3 4 5 6 
#
# 1 0.011360 -0.000578 -0.001894 0.000000 -0.003893 0.000000
# 2 -0.000578 0.003275 -0.001429 0.000000 -0.000341 0.000000
# 3 -0.001894 -0.001429 0.008632 0.000000 -0.000816 0.000000
# 4 0.000000 0.000000 0.000000 0.078228 0.000000 -0.048167
# 5 -0.003893 -0.000341 -0.000816 0.000000 0.021729 0.000000
# 6 0.000000 0.000000 0.000000 -0.048167 0.000000 0.060421
#
#
# Mechanical properties :
#
#
# Convention : Reuss Voigt Hill
#
# Bulk Modulus (GPa) = 64.65852 92.34515 78.50183
# Shear Modulus (GPa) = 25.43191 51.50234 38.46712
#
# Velocity S-wave (km/s) = 3.07093 4.37012 3.77681
# Velocity P-wave (km/s) = 6.04571 7.72704 6.93750
#
# Compressibility (1/GPa) = 0.01546587
#
# Stress axis : x y z
#
# Youngs Moduli (GPa) = 88.02641 305.30349 115.84703
#
# Poissons Ratio (x) = 0.17649 0.21940
# Poissons Ratio (y) = 0.05089 0.16554
# Poissons Ratio (z) = 0.16671 0.43626
#
# Static dielectric constant tensor:
#      x y z
#    x 2.276120 0.000000 -0.107230 
#    y 0.000000 2.176870 0.000000 
#    z -0.107230 0.000000 2.019800 
# 
# From -- ./inp_files/223547.got.cif
#   From: 2010.05.17/outbox.cif.g08.bks.cpg/sg12_112_cif.got.tgz:223547.got - 2010.06.03 13:09:07.
