data_PCOD9170130
_publ_section_title
;
Structure prediction by ZEFSAII (Michael W. Deem and Ramdas Pophale) SiO2 
 PCOD9170130
Probable space group: C 2/M
;
_chemical_formula_sum "Si O2"
_cell_formula_units_Z 40
_cell_length_a 17.236442
_cell_length_b 17.535462
_cell_length_c 8.930155
_cell_angle_alpha 90.000000
_cell_angle_beta 55.047721
_cell_angle_gamma 90.000000
_cell_volume 2212.286683
_symmetry_space_group_name_H-M "C 2/M"
_symmetry_group_IT_number 12
_symmetry_cell_setting 'monoclinic'
loop_
_space_group_symop_operation_xyz
x,y,z
-x,y,-z
-x,-y,-z
x,-y,z
1/2+x,1/2+y,z
1/2-x,1/2+y,-z
1/2-x,1/2-y,-z
1/2+x,1/2-y,z
loop_
_atom_site_type_symbol
_atom_site_label
_atom_site_fract_x
_atom_site_fract_y
_atom_site_fract_z
Si Si1 0.153966 0.241187 0.509233
Si Si2 0.077372 0.915226 0.681348
Si Si3 0.696146 0.182291 0.145334
Si Si4 0.113529 0.129565 0.985157
Si Si5 0.968362 0.700131 0.881870
O O1 0.250000 0.250000 0.500000
O O2 0.125993 0.151823 0.533619
O O3 0.165785 0.281420 0.336910
O O4 0.064099 0.278981 0.689695
O O5 0.104725 0.901807 0.826353
O O6 0.103181 0.000000 0.605384
O O7 0.963510 0.906198 0.817926
O O8 0.778920 0.121706 0.081891
O O9 0.606471 0.159858 0.144205
O O10 0.750000 0.250000 0.000000
O O11 0.082179 0.219208 0.015156
O O12 0.000000 0.660234 0.000000
#
# Coordination Sequence:
#
# PCOD9170130 Si02
#       5
#     8   8   8   8   8
#     4  11  18  31  50  76 110 142 176 223 267 314
#     4  10  18  30  53  79 111 145 173 209 268 329
#     4  10  19  29  48  75 105 140 179 226 266 311
#     4   9  15  30  48  74 107 138 177 207 265 320
#     4  10  17  30  47  74 103 134 177 227 271 305
#
# _framework density 18.080838
#
# number of rings (size 3 to 8) (size 9 to 14) (size 15 to 20)
#    0.000    2.000    6.000    3.000    0.000    0.000 
#    0.000    0.000    0.000   26.400    0.000    4.200 
#    0.000   34.400    0.000    0.000    0.000    0.000 
#
# Total GULP energy -111445.482093 kJ/mol
# GULP energy per Si atom -5572.274105 kJ/mol
# Density = 1.803969 g / cm^3
# Si number density = 18.080838 Si / 1000 Ang^3
#
#
#
# Elastic Constant Matrix: (Units=GPa)
#
#
# Indices 1 2 3 4 5 6 
#
# 1 177.6835 23.3007 53.6559 0.0000 -15.4884 0.0000
# 2 23.3007 42.3417 10.9098 0.0000 -8.2213 0.0000
# 3 53.6559 10.9098 75.9720 0.0000 -3.2594 0.0000
# 4 0.0000 0.0000 0.0000 8.3827 0.0000 -0.2476
# 5 -15.4884 -8.2213 -3.2594 0.0000 27.9792 0.0000
# 6 0.0000 0.0000 0.0000 -0.2476 0.0000 8.0575
#
#
#
# Elastic Compliance Matrix: (Units=1/GPa)
#
#
# Indices 1 2 3 4 5 6 
#
# 1 0.007701 -0.002378 -0.004969 0.000000 0.002985 0.000000
# 2 -0.002378 0.026630 -0.001875 0.000000 0.006290 0.000000
# 3 -0.004969 -0.001875 0.016884 0.000000 -0.001335 0.000000
# 4 0.000000 0.000000 0.000000 0.119402 0.000000 0.003670
# 5 0.002985 0.006290 -0.001335 0.000000 0.039086 0.000000
# 6 0.000000 0.000000 0.000000 0.003670 0.000000 0.124220
#
#
# Mechanical properties :
#
#
# Convention : Reuss Voigt Hill
#
# Bulk Modulus (GPa) = 30.51433 52.41443 41.46438
# Shear Modulus (GPa) = 13.76309 22.75927 18.26118
#
# Velocity S-wave (km/s) = 2.76197 3.55174 3.18146
# Velocity P-wave (km/s) = 5.20428 6.77286 6.03971
#
# Compressibility (1/GPa) = 0.03277149
#
# Stress axis : x y z
#
# Youngs Moduli (GPa) = 129.86124 37.55114 59.22703
#
# Poissons Ratio (x) = 0.08928 0.29430
# Poissons Ratio (y) = 0.30876 0.11106
# Poissons Ratio (z) = 0.64529 0.07041
#
# Static dielectric constant tensor:
#      x y z
#    x 1.718290 0.000000 -0.011420 
#    y 0.000000 1.613770 0.000000 
#    z -0.011420 0.000000 1.637000 
# 
# From -- ./inp_files/62920.got.cif
#   From: 2010.05.17/outbox.cif.g08.bks.cpg/sg12_32_cif.got.tgz:62920.got - 2010.06.03 13:09:07.
