data_PCOD9170616
_publ_section_title
;
Structure prediction by ZEFSAII (Michael W. Deem and Ramdas Pophale) SiO2 
 PCOD9170616
Probable space group: C 2/M
;
_chemical_formula_sum "Si O2"
_cell_formula_units_Z 56
_cell_length_a 24.113839
_cell_length_b 17.407153
_cell_length_c 18.001587
_cell_angle_alpha 90.000000
_cell_angle_beta 157.842772
_cell_angle_gamma 90.000000
_cell_volume 2849.826645
_symmetry_space_group_name_H-M "C 2/M"
_symmetry_group_IT_number 12
_symmetry_cell_setting 'monoclinic'
loop_
_space_group_symop_operation_xyz
x,y,z
-x,y,-z
-x,-y,-z
x,-y,z
1/2+x,1/2+y,z
1/2-x,1/2+y,-z
1/2-x,1/2-y,-z
1/2+x,1/2-y,z
loop_
_atom_site_type_symbol
_atom_site_label
_atom_site_fract_x
_atom_site_fract_y
_atom_site_fract_z
Si Si1 0.166857 0.187335 0.117734
Si Si2 0.164724 0.800778 0.277633
Si Si3 0.140118 0.344195 0.929334
Si Si4 0.672930 0.913166 0.420800
Si Si5 0.187636 0.862971 0.547162
Si Si6 0.829615 0.155843 0.306257
Si Si7 0.868233 0.157011 0.085500
O O1 0.183275 0.155985 0.221593
O O2 0.288213 0.253533 0.260388
O O3 0.161594 0.135686 0.037619
O O4 0.003598 0.225311 0.919890
O O5 0.205774 0.857285 0.394010
O O6 0.268154 0.726782 0.406236
O O7 0.124779 0.250949 0.908459
O O8 0.981476 0.381327 0.741626
O O9 0.232984 0.370040 0.116659
O O10 0.233481 0.364557 0.971989
O O11 0.698756 0.906906 0.364680
O O12 0.693419 0.000000 0.470248
O O13 0.201158 0.880200 0.651318
O O14 0.020750 0.872432 0.310305
O O15 0.000000 0.146586 0.500000
#
# Coordination Sequence:
#
# PCOD9170616 Si02
#       7
#     8   8   8   8   8   8   8
#     4   9  19  30  56  93 122 145 187 243 293 340
#     4  10  19  36  59  89 118 151 191 246 291 335
#     4  10  21  35  56  89 121 151 187 236 298 341
#     4  12  25  40  59  83 118 159 199 240 291 352
#     4  11  19  35  62  87 113 150 195 243 285 346
#     4  10  19  32  56  94 122 145 184 244 300 345
#     4  10  17  32  61  90 113 147 191 239 286 343
#
# _framework density 19.650317999999999
#
# number of rings (size 3 to 8) (size 9 to 14) (size 15 to 20)
#    0.000    1.714    4.286    2.143    0.000    1.714 
#    0.000    3.571    0.000    1.714    0.000    0.000 
#    0.000    0.000    0.000    0.000    0.000    0.000 
#
# Total GULP energy -156125.839265 kJ/mol
# GULP energy per Si atom -5575.922831 kJ/mol
# Density = 1.960559 g / cm^3
# Si number density = 19.650318 Si / 1000 Ang^3
#
#
#
# Elastic Constant Matrix: (Units=GPa)
#
#
# Indices 1 2 3 4 5 6 
#
# 1 134.9080 -0.9229 7.2745 0.0003 -1.5469 0.0002
# 2 -0.9229 21.6140 -2.3610 0.0002 4.8276 0.0002
# 3 7.2745 -2.3610 41.6516 0.0003 6.9412 0.0002
# 4 0.0003 0.0002 0.0003 -3.1213 0.0002 3.0425
# 5 -1.5469 4.8276 6.9412 0.0002 37.6820 0.0001
# 6 0.0002 0.0002 0.0002 3.0425 0.0001 -0.1558
#
#
#
# Elastic Compliance Matrix: (Units=1/GPa)
#
#
# Indices 1 2 3 4 5 6 
#
# 1 0.007495 0.000042 -0.001400 -0.000001 0.000560 -0.000001
# 2 0.000042 0.048230 0.003875 -0.000003 -0.006891 -0.000007
# 3 -0.001400 0.003875 0.025343 -0.000002 -0.005222 -0.000004
# 4 -0.000001 -0.000003 -0.000002 0.017768 0.000000 0.346901
# 5 0.000560 -0.006891 -0.005222 0.000000 0.028406 -0.000001
# 6 -0.000001 -0.000007 -0.000004 0.346901 -0.000001 0.355884
#
#
# Mechanical properties :
#
#
# Convention : Reuss Voigt Hill
#
# Bulk Modulus (GPa) = 11.61410 22.90610 17.26010
# Shear Modulus (GPa) = 9.86597 19.82649 14.84623
#
# Velocity S-wave (km/s) = 2.24314 3.17987 2.75166
# Velocity P-wave (km/s) = 3.55417 5.01640 4.34720
#
# Compressibility (1/GPa) = 0.08610224
#
# Stress axis : x y z
#
# Youngs Moduli (GPa) = 133.42839 20.73380 39.45842
#
# Poissons Ratio (x) = -0.00087 0.05524
# Poissons Ratio (y) = -0.00560 -0.15290
# Poissons Ratio (z) = 0.18679 -0.08034
#
# Static dielectric constant tensor:
#      x y z
#    x 1.736390 0.000000 -0.023890 
#    y 0.000000 1.653580 0.000000 
#    z -0.023890 0.000000 1.682650 
# 
# From -- ./inp_files/290855.got.cif
#   From: 2010.05.17/outbox.cif.g08.bks.cpg/sg12_146_cif.got.tgz:290855.got - 2010.06.03 13:09:07.
