data_PCOD9170874
_publ_section_title
;
Structure prediction by ZEFSAII (Michael W. Deem and Ramdas Pophale) SiO2 
 PCOD9170874
Probable space group: C 2/M
;
_chemical_formula_sum "Si O2"
_cell_formula_units_Z 64
_cell_length_a 24.166286
_cell_length_b 17.776255
_cell_length_c 24.170846
_cell_angle_alpha 90.000000
_cell_angle_beta 18.313238
_cell_angle_gamma 90.000000
_cell_volume 3262.605299
_symmetry_space_group_name_H-M "C 2/M"
_symmetry_group_IT_number 12
_symmetry_cell_setting 'monoclinic'
loop_
_space_group_symop_operation_xyz
x,y,z
-x,y,-z
-x,-y,-z
x,-y,z
1/2+x,1/2+y,z
1/2-x,1/2+y,-z
1/2-x,1/2-y,-z
1/2+x,1/2-y,z
loop_
_atom_site_type_symbol
_atom_site_label
_atom_site_fract_x
_atom_site_fract_y
_atom_site_fract_z
Si Si1 0.081557 0.775890 0.076294
Si Si2 0.487270 0.234360 0.663207
Si Si3 0.906847 0.828095 0.637192
Si Si4 0.874957 0.732362 0.166307
Si Si5 0.426337 0.084784 0.996278
Si Si6 0.111483 0.582847 0.594217
Si Si7 0.633568 0.111152 0.070327
Si Si8 0.019375 0.863170 0.722739
O O1 0.101819 0.700635 0.094066
O O2 0.028065 0.839448 0.169702
O O3 0.935955 0.765892 0.166714
O O4 0.276909 0.783153 0.865162
O O5 0.516228 0.284253 0.580571
O O6 0.583482 0.154890 0.580980
O O7 0.536701 0.289595 0.667166
O O8 0.810279 0.767602 0.688692
O O9 0.757882 0.874872 0.811809
O O10 0.000000 0.875948 0.500000
O O11 0.000000 0.765254 0.000000
O O12 0.924909 0.643324 0.125349
O O13 0.433102 0.000000 0.010169
O O14 0.442109 0.081499 0.915115
O O15 0.106640 0.500000 0.572387
O O16 0.297685 0.593684 0.448665
O O17 0.960991 0.586440 0.784262
O O18 0.842144 0.095675 0.871308
#
# Coordination Sequence:
#
# PCOD9170874 Si02
#       8
#     8   8   8   8   8   8   8   8
#     4  10  17  35  65  91 107 154 203 250 293 341
#     4  11  20  41  61  87 118 156 200 250 300 348
#     4  11  23  36  57  88 116 152 203 249 291 345
#     4   9  18  34  54  84 113 143 203 240 277 349
#     4  10  20  37  58  80 121 164 192 239 293 344
#     4  12  26  37  57  93 125 158 197 239 309 370
#     4  10  19  39  61  85 125 160 199 239 290 354
#     4  11  21  38  64  89 118 157 200 252 297 351
#
# _framework density 19.616226000000001
#
# number of rings (size 3 to 8) (size 9 to 14) (size 15 to 20)
#    0.000    1.500    7.500    1.500    1.750    4.500 
#    0.000    0.000    0.000    0.375    0.000    0.875 
#    0.000    0.000    0.000    0.000    0.000    0.000 
#
# Total GULP energy -178329.354609 kJ/mol
# GULP energy per Si atom -5572.792332 kJ/mol
# Density = 1.957158 g / cm^3
# Si number density = 19.616226 Si / 1000 Ang^3
#
#
#
# Elastic Constant Matrix: (Units=GPa)
#
#
# Indices 1 2 3 4 5 6 
#
# 1 97.9991 21.5102 -0.5670 0.0077 -0.6039 -0.0014
# 2 21.5102 64.0517 6.6850 0.0178 -0.0762 -0.0058
# 3 -0.5670 6.6850 45.9441 0.0178 -5.0837 -0.0057
# 4 0.0077 0.0178 0.0178 -1.4728 -0.0057 4.1556
# 5 -0.6039 -0.0762 -5.0837 -0.0057 33.7682 -0.0002
# 6 -0.0014 -0.0058 -0.0057 4.1556 -0.0002 -14.6118
#
#
#
# Elastic Compliance Matrix: (Units=1/GPa)
#
#
# Indices 1 2 3 4 5 6 
#
# 1 0.011040 -0.003782 0.000719 0.000100 0.000297 0.000029
# 2 -0.003782 0.017152 -0.002589 0.000723 -0.000419 0.000200
# 3 0.000719 -0.002589 0.022527 0.001062 0.003399 0.000294
# 4 0.000100 0.000723 0.001062 -3.436879 -0.000425 -0.977447
# 5 0.000297 -0.000419 0.003399 -0.000425 0.030130 -0.000122
# 6 0.000029 0.000200 0.000294 -0.977447 -0.000122 -0.346423
#
#
# Mechanical properties :
#
#
# Convention : Reuss Voigt Hill
#
# Bulk Modulus (GPa) = 25.37067 29.25014 27.31040
# Shear Modulus (GPa) = -1.35943 15.56116 7.10087
#
# Velocity S-wave (km/s) = -0.83338 2.81958 1.90467
# Velocity P-wave (km/s) = 3.46923 5.05407 4.33470
#
# Compressibility (1/GPa) = 0.03941560
#
# Stress axis : x y z
#
# Youngs Moduli (GPa) = 90.57666 58.30175 44.39150
#
# Poissons Ratio (x) = 0.22052 -0.03194
# Poissons Ratio (y) = 0.34260 0.11493
# Poissons Ratio (z) = -0.06517 0.15094
#
# Static dielectric constant tensor:
#      x y z
#    x 1.690660 0.000000 -0.007420 
#    y 0.000000 1.710760 0.000010 
#    z -0.007420 0.000010 1.827710 
# 
# From -- ./inp_files/349993.got.cif
#   From: 2010.05.17/outbox.cif.g08.bks.cpg/sg12_175_cif.got.tgz:349993.got - 2010.06.03 13:09:07.
