data_PCOD9170301
_publ_section_title
;
Structure prediction by ZEFSAII (Michael W. Deem and Ramdas Pophale) SiO2 
 PCOD9170301
Probable space group: C 2/M
;
_chemical_formula_sum "Si O2"
_cell_formula_units_Z 56
_cell_length_a 19.545532
_cell_length_b 16.368610
_cell_length_c 13.518944
_cell_angle_alpha 90.000000
_cell_angle_beta 142.234943
_cell_angle_gamma 90.000000
_cell_volume 2648.835637
_symmetry_space_group_name_H-M "C 2/M"
_symmetry_group_IT_number 12
_symmetry_cell_setting 'monoclinic'
loop_
_space_group_symop_operation_xyz
x,y,z
-x,y,-z
-x,-y,-z
x,-y,z
1/2+x,1/2+y,z
1/2-x,1/2+y,-z
1/2-x,1/2-y,-z
1/2+x,1/2-y,z
loop_
_atom_site_type_symbol
_atom_site_label
_atom_site_fract_x
_atom_site_fract_y
_atom_site_fract_z
Si Si1 0.351285 0.850712 0.401563
Si Si2 0.307306 0.695073 0.481067
Si Si3 0.626284 0.837139 0.140709
Si Si4 0.944392 0.174306 0.199852
Si Si5 0.074566 0.356844 0.740712
Si Si6 0.750802 0.091976 0.095643
Si Si7 0.113365 0.144610 0.091188
O O1 0.343063 0.758983 0.435828
O O2 0.449847 0.890814 0.578693
O O3 0.382649 0.843779 0.322135
O O4 0.229432 0.890926 0.263142
O O5 0.250000 0.750000 0.500000
O O6 0.209250 0.639212 0.324546
O O7 0.423417 0.654587 0.646925
O O8 0.689347 0.860082 0.112722
O O9 0.500000 0.870484 0.000000
O O10 0.614833 0.738565 0.132145
O O11 0.934881 0.271024 0.211387
O O12 0.866388 0.131672 0.191939
O O13 0.894527 0.151720 0.036082
O O14 0.164260 0.406897 0.904931
O O15 0.770975 0.000000 0.151577
O O16 0.000000 0.105000 0.000000
#
# Coordination Sequence:
#
# PCOD9170301 Si02
#       7
#     8   8   8   8   8   8   8
#     4   9  18  30  53  86 116 142 187 247 306 350
#     4  10  20  33  58  99 122 143 192 253 306 366
#     4  10  21  37  58  87 124 155 195 246 311 363
#     4  11  19  35  61  86 119 153 195 256 305 356
#     4  10  19  35  58  84 114 150 196 255 305 351
#     4  12  25  39  59  85 120 167 209 245 301 378
#     4  10  17  30  55  92 116 144 186 248 313 364
#
# _framework density 21.141365
#
# number of rings (size 3 to 8) (size 9 to 14) (size 15 to 20)
#    0.000    1.714    2.857    4.714    2.000    2.000 
#    0.000    2.857    0.000    0.429    0.000    0.000 
#    0.000    0.000    0.000    0.000    0.000    0.000 
#
# Total GULP energy -156184.548591 kJ/mol
# GULP energy per Si atom -5578.019593 kJ/mol
# Density = 2.109325 g / cm^3
# Si number density = 21.141365 Si / 1000 Ang^3
#
#
#
# Elastic Constant Matrix: (Units=GPa)
#
#
# Indices 1 2 3 4 5 6 
#
# 1 77.6861 -0.6528 44.1196 0.0000 20.9991 0.0000
# 2 -0.6528 23.6749 15.2142 0.0000 7.8942 0.0000
# 3 44.1196 15.2142 168.9898 0.0000 35.0241 0.0000
# 4 0.0000 0.0000 0.0000 -4.1973 0.0000 -2.3986
# 5 20.9991 7.8942 35.0241 0.0000 44.1561 0.0000
# 6 0.0000 0.0000 0.0000 -2.3986 0.0000 -4.9957
#
#
#
# Elastic Compliance Matrix: (Units=1/GPa)
#
#
# Indices 1 2 3 4 5 6 
#
# 1 0.016497 0.004675 -0.003505 0.000000 -0.005901 0.000000
# 2 0.004675 0.047416 -0.003915 0.000000 -0.007595 0.000000
# 3 -0.003505 -0.003915 0.008012 0.000000 -0.003988 0.000000
# 4 0.000000 0.000000 0.000000 -0.328332 0.000000 0.157641
# 5 -0.005901 -0.007595 -0.003988 0.000000 0.029974 0.000000
# 6 0.000000 0.000000 0.000000 0.157641 0.000000 -0.275857
#
#
# Mechanical properties :
#
#
# Convention : Reuss Voigt Hill
#
# Bulk Modulus (GPa) = 15.05239 43.07920 29.06579
# Shear Modulus (GPa) = -10.53397 21.10394 5.28498
#
# Velocity S-wave (km/s) = -2.23460 3.16290 1.58280
# Velocity P-wave (km/s) = 0.69094 5.81030 4.13745
#
# Compressibility (1/GPa) = 0.06643463
#
# Stress axis : x y z
#
# Youngs Moduli (GPa) = 60.61610 21.08976 124.81915
#
# Poissons Ratio (x) = -0.09860 0.43748
# Poissons Ratio (y) = -0.28338 0.48872
# Poissons Ratio (z) = 0.21245 0.08258
#
# Static dielectric constant tensor:
#      x y z
#    x 1.784590 0.000000 0.048710 
#    y 0.000000 1.721050 0.000000 
#    z 0.048710 0.000000 1.867840 
# 
# From -- ./inp_files/234708.got.cif
#   From: 2010.05.17/outbox.cif.g08.bks.cpg/sg12_118_cif.got.tgz:234708.got - 2010.06.03 13:09:07.
