data_PCOD9170145
_publ_section_title
;
Structure prediction by ZEFSAII (Michael W. Deem and Ramdas Pophale) SiO2 
 PCOD9170145
Probable space group: C 2/M
;
_chemical_formula_sum "Si O2"
_cell_formula_units_Z 56
_cell_length_a 18.564083
_cell_length_b 18.221710
_cell_length_c 29.474609
_cell_angle_alpha 90.000000
_cell_angle_beta 159.735956
_cell_angle_gamma 90.000000
_cell_volume 3453.203147
_symmetry_space_group_name_H-M "C 2/M"
_symmetry_group_IT_number 12
_symmetry_cell_setting 'monoclinic'
loop_
_space_group_symop_operation_xyz
x,y,z
-x,y,-z
-x,-y,-z
x,-y,z
1/2+x,1/2+y,z
1/2-x,1/2+y,-z
1/2-x,1/2-y,-z
1/2+x,1/2-y,z
loop_
_atom_site_type_symbol
_atom_site_label
_atom_site_fract_x
_atom_site_fract_y
_atom_site_fract_z
Si Si1 0.114805 0.170983 0.464508
Si Si2 0.671637 0.583712 0.641848
Si Si3 0.231425 0.085166 0.258695
Si Si4 0.044962 0.663851 0.256273
Si Si5 0.154426 0.654129 0.487875
Si Si6 0.740965 0.813092 0.637616
Si Si7 0.377697 0.585766 0.974703
O O1 0.305873 0.154240 0.611704
O O2 0.095105 0.259123 0.449938
O O3 0.180195 0.141179 0.454044
O O4 0.914067 0.134764 0.368743
O O5 0.500000 0.586504 0.500000
O O6 0.690676 0.500000 0.668212
O O7 0.877234 0.612716 0.738880
O O8 0.445631 0.107255 0.360131
O O9 0.218515 0.136210 0.295362
O O10 0.241176 0.000000 0.277715
O O11 0.039533 0.095493 0.111415
O O12 0.098698 0.746305 0.271959
O O13 0.814441 0.640731 0.133288
O O14 0.241136 0.644022 0.589951
O O15 0.500000 0.784034 0.500000
O O16 0.306004 0.500000 0.932496
O O17 0.500000 0.597566 0.000000
#
# Coordination Sequence:
#
# PCOD9170145 Si02
#       7
#     8   8   8   8   8   8   8
#     4   9  17  29  46  70  96 121 150 191 234 279
#     4   9  16  25  40  64  91 118 148 181 221 271
#     4  10  20  33  48  68  95 126 161 198 233 275
#     4  10  17  30  49  67  94 126 154 185 229 278
#     4   9  17  30  48  67  92 123 153 190 240 277
#     4   9  18  32  50  72  94 120 157 196 235 278
#     4  10  21  34  48  70  98 126 156 190 231 280
#
# _framework density 16.216828
#
# number of rings (size 3 to 8) (size 9 to 14) (size 15 to 20)
#    0.000    2.571    0.000    4.286    0.000    4.286 
#    0.000    0.000    0.000    0.000    0.000    0.000 
#    0.000    4.000    0.000    0.000    0.000    0.000 
#
# Total GULP energy -156051.929564 kJ/mol
# GULP energy per Si atom -5573.283199 kJ/mol
# Density = 1.617992 g / cm^3
# Si number density = 16.216828 Si / 1000 Ang^3
#
#
#
# Elastic Constant Matrix: (Units=GPa)
#
#
# Indices 1 2 3 4 5 6 
#
# 1 100.9284 32.8377 24.3135 0.0023 13.5216 0.0015
# 2 32.8377 65.1279 43.1362 0.0019 7.9682 -0.0084
# 3 24.3135 43.1362 59.9155 -0.0163 11.8767 -0.0215
# 4 0.0023 0.0019 -0.0163 17.8691 -0.0006 -4.6275
# 5 13.5216 7.9682 11.8767 -0.0006 19.5187 0.0041
# 6 0.0015 -0.0084 -0.0215 -4.6275 0.0041 4.4910
#
#
#
# Elastic Compliance Matrix: (Units=1/GPa)
#
#
# Indices 1 2 3 4 5 6 
#
# 1 0.012582 -0.005775 0.000355 -0.000004 -0.006575 -0.000011
# 2 -0.005775 0.032017 -0.021503 -0.000046 0.004014 -0.000092
# 3 0.000355 -0.021503 0.034497 0.000093 -0.012458 0.000232
# 4 -0.000004 -0.000046 0.000093 0.076330 -0.000049 0.078650
# 5 -0.006575 0.004014 -0.012458 -0.000049 0.061729 -0.000157
# 6 -0.000011 -0.000092 0.000232 0.078650 -0.000157 0.303708
#
#
# Mechanical properties :
#
#
# Convention : Reuss Voigt Hill
#
# Bulk Modulus (GPa) = 39.60310 47.39408 43.49859
# Shear Modulus (GPa) = 8.57447 16.75472 12.66460
#
# Velocity S-wave (km/s) = 2.30193 3.21778 2.79759
# Velocity P-wave (km/s) = 5.61597 6.56462 6.10874
#
# Compressibility (1/GPa) = 0.02525055
#
# Stress axis : x y z
#
# Youngs Moduli (GPa) = 79.47745 31.23335 28.98810
#
# Poissons Ratio (x) = 0.18036 -0.01029
# Poissons Ratio (y) = 0.45896 0.62333
# Poissons Ratio (z) = -0.02821 0.67161
#
# Static dielectric constant tensor:
#      x y z
#    x 1.555200 0.000000 0.002890 
#    y 0.000000 1.552800 -0.000010 
#    z 0.002890 -0.000010 1.521670 
# 
# From -- ./inp_files/364434.got.cif
#   From: 2010.05.17/outbox.cif.g08.bks.cpg/sg12_183_cif.got.tgz:364434.got - 2010.06.03 13:09:07.
