data_PCOD9170619
_publ_section_title
;
Structure prediction by ZEFSAII (Michael W. Deem and Ramdas Pophale) SiO2 
 PCOD9170619
Probable space group: C 2/M
;
_chemical_formula_sum "Si O2"
_cell_formula_units_Z 56
_cell_length_a 11.617608
_cell_length_b 17.438053
_cell_length_c 13.662181
_cell_angle_alpha 90.000000
_cell_angle_beta 63.688424
_cell_angle_gamma 90.000000
_cell_volume 2481.047561
_symmetry_space_group_name_H-M "C 2/M"
_symmetry_group_IT_number 12
_symmetry_cell_setting 'monoclinic'
loop_
_space_group_symop_operation_xyz
x,y,z
-x,y,-z
-x,-y,-z
x,-y,z
1/2+x,1/2+y,z
1/2-x,1/2+y,-z
1/2-x,1/2-y,-z
1/2+x,1/2-y,z
loop_
_atom_site_type_symbol
_atom_site_label
_atom_site_fract_x
_atom_site_fract_y
_atom_site_fract_z
Si Si1 0.379841 0.857572 0.611438
Si Si2 0.733592 0.091825 0.666715
Si Si3 0.347129 0.409445 0.422559
Si Si4 0.520490 0.682207 0.887706
Si Si5 0.116727 0.910305 0.205861
Si Si6 0.228765 0.584879 0.159002
Si Si7 0.985305 0.688853 0.752405
O O1 0.500000 0.877904 0.500000
O O2 0.255558 0.853611 0.590365
O O3 0.341009 0.918838 0.708501
O O4 0.423457 0.789482 0.669734
O O5 0.837678 0.106585 0.541920
O O6 0.777108 0.117851 0.757947
O O7 0.600624 0.130670 0.688449
O O8 0.718817 0.000000 0.677430
O O9 0.308054 0.500000 0.426268
O O10 0.482891 0.403431 0.317294
O O11 0.401011 0.634643 0.888361
O O12 0.635144 0.622672 0.866078
O O13 0.542239 0.743895 0.795556
O O14 0.500000 0.720628 0.000000
O O15 0.136123 0.000000 0.178520
O O16 0.238698 0.500000 0.112867
O O17 0.131082 0.645518 0.146518
#
# Coordination Sequence:
#
# PCOD9170619 Si02
#       7
#     8   8   8   8   8   8   8
#     4  10  19  35  62  99 130 172 209 262 308 383
#     4  10  20  35  63  97 135 172 203 249 318 394
#     4  10  17  32  61  97 130 170 213 251 305 382
#     4  12  27  46  69  87 122 171 224 279 336 382
#     4  10  21  39  62  94 129 163 213 269 317 380
#     4  10  22  43  71  98 127 167 220 268 309 381
#     4  10  24  40  62  95 132 166 210 262 324 383
#
# _framework density 22.571109
#
# number of rings (size 3 to 8) (size 9 to 14) (size 15 to 20)
#    0.857    0.857    2.857    1.714    2.000    4.571 
#    0.000    4.286    0.000    0.857    0.000    0.000 
#    0.000    0.000    0.000    0.000    0.000    0.000 
#
# Total GULP energy -156053.601730 kJ/mol
# GULP energy per Si atom -5573.342919 kJ/mol
# Density = 2.251974 g / cm^3
# Si number density = 22.571109 Si / 1000 Ang^3
#
#
#
# Elastic Constant Matrix: (Units=GPa)
#
#
# Indices 1 2 3 4 5 6 
#
# 1 73.9167 13.6902 15.8109 0.0000 18.0849 0.0000
# 2 13.6902 38.7481 10.6423 0.0000 10.8239 0.0000
# 3 15.8109 10.6423 53.2806 0.0000 27.3340 0.0000
# 4 0.0000 0.0000 0.0000 12.9111 0.0000 3.1587
# 5 18.0849 10.8239 27.3340 0.0000 32.5653 0.0000
# 6 0.0000 0.0000 0.0000 3.1587 0.0000 11.2579
#
#
#
# Elastic Compliance Matrix: (Units=1/GPa)
#
#
# Indices 1 2 3 4 5 6 
#
# 1 0.016079 -0.003506 -0.000155 0.000000 -0.007634 0.000000
# 2 -0.003506 0.029278 -0.001430 0.000000 -0.006584 0.000000
# 3 -0.000155 -0.001430 0.033039 0.000000 -0.027170 0.000000
# 4 0.000000 0.000000 0.000000 0.083161 0.000000 -0.023333
# 5 -0.007634 -0.006584 -0.027170 0.000000 0.059941 0.000000
# 6 0.000000 0.000000 0.000000 -0.023333 0.000000 0.095373
#
#
# Mechanical properties :
#
#
# Convention : Reuss Voigt Hill
#
# Bulk Modulus (GPa) = 14.65938 27.35914 21.00926
# Shear Modulus (GPa) = 14.29425 19.73367 17.01396
#
# Velocity S-wave (km/s) = 2.51927 2.96005 2.74851
# Velocity P-wave (km/s) = 3.86926 4.88161 4.40462
#
# Compressibility (1/GPa) = 0.06821570
#
# Stress axis : x y z
#
# Youngs Moduli (GPa) = 62.19292 34.15491 30.26730
#
# Poissons Ratio (x) = 0.11974 0.00468
# Poissons Ratio (y) = 0.21804 0.04328
# Poissons Ratio (z) = 0.00961 0.04884
#
# Static dielectric constant tensor:
#      x y z
#    x 1.845470 0.000000 0.013990 
#    y 0.000000 1.893050 0.000000 
#    z 0.013990 0.000000 1.842670 
# 
# From -- ./inp_files/206099.got.cif
#   From: 2010.05.17/outbox.cif.g08.bks.cpg/sg12_104_cif.got.tgz:206099.got - 2010.06.03 13:09:07.
