data_PCOD9170043
_publ_section_title
;
Structure prediction by ZEFSAII (Michael W. Deem and Ramdas Pophale) SiO2 
 PCOD9170043
Probable space group: C 2/M
;
_chemical_formula_sum "Si O2"
_cell_formula_units_Z 56
_cell_length_a 9.829181
_cell_length_b 30.657502
_cell_length_c 9.078456
_cell_angle_alpha 90.000000
_cell_angle_beta 78.616832
_cell_angle_gamma 90.000000
_cell_volume 2681.871895
_symmetry_space_group_name_H-M "C 2/M"
_symmetry_group_IT_number 12
_symmetry_cell_setting 'monoclinic'
loop_
_space_group_symop_operation_xyz
x,y,z
-x,y,-z
-x,-y,-z
x,-y,z
1/2+x,1/2+y,z
1/2-x,1/2+y,-z
1/2-x,1/2-y,-z
1/2+x,1/2-y,z
loop_
_atom_site_type_symbol
_atom_site_label
_atom_site_fract_x
_atom_site_fract_y
_atom_site_fract_z
Si Si1 0.985706 0.707031 0.330451
Si Si2 0.784622 0.361885 0.429518
Si Si3 0.840240 0.293736 0.967574
Si Si4 0.413646 0.301324 0.361025
Si Si5 0.776681 0.047625 0.489488
Si Si6 0.947627 0.951509 0.760634
Si Si7 0.373103 0.640875 0.836129
O O1 0.126160 0.705381 0.211885
O O2 0.000000 0.708032 0.500000
O O3 0.907978 0.662057 0.320512
O O4 0.899167 0.751071 0.313961
O O5 0.718046 0.329499 0.562997
O O6 0.814986 0.409031 0.488809
O O7 0.672251 0.365317 0.324289
O O8 0.750000 0.250000 0.000000
O O9 0.746876 0.333599 0.049377
O O10 0.000000 0.292466 0.000000
O O11 0.500000 0.298739 0.500000
O O12 0.496212 0.326843 0.214645
O O13 0.849210 0.046152 0.635731
O O14 0.899555 0.054266 0.343953
O O15 0.712483 0.000000 0.477580
O O16 0.909477 0.909284 0.867208
O O17 0.939535 0.000000 0.831669
#
# Coordination Sequence:
#
# PCOD9170043 Si02
#       7
#     8   8   8   8   8   8   8
#     4  11  23  37  53  76 112 152 195 237 275 340
#     4  10  17  29  52  76 108 144 183 227 285 333
#     4  12  25  42  59  83 117 156 195 238 287 339
#     4   9  17  28  47  77 103 136 177 224 272 329
#     4   8  13  22  42  76 110 136 174 226 279 335
#     4   8  13  23  43  75 111 140 170 222 283 337
#     4  10  17  31  52  77 112 145 182 228 287 336
#
# _framework density 20.880939000000001
#
# number of rings (size 3 to 8) (size 9 to 14) (size 15 to 20)
#    0.000    2.286    4.286    1.286    0.000    1.143 
#    0.000    0.000    0.000    1.714    0.000    0.000 
#    0.000    2.857    0.000    0.000    0.000    0.000 
#
# Total GULP energy -155903.473458 kJ/mol
# GULP energy per Si atom -5567.981195 kJ/mol
# Density = 2.083341 g / cm^3
# Si number density = 20.880939 Si / 1000 Ang^3
#
#
#
# Elastic Constant Matrix: (Units=GPa)
#
#
# Indices 1 2 3 4 5 6 
#
# 1 36.4606 30.6392 23.2325 0.0000 -7.8041 0.0000
# 2 30.6392 210.4114 44.6140 0.0000 -28.7132 0.0000
# 3 23.2325 44.6140 91.7242 0.0000 -19.8776 0.0000
# 4 0.0000 0.0000 0.0000 16.6634 0.0000 -10.1814
# 5 -7.8041 -28.7132 -19.8776 0.0000 30.7180 0.0000
# 6 0.0000 0.0000 0.0000 -10.1814 0.0000 15.6337
#
#
#
# Elastic Compliance Matrix: (Units=1/GPa)
#
#
# Indices 1 2 3 4 5 6 
#
# 1 0.035005 -0.003469 -0.006926 0.000000 0.001169 0.000000
# 2 -0.003469 0.006059 -0.001200 0.000000 0.004005 0.000000
# 3 -0.006926 -0.001200 0.014673 0.000000 0.006614 0.000000
# 4 0.000000 0.000000 0.000000 0.099673 0.000000 0.064912
# 5 0.001169 0.004005 0.006614 0.000000 0.040875 0.000000
# 6 0.000000 0.000000 0.000000 0.064912 0.000000 0.106238
#
#
# Mechanical properties :
#
#
# Convention : Reuss Voigt Hill
#
# Bulk Modulus (GPa) = 30.72451 59.50751 45.11601
# Shear Modulus (GPa) = 14.85605 28.61039 21.73322
#
# Velocity S-wave (km/s) = 2.67022 3.70559 3.22967
# Velocity P-wave (km/s) = 4.92472 6.84609 5.96330
#
# Compressibility (1/GPa) = 0.03254731
#
# Stress axis : x y z
#
# Youngs Moduli (GPa) = 28.56697 165.04760 68.15024
#
# Poissons Ratio (x) = 0.57261 0.47198
# Poissons Ratio (y) = 0.09911 0.08180
# Poissons Ratio (z) = 0.19784 0.19810
#
# Static dielectric constant tensor:
#      x y z
#    x 1.913950 0.000000 0.092250 
#    y 0.000000 1.840880 0.000000 
#    z 0.092250 0.000000 1.768680 
# 
# From -- ./inp_files/136559.got.cif
#   From: 2010.05.17/outbox.cif.g08.bks.cpg/sg12_69_cif.got.tgz:136559.got - 2010.06.03 13:09:07.
