data_PCOD9170884
_publ_section_title
;
Structure prediction by ZEFSAII (Michael W. Deem and Ramdas Pophale) SiO2 
 PCOD9170884
Probable space group: C 2/M
;
_chemical_formula_sum "Si O2"
_cell_formula_units_Z 40
_cell_length_a 13.783551
_cell_length_b 20.940636
_cell_length_c 9.405503
_cell_angle_alpha 90.000000
_cell_angle_beta 46.727105
_cell_angle_gamma 90.000000
_cell_volume 1976.616076
_symmetry_space_group_name_H-M "C 2/M"
_symmetry_group_IT_number 12
_symmetry_cell_setting 'monoclinic'
loop_
_space_group_symop_operation_xyz
x,y,z
-x,y,-z
-x,-y,-z
x,-y,z
1/2+x,1/2+y,z
1/2-x,1/2+y,-z
1/2-x,1/2-y,-z
1/2+x,1/2-y,z
loop_
_atom_site_type_symbol
_atom_site_label
_atom_site_fract_x
_atom_site_fract_y
_atom_site_fract_z
Si Si1 0.145653 0.298160 0.530347
Si Si2 0.639699 0.610581 0.293000
Si Si3 0.849963 0.745288 0.769535
Si Si4 0.489891 0.574946 0.852692
Si Si5 0.780335 0.571535 0.413032
O O1 0.250000 0.250000 0.500000
O O2 0.182372 0.303417 0.325724
O O3 0.141512 0.367093 0.609168
O O4 0.997424 0.268861 0.679279
O O5 0.500000 0.586625 0.500000
O O6 0.651100 0.685867 0.305901
O O7 0.620375 0.601879 0.144484
O O8 0.753866 0.577592 0.270215
O O9 0.750000 0.750000 0.000000
O O10 0.458319 0.500000 0.898348
O O11 0.635002 0.579736 0.633876
O O12 0.500000 0.603622 0.000000
O O13 0.829506 0.500000 0.396846
#
# Coordination Sequence:
#
# PCOD9170884 Si02
#       5
#     8   8   8   8   8
#     4  11  21  43  63  92 126 158 212 263 303 378
#     4  10  17  36  55  82 118 156 207 249 308 359
#     4  11  24  39  61  91 119 162 209 261 314 363
#     4   9  18  30  50  85 120 154 201 253 304 364
#     4  10  20  35  60  86 121 168 203 249 320 375
#
# _framework density 20.236606999999999
#
# number of rings (size 3 to 8) (size 9 to 14) (size 15 to 20)
#    0.000    1.800    4.000    1.800    2.800    3.200 
#    0.000    2.000    0.000    3.600    0.000    0.000 
#    0.000    0.000    0.000    0.000    0.000    0.000 
#
# Total GULP energy -111513.756292 kJ/mol
# GULP energy per Si atom -5575.687815 kJ/mol
# Density = 2.019055 g / cm^3
# Si number density = 20.236607 Si / 1000 Ang^3
#
#
#
# Elastic Constant Matrix: (Units=GPa)
#
#
# Indices 1 2 3 4 5 6 
#
# 1 107.5303 37.7428 42.9920 0.0000 25.1612 0.0000
# 2 37.7428 97.3363 -1.4398 0.0000 -1.7034 0.0000
# 3 42.9920 -1.4398 83.4950 0.0000 19.0531 0.0000
# 4 0.0000 0.0000 0.0000 14.3159 0.0000 9.1196
# 5 25.1612 -1.7034 19.0531 0.0000 29.5925 0.0000
# 6 0.0000 0.0000 0.0000 9.1196 0.0000 35.3398
#
#
#
# Elastic Compliance Matrix: (Units=1/GPa)
#
#
# Indices 1 2 3 4 5 6 
#
# 1 0.016623 -0.006722 -0.006285 0.000000 -0.010474 0.000000
# 2 -0.006722 0.013002 0.002591 0.000000 0.004795 0.000000
# 3 -0.006285 0.002591 0.016416 0.000000 -0.005077 0.000000
# 4 0.000000 0.000000 0.000000 0.083594 0.000000 -0.021572
# 5 -0.010474 0.004795 -0.005077 0.000000 0.046242 0.000000
# 6 0.000000 0.000000 0.000000 -0.021572 0.000000 0.033863
#
#
# Mechanical properties :
#
#
# Convention : Reuss Voigt Hill
#
# Bulk Modulus (GPa) = 39.66748 49.66130 44.66439
# Shear Modulus (GPa) = 20.92261 29.78740 25.35500
#
# Velocity S-wave (km/s) = 3.21892 3.84077 3.54351
# Velocity P-wave (km/s) = 5.78443 6.65299 6.23386
#
# Compressibility (1/GPa) = 0.02520957
#
# Stress axis : x y z
#
# Youngs Moduli (GPa) = 60.15896 76.90935 60.91614
#
# Poissons Ratio (x) = 0.51697 0.38285
# Poissons Ratio (y) = 0.40438 -0.15783
# Poissons Ratio (z) = 0.37809 -0.19927
#
# Static dielectric constant tensor:
#      x y z
#    x 1.736810 0.000000 0.039480 
#    y 0.000000 1.742540 0.000000 
#    z 0.039480 0.000000 1.753890 
# 
# From -- ./inp_files/50397.got.cif
#   From: 2010.05.17/outbox.cif.g08.bks.cpg/sg12_26_cif.got.tgz:50397.got - 2010.06.03 13:09:07.
