data_PCOD9170159
_publ_section_title
;
Structure prediction by ZEFSAII (Michael W. Deem and Ramdas Pophale) SiO2 
 PCOD9170159
Probable space group: C 2/M
;
_chemical_formula_sum "Si O2"
_cell_formula_units_Z 48
_cell_length_a 24.920021
_cell_length_b 8.436785
_cell_length_c 24.365601
_cell_angle_alpha 90.000000
_cell_angle_beta 34.804911
_cell_angle_gamma 90.000000
_cell_volume 2923.979111
_symmetry_space_group_name_H-M "C 2/M"
_symmetry_group_IT_number 12
_symmetry_cell_setting 'monoclinic'
loop_
_space_group_symop_operation_xyz
x,y,z
-x,y,-z
-x,-y,-z
x,-y,z
1/2+x,1/2+y,z
1/2-x,1/2+y,-z
1/2-x,1/2-y,-z
1/2+x,1/2-y,z
loop_
_atom_site_type_symbol
_atom_site_label
_atom_site_fract_x
_atom_site_fract_y
_atom_site_fract_z
Si Si1 0.961240 0.690650 0.271856
Si Si2 0.165069 0.810302 0.532728
Si Si3 0.707300 0.193102 0.668105
Si Si4 0.582315 0.313350 0.000032
Si Si5 0.124280 0.688455 0.849429
Si Si6 0.845810 0.690600 0.946245
O O1 0.958769 0.500000 0.273989
O O2 0.928031 0.747596 0.359557
O O3 0.882570 0.744087 0.293352
O O4 0.063625 0.741908 0.165868
O O5 0.250000 0.750000 0.500000
O O6 0.198644 0.759429 0.443755
O O7 0.163276 0.000000 0.535481
O O8 0.691711 0.244603 0.743584
O O9 0.704997 0.000000 0.670770
O O10 0.563107 0.500000 0.018594
O O11 0.634184 0.272961 0.899471
O O12 0.482474 0.222428 0.080952
O O13 0.638408 0.258048 0.006157
O O14 0.134894 0.500000 0.848214
O O15 0.846087 0.500000 0.948593
O O16 0.750000 0.750000 0.000000
#
# Coordination Sequence:
#
# PCOD9170159 Si02
#       6
#     8   8   8   8   8   8
#     4   9  17  31  46  64  93 126 158 195 237 284
#     4   9  16  26  41  65  94 124 157 192 232 282
#     4   8  14  26  44  67  94 125 157 188 231 285
#     4  11  21  32  45  70  99 125 162 203 241 286
#     4  10  17  30  50  69  95 133 163 193 242 289
#     4  11  22  37  53  70  94 128 167 204 243 288
#
# _framework density 16.415984999999999
#
# number of rings (size 3 to 8) (size 9 to 14) (size 15 to 20)
#    0.000    2.333    1.667    5.000    0.000    1.333 
#    0.000    2.500    0.000    0.000    0.000    1.167 
#    0.000    9.333    0.000    0.000    0.000    0.000 
#
# Total GULP energy -133729.463966 kJ/mol
# GULP energy per Si atom -5572.060999 kJ/mol
# Density = 1.637862 g / cm^3
# Si number density = 16.415985 Si / 1000 Ang^3
#
#
#
# Elastic Constant Matrix: (Units=GPa)
#
#
# Indices 1 2 3 4 5 6 
#
# 1 70.7672 6.5475 55.8394 0.0013 10.9392 -0.0007
# 2 6.5475 26.0152 11.4203 0.0029 -0.6243 -0.0030
# 3 55.8394 11.4203 140.2620 0.0017 29.8518 -0.0024
# 4 0.0013 0.0029 0.0017 23.2749 -0.0013 2.4826
# 5 10.9392 -0.6243 29.8518 -0.0013 24.7049 0.0013
# 6 -0.0007 -0.0030 -0.0024 2.4826 0.0013 19.9924
#
#
#
# Elastic Compliance Matrix: (Units=1/GPa)
#
#
# Indices 1 2 3 4 5 6 
#
# 1 0.020682 -0.001552 -0.008279 0.000000 0.000807 -0.000001
# 2 -0.001552 0.040805 -0.004133 -0.000005 0.006713 0.000006
# 3 -0.008279 -0.004133 0.013467 -0.000001 -0.012712 0.000002
# 4 0.000000 -0.000005 -0.000001 0.043541 0.000004 -0.005407
# 5 0.000807 0.006713 -0.012712 0.000004 0.055650 -0.000005
# 6 -0.000001 0.000006 0.000002 -0.005407 -0.000005 0.050690
#
#
# Mechanical properties :
#
#
# Convention : Reuss Voigt Hill
#
# Bulk Modulus (GPa) = 21.26445 42.73988 32.00216
# Shear Modulus (GPa) = 18.62606 24.47692 21.55149
#
# Velocity S-wave (km/s) = 3.37208 3.86559 3.62724
# Velocity P-wave (km/s) = 5.30498 6.78349 6.08928
#
# Compressibility (1/GPa) = 0.04702684
#
# Stress axis : x y z
#
# Youngs Moduli (GPa) = 48.35012 24.50668 74.25287
#
# Poissons Ratio (x) = 0.03802 0.61476
# Poissons Ratio (y) = 0.07502 0.30691
# Poissons Ratio (z) = 0.40030 0.10129
#
# Static dielectric constant tensor:
#      x y z
#    x 1.516830 0.000000 0.034020 
#    y 0.000000 1.562470 0.000000 
#    z 0.034020 0.000000 1.601390 
# 
# From -- ./inp_files/348289.got.cif
#   From: 2010.05.17/outbox.cif.g08.bks.cpg/sg12_175_cif.got.tgz:348289.got - 2010.06.03 13:09:07.
