data_PCOD9170722
_publ_section_title
;
Structure prediction by ZEFSAII (Michael W. Deem and Ramdas Pophale) SiO2 
 PCOD9170722
Probable space group: C 2/M
;
_chemical_formula_sum "Si O2"
_cell_formula_units_Z 40
_cell_length_a 15.121837
_cell_length_b 10.848388
_cell_length_c 10.629953
_cell_angle_alpha 90.000000
_cell_angle_beta 97.299459
_cell_angle_gamma 90.000000
_cell_volume 1729.685277
_symmetry_space_group_name_H-M "C 2/M"
_symmetry_group_IT_number 12
_symmetry_cell_setting 'monoclinic'
loop_
_space_group_symop_operation_xyz
x,y,z
-x,y,-z
-x,-y,-z
x,-y,z
1/2+x,1/2+y,z
1/2-x,1/2+y,-z
1/2-x,1/2-y,-z
1/2+x,1/2-y,z
loop_
_atom_site_type_symbol
_atom_site_label
_atom_site_fract_x
_atom_site_fract_y
_atom_site_fract_z
Si Si1 0.528031 0.500000 0.300098
Si Si2 0.357729 0.239866 0.022078
Si Si3 0.667965 0.000000 0.118405
Si Si4 0.651405 0.768762 0.691942
Si Si5 0.272324 0.500000 0.665913
Si Si6 0.500000 0.287228 0.500000
Si Si7 0.121309 0.000000 0.942172
Si Si8 0.731801 0.500000 0.636018
O O1 0.627522 0.500000 0.268588
O O2 0.522091 0.380022 0.389407
O O3 0.448669 0.500000 0.185625
O O4 0.385263 0.225842 0.172752
O O5 0.392191 0.372805 0.987435
O O6 0.250000 0.250000 0.000000
O O7 0.378234 0.121863 0.942756
O O8 0.773537 0.000000 0.087553
O O9 0.676368 0.000000 0.269875
O O10 0.580679 0.791957 0.568798
O O11 0.686973 0.630191 0.669770
O O12 0.724918 0.875022 0.700987
O O13 0.269179 0.500000 0.513609
#
# Coordination Sequence:
#
# PCOD9170722 Si02
#       8
#     4   8   4   8   4   4   4   4
#     4  11  20  37  60  94 121 170 202 252 308 380
#     4  10  18  33  60  92 121 153 210 266 299 348
#     4  10  19  34  59  93 119 157 207 268 304 352
#     4  12  22  41  62  99 124 164 208 260 312 373
#     4  12  28  37  62  96 138 159 202 253 327 377
#     4  11  20  35  68  88 122 166 216 250 306 368
#     4  10  17  33  59  92 114 150 207 260 295 352
#     4  12  20  39  59  86 127 169 205 236 313 391
#
# _framework density 23.125592999999999
#
# number of rings (size 3 to 8) (size 9 to 14) (size 15 to 20)
#    0.000    1.000    8.000    1.800    0.000    0.400 
#    0.000    0.000    0.000   10.800    5.200    2.800 
#    0.000    0.000    0.000    0.000    0.000    0.000 
#
# Total GULP energy -111796.584893 kJ/mol
# GULP energy per Si atom -5589.829245 kJ/mol
# Density = 2.307296 g / cm^3
# Si number density = 23.125593 Si / 1000 Ang^3
#
#
#
# Elastic Constant Matrix: (Units=GPa)
#
#
# Indices 1 2 3 4 5 6 
#
# 1 60.2248 44.1138 9.1385 0.0000 18.7164 0.0000
# 2 44.1138 160.3419 57.9007 0.0000 10.7661 0.0000
# 3 9.1385 57.9007 143.9259 0.0000 15.6157 0.0000
# 4 0.0000 0.0000 0.0000 26.2374 0.0000 -11.3037
# 5 18.7164 10.7661 15.6157 0.0000 29.4944 0.0000
# 6 0.0000 0.0000 0.0000 -11.3037 0.0000 -31.9601
#
#
#
# Elastic Compliance Matrix: (Units=1/GPa)
#
#
# Indices 1 2 3 4 5 6 
#
# 1 0.026326 -0.007257 0.002942 0.000000 -0.015615 0.000000
# 2 -0.007257 0.009336 -0.003634 0.000000 0.003121 0.000000
# 3 0.002942 -0.003634 0.008786 0.000000 -0.005192 0.000000
# 4 0.000000 0.000000 0.000000 0.033074 0.000000 -0.011698
# 5 -0.015615 0.003121 -0.005192 0.000000 0.045423 0.000000
# 6 0.000000 0.000000 0.000000 -0.011698 0.000000 -0.027152
#
#
# Mechanical properties :
#
#
# Convention : Reuss Voigt Hill
#
# Bulk Modulus (GPa) = 35.02453 65.19985 50.11219
# Shear Modulus (GPa) = 41.25144 21.64365 31.44755
#
# Velocity S-wave (km/s) = 4.22809 3.06260 3.69163
# Velocity P-wave (km/s) = 6.24611 6.38443 6.31565
#
# Compressibility (1/GPa) = 0.02855142
#
# Stress axis : x y z
#
# Youngs Moduli (GPa) = 37.98488 107.11489 113.81267
#
# Poissons Ratio (x) = 0.77732 -0.33484
# Poissons Ratio (y) = 0.27565 0.41355
# Poissons Ratio (z) = -0.11175 0.38921
#
# Static dielectric constant tensor:
#      x y z
#    x 1.918930 0.000000 -0.007000 
#    y 0.000000 1.863290 0.000000 
#    z -0.007000 0.000000 1.868150 
# 
# From -- ./inp_files/141193.got.cif
#   From: 2010.05.17/outbox.cif.g08.bks.cpg/sg12_71_cif.got.tgz:141193.got - 2010.06.03 13:09:07.
