data_PCOD9170817
_publ_section_title
;
Structure prediction by ZEFSAII (Michael W. Deem and Ramdas Pophale) SiO2 
 PCOD9170817
Probable space group: C 2/M
;
_chemical_formula_sum "Si O2"
_cell_formula_units_Z 48
_cell_length_a 19.452404
_cell_length_b 15.356820
_cell_length_c 17.174525
_cell_angle_alpha 90.000000
_cell_angle_beta 155.705951
_cell_angle_gamma 90.000000
_cell_volume 2110.786879
_symmetry_space_group_name_H-M "C 2/M"
_symmetry_group_IT_number 12
_symmetry_cell_setting 'monoclinic'
loop_
_space_group_symop_operation_xyz
x,y,z
-x,y,-z
-x,-y,-z
x,-y,z
1/2+x,1/2+y,z
1/2-x,1/2+y,-z
1/2-x,1/2-y,-z
1/2+x,1/2-y,z
loop_
_atom_site_type_symbol
_atom_site_label
_atom_site_fract_x
_atom_site_fract_y
_atom_site_fract_z
Si Si1 0.506013 0.000000 0.222960
Si Si2 0.686661 0.500000 0.156515
Si Si3 0.856972 0.813782 0.682924
Si Si4 0.224299 0.000000 0.362235
Si Si5 0.012133 0.318845 0.753076
Si Si6 0.693664 0.809603 0.220552
Si Si7 0.139913 0.329518 0.710288
Si Si8 0.327849 0.000000 0.772176
O O1 0.619007 0.000000 0.417575
O O2 0.416083 0.093920 0.133075
O O3 0.618360 0.000000 0.262292
O O4 0.793964 0.500000 0.347388
O O5 0.736944 0.412092 0.164799
O O6 0.500000 0.500000 0.000000
O O7 0.017947 0.770417 0.807876
O O8 0.691633 0.826534 0.458375
O O9 0.803220 0.752134 0.699693
O O10 0.881356 0.912533 0.735333
O O11 0.069453 0.315573 0.723694
O O12 0.776340 0.758016 0.235513
O O13 0.760323 0.907433 0.302625
O O14 0.500000 0.818163 0.000000
O O15 0.000000 0.346666 0.500000
O O16 0.500000 0.000000 0.000000
#
# Coordination Sequence:
#
# PCOD9170817 Si02
#       8
#     4   4   8   4   8   8   8   4
#     4  10  17  34  60  89 116 155 212 266 298 363
#     4  12  24  39  63  94 137 169 208 262 332 394
#     4  10  19  36  58  88 122 162 209 259 314 383
#     4  10  20  32  58  92 121 161 207 255 313 382
#     4  10  20  34  59  90 121 157 209 263 318 362
#     4  11  22  40  64  88 123 166 215 264 325 389
#     4  12  22  38  62  95 128 163 216 268 312 382
#     4  10  22  39  65  89 115 165 222 264 312 383
#
# _framework density 22.740334000000001
#
# number of rings (size 3 to 8) (size 9 to 14) (size 15 to 20)
#    0.000    1.333    5.000    2.250    0.000    0.000 
#    0.000    2.083    0.000    0.000    0.000    0.000 
#    0.000    0.000    0.000    0.000    0.000    0.000 
#
# Total GULP energy -133965.834418 kJ/mol
# GULP energy per Si atom -5581.909767 kJ/mol
# Density = 2.268858 g / cm^3
# Si number density = 22.740334 Si / 1000 Ang^3
#
#
#
# Elastic Constant Matrix: (Units=GPa)
#
#
# Indices 1 2 3 4 5 6 
#
# 1 135.1984 73.7684 -20.7180 -0.0024 21.2222 0.0002
# 2 73.7684 228.2263 -9.3961 -0.0025 22.4592 -0.0007
# 3 -20.7180 -9.3961 35.2535 -0.0021 3.3031 -0.0015
# 4 -0.0024 -0.0025 -0.0021 16.2230 -0.0015 0.6967
# 5 21.2222 22.4592 3.3031 -0.0015 26.0421 -0.0007
# 6 0.0002 -0.0007 -0.0015 0.6967 -0.0007 43.6859
#
#
#
# Elastic Compliance Matrix: (Units=1/GPa)
#
#
# Indices 1 2 3 4 5 6 
#
# 1 0.010957 -0.002530 0.006474 0.000001 -0.007568 0.000000
# 2 -0.002530 0.005473 0.000223 0.000000 -0.002686 0.000000
# 3 0.006474 0.000223 0.033136 0.000004 -0.009671 0.000001
# 4 0.000001 0.000000 0.000004 0.061683 0.000002 -0.000984
# 5 -0.007568 -0.002686 -0.009671 0.000002 0.048110 0.000000
# 6 0.000000 0.000000 0.000001 -0.000984 0.000000 0.022906
#
#
# Mechanical properties :
#
#
# Convention : Reuss Voigt Hill
#
# Bulk Modulus (GPa) = 17.27083 53.99853 35.63468
# Shear Modulus (GPa) = 25.87554 40.85846 33.36700
#
# Velocity S-wave (km/s) = 3.37689 4.24340 3.83470
# Velocity P-wave (km/s) = 4.77659 6.91417 5.94229
#
# Compressibility (1/GPa) = 0.05790108
#
# Stress axis : x y z
#
# Youngs Moduli (GPa) = 91.26352 182.71379 30.17826
#
# Poissons Ratio (x) = 0.46233 -0.19538
# Poissons Ratio (y) = 0.23093 -0.00674
# Poissons Ratio (z) = -0.59085 -0.04081
#
# Static dielectric constant tensor:
#      x y z
#    x 1.828120 0.000000 -0.040930 
#    y 0.000000 2.069780 0.000000 
#    z -0.040930 0.000000 1.874720 
# 
# From -- ./inp_files/278305.got.cif
#   From: 2010.05.17/outbox.cif.g08.bks.cpg/sg12_140_cif.got.tgz:278305.got - 2010.06.03 13:09:07.
