data_PCOD9170231
_publ_section_title
;
Structure prediction by ZEFSAII (Michael W. Deem and Ramdas Pophale) SiO2 
 PCOD9170231
Probable space group: C 2/M
;
_chemical_formula_sum "Si O2"
_cell_formula_units_Z 40
_cell_length_a 7.573145
_cell_length_b 28.583052
_cell_length_c 9.034258
_cell_angle_alpha 90.000000
_cell_angle_beta 91.236075
_cell_angle_gamma 90.000000
_cell_volume 1955.132919
_symmetry_space_group_name_H-M "C 2/M"
_symmetry_group_IT_number 12
_symmetry_cell_setting 'monoclinic'
loop_
_space_group_symop_operation_xyz
x,y,z
-x,y,-z
-x,-y,-z
x,-y,z
1/2+x,1/2+y,z
1/2-x,1/2+y,-z
1/2-x,1/2-y,-z
1/2+x,1/2-y,z
loop_
_atom_site_type_symbol
_atom_site_label
_atom_site_fract_x
_atom_site_fract_y
_atom_site_fract_z
Si Si1 0.700939 0.449481 0.437718
Si Si2 0.825543 0.861815 0.399820
Si Si3 0.253311 0.691069 0.882296
Si Si4 0.146096 0.287684 0.205722
Si Si5 0.557568 0.593137 0.159507
O O1 0.500000 0.450749 0.500000
O O2 0.782389 0.500000 0.472071
O O3 0.777011 0.401652 0.508164
O O4 0.670161 0.441494 0.263447
O O5 0.724620 0.815852 0.344818
O O6 0.000000 0.849811 0.500000
O O7 0.891368 0.889182 0.253938
O O8 0.353100 0.731379 0.791378
O O9 0.331029 0.640302 0.860974
O O10 0.050546 0.694556 0.829202
O O11 0.259267 0.701814 0.058307
O O12 0.500000 0.574321 0.000000
#
# Coordination Sequence:
#
# PCOD9170231 Si02
#       5
#     8   8   8   8   8
#     4   8  17  33  52  76 102 132 166 211 265 302
#     4   9  18  33  53  74 105 137 166 210 254 306
#     4  10  20  30  52  75 104 136 174 211 248 297
#     4  10  19  33  49  75 104 142 171 205 253 300
#     4  10  17  30  52  78 104 131 172 215 248 297
#
# _framework density 20.458967999999999
#
# number of rings (size 3 to 8) (size 9 to 14) (size 15 to 20)
#    0.000    3.000    2.000    1.200    2.800    0.400 
#    0.000   13.000    0.000    2.400    0.000    2.800 
#    0.000    0.000    0.000    0.000    0.000    0.000 
#
# Total GULP energy -111516.126313 kJ/mol
# GULP energy per Si atom -5575.806316 kJ/mol
# Density = 2.041240 g / cm^3
# Si number density = 20.458968 Si / 1000 Ang^3
#
#
#
# Elastic Constant Matrix: (Units=GPa)
#
#
# Indices 1 2 3 4 5 6 
#
# 1 39.8970 22.9210 19.4527 0.0000 14.3310 0.0000
# 2 22.9210 102.3671 27.1261 0.0000 17.7122 0.0000
# 3 19.4527 27.1261 104.9065 0.0000 20.7527 0.0000
# 4 0.0000 0.0000 0.0000 18.3283 0.0000 0.2958
# 5 14.3310 17.7122 20.7527 0.0000 21.2262 0.0000
# 6 0.0000 0.0000 0.0000 0.2958 0.0000 -8.5512
#
#
#
# Elastic Compliance Matrix: (Units=1/GPa)
#
#
# Indices 1 2 3 4 5 6 
#
# 1 0.034920 -0.004173 -0.001762 0.000000 -0.018372 0.000000
# 2 -0.004173 0.012066 -0.001130 0.000000 -0.006146 0.000000
# 3 -0.001762 -0.001130 0.012062 0.000000 -0.009661 0.000000
# 4 0.000000 0.000000 0.000000 0.054530 0.000000 0.001886
# 5 -0.018372 -0.006146 -0.009661 0.000000 0.074089 0.000000
# 6 0.000000 0.000000 0.000000 0.001886 0.000000 -0.116878
#
#
# Mechanical properties :
#
#
# Convention : Reuss Voigt Hill
#
# Bulk Modulus (GPa) = 22.26294 42.90779 32.58537
# Shear Modulus (GPa) = 50.05359 18.04540 34.04950
#
# Velocity S-wave (km/s) = 4.95161 2.97312 4.08399
# Velocity P-wave (km/s) = 6.60278 5.72748 6.18064
#
# Compressibility (1/GPa) = 0.04491769
#
# Stress axis : x y z
#
# Youngs Moduli (GPa) = 28.63666 82.87664 82.90281
#
# Poissons Ratio (x) = 0.34587 0.14606
# Poissons Ratio (y) = 0.11951 0.09371
# Poissons Ratio (z) = 0.05045 0.09368
#
# Static dielectric constant tensor:
#      x y z
#    x 1.745880 0.000000 -0.010760 
#    y 0.000000 1.760190 0.000000 
#    z -0.010760 0.000000 1.770640 
# 
# From -- ./inp_files/41094.got.cif
#   From: 2010.05.17/outbox.cif.g08.bks.cpg/sg12_21_cif.got.tgz:41094.got - 2010.06.03 13:09:07.
