data_PCOD9170374
_publ_section_title
;
Structure prediction by ZEFSAII (Michael W. Deem and Ramdas Pophale) SiO2 
 PCOD9170374
Probable space group: C 2/M
;
_chemical_formula_sum "Si O2"
_cell_formula_units_Z 64
_cell_length_a 25.955775
_cell_length_b 7.670808
_cell_length_c 18.264381
_cell_angle_alpha 90.000000
_cell_angle_beta 101.050663
_cell_angle_gamma 90.000000
_cell_volume 3569.043374
_symmetry_space_group_name_H-M "C 2/M"
_symmetry_group_IT_number 12
_symmetry_cell_setting 'monoclinic'
loop_
_space_group_symop_operation_xyz
x,y,z
-x,y,-z
-x,-y,-z
x,-y,z
1/2+x,1/2+y,z
1/2-x,1/2+y,-z
1/2-x,1/2-y,-z
1/2+x,1/2-y,z
loop_
_atom_site_type_symbol
_atom_site_label
_atom_site_fract_x
_atom_site_fract_y
_atom_site_fract_z
Si Si1 0.505712 0.704638 0.919647
Si Si2 0.093623 0.787042 0.193348
Si Si3 0.660168 0.293139 0.343475
Si Si4 0.277352 0.786227 0.332289
Si Si5 0.675900 0.710578 0.088879
Si Si6 0.291147 0.213596 0.170504
Si Si7 0.309866 0.206432 0.493402
Si Si8 0.623401 0.795646 0.920444
O O1 0.492592 0.500000 0.923236
O O2 0.462598 0.775852 0.851336
O O3 0.565465 0.718098 0.910528
O O4 0.500000 0.781339 0.000000
O O5 0.114790 0.725155 0.277752
O O6 0.136950 0.739005 0.144074
O O7 0.092035 0.000000 0.196112
O O8 0.662763 0.500000 0.332817
O O9 0.717479 0.227161 0.332588
O O10 0.655180 0.267262 0.429085
O O11 0.294062 0.732031 0.255962
O O12 0.313180 0.728219 0.410686
O O13 0.276830 0.000000 0.332617
O O14 0.676071 0.500000 0.086984
O O15 0.735077 0.768908 0.121824
O O16 0.653219 0.772565 0.005660
O O17 0.338974 0.274546 0.133176
O O18 0.291036 0.000000 0.169268
O O19 0.250000 0.250000 0.500000
O O20 0.315429 0.000000 0.492503
O O21 0.616027 0.000000 0.905265
#
# Coordination Sequence:
#
# PCOD9170374 Si02
#       8
#     8   8   8   8   8   8   8   8
#     4  10  19  34  53  67  82 116 164 199 222 266
#     4   9  16  28  50  72  84 112 160 194 219 261
#     4   9  15  26  45  67  91 114 144 186 228 268
#     4   8  13  24  43  64  87 118 150 176 209 263
#     4  10  17  31  52  67  86 121 163 192 214 266
#     4   9  17  29  47  68  91 122 158 189 220 269
#     4   9  16  25  41  64  91 121 150 179 217 266
#     4  11  22  32  44  68  97 121 148 191 244 274
#
# _framework density 17.931975000000001
#
# number of rings (size 3 to 8) (size 9 to 14) (size 15 to 20)
#    0.000    2.625    2.500    1.875    0.000    0.250 
#    0.000    1.875    0.000    7.500    0.000    0.875 
#    0.000    7.000    0.000    0.000    0.000    0.000 
#
# Total GULP energy -178343.191085 kJ/mol
# GULP energy per Si atom -5573.224721 kJ/mol
# Density = 1.789116 g / cm^3
# Si number density = 17.931975 Si / 1000 Ang^3
#
#
#
# Elastic Constant Matrix: (Units=GPa)
#
#
# Indices 1 2 3 4 5 6 
#
# 1 100.1820 -2.6798 77.8810 0.0000 14.5495 0.0000
# 2 -2.6798 25.4959 0.5260 0.0000 4.8855 0.0000
# 3 77.8810 0.5260 161.9070 0.0000 36.4226 0.0000
# 4 0.0000 0.0000 0.0000 15.0754 0.0000 3.5753
# 5 14.5495 4.8855 36.4226 0.0000 18.9369 0.0000
# 6 0.0000 0.0000 0.0000 3.5753 0.0000 5.1386
#
#
#
# Elastic Compliance Matrix: (Units=1/GPa)
#
#
# Indices 1 2 3 4 5 6 
#
# 1 0.016185 0.001118 -0.008684 0.000000 0.003979 0.000000
# 2 0.001118 0.042851 0.003531 0.000000 -0.018705 0.000000
# 3 -0.008684 0.003531 0.015945 0.000000 -0.024908 0.000000
# 4 0.000000 0.000000 0.000000 0.079442 0.000000 -0.055275
# 5 0.003979 -0.018705 -0.024908 0.000000 0.102482 0.000000
# 6 0.000000 0.000000 0.000000 -0.055275 0.000000 0.233066
#
#
# Mechanical properties :
#
#
# Convention : Reuss Voigt Hill
#
# Bulk Modulus (GPa) = 14.94530 48.78213 31.86372
# Shear Modulus (GPa) = 9.60901 21.95402 15.78152
#
# Velocity S-wave (km/s) = 2.31737 3.50279 2.96983
# Velocity P-wave (km/s) = 3.93863 6.60473 5.43761
#
# Compressibility (1/GPa) = 0.06691065
#
# Stress axis : x y z
#
# Youngs Moduli (GPa) = 61.78648 23.33671 62.71396
#
# Poissons Ratio (x) = -0.02609 0.54461
# Poissons Ratio (y) = -0.06906 -0.22145
# Poissons Ratio (z) = 0.53656 -0.08240
#
# Static dielectric constant tensor:
#      x y z
#    x 1.584830 0.000000 0.019850 
#    y 0.000000 1.663890 0.000000 
#    z 0.019850 0.000000 1.648480 
# 
# From -- ./inp_files/287648.got.cif
#   From: 2010.05.17/outbox.cif.g08.bks.cpg/sg12_144_cif.got.tgz:287648.got - 2010.06.03 13:09:07.
