data_PCOD9170315
_publ_section_title
;
Structure prediction by ZEFSAII (Michael W. Deem and Ramdas Pophale) SiO2 
 PCOD9170315
Probable space group: C 2/M
;
_chemical_formula_sum "Si O2"
_cell_formula_units_Z 44
_cell_length_a 23.997813
_cell_length_b 8.077945
_cell_length_c 29.704404
_cell_angle_alpha 90.000000
_cell_angle_beta 158.724066
_cell_angle_gamma 90.000000
_cell_volume 2089.451657
_symmetry_space_group_name_H-M "C 2/M"
_symmetry_group_IT_number 12
_symmetry_cell_setting 'monoclinic'
loop_
_space_group_symop_operation_xyz
x,y,z
-x,y,-z
-x,-y,-z
x,-y,z
1/2+x,1/2+y,z
1/2-x,1/2+y,-z
1/2-x,1/2-y,-z
1/2+x,1/2-y,z
loop_
_atom_site_type_symbol
_atom_site_label
_atom_site_fract_x
_atom_site_fract_y
_atom_site_fract_z
Si Si1 0.664423 0.304820 0.802932
Si Si2 0.313717 0.194823 0.280189
Si Si3 0.180527 0.809705 0.308021
Si Si4 0.362403 0.300596 0.624715
Si Si5 0.003475 0.800573 0.915139
Si Si6 0.000000 0.247077 0.500000
O O1 0.644462 0.500000 0.780326
O O2 0.643432 0.217744 0.739075
O O3 0.534055 0.249410 0.739739
O O4 0.834712 0.272586 0.949244
O O5 0.133660 0.229867 0.152439
O O6 0.409809 0.308899 0.386849
O O7 0.340984 0.000000 0.313672
O O8 0.181628 0.735520 0.358789
O O9 0.063948 0.736721 0.183301
O O10 0.348299 0.815045 0.411545
O O11 0.130715 0.000000 0.275707
O O12 0.355762 0.500000 0.621382
O O13 0.250000 0.250000 0.500000
O O14 0.020588 0.000000 0.925907
#
# Coordination Sequence:
#
# PCOD9170315 Si02
#       6
#     8   8   8   8   8   4
#     4  11  23  36  51  76 111 146 175 208 260 320
#     4  10  19  33  56  83 107 135 178 224 262 306
#     4   9  17  32  54  79 106 133 170 221 267 307
#     4  10  22  38  55  78 108 140 174 214 261 316
#     4   9  19  35  56  81 104 134 181 227 262 302
#     4  10  17  30  57  86 103 126 171 226 273 304
#
# _framework density 21.058157999999999
#
# number of rings (size 3 to 8) (size 9 to 14) (size 15 to 20)
#    0.000    2.182    0.000    4.909    0.000    6.545 
#    0.000    1.364    0.000    2.182    0.000    0.000 
#    0.000    0.000    0.000    0.000    0.000    0.000 
#
# Total GULP energy -122527.988174 kJ/mol
# GULP energy per Si atom -5569.454008 kJ/mol
# Density = 2.101023 g / cm^3
# Si number density = 21.058158 Si / 1000 Ang^3
#
#
#
# Elastic Constant Matrix: (Units=GPa)
#
#
# Indices 1 2 3 4 5 6 
#
# 1 171.8998 20.9724 41.9185 0.0016 -11.6528 0.0007
# 2 20.9724 28.1027 13.1350 -0.0066 4.2165 0.0023
# 3 41.9185 13.1350 100.9722 -0.0099 -1.5983 -0.0029
# 4 0.0016 -0.0066 -0.0099 -10.0733 0.0004 25.3824
# 5 -11.6528 4.2165 -1.5983 0.0004 21.7290 0.0009
# 6 0.0007 0.0023 -0.0029 25.3824 0.0009 -15.6417
#
#
#
# Elastic Compliance Matrix: (Units=1/GPa)
#
#
# Indices 1 2 3 4 5 6 
#
# 1 0.007323 -0.005102 -0.002301 -0.000003 0.004748 -0.000004
# 2 -0.005102 0.042782 -0.003626 0.000003 -0.011304 0.000012
# 3 -0.002301 -0.003626 0.011336 0.000005 0.000303 0.000006
# 4 -0.000003 0.000003 0.000005 0.032138 -0.000004 0.052152
# 5 0.004748 -0.011304 0.000303 -0.000004 0.050783 -0.000006
# 6 -0.000004 0.000012 0.000006 0.052152 -0.000006 0.020697
#
#
# Mechanical properties :
#
#
# Convention : Reuss Voigt Hill
#
# Bulk Modulus (GPa) = 25.39229 50.33627 37.86428
# Shear Modulus (GPa) = 24.96950 14.19939 19.58445
#
# Velocity S-wave (km/s) = 3.44719 2.59953 3.05293
# Velocity P-wave (km/s) = 5.28475 5.74155 5.51788
#
# Compressibility (1/GPa) = 0.03938203
#
# Stress axis : x y z
#
# Youngs Moduli (GPa) = 136.56052 23.37437 88.21756
#
# Poissons Ratio (x) = 0.11925 0.20301
# Poissons Ratio (y) = 0.69667 0.31991
# Poissons Ratio (z) = 0.31426 0.08476
#
# Static dielectric constant tensor:
#      x y z
#    x 1.767110 0.000000 -0.019290 
#    y 0.000000 1.808390 0.000000 
#    z -0.019290 0.000000 1.730500 
# 
# From -- ./inp_files/353224.got.cif
#   From: 2010.05.17/outbox.cif.g08.bks.cpg/sg12_177_cif.got.tgz:353224.got - 2010.06.03 13:09:07.
