data_PCOD9170412
_publ_section_title
;
Structure prediction by ZEFSAII (Michael W. Deem and Ramdas Pophale) SiO2 
 PCOD9170412
Probable space group: C 2/M
;
_chemical_formula_sum "Si O2"
_cell_formula_units_Z 48
_cell_length_a 10.604932
_cell_length_b 23.566524
_cell_length_c 8.363699
_cell_angle_alpha 90.000000
_cell_angle_beta 103.933165
_cell_angle_gamma 90.000000
_cell_volume 2028.765856
_symmetry_space_group_name_H-M "C 2/M"
_symmetry_group_IT_number 12
_symmetry_cell_setting 'monoclinic'
loop_
_space_group_symop_operation_xyz
x,y,z
-x,y,-z
-x,-y,-z
x,-y,z
1/2+x,1/2+y,z
1/2-x,1/2+y,-z
1/2-x,1/2-y,-z
1/2+x,1/2-y,z
loop_
_atom_site_type_symbol
_atom_site_label
_atom_site_fract_x
_atom_site_fract_y
_atom_site_fract_z
Si Si1 0.099794 0.434971 0.891858
Si Si2 0.133000 0.561355 0.421871
Si Si3 0.677689 0.751763 0.208783
Si Si4 0.187935 0.157072 0.978132
Si Si5 0.621779 0.388151 0.636023
Si Si6 0.313803 0.182245 0.504737
O O1 0.142382 0.500000 0.939183
O O2 0.220147 0.392006 0.921772
O O3 0.001157 0.438302 0.713443
O O4 0.253679 0.429546 0.335806
O O5 0.152450 0.500000 0.505695
O O6 0.140481 0.619537 0.521628
O O7 0.627421 0.698117 0.093555
O O8 0.605797 0.786014 0.330240
O O9 0.500000 0.915582 0.000000
O O10 0.721144 0.799641 0.097202
O O11 0.099271 0.129176 0.812195
O O12 0.500000 0.410612 0.500000
O O13 0.209233 0.278877 0.653160
O O14 0.676116 0.334129 0.550403
#
# Coordination Sequence:
#
# PCOD9170412 Si02
#       6
#     8   8   8   8   8   8
#     4  10  17  31  54  83 113 140 172 221 276 329
#     4   9  18  33  57  79 105 139 179 220 268 329
#     4   9  17  35  53  75 109 145 182 220 266 320
#     4  10  19  32  53  81 109 136 185 223 267 319
#     4   9  18  33  52  75 102 131 177 220 264 313
#     4   8  17  35  54  73 109 142 181 217 270 323
#
# _framework density 23.659704000000001
#
# number of rings (size 3 to 8) (size 9 to 14) (size 15 to 20)
#    1.000    1.833    1.667    0.000    0.000    0.333 
#    0.000   24.167    0.000    2.000    0.000    1.167 
#    0.000    0.000    0.000    0.000    0.000    0.000 
#
# Total GULP energy -133615.387083 kJ/mol
# GULP energy per Si atom -5567.307795 kJ/mol
# Density = 2.360585 g / cm^3
# Si number density = 23.659704 Si / 1000 Ang^3
#
#
#
# Elastic Constant Matrix: (Units=GPa)
#
#
# Indices 1 2 3 4 5 6 
#
# 1 50.4557 26.3024 31.6764 0.0000 -0.5120 0.0000
# 2 26.3024 169.3262 52.6587 0.0000 6.5786 0.0000
# 3 31.6764 52.6587 109.4095 0.0000 8.2029 0.0000
# 4 0.0000 0.0000 0.0000 37.4776 0.0000 -10.6847
# 5 -0.5120 6.5786 8.2029 0.0000 18.2496 0.0000
# 6 0.0000 0.0000 0.0000 -10.6847 0.0000 -10.1759
#
#
#
# Elastic Compliance Matrix: (Units=1/GPa)
#
#
# Indices 1 2 3 4 5 6 
#
# 1 0.025067 -0.002005 -0.006622 0.000000 0.004403 0.000000
# 2 -0.002005 0.007125 -0.002744 0.000000 -0.001391 0.000000
# 3 -0.006622 -0.002744 0.012747 0.000000 -0.004926 0.000000
# 4 0.000000 0.000000 0.000000 0.020535 0.000000 -0.021562
# 5 0.004403 -0.001391 -0.004926 0.000000 0.057635 0.000000
# 6 0.000000 0.000000 0.000000 -0.021562 0.000000 -0.075631
#
#
# Mechanical properties :
#
#
# Convention : Reuss Voigt Hill
#
# Bulk Modulus (GPa) = 45.05470 61.16294 53.10882
# Shear Modulus (GPa) = 64.41593 23.68052 44.04823
#
# Velocity S-wave (km/s) = 5.22352 3.16710 4.31947
# Velocity P-wave (km/s) = 7.44744 6.26748 6.88279
#
# Compressibility (1/GPa) = 0.02219524
#
# Stress axis : x y z
#
# Youngs Moduli (GPa) = 39.89310 140.35604 78.44710
#
# Poissons Ratio (x) = 0.28147 0.51951
# Poissons Ratio (y) = 0.08000 0.21528
# Poissons Ratio (z) = 0.26419 0.38517
#
# Static dielectric constant tensor:
#      x y z
#    x 1.918920 0.000000 -0.037580 
#    y 0.000000 1.905500 0.000000 
#    z -0.037580 0.000000 1.974680 
# 
# From -- ./inp_files/136757.got.cif
#   From: 2010.05.17/outbox.cif.g08.bks.cpg/sg12_69_cif.got.tgz:136757.got - 2010.06.03 13:09:07.
