data_PCOD9170192
_publ_section_title
;
Structure prediction by ZEFSAII (Michael W. Deem and Ramdas Pophale) SiO2 
 PCOD9170192
Probable space group: C 2/M
;
_chemical_formula_sum "Si O2"
_cell_formula_units_Z 56
_cell_length_a 33.894314
_cell_length_b 8.912741
_cell_length_c 11.800047
_cell_angle_alpha 90.000000
_cell_angle_beta 126.283152
_cell_angle_gamma 90.000000
_cell_volume 2873.505606
_symmetry_space_group_name_H-M "C 2/M"
_symmetry_group_IT_number 12
_symmetry_cell_setting 'monoclinic'
loop_
_space_group_symop_operation_xyz
x,y,z
-x,y,-z
-x,-y,-z
x,-y,z
1/2+x,1/2+y,z
1/2-x,1/2+y,-z
1/2-x,1/2-y,-z
1/2+x,1/2-y,z
loop_
_atom_site_type_symbol
_atom_site_label
_atom_site_fract_x
_atom_site_fract_y
_atom_site_fract_z
Si Si1 0.992110 0.819405 0.617363
Si Si2 0.099342 0.170555 0.853320
Si Si3 0.159372 0.829958 0.740096
Si Si4 0.394453 0.822184 0.552141
Si Si5 0.174163 0.822296 0.402607
Si Si6 0.803033 0.676265 0.983487
Si Si7 0.261519 0.677899 0.696808
O O1 0.946070 0.742357 0.597871
O O2 0.000000 0.771149 0.500000
O O3 0.043051 0.788095 0.769622
O O4 0.985189 0.000000 0.605610
O O5 0.110673 0.162979 0.736959
O O6 0.108587 0.000000 0.911550
O O7 0.141385 0.283314 0.964904
O O8 0.145143 0.729689 0.610160
O O9 0.172100 0.000000 0.728952
O O10 0.196874 0.761887 0.895481
O O11 0.375533 0.751233 0.637287
O O12 0.395603 0.000000 0.560711
O O13 0.217348 0.748139 0.550402
O O14 0.190509 0.799256 0.300705
O O15 0.173040 0.000000 0.421716
O O16 0.796870 0.500000 0.988438
O O17 0.768353 0.742324 0.828212
O O18 0.254214 0.500000 0.699040
#
# Coordination Sequence:
#
# PCOD9170192 Si02
#       7
#     8   8   8   8   8   8   8
#     4  10  17  30  51  73 103 146 185 217 258 312
#     4   8  16  29  48  73 102 139 180 215 251 303
#     4   9  17  32  50  72 105 142 179 214 254 308
#     4  12  23  33  50  79 115 145 176 221 270 316
#     4  10  22  39  59  81 105 138 177 220 266 316
#     4  10  18  30  53  82 109 138 174 216 263 316
#     4  10  20  38  62  83 104 133 176 221 267 319
#
# _framework density 19.488391
#
# number of rings (size 3 to 8) (size 9 to 14) (size 15 to 20)
#    0.857    1.286    1.429    3.429    0.000    2.571 
#    0.000    0.714    0.000    0.857    0.000    6.000 
#    0.000    0.000    0.000    0.000    0.000    0.000 
#
# Total GULP energy -156189.989202 kJ/mol
# GULP energy per Si atom -5578.213900 kJ/mol
# Density = 1.944403 g / cm^3
# Si number density = 19.488391 Si / 1000 Ang^3
#
#
#
# Elastic Constant Matrix: (Units=GPa)
#
#
# Indices 1 2 3 4 5 6 
#
# 1 112.9808 34.2154 10.1242 0.0000 -3.7402 0.0000
# 2 34.2154 85.5686 12.2526 0.0000 -10.5049 0.0000
# 3 10.1242 12.2526 39.6773 0.0000 -4.0061 0.0000
# 4 0.0000 0.0000 0.0000 25.2857 0.0000 2.9105
# 5 -3.7402 -10.5049 -4.0061 0.0000 21.0896 0.0000
# 6 0.0000 0.0000 0.0000 2.9105 0.0000 24.2781
#
#
#
# Elastic Compliance Matrix: (Units=1/GPa)
#
#
# Indices 1 2 3 4 5 6 
#
# 1 0.010147 -0.003905 -0.001426 0.000000 -0.000416 0.000000
# 2 -0.003905 0.014384 -0.002847 0.000000 0.005931 0.000000
# 3 -0.001426 -0.002847 0.026791 0.000000 0.003418 0.000000
# 4 0.000000 0.000000 0.000000 0.040101 0.000000 -0.004807
# 5 -0.000416 0.005931 0.003418 0.000000 0.050947 0.000000
# 6 0.000000 0.000000 0.000000 -0.004807 0.000000 0.041766
#
#
# Mechanical properties :
#
#
# Convention : Reuss Voigt Hill
#
# Bulk Modulus (GPa) = 28.59673 39.04568 33.82121
# Shear Modulus (GPa) = 23.56871 26.23965 24.90418
#
# Velocity S-wave (km/s) = 3.48137 3.67335 3.57865
# Velocity P-wave (km/s) = 5.55568 6.17010 5.87093
#
# Compressibility (1/GPa) = 0.03496903
#
# Stress axis : x y z
#
# Youngs Moduli (GPa) = 98.54656 69.52386 37.32563
#
# Poissons Ratio (x) = 0.27146 0.05321
# Poissons Ratio (y) = 0.38478 0.10625
# Poissons Ratio (z) = 0.14048 0.19791
#
# Static dielectric constant tensor:
#      x y z
#    x 1.753760 0.000000 0.029640 
#    y 0.000000 1.646480 0.000000 
#    z 0.029640 0.000000 1.680410 
# 
# From -- ./inp_files/187729.got.cif
#   From: 2010.05.17/outbox.cif.g08.bks.cpg/sg12_94_cif.got.tgz:187729.got - 2010.06.03 13:09:07.
