data_PCOD9170563
_publ_section_title
;
Structure prediction by ZEFSAII (Michael W. Deem and Ramdas Pophale) SiO2 
 PCOD9170563
Probable space group: C 2/M
;
_chemical_formula_sum "Si O2"
_cell_formula_units_Z 64
_cell_length_a 11.898930
_cell_length_b 29.786081
_cell_length_c 14.303899
_cell_angle_alpha 90.000000
_cell_angle_beta 31.012689
_cell_angle_gamma 90.000000
_cell_volume 2612.011463
_symmetry_space_group_name_H-M "C 2/M"
_symmetry_group_IT_number 12
_symmetry_cell_setting 'monoclinic'
loop_
_space_group_symop_operation_xyz
x,y,z
-x,y,-z
-x,-y,-z
x,-y,z
1/2+x,1/2+y,z
1/2-x,1/2+y,-z
1/2-x,1/2-y,-z
1/2+x,1/2-y,z
loop_
_atom_site_type_symbol
_atom_site_label
_atom_site_fract_x
_atom_site_fract_y
_atom_site_fract_z
Si Si1 0.748107 0.139820 0.219873
Si Si2 0.848626 0.947888 0.721015
Si Si3 0.978217 0.843929 0.626260
Si Si4 0.341024 0.309045 0.322420
Si Si5 0.662309 0.172537 0.091103
Si Si6 0.235725 0.545630 0.179708
Si Si7 0.145351 0.730053 0.814762
Si Si8 0.939786 0.430180 0.893610
O O1 0.742884 0.151552 0.330899
O O2 0.641871 0.171817 0.218015
O O3 0.648280 0.091105 0.282315
O O4 0.000000 0.137472 0.000000
O O5 0.965554 0.898297 0.651063
O O6 0.690822 0.940058 0.742879
O O7 0.939440 0.000000 0.650891
O O8 0.696592 0.947045 0.920819
O O9 0.772747 0.809293 0.780201
O O10 0.000000 0.840129 0.500000
O O11 0.151154 0.820937 0.573678
O O12 0.246525 0.266239 0.332908
O O13 0.596470 0.312476 0.110790
O O14 0.502177 0.205400 0.155073
O O15 0.606470 0.122704 0.091603
O O16 0.157428 0.500000 0.281085
O O17 0.155379 0.547048 0.130402
O O18 0.500000 0.546120 0.000000
O O19 0.000000 0.753000 0.000000
#
# Coordination Sequence:
#
# PCOD9170563 Si02
#       8
#     8   8   8   8   8   8   8   8
#     4   8  17  29  47  82 117 146 184 236 292 346
#     4  11  21  36  61  87 119 160 206 253 306 360
#     4  12  28  45  60  87 126 163 206 256 306 366
#     4  11  22  37  62  86 122 154 200 249 301 356
#     4  10  17  32  58  92 124 146 188 251 299 356
#     4   9  16  25  42  76 126 159 176 223 302 360
#     4  12  22  38  68  94 116 154 202 250 308 357
#     4  10  17  32  55  92 125 151 192 255 308 353
#
# _framework density 24.502189000000001
#
# number of rings (size 3 to 8) (size 9 to 14) (size 15 to 20)
#    0.000    1.625    3.750    3.750    1.750    0.750 
#    0.000    0.000    0.000    0.000    0.000    0.000 
#    0.000    3.250    0.000    0.000    0.000    0.000 
#
# Total GULP energy -178301.193623 kJ/mol
# GULP energy per Si atom -5571.912301 kJ/mol
# Density = 2.444642 g / cm^3
# Si number density = 24.502189 Si / 1000 Ang^3
#
#
#
# Elastic Constant Matrix: (Units=GPa)
#
#
# Indices 1 2 3 4 5 6 
#
# 1 164.8476 46.1213 23.4682 0.0000 21.0296 0.0000
# 2 46.1213 147.5988 21.6900 0.0000 6.3949 0.0000
# 3 23.4682 21.6900 37.4993 0.0000 6.5760 0.0000
# 4 0.0000 0.0000 0.0000 3.8262 0.0000 4.9473
# 5 21.0296 6.3949 6.5760 0.0000 39.4998 0.0000
# 6 0.0000 0.0000 0.0000 4.9473 0.0000 44.5421
#
#
#
# Elastic Compliance Matrix: (Units=1/GPa)
#
#
# Indices 1 2 3 4 5 6 
#
# 1 0.007386 -0.001720 -0.003077 0.000000 -0.003142 0.000000
# 2 -0.001720 0.007815 -0.003484 0.000000 0.000230 0.000000
# 3 -0.003077 -0.003484 0.031131 0.000000 -0.002981 0.000000
# 4 0.000000 0.000000 0.000000 0.305189 0.000000 -0.033897
# 5 -0.003142 0.000230 -0.002981 0.000000 0.027448 0.000000
# 6 0.000000 0.000000 0.000000 -0.033897 0.000000 0.026216
#
#
# Mechanical properties :
#
#
# Convention : Reuss Voigt Hill
#
# Bulk Modulus (GPa) = 33.59093 59.16718 46.37905
# Shear Modulus (GPa) = 11.58296 34.81802 23.20049
#
# Velocity S-wave (km/s) = 2.17660 3.77373 3.08047
# Velocity P-wave (km/s) = 4.47838 6.57177 5.62335
#
# Compressibility (1/GPa) = 0.02976994
#
# Stress axis : x y z
#
# Youngs Moduli (GPa) = 135.38800 127.96683 32.12262
#
# Poissons Ratio (x) = 0.22007 0.09884
# Poissons Ratio (y) = 0.23283 0.11192
# Poissons Ratio (z) = 0.41657 0.44586
#
# Static dielectric constant tensor:
#      x y z
#    x 1.827840 0.000000 -0.043090 
#    y 0.000000 2.071390 0.000000 
#    z -0.043090 0.000000 2.085140 
# 
# From -- ./inp_files/209853.got.cif
#   From: 2010.05.17/outbox.cif.g08.bks.cpg/sg12_105_cif.got.tgz:209853.got - 2010.06.03 13:09:07.
