data_PCOD9170803
_publ_section_title
;
Structure prediction by ZEFSAII (Michael W. Deem and Ramdas Pophale) SiO2 
 PCOD9170803
Probable space group: C 2/M
;
_chemical_formula_sum "Si O2"
_cell_formula_units_Z 52
_cell_length_a 8.570007
_cell_length_b 25.775296
_cell_length_c 9.372041
_cell_angle_alpha 90.000000
_cell_angle_beta 104.892059
_cell_angle_gamma 90.000000
_cell_volume 2000.696445
_symmetry_space_group_name_H-M "C 2/M"
_symmetry_group_IT_number 12
_symmetry_cell_setting 'monoclinic'
loop_
_space_group_symop_operation_xyz
x,y,z
-x,y,-z
-x,-y,-z
x,-y,z
1/2+x,1/2+y,z
1/2-x,1/2+y,-z
1/2-x,1/2-y,-z
1/2+x,1/2-y,z
loop_
_atom_site_type_symbol
_atom_site_label
_atom_site_fract_x
_atom_site_fract_y
_atom_site_fract_z
Si Si1 0.334646 0.556037 0.551453
Si Si2 0.315596 0.668287 0.506425
Si Si3 0.785122 0.918371 0.857434
Si Si4 0.709970 0.500000 0.884784
Si Si5 0.227792 0.196908 0.176900
Si Si6 0.424952 0.917928 0.833733
Si Si7 0.398110 0.200024 0.793160
O O1 0.500000 0.554291 0.500000
O O2 0.252664 0.500000 0.523720
O O3 0.247033 0.609144 0.486062
O O4 0.369937 0.564251 0.730148
O O5 0.500000 0.667640 0.500000
O O6 0.310951 0.686656 0.666469
O O7 0.211657 0.701277 0.373305
O O8 0.821975 0.954929 0.999076
O O9 0.818707 0.858183 0.903089
O O10 0.588959 0.920991 0.778683
O O11 0.772151 0.454750 0.783749
O O12 0.417593 0.203931 0.206306
O O13 0.149981 0.251855 0.120281
O O14 0.376784 0.858262 0.846748
O O15 0.500000 0.939932 0.000000
#
# Coordination Sequence:
#
# PCOD9170803 Si02
#       7
#     8   8   8   4   8   8   8
#     4   9  17  29  49  82 115 151 191 223 280 360
#     4  10  20  35  56  83 118 159 193 229 288 354
#     4   9  16  30  55  81 110 147 190 232 288 345
#     4  10  17  34  59  82 109 148 194 246 302 344
#     4  10  21  34  56  84 118 154 192 234 294 354
#     4   9  19  34  57  85 112 149 199 245 295 341
#     4  11  21  37  55  85 119 151 193 245 287 348
#
# _framework density 25.990949000000001
#
# number of rings (size 3 to 8) (size 9 to 14) (size 15 to 20)
#    0.000    2.308    0.769    3.923    0.000    0.000 
#    1.385    6.923    0.000    2.769    0.000   73.231 
#    0.000    0.000    0.000    0.000    0.000    0.000 
#
# Total GULP energy -144954.938682 kJ/mol
# GULP energy per Si atom -5575.189949 kJ/mol
# Density = 2.593179 g / cm^3
# Si number density = 25.990949 Si / 1000 Ang^3
#
#
#
# Elastic Constant Matrix: (Units=GPa)
#
#
# Indices 1 2 3 4 5 6 
#
# 1 115.1000 50.1154 43.4235 0.0000 -18.2138 0.0000
# 2 50.1154 243.3065 17.3827 0.0000 -10.2510 0.0000
# 3 43.4235 17.3827 85.3016 0.0000 -15.9502 0.0000
# 4 0.0000 0.0000 0.0000 34.3049 0.0000 255.0445
# 5 -18.2138 -10.2510 -15.9502 0.0000 46.9706 0.0000
# 6 0.0000 0.0000 0.0000 255.0445 0.0000 -549.2765
#
#
#
# Elastic Compliance Matrix: (Units=1/GPa)
#
#
# Indices 1 2 3 4 5 6 
#
# 1 0.011892 -0.001976 -0.005200 0.000000 0.002414 0.000000
# 2 -0.001976 0.004519 0.000135 0.000000 0.000266 0.000000
# 3 -0.005200 0.000135 0.014918 0.000000 0.003079 0.000000
# 4 0.000000 0.000000 0.000000 0.006548 0.000000 0.003040
# 5 0.002414 0.000266 0.003079 0.000000 0.023330 0.000000
# 6 0.000000 0.000000 0.000000 0.003040 0.000000 -0.000409
#
#
# Mechanical properties :
#
#
# Convention : Reuss Voigt Hill
#
# Bulk Modulus (GPa) = 57.98061 73.95011 65.96536
# Shear Modulus (GPa) = 62.01246 -71.41445 -4.70099
#
# Velocity S-wave (km/s) = 4.88989 -5.24751 -1.34634
# Velocity P-wave (km/s) = 7.36463 2.86375 4.79775
#
# Compressibility (1/GPa) = 0.01724715
#
# Stress axis : x y z
#
# Youngs Moduli (GPa) = 84.08764 221.30395 67.03171
#
# Poissons Ratio (x) = 0.43737 0.34854
# Poissons Ratio (y) = 0.16619 -0.00904
# Poissons Ratio (z) = 0.43723 -0.02986
#
# Static dielectric constant tensor:
#      x y z
#    x 2.130580 0.000000 0.060970 
#    y 0.000000 2.087240 0.000000 
#    z 0.060970 0.000000 2.088570 
# 
# From -- ./inp_files/123688.got.cif
#   From: 2010.05.17/outbox.cif.g08.bks.cpg/sg12_62_cif.got.tgz:123688.got - 2010.06.03 13:09:07.
