data_PCOD9170080
_publ_section_title
;
Structure prediction by ZEFSAII (Michael W. Deem and Ramdas Pophale) SiO2 
 PCOD9170080
Probable space group: C 2/M
;
_chemical_formula_sum "Si O2"
_cell_formula_units_Z 64
_cell_length_a 16.848497
_cell_length_b 29.433851
_cell_length_c 11.335343
_cell_angle_alpha 90.000000
_cell_angle_beta 147.204556
_cell_angle_gamma 90.000000
_cell_volume 3044.771776
_symmetry_space_group_name_H-M "C 2/M"
_symmetry_group_IT_number 12
_symmetry_cell_setting 'monoclinic'
loop_
_space_group_symop_operation_xyz
x,y,z
-x,y,-z
-x,-y,-z
x,-y,z
1/2+x,1/2+y,z
1/2-x,1/2+y,-z
1/2-x,1/2-y,-z
1/2+x,1/2-y,z
loop_
_atom_site_type_symbol
_atom_site_label
_atom_site_fract_x
_atom_site_fract_y
_atom_site_fract_z
Si Si1 0.163806 0.547474 0.353275
Si Si2 0.848100 0.809266 0.881865
Si Si3 0.697214 0.140848 0.513369
Si Si4 0.575416 0.827364 0.968944
Si Si5 0.652114 0.724748 0.650088
Si Si6 0.937066 0.052422 0.288317
Si Si7 0.332125 0.068992 0.901965
Si Si8 0.526050 0.346983 0.307584
O O1 0.217998 0.500000 0.468448
O O2 0.184041 0.588339 0.466486
O O3 0.229249 0.554721 0.303388
O O4 0.990361 0.547209 0.114501
O O5 0.749139 0.850191 0.709701
O O6 0.750546 0.765819 0.724130
O O7 0.000000 0.806033 0.000000
O O8 0.896879 0.820243 0.076492
O O9 0.552575 0.166955 0.287058
O O10 0.832957 0.154980 0.600719
O O11 0.500000 0.812418 0.000000
O O12 0.717394 0.798312 0.109810
O O13 0.638437 0.877487 0.071829
O O14 0.500000 0.747241 0.500000
O O15 0.584026 0.683046 0.489188
O O16 0.765499 0.057481 0.107858
O O17 0.000000 0.054584 0.500000
O O18 0.984301 0.100128 0.283337
O O19 0.962212 0.000000 0.274143
#
# Coordination Sequence:
#
# PCOD9170080 Si02
#       8
#     8   8   8   8   8   8   8   8
#     4  10  17  29  55  86 119 156 203 257 299 352
#     4  10  26  45  64  86 121 169 212 255 306 369
#     4  10  21  39  61  89 123 159 211 254 301 366
#     4  11  18  35  64  93 121 163 198 249 314 360
#     4  12  25  41  64  95 124 154 203 258 320 375
#     4  11  22  35  57  90 129 167 201 248 320 371
#     4  10  17  31  51  88 125 156 198 252 304 368
#     4  11  23  42  63  90 126 162 209 257 305 373
#
# _framework density 21.019636999999999
#
# number of rings (size 3 to 8) (size 9 to 14) (size 15 to 20)
#    0.000    1.375    3.750    4.500    1.750    3.000 
#    4.500    0.625    0.000    2.250    0.000    4.375 
#    0.000    0.000    0.000    0.000    0.000    0.000 
#
# Total GULP energy -178134.964219 kJ/mol
# GULP energy per Si atom -5566.717632 kJ/mol
# Density = 2.097180 g / cm^3
# Si number density = 21.019637 Si / 1000 Ang^3
#
#
#
# Elastic Constant Matrix: (Units=GPa)
#
#
# Indices 1 2 3 4 5 6 
#
# 1 35.4411 13.6675 41.4537 0.0000 13.7005 0.0000
# 2 13.6675 98.1029 46.2241 0.0000 -3.6006 0.0000
# 3 41.4537 46.2241 117.2642 0.0000 11.8711 0.0000
# 4 0.0000 0.0000 0.0000 255.7935 0.0000 1.8579
# 5 13.7005 -3.6006 11.8711 0.0000 19.3603 0.0000
# 6 0.0000 0.0000 0.0000 1.8579 0.0000 -1.9292
#
#
#
# Elastic Compliance Matrix: (Units=1/GPa)
#
#
# Indices 1 2 3 4 5 6 
#
# 1 0.063386 -0.001383 -0.018440 0.000000 -0.033806 0.000000
# 2 -0.001383 0.013170 -0.005384 0.000000 0.006729 0.000000
# 3 -0.018440 -0.005384 0.017004 0.000000 0.001621 0.000000
# 4 0.000000 0.000000 0.000000 0.003882 0.000000 0.003739
# 5 -0.033806 0.006729 0.001621 0.000000 0.075833 0.000000
# 6 0.000000 0.000000 0.000000 0.003739 0.000000 -0.514753
#
#
# Mechanical properties :
#
#
# Convention : Reuss Voigt Hill
#
# Bulk Modulus (GPa) = 23.17669 50.38875 36.78272
# Shear Modulus (GPa) = -18.07121 64.60910 23.26894
#
# Velocity S-wave (km/s) = -2.93530 5.55016 3.33079
# Velocity P-wave (km/s) = 0.66167 8.06824 5.68589
#
# Compressibility (1/GPa) = 0.04314679
#
# Stress axis : x y z
#
# Youngs Moduli (GPa) = 15.77643 75.93189 58.80837
#
# Poissons Ratio (x) = 0.10502 1.08441
# Poissons Ratio (y) = 0.02182 0.31660
# Poissons Ratio (z) = 0.29091 0.40879
#
# Static dielectric constant tensor:
#      x y z
#    x 1.833630 0.000000 0.039340 
#    y 0.000000 2.033050 0.000000 
#    z 0.039340 0.000000 1.781690 
# 
# From -- ./inp_files/161274.got.cif
#   From: 2010.05.17/outbox.cif.g08.bks.cpg/sg12_81_cif.got.tgz:161274.got - 2010.06.03 13:09:07.
