data_PCOD9170773
_publ_section_title
;
Structure prediction by ZEFSAII (Michael W. Deem and Ramdas Pophale) SiO2 
 PCOD9170773
Probable space group: C 2/M
;
_chemical_formula_sum "Si O2"
_cell_formula_units_Z 48
_cell_length_a 14.792804
_cell_length_b 19.931721
_cell_length_c 8.338029
_cell_angle_alpha 90.000000
_cell_angle_beta 119.107778
_cell_angle_gamma 90.000000
_cell_volume 2147.949756
_symmetry_space_group_name_H-M "C 2/M"
_symmetry_group_IT_number 12
_symmetry_cell_setting 'monoclinic'
loop_
_space_group_symop_operation_xyz
x,y,z
-x,y,-z
-x,-y,-z
x,-y,z
1/2+x,1/2+y,z
1/2-x,1/2+y,-z
1/2-x,1/2-y,-z
1/2+x,1/2-y,z
loop_
_atom_site_type_symbol
_atom_site_label
_atom_site_fract_x
_atom_site_fract_y
_atom_site_fract_z
Si Si1 0.183654 0.141627 0.240772
Si Si2 0.885021 0.500000 0.830390
Si Si3 0.647160 0.500000 0.087932
Si Si4 0.581762 0.145014 0.703354
Si Si5 0.841171 0.728698 0.957674
Si Si6 0.751475 0.884373 0.351082
Si Si7 0.124634 0.500000 0.820636
Si Si8 0.890519 0.000000 0.318778
O O1 0.300444 0.144489 0.264478
O O2 0.127847 0.205669 0.114802
O O3 0.201096 0.144055 0.445490
O O4 0.126298 0.071464 0.152108
O O5 0.844841 0.435172 0.702449
O O6 0.831226 0.500000 0.960475
O O7 0.000000 0.500000 0.000000
O O8 0.772607 0.500000 0.195848
O O9 0.605304 0.500000 0.870574
O O10 0.500000 0.166635 0.500000
O O11 0.563138 0.067699 0.735864
O O12 0.577239 0.191233 0.857373
O O13 0.791613 0.674021 0.797155
O O14 0.750000 0.750000 0.000000
O O15 0.833278 0.932585 0.332548
O O16 0.000000 0.000000 0.500000
#
# Coordination Sequence:
#
# PCOD9170773 Si02
#       8
#     8   4   4   8   8   8   4   4
#     4  10  22  36  62  85 118 161 197 249 305 356
#     4  11  22  32  59  93 130 157 182 234 304 365
#     4  10  18  41  59  85 115 152 198 242 294 362
#     4  10  20  34  56  87 122 163 204 236 283 367
#     4  10  20  38  60  82 116 167 202 238 299 362
#     4  11  21  40  59  90 123 153 203 251 302 354
#     4  10  17  34  55  83 122 161 189 228 286 362
#     4  11  22  39  66  86 109 155 208 261 306 352
#
# _framework density 22.346890999999999
#
# number of rings (size 3 to 8) (size 9 to 14) (size 15 to 20)
#    0.000    1.667    3.333    3.750    2.333    0.000 
#    0.000    9.167    0.000    8.000    0.000    0.000 
#    0.000    0.000    0.000    0.000    0.000    0.000 
#
# Total GULP energy -134071.813132 kJ/mol
# GULP energy per Si atom -5586.325547 kJ/mol
# Density = 2.229603 g / cm^3
# Si number density = 22.346891 Si / 1000 Ang^3
#
#
#
# Elastic Constant Matrix: (Units=GPa)
#
#
# Indices 1 2 3 4 5 6 
#
# 1 33.5224 13.6193 12.9455 0.0000 15.1522 0.0000
# 2 13.6193 183.7407 106.0291 0.0000 0.4648 0.0000
# 3 12.9455 106.0291 214.7905 0.0000 -4.1488 0.0000
# 4 0.0000 0.0000 0.0000 18.0891 0.0000 -1.6375
# 5 15.1522 0.4648 -4.1488 0.0000 30.3976 0.0000
# 6 0.0000 0.0000 0.0000 -1.6375 0.0000 -12.1074
#
#
#
# Elastic Compliance Matrix: (Units=1/GPa)
#
#
# Indices 1 2 3 4 5 6 
#
# 1 0.040572 -0.001841 -0.001932 0.000000 -0.020460 0.000000
# 2 -0.001841 0.007706 -0.003687 0.000000 0.000297 0.000000
# 3 -0.001932 -0.003687 0.006629 0.000000 0.001924 0.000000
# 4 0.000000 0.000000 0.000000 0.054613 0.000000 -0.007386
# 5 -0.020460 0.000297 0.001924 0.000000 0.043354 0.000000
# 6 0.000000 0.000000 0.000000 -0.007386 0.000000 -0.081595
#
#
# Mechanical properties :
#
#
# Convention : Reuss Voigt Hill
#
# Bulk Modulus (GPa) = 25.00746 77.47125 51.23935
# Shear Modulus (GPa) = 50.23658 27.23984 38.73821
#
# Velocity S-wave (km/s) = 4.74649 3.49514 4.16804
# Velocity P-wave (km/s) = 6.42291 7.14359 6.79281
#
# Compressibility (1/GPa) = 0.03998807
#
# Stress axis : x y z
#
# Youngs Moduli (GPa) = 24.64728 129.77046 150.84147
#
# Poissons Ratio (x) = 0.23888 0.29140
# Poissons Ratio (y) = 0.04537 0.55619
# Poissons Ratio (z) = 0.04761 0.47850
#
# Static dielectric constant tensor:
#      x y z
#    x 1.935170 0.000000 -0.021230 
#    y 0.000000 1.829130 0.000000 
#    z -0.021230 0.000000 1.775260 
# 
# From -- ./inp_files/77058.got.cif
#   From: 2010.05.17/outbox.cif.g08.bks.cpg/sg12_39_cif.got.tgz:77058.got - 2010.06.03 13:09:07.
