data_PCOD9170022
_publ_section_title
;
Structure prediction by ZEFSAII (Michael W. Deem and Ramdas Pophale) SiO2 
 PCOD9170022
Probable space group: C 2/M
;
_chemical_formula_sum "Si O2"
_cell_formula_units_Z 40
_cell_length_a 25.325366
_cell_length_b 8.115761
_cell_length_c 21.428343
_cell_angle_alpha 90.000000
_cell_angle_beta 31.079584
_cell_angle_gamma 90.000000
_cell_volume 2273.606393
_symmetry_space_group_name_H-M "C 2/M"
_symmetry_group_IT_number 12
_symmetry_cell_setting 'monoclinic'
loop_
_space_group_symop_operation_xyz
x,y,z
-x,y,-z
-x,-y,-z
x,-y,z
1/2+x,1/2+y,z
1/2-x,1/2+y,-z
1/2-x,1/2-y,-z
1/2+x,1/2-y,z
loop_
_atom_site_type_symbol
_atom_site_label
_atom_site_fract_x
_atom_site_fract_y
_atom_site_fract_z
Si Si1 0.130782 0.191599 0.926717
Si Si2 0.748023 0.197441 0.430531
Si Si3 0.644517 0.798779 0.304682
Si Si4 0.573162 0.799358 0.515401
Si Si5 0.911087 0.689504 0.166864
O O1 0.243340 0.257245 0.829441
O O2 0.121478 0.205275 0.860719
O O3 0.123400 0.000000 0.951653
O O4 0.031928 0.282347 0.053679
O O5 0.750000 0.250000 0.500000
O O6 0.645646 0.256065 0.497973
O O7 0.844002 0.263816 0.294121
O O8 0.750197 0.000000 0.424925
O O9 0.622086 0.750375 0.399230
O O10 0.545288 0.746206 0.365793
O O11 0.647420 0.000000 0.301391
O O12 0.572202 0.000000 0.516770
O O13 0.893347 0.500000 0.168078
#
# Coordination Sequence:
#
# PCOD9170022 Si02
#       5
#     8   8   8   8   8
#     4  10  17  29  51  76 101 129 161 204 251 296
#     4  11  21  35  53  73  99 133 168 205 242 290
#     4   8  13  24  47  76 100 123 155 200 248 295
#     4   8  14  26  46  73 100 125 159 199 244 293
#     4  11  21  32  46  70 103 135 167 202 243 293
#
# _framework density 17.593192999999999
#
# number of rings (size 3 to 8) (size 9 to 14) (size 15 to 20)
#    0.000    2.400    2.000    5.400    0.000    0.000 
#    0.000    0.000    0.000    7.200    0.000    0.000 
#    0.000    0.000    0.000    0.000    0.000    0.000 
#
# Total GULP energy -111503.255795 kJ/mol
# GULP energy per Si atom -5575.162790 kJ/mol
# Density = 1.755315 g / cm^3
# Si number density = 17.593193 Si / 1000 Ang^3
#
#
#
# Elastic Constant Matrix: (Units=GPa)
#
#
# Indices 1 2 3 4 5 6 
#
# 1 118.4082 3.0209 72.1648 -0.0014 -20.7362 0.0004
# 2 3.0209 26.3398 0.8717 -0.0001 -2.2778 -0.0003
# 3 72.1648 0.8717 115.1932 -0.0028 -26.5211 0.0011
# 4 -0.0014 -0.0001 -0.0028 13.3979 0.0019 10.1992
# 5 -20.7362 -2.2778 -26.5211 0.0019 32.4747 -0.0007
# 6 0.0004 -0.0003 0.0011 10.1992 -0.0007 6.1473
#
#
#
# Elastic Compliance Matrix: (Units=1/GPa)
#
#
# Indices 1 2 3 4 5 6 
#
# 1 0.013816 -0.001135 -0.008170 0.000004 0.002070 -0.000006
# 2 -0.001135 0.038306 0.001075 0.000007 0.002840 -0.000009
# 3 -0.008170 0.001075 0.015527 -0.000009 0.007539 0.000014
# 4 0.000004 0.000007 -0.000009 -0.283762 0.000022 0.470801
# 5 0.002070 0.002840 0.007539 0.000022 0.038471 -0.000033
# 6 -0.000006 -0.000009 0.000014 0.470801 -0.000033 -0.618452
#
#
# Mechanical properties :
#
#
# Convention : Reuss Voigt Hill
#
# Bulk Modulus (GPa) = 19.53574 45.78400 32.65987
# Shear Modulus (GPa) = -6.55677 22.66290 8.05306
#
# Velocity S-wave (km/s) = -1.93261 3.59299 2.14180
# Velocity P-wave (km/s) = 2.47958 6.57974 4.97199
#
# Compressibility (1/GPa) = 0.05118824
#
# Stress axis : x y z
#
# Youngs Moduli (GPa) = 72.37842 26.10589 64.40391
#
# Poissons Ratio (x) = 0.02963 0.52620
# Poissons Ratio (y) = 0.08216 -0.06924
# Poissons Ratio (z) = 0.59135 -0.02807
#
# Static dielectric constant tensor:
#      x y z
#    x 1.606480 0.000000 -0.047820 
#    y 0.000000 1.610640 0.000000 
#    z -0.047820 0.000000 1.599590 
# 
# From -- ./inp_files/236244.got.cif
#   From: 2010.05.17/outbox.cif.g08.bks.cpg/sg12_119_cif.got.tgz:236244.got - 2010.06.03 13:09:07.
