data_PCOD9170834
_publ_section_title
;
Structure prediction by ZEFSAII (Michael W. Deem and Ramdas Pophale) SiO2 
 PCOD9170834
Probable space group: C 2/M
;
_chemical_formula_sum "Si O2"
_cell_formula_units_Z 44
_cell_length_a 25.576584
_cell_length_b 11.978562
_cell_length_c 8.701194
_cell_angle_alpha 90.000000
_cell_angle_beta 125.598320
_cell_angle_gamma 90.000000
_cell_volume 2167.602088
_symmetry_space_group_name_H-M "C 2/M"
_symmetry_group_IT_number 12
_symmetry_cell_setting 'monoclinic'
loop_
_space_group_symop_operation_xyz
x,y,z
-x,y,-z
-x,-y,-z
x,-y,z
1/2+x,1/2+y,z
1/2-x,1/2+y,-z
1/2-x,1/2-y,-z
1/2+x,1/2-y,z
loop_
_atom_site_type_symbol
_atom_site_label
_atom_site_fract_x
_atom_site_fract_y
_atom_site_fract_z
Si Si1 0.289726 0.132043 0.072073
Si Si2 0.567235 0.285579 0.161498
Si Si3 0.000000 0.689066 0.500000
Si Si4 0.889190 0.221505 0.101833
Si Si5 0.883809 0.620310 0.513233
Si Si6 0.966105 0.000000 0.692595
Si Si7 0.102616 0.000000 0.750189
O O1 0.347477 0.167276 0.053969
O O2 0.323399 0.132133 0.297374
O O3 0.270163 0.000000 0.009771
O O4 0.250000 0.250000 0.000000
O O5 0.609781 0.214063 0.349029
O O6 0.546815 0.394570 0.221378
O O7 0.500000 0.226063 0.000000
O O8 0.602079 0.307075 0.060611
O O9 0.956871 0.759095 0.306532
O O10 0.947140 0.627129 0.512415
O O11 0.861333 0.112903 0.141532
O O12 0.881978 0.500000 0.586202
O O13 0.919292 0.000000 0.464080
O O14 0.037778 0.000000 0.744728
#
# Coordination Sequence:
#
# PCOD9170834 Si02
#       7
#     8   8   4   8   8   4   4
#     4  10  24  47  70  92 120 163 227 279 317 375
#     4  12  21  35  53  92 137 171 201 250 325 386
#     4  10  17  35  52  88 124 161 205 246 308 374
#     4  11  22  35  60  91 127 166 210 266 319 386
#     4  10  21  37  59  88 125 162 204 257 314 384
#     4  11  20  33  52  84 140 178 214 254 293 384
#     4  11  19  32  57  86 124 182 222 255 307 366
#
# _framework density 20.298928
#
# number of rings (size 3 to 8) (size 9 to 14) (size 15 to 20)
#    0.000    1.273    3.636    4.364    1.273    1.818 
#    1.636    0.909    0.000    0.000    0.000    0.000 
#    0.000    0.000    0.000    0.000    0.000    0.000 
#
# Total GULP energy -122626.314376 kJ/mol
# GULP energy per Si atom -5573.923381 kJ/mol
# Density = 2.025273 g / cm^3
# Si number density = 20.298928 Si / 1000 Ang^3
#
#
#
# Elastic Constant Matrix: (Units=GPa)
#
#
# Indices 1 2 3 4 5 6 
#
# 1 50.8337 38.7673 35.5692 0.0000 -15.0262 0.0000
# 2 38.7673 151.9928 57.6481 0.0000 4.3037 0.0000
# 3 35.5692 57.6481 73.5144 0.0000 -26.3468 0.0000
# 4 0.0000 0.0000 0.0000 43.0398 0.0000 -38.7357
# 5 -15.0262 4.3037 -26.3468 0.0000 34.2354 0.0000
# 6 0.0000 0.0000 0.0000 -38.7357 0.0000 109.4229
#
#
#
# Elastic Compliance Matrix: (Units=1/GPa)
#
#
# Indices 1 2 3 4 5 6 
#
# 1 0.031959 -0.005155 -0.008508 0.000000 0.008127 0.000000
# 2 -0.005155 0.013079 -0.012651 0.000000 -0.013643 0.000000
# 3 -0.008508 -0.012651 0.037106 0.000000 0.026412 0.000000
# 4 0.000000 0.000000 0.000000 0.034098 0.000000 0.012071
# 5 0.008127 -0.013643 0.026412 0.000000 0.054818 0.000000
# 6 0.000000 0.000000 0.000000 0.012071 0.000000 0.013412
#
#
# Mechanical properties :
#
#
# Convention : Reuss Voigt Hill
#
# Bulk Modulus (GPa) = 33.88068 60.03445 46.95757
# Shear Modulus (GPa) = 20.24802 46.96337 33.60570
#
# Velocity S-wave (km/s) = 3.16174 4.81520 4.07325
# Velocity P-wave (km/s) = 5.48232 7.78166 6.73090
#
# Compressibility (1/GPa) = 0.02951535
#
# Stress axis : x y z
#
# Youngs Moduli (GPa) = 31.29043 76.45994 26.94975
#
# Poissons Ratio (x) = 0.39412 0.22929
# Poissons Ratio (y) = 0.16129 0.34095
# Poissons Ratio (z) = 0.26622 0.96733
#
# Static dielectric constant tensor:
#      x y z
#    x 1.790650 0.000000 0.070400 
#    y 0.000000 1.795970 0.000000 
#    z 0.070400 0.000000 1.708160 
# 
# From -- ./inp_files/103404.got.cif
#   From: 2010.05.17/outbox.cif.g08.bks.cpg/sg12_52_cif.got.tgz:103404.got - 2010.06.03 13:09:07.
