data_PCOD9170693
_publ_section_title
;
Structure prediction by ZEFSAII (Michael W. Deem and Ramdas Pophale) SiO2 
 PCOD9170693
Probable space group: C 2/M
;
_chemical_formula_sum "Si O2"
_cell_formula_units_Z 48
_cell_length_a 15.335445
_cell_length_b 20.202535
_cell_length_c 8.920012
_cell_angle_alpha 90.000000
_cell_angle_beta 61.046572
_cell_angle_gamma 90.000000
_cell_volume 2418.145545
_symmetry_space_group_name_H-M "C 2/M"
_symmetry_group_IT_number 12
_symmetry_cell_setting 'monoclinic'
loop_
_space_group_symop_operation_xyz
x,y,z
-x,y,-z
-x,-y,-z
x,-y,z
1/2+x,1/2+y,z
1/2-x,1/2+y,-z
1/2-x,1/2-y,-z
1/2+x,1/2-y,z
loop_
_atom_site_type_symbol
_atom_site_label
_atom_site_fract_x
_atom_site_fract_y
_atom_site_fract_z
Si Si1 0.939956 0.612311 0.403138
Si Si2 0.373157 0.924029 0.927285
Si Si3 0.643516 0.740896 0.502935
Si Si4 0.405763 0.316268 0.172139
Si Si5 0.243626 0.570953 0.292792
Si Si6 0.223713 0.292123 0.873145
O O1 0.912153 0.689013 0.453365
O O2 0.833466 0.577280 0.504838
O O3 0.000000 0.588780 0.500000
O O4 0.012579 0.597920 0.204111
O O5 0.317963 0.925123 0.810993
O O6 0.371008 0.000000 0.986814
O O7 0.315528 0.866185 0.064104
O O8 0.750000 0.750000 0.500000
O O9 0.577988 0.694925 0.665005
O O10 0.679061 0.712962 0.314467
O O11 0.317981 0.368660 0.231003
O O12 0.365566 0.247847 0.133944
O O13 0.500000 0.338142 0.000000
O O14 0.294893 0.500000 0.256392
O O15 0.250000 0.250000 0.000000
#
# Coordination Sequence:
#
# PCOD9170693 Si02
#       6
#     8   8   8   8   8   8
#     4  10  17  33  56  86 111 145 191 230 283 342
#     4  10  20  33  57  88 117 147 184 236 293 348
#     4  10  20  35  57  81 116 150 186 238 283 337
#     4  11  22  37  57  83 110 151 192 240 285 328
#     4  10  19  34  55  80 113 147 189 238 285 338
#     4  11  19  37  60  83 115 153 194 233 284 346
#
# _framework density 19.849921999999999
#
# number of rings (size 3 to 8) (size 9 to 14) (size 15 to 20)
#    0.000    1.667    5.000    2.500    0.000    2.333 
#    0.000    0.833    0.000    4.500    0.000    2.333 
#    0.000    0.000    0.000    0.000    0.000    0.000 
#
# Total GULP energy -133844.547261 kJ/mol
# GULP energy per Si atom -5576.856136 kJ/mol
# Density = 1.980474 g / cm^3
# Si number density = 19.849922 Si / 1000 Ang^3
#
#
#
# Elastic Constant Matrix: (Units=GPa)
#
#
# Indices 1 2 3 4 5 6 
#
# 1 24.5760 18.6241 20.7447 0.0000 -8.9527 0.0000
# 2 18.6241 163.2232 66.0694 0.0000 -19.2180 0.0000
# 3 20.7447 66.0694 138.9171 0.0000 -11.2970 0.0000
# 4 0.0000 0.0000 0.0000 25.3915 0.0000 -0.6840
# 5 -8.9527 -19.2180 -11.2970 0.0000 21.4982 0.0000
# 6 0.0000 0.0000 0.0000 -0.6840 0.0000 0.5011
#
#
#
# Elastic Compliance Matrix: (Units=1/GPa)
#
#
# Indices 1 2 3 4 5 6 
#
# 1 0.053218 -0.001681 -0.005711 0.000000 0.017658 0.000000
# 2 -0.001681 0.008217 -0.003256 0.000000 0.004935 0.000000
# 3 -0.005711 -0.003256 0.009579 0.000000 -0.000255 0.000000
# 4 0.000000 0.000000 0.000000 0.040887 0.000000 0.055809
# 5 0.017658 0.004935 -0.000255 0.000000 0.058146 0.000000
# 6 0.000000 0.000000 0.000000 0.055809 0.000000 2.071690
#
#
# Mechanical properties :
#
#
# Convention : Reuss Voigt Hill
#
# Bulk Modulus (GPa) = 20.11386 59.73251 39.92319
# Shear Modulus (GPa) = 2.19336 24.23004 13.21170
#
# Velocity S-wave (km/s) = 1.05232 3.49759 2.58268
# Velocity P-wave (km/s) = 3.41049 6.81676 5.38979
#
# Compressibility (1/GPa) = 0.04971696
#
# Stress axis : x y z
#
# Youngs Moduli (GPa) = 18.79073 121.69414 104.39328
#
# Poissons Ratio (x) = 0.20461 0.59624
# Poissons Ratio (y) = 0.03159 0.33988
# Poissons Ratio (z) = 0.10732 0.39621
#
# Static dielectric constant tensor:
#      x y z
#    x 1.723150 0.000000 0.027720 
#    y 0.000000 1.708850 0.000000 
#    z 0.027720 0.000000 1.778990 
# 
# From -- ./inp_files/77016.got.cif
#   From: 2010.05.17/outbox.cif.g08.bks.cpg/sg12_39_cif.got.tgz:77016.got - 2010.06.03 13:09:07.
