data_PCOD9170924
_publ_section_title
;
Structure prediction by ZEFSAII (Michael W. Deem and Ramdas Pophale) SiO2 
 PCOD9170924
Probable space group: C 2/M
;
_chemical_formula_sum "Si O2"
_cell_formula_units_Z 40
_cell_length_a 18.623865
_cell_length_b 19.454071
_cell_length_c 12.188120
_cell_angle_alpha 90.000000
_cell_angle_beta 148.694249
_cell_angle_gamma 90.000000
_cell_volume 2294.511558
_symmetry_space_group_name_H-M "C 2/M"
_symmetry_group_IT_number 12
_symmetry_cell_setting 'monoclinic'
loop_
_space_group_symop_operation_xyz
x,y,z
-x,y,-z
-x,-y,-z
x,-y,z
1/2+x,1/2+y,z
1/2-x,1/2+y,-z
1/2-x,1/2-y,-z
1/2+x,1/2-y,z
loop_
_atom_site_type_symbol
_atom_site_label
_atom_site_fract_x
_atom_site_fract_y
_atom_site_fract_z
Si Si1 0.500000 0.123417 0.000000
Si Si2 0.886543 0.360386 0.446025
Si Si3 0.908999 0.272050 0.688300
Si Si4 0.171136 0.500000 0.502948
Si Si5 0.684975 0.000000 0.270014
Si Si6 0.071756 0.858621 0.973803
Si Si7 0.949777 0.000000 0.747674
O O1 0.543799 0.172508 0.157917
O O2 0.626459 0.070089 0.141769
O O3 0.919571 0.305371 0.582917
O O4 0.875631 0.433152 0.494182
O O5 0.000000 0.361573 0.500000
O O6 0.734013 0.347388 0.199330
O O7 0.750000 0.250000 0.500000
O O8 0.001374 0.204470 0.819913
O O9 0.121902 0.500000 0.312445
O O10 0.337803 0.500000 0.702350
O O11 0.847858 0.000000 0.508924
O O12 0.037513 0.931100 0.872186
O O13 0.000000 0.859711 0.000000
#
# Coordination Sequence:
#
# PCOD9170924 Si02
#       7
#     4   8   8   4   4   8   4
#     4  11  18  32  56  85 120 146 192 247 292 332
#     4  12  25  38  56  89 125 154 192 244 298 355
#     4  12  21  37  60  88 116 151 204 245 286 353
#     4  10  17  37  56  82 120 149 185 242 288 341
#     4   9  18  31  55  86 116 149 188 253 286 325
#     4  12  20  36  62  84 111 156 193 244 298 335
#     4  10  19  35  61  88 116 138 207 249 278 349
#
# _framework density 17.432905000000002
#
# number of rings (size 3 to 8) (size 9 to 14) (size 15 to 20)
#    0.600    0.200    7.000    2.400    0.000    0.800 
#    0.000    0.000    0.000    0.000    0.000    2.100 
#    0.000    0.000    0.000    0.000    0.000    0.000 
#
# Total GULP energy -111616.912441 kJ/mol
# GULP energy per Si atom -5580.845622 kJ/mol
# Density = 1.739323 g / cm^3
# Si number density = 17.432905 Si / 1000 Ang^3
#
#
#
# Elastic Constant Matrix: (Units=GPa)
#
#
# Indices 1 2 3 4 5 6 
#
# 1 62.4094 21.3202 35.3057 0.0000 8.0321 0.0000
# 2 21.3202 155.3471 73.0015 0.0000 -10.7306 0.0000
# 3 35.3057 73.0015 143.3131 0.0000 -0.6263 0.0000
# 4 0.0000 0.0000 0.0000 26.1029 0.0000 -23.2615
# 5 8.0321 -10.7306 -0.6263 0.0000 20.4561 0.0000
# 6 0.0000 0.0000 0.0000 -23.2615 0.0000 -22.4049
#
#
#
# Elastic Compliance Matrix: (Units=1/GPa)
#
#
# Indices 1 2 3 4 5 6 
#
# 1 0.020025 -0.001331 -0.004293 0.000000 -0.008693 0.000000
# 2 -0.001331 0.008949 -0.004208 0.000000 0.005088 0.000000
# 3 -0.004293 -0.004208 0.010178 0.000000 -0.000210 0.000000
# 4 0.000000 0.000000 0.000000 0.019899 0.000000 -0.020660
# 5 -0.008693 0.005088 -0.000210 0.000000 0.054961 0.000000
# 6 0.000000 0.000000 0.000000 -0.020660 0.000000 -0.023183
#
#
# Mechanical properties :
#
#
# Convention : Reuss Voigt Hill
#
# Bulk Modulus (GPa) = 51.31625 68.92492 60.12059
# Shear Modulus (GPa) = 42.73852 20.26030 31.49941
#
# Velocity S-wave (km/s) = 4.95674 3.41278 4.25537
# Velocity P-wave (km/s) = 7.89046 7.42648 7.66198
#
# Compressibility (1/GPa) = 0.01948700
#
# Stress axis : x y z
#
# Youngs Moduli (GPa) = 49.93634 111.74514 98.25059
#
# Poissons Ratio (x) = 0.14877 0.42181
# Poissons Ratio (y) = 0.06648 0.41346
# Poissons Ratio (z) = 0.21439 0.47025
#
# Static dielectric constant tensor:
#      x y z
#    x 1.551040 0.000000 -0.018050 
#    y 0.000000 1.595990 0.000000 
#    z -0.018050 0.000000 1.647540 
# 
# From -- ./inp_files/77821.got.cif
#   From: 2010.05.17/outbox.cif.g08.bks.cpg/sg12_39_cif.got.tgz:77821.got - 2010.06.03 13:09:07.
