data_PCOD9170005
_publ_section_title
;
Structure prediction by ZEFSAII (Michael W. Deem and Ramdas Pophale) SiO2 
 PCOD9170005
Probable space group: C 2/M
;
_chemical_formula_sum "Si O2"
_cell_formula_units_Z 48
_cell_length_a 14.843359
_cell_length_b 9.016568
_cell_length_c 24.917412
_cell_angle_alpha 90.000000
_cell_angle_beta 138.334399
_cell_angle_gamma 90.000000
_cell_volume 2216.948578
_symmetry_space_group_name_H-M "C 2/M"
_symmetry_group_IT_number 12
_symmetry_cell_setting 'monoclinic'
loop_
_space_group_symop_operation_xyz
x,y,z
-x,y,-z
-x,-y,-z
x,-y,z
1/2+x,1/2+y,z
1/2-x,1/2+y,-z
1/2-x,1/2-y,-z
1/2+x,1/2-y,z
loop_
_atom_site_type_symbol
_atom_site_label
_atom_site_fract_x
_atom_site_fract_y
_atom_site_fract_z
Si Si1 0.677724 0.176802 0.358577
Si Si2 0.148220 0.174840 0.131755
Si Si3 0.585977 0.828829 0.482061
Si Si4 0.896666 0.675959 0.066044
Si Si5 0.906812 0.679129 0.191883
Si Si6 0.686784 0.824130 0.683907
O O1 0.777212 0.238340 0.448311
O O2 0.523185 0.232286 0.284016
O O3 0.744366 0.227611 0.331803
O O4 0.675132 0.000000 0.361177
O O5 0.254961 0.233487 0.135472
O O6 0.235447 0.190923 0.225591
O O7 0.006875 0.257463 0.074904
O O8 0.120708 0.000000 0.111219
O O9 0.500000 0.818288 0.500000
O O10 0.473501 0.785950 0.387999
O O11 0.622321 0.000000 0.490045
O O12 0.884733 0.500000 0.054192
O O13 0.949156 0.708442 0.149898
O O14 0.750000 0.750000 0.000000
O O15 0.898988 0.500000 0.194755
O O16 0.693797 0.000000 0.672078
#
# Coordination Sequence:
#
# PCOD9170005 Si02
#       6
#     8   8   8   8   8   8
#     4  10  17  29  50  76 107 146 187 228 272 323
#     4  10  20  38  62  85 109 149 191 224 270 333
#     4   8  15  27  43  71 107 144 184 229 273 317
#     4  11  23  42  63  87 115 144 178 225 278 333
#     4   9  20  37  58  83 115 148 182 225 279 333
#     4   9  17  30  51  76 106 143 187 230 271 320
#
# _framework density 21.651381000000001
#
# number of rings (size 3 to 8) (size 9 to 14) (size 15 to 20)
#    0.000    2.500    1.667    2.000    0.000    3.667 
#    0.000    7.500    0.000    0.000    0.000    0.000 
#    0.000    0.000    0.000    0.000    0.000    0.000 
#
# Total GULP energy -133970.043086 kJ/mol
# GULP energy per Si atom -5582.085129 kJ/mol
# Density = 2.160210 g / cm^3
# Si number density = 21.651381 Si / 1000 Ang^3
#
#
#
# Elastic Constant Matrix: (Units=GPa)
#
#
# Indices 1 2 3 4 5 6 
#
# 1 79.0350 22.8824 17.3593 0.0000 28.0607 0.0000
# 2 22.8824 40.6696 33.7301 0.0000 16.8837 0.0000
# 3 17.3593 33.7301 101.4600 0.0000 39.6695 0.0000
# 4 0.0000 0.0000 0.0000 29.3858 0.0000 8.7425
# 5 28.0607 16.8837 39.6695 0.0000 42.7523 0.0000
# 6 0.0000 0.0000 0.0000 8.7425 0.0000 12.1437
#
#
#
# Elastic Compliance Matrix: (Units=1/GPa)
#
#
# Indices 1 2 3 4 5 6 
#
# 1 0.019061 -0.009365 0.005175 0.000000 -0.013614 0.000000
# 2 -0.009365 0.039137 -0.012192 0.000000 0.002003 0.000000
# 3 0.005175 -0.012192 0.019569 0.000000 -0.016739 0.000000
# 4 0.000000 0.000000 0.000000 0.043305 0.000000 -0.031176
# 5 -0.013614 0.002003 -0.016739 0.000000 0.047068 0.000000
# 6 0.000000 0.000000 0.000000 -0.031176 0.000000 0.104792
#
#
# Mechanical properties :
#
#
# Convention : Reuss Voigt Hill
#
# Bulk Modulus (GPa) = 22.22038 41.01201 31.61619
# Shear Modulus (GPa) = 15.59105 26.66921 21.13013
#
# Velocity S-wave (km/s) = 2.68637 3.51344 3.12737
# Velocity P-wave (km/s) = 4.46175 5.95333 5.26067
#
# Compressibility (1/GPa) = 0.04500374
#
# Stress axis : x y z
#
# Youngs Moduli (GPa) = 52.46353 25.55100 51.10163
#
# Poissons Ratio (x) = 0.23927 -0.26445
# Poissons Ratio (y) = 0.49130 0.62304
# Poissons Ratio (z) = -0.27150 0.31152
#
# Static dielectric constant tensor:
#      x y z
#    x 1.838010 0.000000 -0.020120 
#    y 0.000000 1.722200 0.000000 
#    z -0.020120 0.000000 1.839570 
# 
# From -- ./inp_files/360330.got.cif
#   From: 2010.05.17/outbox.cif.g08.bks.cpg/sg12_181_cif.got.tgz:360330.got - 2010.06.03 13:09:07.
