data_PCOD9170527
_publ_section_title
;
Structure prediction by ZEFSAII (Michael W. Deem and Ramdas Pophale) SiO2 
 PCOD9170527
Probable space group: C 2/M
;
_chemical_formula_sum "Si O2"
_cell_formula_units_Z 64
_cell_length_a 19.853902
_cell_length_b 15.404768
_cell_length_c 12.615812
_cell_angle_alpha 90.000000
_cell_angle_beta 69.415754
_cell_angle_gamma 90.000000
_cell_volume 3612.140064
_symmetry_space_group_name_H-M "C 2/M"
_symmetry_group_IT_number 12
_symmetry_cell_setting 'monoclinic'
loop_
_space_group_symop_operation_xyz
x,y,z
-x,y,-z
-x,-y,-z
x,-y,z
1/2+x,1/2+y,z
1/2-x,1/2+y,-z
1/2-x,1/2-y,-z
1/2+x,1/2-y,z
loop_
_atom_site_type_symbol
_atom_site_label
_atom_site_fract_x
_atom_site_fract_y
_atom_site_fract_z
Si Si1 0.441953 0.351798 0.459947
Si Si2 0.355890 0.377304 0.317056
Si Si3 0.178868 0.680175 0.703151
Si Si4 0.305756 0.904545 0.536246
Si Si5 0.467739 0.896160 0.136233
Si Si6 0.036066 0.746996 0.251717
Si Si7 0.335036 0.256205 0.668326
Si Si8 0.511678 0.598153 0.873514
O O1 0.500000 0.398270 0.500000
O O2 0.407214 0.403770 0.384484
O O3 0.485014 0.270585 0.381382
O O4 0.377767 0.322750 0.570478
O O5 0.351100 0.273026 0.318858
O O6 0.276809 0.409613 0.380212
O O7 0.401977 0.402270 0.190613
O O8 0.193104 0.627471 0.586397
O O9 0.116068 0.633653 0.805182
O O10 0.253611 0.706304 0.720619
O O11 0.336401 0.832383 0.598748
O O12 0.339405 0.000000 0.525111
O O13 0.509930 0.837071 0.200098
O O14 0.473188 0.000000 0.153538
O O15 0.500000 0.880019 0.000000
O O16 0.117115 0.743119 0.252840
O O17 0.023924 0.830541 0.182820
O O18 0.484759 0.500000 0.870432
O O19 0.500000 0.624224 0.000000
#
# Coordination Sequence:
#
# PCOD9170527 Si02
#       8
#     8   8   8   8   8   8   8   8
#     4   9  15  28  52  77 108 142 175 211 274 334
#     4  10  17  32  53  78 107 143 180 224 273 331
#     4  11  19  35  57  82 108 149 192 231 279 340
#     4  11  20  31  52  82 114 144 185 228 276 336
#     4  11  23  39  60  82 109 148 198 245 282 335
#     4  10  20  35  59  83 112 153 184 230 284 344
#     4  10  19  34  55  81 115 152 180 228 288 337
#     4  10  20  35  58  83 107 138 185 233 277 335
#
# _framework density 17.718028
#
# number of rings (size 3 to 8) (size 9 to 14) (size 15 to 20)
#    0.000    1.750    5.000    1.875    0.000    0.500 
#    0.000    1.875    0.000    7.125    0.000    0.000 
#    0.000    0.000    0.000    0.000    0.000    0.000 
#
# Total GULP energy -178165.077950 kJ/mol
# GULP energy per Si atom -5567.658686 kJ/mol
# Density = 1.767770 g / cm^3
# Si number density = 17.718028 Si / 1000 Ang^3
#
#
#
# Elastic Constant Matrix: (Units=GPa)
#
#
# Indices 1 2 3 4 5 6 
#
# 1 119.2439 33.7827 45.7954 0.0000 0.7765 0.0000
# 2 33.7827 97.4220 26.0954 0.0000 5.2597 0.0000
# 3 45.7954 26.0954 94.9070 0.0000 -9.9688 0.0000
# 4 0.0000 0.0000 0.0000 25.6799 0.0000 -1.3586
# 5 0.7765 5.2597 -9.9688 0.0000 19.2572 0.0000
# 6 0.0000 0.0000 0.0000 -1.3586 0.0000 4.8831
#
#
#
# Elastic Compliance Matrix: (Units=1/GPa)
#
#
# Indices 1 2 3 4 5 6 
#
# 1 0.010943 -0.002364 -0.004874 0.000000 -0.002319 0.000000
# 2 -0.002364 0.012040 -0.002649 0.000000 -0.004565 0.000000
# 3 -0.004874 -0.002649 0.014502 0.000000 0.008427 0.000000
# 4 0.000000 0.000000 0.000000 0.039523 0.000000 0.010996
# 5 -0.002319 -0.004565 0.008427 0.000000 0.057631 0.000000
# 6 0.000000 0.000000 0.000000 0.010996 0.000000 0.207845
#
#
# Mechanical properties :
#
#
# Convention : Reuss Voigt Hill
#
# Bulk Modulus (GPa) = 56.46197 58.10220 57.28209
# Shear Modulus (GPa) = 13.58095 23.69068 18.63582
#
# Velocity S-wave (km/s) = 2.77159 3.66060 3.24666
# Velocity P-wave (km/s) = 6.49449 7.12254 6.81575
#
# Compressibility (1/GPa) = 0.01771104
#
# Stress axis : x y z
#
# Youngs Moduli (GPa) = 91.38475 83.05316 68.95584
#
# Poissons Ratio (x) = 0.19633 0.33607
# Poissons Ratio (y) = 0.21603 0.18269
# Poissons Ratio (z) = 0.44539 0.22004
#
# Static dielectric constant tensor:
#      x y z
#    x 1.630980 0.000000 -0.009390 
#    y 0.000000 1.643920 0.000000 
#    z -0.009390 0.000000 1.617650 
# 
# From -- ./inp_files/167236.got.cif
#   From: 2010.05.17/outbox.cif.g08.bks.cpg/sg12_84_cif.got.tgz:167236.got - 2010.06.03 13:09:07.
