data_PCOD9170112
_publ_section_title
;
Structure prediction by ZEFSAII (Michael W. Deem and Ramdas Pophale) SiO2 
 PCOD9170112
Probable space group: C 2/M
;
_chemical_formula_sum "Si O2"
_cell_formula_units_Z 64
_cell_length_a 29.199268
_cell_length_b 14.596479
_cell_length_c 9.387448
_cell_angle_alpha 90.000000
_cell_angle_beta 120.839674
_cell_angle_gamma 90.000000
_cell_volume 3435.271725
_symmetry_space_group_name_H-M "C 2/M"
_symmetry_group_IT_number 12
_symmetry_cell_setting 'monoclinic'
loop_
_space_group_symop_operation_xyz
x,y,z
-x,y,-z
-x,-y,-z
x,-y,z
1/2+x,1/2+y,z
1/2-x,1/2+y,-z
1/2-x,1/2-y,-z
1/2+x,1/2-y,z
loop_
_atom_site_type_symbol
_atom_site_label
_atom_site_fract_x
_atom_site_fract_y
_atom_site_fract_z
Si Si1 0.800234 0.817528 0.673889
Si Si2 0.310160 0.609288 0.982882
Si Si3 0.624801 0.227131 0.446659
Si Si4 0.860820 0.602291 0.990246
Si Si5 0.185306 0.611848 0.784169
Si Si6 0.249484 0.630778 0.336547
Si Si7 0.640242 0.394413 0.650569
Si Si8 0.062216 0.391038 0.132299
O O1 0.827621 0.859535 0.854703
O O2 0.839861 0.768948 0.626283
O O3 0.761530 0.739184 0.672402
O O4 0.766028 0.889604 0.526049
O O5 0.309833 0.500000 0.989126
O O6 0.247900 0.636483 0.902676
O O7 0.348978 0.638061 0.171513
O O8 0.658670 0.162305 0.607454
O O9 0.608825 0.317384 0.512012
O O10 0.580252 0.166169 0.298728
O O11 0.881033 0.500000 0.053056
O O12 0.805450 0.595473 0.814046
O O13 0.903517 0.643592 0.949720
O O14 0.844910 0.641150 0.118440
O O15 0.182473 0.500000 0.766119
O O16 0.299722 0.605719 0.320821
O O17 0.620787 0.500000 0.612843
O O18 0.074668 0.500000 0.172251
O O19 0.000000 0.382614 0.000000
#
# Coordination Sequence:
#
# PCOD9170112 Si02
#       8
#     8   8   8   8   8   8   8   8
#     4  10  21  30  44  78 105 145 190 219 259 317
#     4  10  20  32  46  72 114 156 188 221 254 302
#     4  11  22  36  54  77 108 144 181 228 275 322
#     4  10  19  32  53  77 107 144 179 218 267 323
#     4  10  20  33  51  79 110 149 190 219 259 320
#     4  10  17  30  46  70 107 140 183 218 254 307
#     4  10  21  33  48  74 110 150 185 216 256 308
#     4  10  22  41  62  83 106 134 176 232 287 334
#
# _framework density 18.630258000000001
#
# number of rings (size 3 to 8) (size 9 to 14) (size 15 to 20)
#    0.000    1.875    2.500    3.000    1.750    3.500 
#    0.000    0.625    0.000    3.375    0.000    0.000 
#    0.000    3.000    0.000    0.000    0.000    0.000 
#
# Total GULP energy -178324.509204 kJ/mol
# GULP energy per Si atom -5572.640913 kJ/mol
# Density = 1.858785 g / cm^3
# Si number density = 18.630258 Si / 1000 Ang^3
#
#
#
# Elastic Constant Matrix: (Units=GPa)
#
#
# Indices 1 2 3 4 5 6 
#
# 1 38.8027 13.2585 41.4015 0.0000 -6.5884 0.0000
# 2 13.2585 74.2175 55.1569 0.0000 -2.7456 0.0000
# 3 41.4015 55.1569 134.2045 0.0000 -18.5162 0.0000
# 4 0.0000 0.0000 0.0000 41.5250 0.0000 -6.9199
# 5 -6.5884 -2.7456 -18.5162 0.0000 25.5804 0.0000
# 6 0.0000 0.0000 0.0000 -6.9199 0.0000 18.5315
#
#
#
# Elastic Compliance Matrix: (Units=1/GPa)
#
#
# Indices 1 2 3 4 5 6 
#
# 1 0.038843 0.002746 -0.012988 0.000000 0.000898 0.000000
# 2 0.002746 0.019988 -0.009630 0.000000 -0.004118 0.000000
# 3 -0.012988 -0.009630 0.016455 0.000000 0.007532 0.000000
# 4 0.000000 0.000000 0.000000 0.025680 0.000000 0.009589
# 5 0.000898 -0.004118 0.007532 0.000000 0.044334 0.000000
# 6 0.000000 0.000000 0.000000 0.009589 0.000000 0.057543
#
#
# Mechanical properties :
#
#
# Convention : Reuss Voigt Hill
#
# Bulk Modulus (GPa) = 28.13503 51.87316 40.00410
# Shear Modulus (GPa) = 19.65143 26.28788 22.96966
#
# Velocity S-wave (km/s) = 3.25131 3.76045 3.51511
# Velocity P-wave (km/s) = 5.40641 6.83802 6.16392
#
# Compressibility (1/GPa) = 0.03554288
#
# Stress axis : x y z
#
# Youngs Moduli (GPa) = 25.74457 50.02998 60.77095
#
# Poissons Ratio (x) = -0.13740 0.78928
# Poissons Ratio (y) = -0.07071 0.58525
# Poissons Ratio (z) = 0.33437 0.48181
#
# Static dielectric constant tensor:
#      x y z
#    x 1.633330 0.000000 -0.035810 
#    y 0.000000 1.716310 0.000000 
#    z -0.035810 0.000000 1.695210 
# 
# From -- ./inp_files/104659.got.cif
#   From: 2010.05.17/outbox.cif.g08.bks.cpg/sg12_53_cif.got.tgz:104659.got - 2010.06.03 13:09:07.
