data_PCOD9170190
_publ_section_title
;
Structure prediction by ZEFSAII (Michael W. Deem and Ramdas Pophale) SiO2 
 PCOD9170190
Probable space group: C 2/M
;
_chemical_formula_sum "Si O2"
_cell_formula_units_Z 40
_cell_length_a 17.655562
_cell_length_b 21.323554
_cell_length_c 8.997425
_cell_angle_alpha 90.000000
_cell_angle_beta 138.612488
_cell_angle_gamma 90.000000
_cell_volume 2239.537276
_symmetry_space_group_name_H-M "C 2/M"
_symmetry_group_IT_number 12
_symmetry_cell_setting 'monoclinic'
loop_
_space_group_symop_operation_xyz
x,y,z
-x,y,-z
-x,-y,-z
x,-y,z
1/2+x,1/2+y,z
1/2-x,1/2+y,-z
1/2-x,1/2-y,-z
1/2+x,1/2-y,z
loop_
_atom_site_type_symbol
_atom_site_label
_atom_site_fract_x
_atom_site_fract_y
_atom_site_fract_z
Si Si1 0.752269 0.834978 0.640291
Si Si2 0.737952 0.785888 0.135236
Si Si3 0.419326 0.331468 0.601170
Si Si4 0.003778 0.303734 0.183392
Si Si5 0.419761 0.571733 0.030440
O O1 0.772725 0.768323 0.752899
O O2 0.823957 0.836189 0.592579
O O3 0.617247 0.838966 0.406578
O O4 0.806288 0.889385 0.820810
O O5 0.849442 0.824471 0.346703
O O6 0.750000 0.750000 0.000000
O O7 0.622263 0.826359 0.957288
O O8 0.484331 0.266610 0.733452
O O9 0.506103 0.388625 0.743580
O O10 0.000000 0.301146 0.000000
O O11 0.397972 0.500000 0.039585
O O12 0.500000 0.571880 0.000000
#
# Coordination Sequence:
#
# PCOD9170190 Si02
#       5
#     8   8   8   8   8
#     4  10  18  30  50  72  99 135 167 203 254 308
#     4  11  21  30  47  77 106 131 163 213 258 307
#     4  10  17  30  51  72 100 134 168 202 254 309
#     4  11  16  30  51  72 100 134 165 201 260 316
#     4   9  17  31  52  77 101 131 177 219 248 293
#
# _framework density 17.860831000000001
#
# number of rings (size 3 to 8) (size 9 to 14) (size 15 to 20)
#    0.000    1.800    6.000    1.800    0.000    3.200 
#    0.000    0.000    0.000    4.200    0.000    1.400 
#    0.000    0.000    0.000    0.000    0.000    0.000 
#
# Total GULP energy -111561.473687 kJ/mol
# GULP energy per Si atom -5578.073684 kJ/mol
# Density = 1.782018 g / cm^3
# Si number density = 17.860831 Si / 1000 Ang^3
#
#
#
# Elastic Constant Matrix: (Units=GPa)
#
#
# Indices 1 2 3 4 5 6 
#
# 1 30.1781 -0.9130 31.3700 0.0000 0.0201 0.0000
# 2 -0.9130 97.8848 61.6367 0.0000 13.2694 0.0000
# 3 31.3700 61.6367 180.7363 0.0000 26.0754 0.0000
# 4 0.0000 0.0000 0.0000 20.3173 0.0000 3.0821
# 5 0.0201 13.2694 26.0754 0.0000 22.8466 0.0000
# 6 0.0000 0.0000 0.0000 3.0821 0.0000 10.3513
#
#
#
# Elastic Compliance Matrix: (Units=1/GPa)
#
#
# Indices 1 2 3 4 5 6 
#
# 1 0.045056 0.006282 -0.011290 0.000000 0.009197 0.000000
# 2 0.006282 0.014058 -0.005633 0.000000 -0.001741 0.000000
# 3 -0.011290 -0.005633 0.010702 0.000000 -0.008933 0.000000
# 4 0.000000 0.000000 0.000000 0.051547 0.000000 -0.015348
# 5 0.009197 -0.001741 -0.008933 0.000000 0.054969 0.000000
# 6 0.000000 0.000000 0.000000 -0.015348 0.000000 0.101176
#
#
# Mechanical properties :
#
#
# Convention : Reuss Voigt Hill
#
# Bulk Modulus (GPa) = 20.60363 54.77629 37.68996
# Shear Modulus (GPa) = 15.87461 25.15007 20.51234
#
# Velocity S-wave (km/s) = 2.98450 3.75655 3.39256
# Velocity P-wave (km/s) = 4.84118 7.03922 6.04101
#
# Compressibility (1/GPa) = 0.04853515
#
# Stress axis : x y z
#
# Youngs Moduli (GPa) = 22.19459 71.13381 93.43669
#
# Poissons Ratio (x) = -0.44689 1.05486
# Poissons Ratio (y) = -0.13944 0.52637
# Poissons Ratio (z) = 0.25057 0.40073
#
# Static dielectric constant tensor:
#      x y z
#    x 1.660900 0.000000 0.015590 
#    y 0.000000 1.579140 0.000000 
#    z 0.015590 0.000000 1.651280 
# 
# From -- ./inp_files/48477.got.cif
#   From: 2010.05.17/outbox.cif.g08.bks.cpg/sg12_25_cif.got.tgz:48477.got - 2010.06.03 13:09:07.
