data_PCOD9170814
_publ_section_title
;
Structure prediction by ZEFSAII (Michael W. Deem and Ramdas Pophale) SiO2 
 PCOD9170814
Probable space group: C 2/M
;
_chemical_formula_sum "Si O2"
_cell_formula_units_Z 64
_cell_length_a 21.411001
_cell_length_b 17.073988
_cell_length_c 26.494656
_cell_angle_alpha 90.000000
_cell_angle_beta 20.714338
_cell_angle_gamma 90.000000
_cell_volume 3425.912328
_symmetry_space_group_name_H-M "C 2/M"
_symmetry_group_IT_number 12
_symmetry_cell_setting 'monoclinic'
loop_
_space_group_symop_operation_xyz
x,y,z
-x,y,-z
-x,-y,-z
x,-y,z
1/2+x,1/2+y,z
1/2-x,1/2+y,-z
1/2-x,1/2-y,-z
1/2+x,1/2-y,z
loop_
_atom_site_type_symbol
_atom_site_label
_atom_site_fract_x
_atom_site_fract_y
_atom_site_fract_z
Si Si1 0.473708 0.750697 0.101383
Si Si2 0.958703 0.761036 0.839034
Si Si3 0.959515 0.414571 0.370723
Si Si4 0.018573 0.882861 0.363517
Si Si5 0.952750 0.911118 0.296575
Si Si6 0.794877 0.723072 0.784185
Si Si7 0.384418 0.915759 0.138294
Si Si8 0.115137 0.589428 0.691594
O O1 0.473842 0.714354 0.156359
O O2 0.326245 0.719883 0.174049
O O3 0.430863 0.843233 0.138032
O O4 0.661079 0.741982 0.931325
O O5 0.988465 0.833171 0.777793
O O6 0.040655 0.674111 0.766403
O O7 0.750000 0.750000 0.000000
O O8 0.018793 0.500000 0.341739
O O9 0.759451 0.403568 0.540534
O O10 0.945685 0.411311 0.320760
O O11 0.097994 0.353708 0.285987
O O12 0.059948 0.790828 0.331116
O O13 0.182624 0.914399 0.272043
O O14 0.020801 0.908864 0.303232
O O15 0.828850 0.903850 0.529579
O O16 0.995635 0.000000 0.244700
O O17 0.427810 0.000000 0.127679
O O18 0.500000 0.904924 0.000000
O O19 0.070724 0.500000 0.744999
#
# Coordination Sequence:
#
# PCOD9170814 Si02
#       8
#     8   8   8   8   8   8   8   8
#     4  10  21  37  51  79 110 144 186 224 268 329
#     4  12  25  38  55  80 113 152 185 218 281 341
#     4   9  18  35  60  84 103 135 185 234 278 321
#     4  10  17  34  60  86 110 143 181 226 275 323
#     4  10  21  37  58  84 110 139 185 235 273 322
#     4  10  18  36  59  77 107 141 181 233 272 318
#     4  10  18  31  55  84 111 140 180 224 266 321
#     4  10  21  36  56  85 117 144 180 227 275 333
#
# _framework density 18.681156000000001
#
# number of rings (size 3 to 8) (size 9 to 14) (size 15 to 20)
#    0.000    1.875    2.500    4.875    0.000    3.000 
#    0.000    8.125    0.000    5.250    0.000    0.000 
#    0.000    0.000    0.000    0.000    0.000    0.000 
#
# Total GULP energy -178344.803551 kJ/mol
# GULP energy per Si atom -5573.275111 kJ/mol
# Density = 1.863864 g / cm^3
# Si number density = 18.681156 Si / 1000 Ang^3
#
#
#
# Elastic Constant Matrix: (Units=GPa)
#
#
# Indices 1 2 3 4 5 6 
#
# 1 30.4707 32.2951 18.3512 0.0573 6.4884 -0.0184
# 2 32.2951 133.0389 50.1321 0.0645 -6.2692 0.0103
# 3 18.3512 50.1321 46.3014 0.0693 -2.1348 -0.0100
# 4 0.0573 0.0645 0.0693 12.0113 -0.0033 -6.4614
# 5 6.4884 -6.2692 -2.1348 -0.0033 17.9427 -0.0003
# 6 -0.0184 0.0103 -0.0100 -6.4614 -0.0003 3.0772
#
#
#
# Elastic Compliance Matrix: (Units=1/GPa)
#
#
# Indices 1 2 3 4 5 6 
#
# 1 0.056667 -0.010225 -0.012567 -0.000215 -0.025560 -0.000121
# 2 -0.010225 0.014685 -0.011504 0.000315 0.007460 0.000514
# 3 -0.012567 -0.011504 0.039273 0.000419 0.005198 0.000972
# 4 -0.000215 0.000315 0.000419 -0.642650 0.000098 -1.349397
# 5 -0.025560 0.007460 0.005198 0.000098 0.068201 0.000050
# 6 -0.000121 0.000514 0.000972 -1.349397 0.000050 -2.508415
#
#
# Mechanical properties :
#
#
# Convention : Reuss Voigt Hill
#
# Bulk Modulus (GPa) = 23.79032 45.70753 34.74892
# Shear Modulus (GPa) = -1.73032 13.87507 6.07237
#
# Velocity S-wave (km/s) = -0.96346 2.72827 1.80488
# Velocity P-wave (km/s) = 3.39484 5.86898 4.79426
#
# Compressibility (1/GPa) = 0.04203391
#
# Stress axis : x y z
#
# Youngs Moduli (GPa) = 17.64704 68.09763 25.46263
#
# Poissons Ratio (x) = 0.69627 0.31999
# Poissons Ratio (y) = 0.18043 0.29292
# Poissons Ratio (z) = 0.22177 0.78338
#
# Static dielectric constant tensor:
#      x y z
#    x 1.641070 -0.000010 0.020790 
#    y -0.000010 1.703480 0.000000 
#    z 0.020790 0.000000 1.643340 
# 
# From -- ./inp_files/347863.got.cif
#   From: 2010.05.17/outbox.cif.g08.bks.cpg/sg12_174_cif.got.tgz:347863.got - 2010.06.03 13:09:07.
