data_PCOD9170033
_publ_section_title
;
Structure prediction by ZEFSAII (Michael W. Deem and Ramdas Pophale) SiO2 
 PCOD9170033
Probable space group: C 2/M
;
_chemical_formula_sum "Si O2"
_cell_formula_units_Z 64
_cell_length_a 21.723098
_cell_length_b 23.053692
_cell_length_c 9.613488
_cell_angle_alpha 90.000000
_cell_angle_beta 143.816907
_cell_angle_gamma 90.000000
_cell_volume 2842.272375
_symmetry_space_group_name_H-M "C 2/M"
_symmetry_group_IT_number 12
_symmetry_cell_setting 'monoclinic'
loop_
_space_group_symop_operation_xyz
x,y,z
-x,y,-z
-x,-y,-z
x,-y,z
1/2+x,1/2+y,z
1/2-x,1/2+y,-z
1/2-x,1/2-y,-z
1/2+x,1/2-y,z
loop_
_atom_site_type_symbol
_atom_site_label
_atom_site_fract_x
_atom_site_fract_y
_atom_site_fract_z
Si Si1 0.792085 0.210980 0.754765
Si Si2 0.453692 0.771225 0.217314
Si Si3 0.139939 0.196916 0.578833
Si Si4 0.601845 0.374772 0.259370
Si Si5 0.197684 0.629632 0.978012
Si Si6 0.312111 0.068479 0.740696
Si Si7 0.917456 0.644969 0.707404
Si Si8 0.405522 0.935824 0.437517
O O1 0.733280 0.274073 0.654610
O O2 0.865618 0.181630 0.773434
O O3 0.691175 0.170466 0.553597
O O4 0.870193 0.222211 0.024894
O O5 0.557207 0.744639 0.472459
O O6 0.500842 0.802311 0.162763
O O7 0.394090 0.822575 0.185980
O O8 0.081580 0.151355 0.374710
O O9 0.196868 0.165400 0.807794
O O10 0.700054 0.417344 0.463656
O O11 0.500000 0.400475 0.000000
O O12 0.191536 0.589056 0.104791
O O13 0.185974 0.595261 0.814609
O O14 0.389811 0.111733 0.799197
O O15 0.336800 0.000000 0.775686
O O16 0.945296 0.596453 0.645525
O O17 0.500000 0.938117 0.500000
O O18 0.372963 0.000000 0.417885
#
# Coordination Sequence:
#
# PCOD9170033 Si02
#       8
#     8   8   8   8   8   8   8   8
#     4   9  18  30  51  80 114 147 180 220 278 328
#     4  10  18  34  53  84 117 146 178 226 272 340
#     4   9  18  30  51  80 114 147 180 220 278 328
#     4  10  17  29  51  79 110 149 189 226 273 334
#     4  10  21  37  57  84 113 145 186 226 277 334
#     4  10  22  38  54  82 114 144 188 242 283 314
#     4  10  21  37  57  84 113 145 186 226 277 334
#     4  11  22  40  61  80 108 152 192 228 273 328
#
# _framework density 22.517195000000001
#
# number of rings (size 3 to 8) (size 9 to 14) (size 15 to 20)
#    0.000    2.125    2.500    1.125    0.000    4.750 
#    0.000    7.500    0.000    0.000    0.000    0.875 
#    0.000    0.000    0.000    0.000    0.000    0.000 
#
# Total GULP energy -178509.590671 kJ/mol
# GULP energy per Si atom -5578.424708 kJ/mol
# Density = 2.246594 g / cm^3
# Si number density = 22.517195 Si / 1000 Ang^3
#
#
#
# Elastic Constant Matrix: (Units=GPa)
#
#
# Indices 1 2 3 4 5 6 
#
# 1 41.0526 9.7652 2.3729 0.0000 -13.3953 0.0000
# 2 9.7652 83.7151 29.4291 0.0000 -9.7811 0.0000
# 3 2.3729 29.4291 103.7577 0.0000 7.3424 0.0000
# 4 0.0000 0.0000 0.0000 25.7218 0.0000 -5.5840
# 5 -13.3953 -9.7811 7.3424 0.0000 30.6566 0.0000
# 6 0.0000 0.0000 0.0000 -5.5840 0.0000 9.4023
#
#
#
# Elastic Compliance Matrix: (Units=1/GPa)
#
#
# Indices 1 2 3 4 5 6 
#
# 1 0.028823 -0.001530 -0.001101 0.000000 0.012369 0.000000
# 2 -0.001530 0.014226 -0.004348 0.000000 0.004912 0.000000
# 3 -0.001101 -0.004348 0.011218 0.000000 -0.004555 0.000000
# 4 0.000000 0.000000 0.000000 0.044632 0.000000 0.026506
# 5 0.012369 0.004912 -0.004555 0.000000 0.040682 0.000000
# 6 0.000000 0.000000 0.000000 0.026506 0.000000 0.122098
#
#
# Mechanical properties :
#
#
# Convention : Reuss Voigt Hill
#
# Bulk Modulus (GPa) = 24.80717 34.62888 29.71802
# Shear Modulus (GPa) = 17.29670 25.62002 21.45836
#
# Velocity S-wave (km/s) = 2.77457 3.37679 3.09038
# Velocity P-wave (km/s) = 4.61576 5.53316 5.09515
#
# Compressibility (1/GPa) = 0.04031093
#
# Stress axis : x y z
#
# Youngs Moduli (GPa) = 34.69488 70.29414 89.13899
#
# Poissons Ratio (x) = 0.10755 0.09810
# Poissons Ratio (y) = 0.05308 0.38753
# Poissons Ratio (z) = 0.03818 0.30561
#
# Static dielectric constant tensor:
#      x y z
#    x 1.902340 0.000000 -0.002370 
#    y 0.000000 1.831470 0.000000 
#    z -0.002370 0.000000 1.898500 
# 
# From -- ./inp_files/184968.got.cif
#   From: 2010.05.17/outbox.cif.g08.bks.cpg/sg12_93_cif.got.tgz:184968.got - 2010.06.03 13:09:07.
