data_PCOD9170049
_publ_section_title
;
Structure prediction by ZEFSAII (Michael W. Deem and Ramdas Pophale) SiO2 
 PCOD9170049
Probable space group: C 2/M
;
_chemical_formula_sum "Si O2"
_cell_formula_units_Z 48
_cell_length_a 17.059635
_cell_length_b 15.469274
_cell_length_c 13.611965
_cell_angle_alpha 90.000000
_cell_angle_beta 45.425023
_cell_angle_gamma 90.000000
_cell_volume 2558.841176
_symmetry_space_group_name_H-M "C 2/M"
_symmetry_group_IT_number 12
_symmetry_cell_setting 'monoclinic'
loop_
_space_group_symop_operation_xyz
x,y,z
-x,y,-z
-x,-y,-z
x,-y,z
1/2+x,1/2+y,z
1/2-x,1/2+y,-z
1/2-x,1/2-y,-z
1/2+x,1/2-y,z
loop_
_atom_site_type_symbol
_atom_site_label
_atom_site_fract_x
_atom_site_fract_y
_atom_site_fract_z
Si Si1 0.522051 0.902440 0.864284
Si Si2 0.546331 0.722057 0.071813
Si Si3 0.139150 0.905259 0.716334
Si Si4 0.989836 0.602751 0.620594
Si Si5 0.189857 0.659033 0.573720
Si Si6 0.234703 0.900161 0.849906
O O1 0.445337 0.821264 0.902632
O O2 0.643338 0.868772 0.721959
O O3 0.504949 0.000000 0.838497
O O4 0.500000 0.909633 0.000000
O O5 0.452854 0.668345 0.211050
O O6 0.500000 0.722920 0.000000
O O7 0.657319 0.667708 0.972336
O O8 0.221351 0.904485 0.552639
O O9 0.209535 0.890317 0.754637
O O10 0.086784 0.000000 0.773755
O O11 0.016281 0.500000 0.598841
O O12 0.862499 0.612853 0.759473
O O13 0.000000 0.632828 0.500000
O O14 0.078797 0.650526 0.607908
O O15 0.250000 0.750000 0.500000
O O16 0.206303 0.000000 0.898420
#
# Coordination Sequence:
#
# PCOD9170049 Si02
#       6
#     8   8   8   8   8   8
#     4  10  21  36  53  75 109 155 200 238 276 328
#     4   9  17  30  49  78 113 143 186 231 280 340
#     4  10  17  29  52  81 113 145 178 231 292 348
#     4  10  19  33  55  85 119 151 186 237 307 367
#     4  12  22  35  55  83 113 148 194 247 292 340
#     4   9  17  30  52  82 116 149 177 222 295 363
#
# _framework density 18.758492
#
# number of rings (size 3 to 8) (size 9 to 14) (size 15 to 20)
#    0.000    2.000    3.333    2.000    0.000    2.000 
#    0.000    0.833    0.000    0.000    0.000    2.333 
#    0.000   11.333    0.000    0.000    0.000    0.000 
#
# Total GULP energy -133662.597827 kJ/mol
# GULP energy per Si atom -5569.274909 kJ/mol
# Density = 1.871580 g / cm^3
# Si number density = 18.758492 Si / 1000 Ang^3
#
#
#
# Elastic Constant Matrix: (Units=GPa)
#
#
# Indices 1 2 3 4 5 6 
#
# 1 42.1997 26.5488 16.4179 0.0000 -7.0637 0.0000
# 2 26.5488 153.7937 52.5212 0.0000 -24.5356 0.0000
# 3 16.4179 52.5212 125.2538 0.0000 1.2134 0.0000
# 4 0.0000 0.0000 0.0000 31.5409 0.0000 -8.8524
# 5 -7.0637 -24.5356 1.2134 0.0000 29.8999 0.0000
# 6 0.0000 0.0000 0.0000 -8.8524 0.0000 18.8636
#
#
#
# Elastic Compliance Matrix: (Units=1/GPa)
#
#
# Indices 1 2 3 4 5 6 
#
# 1 0.027300 -0.003354 -0.002209 0.000000 0.003787 0.000000
# 2 -0.003354 0.009439 -0.003587 0.000000 0.007098 0.000000
# 3 -0.002209 -0.003587 0.009815 0.000000 -0.003863 0.000000
# 4 0.000000 0.000000 0.000000 0.036514 0.000000 0.017136
# 5 0.003787 0.007098 -0.003863 0.000000 0.040321 0.000000
# 6 0.000000 0.000000 0.000000 0.017136 0.000000 0.061054
#
#
# Mechanical properties :
#
#
# Convention : Reuss Voigt Hill
#
# Bulk Modulus (GPa) = 35.39328 56.91367 46.15347
# Shear Modulus (GPa) = 23.56710 31.11151 27.33930
#
# Velocity S-wave (km/s) = 3.54834 4.07692 3.82178
# Velocity P-wave (km/s) = 5.97465 7.25037 6.64320
#
# Compressibility (1/GPa) = 0.02825395
#
# Stress axis : x y z
#
# Youngs Moduli (GPa) = 36.62972 105.94730 101.88746
#
# Poissons Ratio (x) = 0.35539 0.22502
# Poissons Ratio (y) = 0.12287 0.36546
# Poissons Ratio (z) = 0.08090 0.38002
#
# Static dielectric constant tensor:
#      x y z
#    x 1.630390 0.000000 0.051030 
#    y 0.000000 1.706590 0.000000 
#    z 0.051030 0.000000 1.704050 
# 
# From -- ./inp_files/225085.got.cif
#   From: 2010.05.17/outbox.cif.g08.bks.cpg/sg12_113_cif.got.tgz:225085.got - 2010.06.03 13:09:07.
