data_PCOD9170127
_publ_section_title
;
Structure prediction by ZEFSAII (Michael W. Deem and Ramdas Pophale) SiO2 
 PCOD9170127
Probable space group: C 2/M
;
_chemical_formula_sum "Si O2"
_cell_formula_units_Z 56
_cell_length_a 11.382445
_cell_length_b 23.409027
_cell_length_c 18.416243
_cell_angle_alpha 90.000000
_cell_angle_beta 138.596753
_cell_angle_gamma 90.000000
_cell_volume 3245.295068
_symmetry_space_group_name_H-M "C 2/M"
_symmetry_group_IT_number 12
_symmetry_cell_setting 'monoclinic'
loop_
_space_group_symop_operation_xyz
x,y,z
-x,y,-z
-x,-y,-z
x,-y,z
1/2+x,1/2+y,z
1/2-x,1/2+y,-z
1/2-x,1/2-y,-z
1/2+x,1/2-y,z
loop_
_atom_site_type_symbol
_atom_site_label
_atom_site_fract_x
_atom_site_fract_y
_atom_site_fract_z
Si Si1 0.297988 0.307953 0.979120
Si Si2 0.466062 0.646863 0.191339
Si Si3 0.300801 0.819330 0.432201
Si Si4 0.347084 0.194004 0.611738
Si Si5 0.284011 0.251354 0.200364
Si Si6 0.904153 0.344888 0.793685
Si Si7 0.813965 0.432602 0.872043
O O1 0.316110 0.288538 0.903985
O O2 0.116863 0.344854 0.898227
O O3 0.250000 0.250000 0.000000
O O4 0.444080 0.339267 0.096145
O O5 0.663155 0.649947 0.314745
O O6 0.369067 0.698203 0.190717
O O7 0.351937 0.591371 0.159010
O O8 0.500000 0.830208 0.500000
O O9 0.275137 0.834696 0.505411
O O10 0.261964 0.751043 0.417294
O O11 0.548513 0.216950 0.689988
O O12 0.352835 0.155623 0.685796
O O13 0.163959 0.284667 0.202623
O O14 0.822987 0.395889 0.802572
O O15 0.802060 0.500000 0.854631
O O16 0.000000 0.420234 0.000000
#
# Coordination Sequence:
#
# PCOD9170127 Si02
#       7
#     8   8   8   8   8   8   8
#     4   9  16  25  40  66  96 126 157 193 240 300
#     4   9  17  30  45  70  97 124 163 208 245 294
#     4  10  19  32  48  69 101 139 176 204 236 294
#     4   9  18  30  46  70 101 137 177 201 237 294
#     4   8  16  26  43  65  94 132 160 193 241 299
#     4  10  17  30  47  70 104 137 160 202 255 301
#     4  10  19  32  53  78 101 129 165 209 264 312
#
# _framework density 17.255749000000002
#
# number of rings (size 3 to 8) (size 9 to 14) (size 15 to 20)
#    0.000    2.714    1.429    1.714    0.000    1.143 
#    0.000    4.286    0.000    2.143    0.000    0.000 
#    0.000    2.286    0.000    0.000    0.000    0.000 
#
# Total GULP energy -156084.541261 kJ/mol
# GULP energy per Si atom -5574.447902 kJ/mol
# Density = 1.721647 g / cm^3
# Si number density = 17.255749 Si / 1000 Ang^3
#
#
#
# Elastic Constant Matrix: (Units=GPa)
#
#
# Indices 1 2 3 4 5 6 
#
# 1 67.1458 25.8412 46.0468 0.0000 -1.6197 0.0000
# 2 25.8412 51.2547 29.0507 0.0000 -5.4880 0.0000
# 3 46.0468 29.0507 125.2202 0.0000 -5.2676 0.0000
# 4 0.0000 0.0000 0.0000 11.7462 0.0000 0.1390
# 5 -1.6197 -5.4880 -5.2676 0.0000 35.4529 0.0000
# 6 0.0000 0.0000 0.0000 0.1390 0.0000 14.1609
#
#
#
# Elastic Compliance Matrix: (Units=1/GPa)
#
#
# Indices 1 2 3 4 5 6 
#
# 1 0.022241 -0.007682 -0.006444 0.000000 -0.001130 0.000000
# 2 -0.007682 0.025381 -0.002931 0.000000 0.003142 0.000000
# 3 -0.006444 -0.002931 0.011073 0.000000 0.000897 0.000000
# 4 0.000000 0.000000 0.000000 0.085144 0.000000 -0.000836
# 5 -0.001130 0.003142 0.000897 0.000000 0.028775 0.000000
# 6 0.000000 0.000000 0.000000 -0.000836 0.000000 0.070625
#
#
# Mechanical properties :
#
#
# Convention : Reuss Voigt Hill
#
# Bulk Modulus (GPa) = 40.68148 49.49980 45.09064
# Shear Modulus (GPa) = 17.51015 21.78411 19.64713
#
# Velocity S-wave (km/s) = 3.18896 3.55692 3.37795
# Velocity P-wave (km/s) = 6.09804 6.75405 6.43441
#
# Compressibility (1/GPa) = 0.02458121
#
# Stress axis : x y z
#
# Youngs Moduli (GPa) = 44.96136 39.39888 90.30659
#
# Poissons Ratio (x) = 0.30267 0.58194
# Poissons Ratio (y) = 0.34540 0.26472
# Poissons Ratio (z) = 0.28973 0.11549
#
# Static dielectric constant tensor:
#      x y z
#    x 1.641560 0.000000 0.008480 
#    y 0.000000 1.547690 0.000000 
#    z 0.008480 0.000000 1.645970 
# 
# From -- ./inp_files/265585.got.cif
#   From: 2010.05.17/outbox.cif.g08.bks.cpg/sg12_133_cif.got.tgz:265585.got - 2010.06.03 13:09:07.
