data_PCOD9170027
_publ_section_title
;
Structure prediction by ZEFSAII (Michael W. Deem and Ramdas Pophale) SiO2 
 PCOD9170027
Probable space group: C 2/M
;
_chemical_formula_sum "Si O2"
_cell_formula_units_Z 56
_cell_length_a 30.774754
_cell_length_b 7.692568
_cell_length_c 17.467313
_cell_angle_alpha 90.000000
_cell_angle_beta 133.432218
_cell_angle_gamma 90.000000
_cell_volume 3002.902449
_symmetry_space_group_name_H-M "C 2/M"
_symmetry_group_IT_number 12
_symmetry_cell_setting 'monoclinic'
loop_
_space_group_symop_operation_xyz
x,y,z
-x,y,-z
-x,-y,-z
x,-y,z
1/2+x,1/2+y,z
1/2-x,1/2+y,-z
1/2-x,1/2-y,-z
1/2+x,1/2-y,z
loop_
_atom_site_type_symbol
_atom_site_label
_atom_site_fract_x
_atom_site_fract_y
_atom_site_fract_z
Si Si1 0.407029 0.289806 0.421448
Si Si2 0.007656 0.707235 0.793824
Si Si3 0.701332 0.203781 0.605675
Si Si4 0.444276 0.212261 0.987195
Si Si5 0.971714 0.791101 0.349647
Si Si6 0.870081 0.713395 0.629415
Si Si7 0.835106 0.703859 0.754996
O O1 0.406639 0.500000 0.421976
O O2 0.344923 0.229281 0.381217
O O3 0.424451 0.232517 0.356744
O O4 0.462451 0.230690 0.542401
O O5 0.002965 0.500000 0.797514
O O6 0.038403 0.740668 0.749813
O O7 0.939053 0.771854 0.707049
O O8 0.041741 0.774675 0.910072
O O9 0.669087 0.274774 0.489932
O O10 0.766774 0.279950 0.697183
O O11 0.710547 0.000000 0.605016
O O12 0.383419 0.275618 0.873562
O O13 0.441994 0.000000 0.987697
O O14 0.500000 0.256913 0.000000
O O15 0.972861 0.000000 0.354621
O O16 0.869711 0.500000 0.626141
O O17 0.844146 0.772546 0.679649
O O18 0.849598 0.500000 0.765976
#
# Coordination Sequence:
#
# PCOD9170027 Si02
#       7
#     8   8   8   8   8   8   8
#     4   9  18  33  51  71  98 131 165 197 238 299
#     4  10  17  29  51  77 102 127 161 205 246 286
#     4  11  21  32  47  73 105 133 162 202 249 292
#     4   9  16  29  52  75  95 127 172 211 237 275
#     4   9  18  32  50  74 101 128 159 199 248 298
#     4   9  17  29  47  72 101 131 163 198 239 287
#     4  10  19  33  51  70  97 137 175 201 234 286
#
# _framework density 18.648623000000001
#
# number of rings (size 3 to 8) (size 9 to 14) (size 15 to 20)
#    0.000    2.429    2.857    1.714    0.000    0.571 
#    0.000    3.571    0.000    1.714    0.000    0.000 
#    0.000    0.000    0.000    0.000    0.000    0.000 
#
# Total GULP energy -156209.514519 kJ/mol
# GULP energy per Si atom -5578.911233 kJ/mol
# Density = 1.860618 g / cm^3
# Si number density = 18.648623 Si / 1000 Ang^3
#
#
#
# Elastic Constant Matrix: (Units=GPa)
#
#
# Indices 1 2 3 4 5 6 
#
# 1 125.9625 -12.4583 85.3283 0.0000 -13.8984 0.0000
# 2 -12.4583 25.1014 1.0183 0.0000 -1.1509 0.0000
# 3 85.3283 1.0183 145.7168 0.0000 -4.0220 0.0000
# 4 0.0000 0.0000 0.0000 8.3758 0.0000 -3.3103
# 5 -13.8984 -1.1509 -4.0220 0.0000 29.0840 0.0000
# 6 0.0000 0.0000 0.0000 -3.3103 0.0000 32.2079
#
#
#
# Elastic Compliance Matrix: (Units=1/GPa)
#
#
# Indices 1 2 3 4 5 6 
#
# 1 0.015596 0.008406 -0.009011 0.000000 0.006539 0.000000
# 2 0.008406 0.044450 -0.005093 0.000000 0.005071 0.000000
# 3 -0.009011 -0.005093 0.012096 0.000000 -0.002835 0.000000
# 4 0.000000 0.000000 0.000000 0.124446 0.000000 0.012790
# 5 0.006539 0.005071 -0.002835 0.000000 0.037317 0.000000
# 6 0.000000 0.000000 0.000000 0.012790 0.000000 0.032363
#
#
# Mechanical properties :
#
#
# Convention : Reuss Voigt Hill
#
# Bulk Modulus (GPa) = 16.46196 49.39524 32.92860
# Shear Modulus (GPa) = 16.78350 28.79304 22.78827
#
# Velocity S-wave (km/s) = 3.00323 3.93361 3.49948
# Velocity P-wave (km/s) = 4.56864 6.86847 5.83302
#
# Compressibility (1/GPa) = 0.06074612
#
# Stress axis : x y z
#
# Youngs Moduli (GPa) = 64.12001 22.49743 82.66887
#
# Poissons Ratio (x) = -0.18911 0.74491
# Poissons Ratio (y) = -0.53898 0.42102
# Poissons Ratio (z) = 0.57777 0.11458
#
# Static dielectric constant tensor:
#      x y z
#    x 1.633060 0.000000 -0.019200 
#    y 0.000000 1.704990 0.000000 
#    z -0.019200 0.000000 1.643620 
# 
# From -- ./inp_files/287852.got.cif
#   From: 2010.05.17/outbox.cif.g08.bks.cpg/sg12_144_cif.got.tgz:287852.got - 2010.06.03 13:09:07.
