data_PCOD9170292
_publ_section_title
;
Structure prediction by ZEFSAII (Michael W. Deem and Ramdas Pophale) SiO2 
 PCOD9170292
Probable space group: C 2/M
;
_chemical_formula_sum "Si O2"
_cell_formula_units_Z 64
_cell_length_a 17.465302
_cell_length_b 14.334190
_cell_length_c 19.443745
_cell_angle_alpha 90.000000
_cell_angle_beta 145.897147
_cell_angle_gamma 90.000000
_cell_volume 2729.256877
_symmetry_space_group_name_H-M "C 2/M"
_symmetry_group_IT_number 12
_symmetry_cell_setting 'monoclinic'
loop_
_space_group_symop_operation_xyz
x,y,z
-x,y,-z
-x,-y,-z
x,-y,z
1/2+x,1/2+y,z
1/2-x,1/2+y,-z
1/2-x,1/2-y,-z
1/2+x,1/2-y,z
loop_
_atom_site_type_symbol
_atom_site_label
_atom_site_fract_x
_atom_site_fract_y
_atom_site_fract_z
Si Si1 0.166536 0.886513 0.567490
Si Si2 0.318008 0.888681 0.303688
Si Si3 0.358194 0.110831 0.478230
Si Si4 0.195151 0.647921 0.939497
Si Si5 0.883338 0.887303 0.311999
Si Si6 0.915537 0.386156 0.667199
Si Si7 0.884454 0.145964 0.962855
Si Si8 0.889359 0.644090 0.974154
O O1 0.148325 0.860073 0.632925
O O2 0.314262 0.859306 0.652217
O O3 0.041469 0.854968 0.425270
O O4 0.161337 0.000000 0.562252
O O5 0.479440 0.878941 0.412787
O O6 0.284969 0.852285 0.355682
O O7 0.237379 0.843316 0.182430
O O8 0.290154 0.000000 0.279747
O O9 0.340082 0.145013 0.541454
O O10 0.328461 0.000000 0.456306
O O11 0.138297 0.604907 0.969183
O O12 0.250000 0.750000 0.000000
O O13 0.316892 0.605257 0.982311
O O14 0.064368 0.652714 0.792526
O O15 0.760997 0.857291 0.171999
O O16 0.883618 0.000000 0.307458
O O17 0.930368 0.500000 0.674871
O O18 0.936608 0.249165 0.020633
O O19 0.000000 0.100748 0.000000
O O20 0.000000 0.605465 0.000000
#
# Coordination Sequence:
#
# PCOD9170292 Si02
#       8
#     8   8   8   8   8   8   8   8
#     4   8  16  30  52  79 106 137 165 209 275 328
#     4   9  16  31  52  76 104 133 171 219 267 309
#     4   8  15  27  49  76 102 129 163 217 264 300
#     4  10  21  36  54  74 105 142 178 225 266 308
#     4   9  17  33  53  76 108 136 168 218 273 323
#     4  10  17  30  55  82 106 138 181 216 262 331
#     4  10  21  37  53  72 104 149 183 215 264 318
#     4  10  21  36  55  77 103 144 183 221 265 313
#
# _framework density 23.449605999999999
#
# number of rings (size 3 to 8) (size 9 to 14) (size 15 to 20)
#    0.000    2.750    1.250    2.250    0.000    1.000 
#    2.250    2.500    0.000    3.000    0.000    0.000 
#    0.000    0.000    0.000    0.000    0.000    0.000 
#
# Total GULP energy -178310.935682 kJ/mol
# GULP energy per Si atom -5572.216740 kJ/mol
# Density = 2.339623 g / cm^3
# Si number density = 23.449606 Si / 1000 Ang^3
#
#
#
# Elastic Constant Matrix: (Units=GPa)
#
#
# Indices 1 2 3 4 5 6 
#
# 1 168.2141 12.2893 34.0331 -0.0002 -2.9476 -0.0001
# 2 12.2893 81.4362 0.5455 0.0000 -0.3265 0.0000
# 3 34.0331 0.5455 74.2827 -0.0001 -10.4278 -0.0001
# 4 -0.0002 0.0000 -0.0001 22.5240 0.0001 2.0888
# 5 -2.9476 -0.3265 -10.4278 0.0001 38.0650 0.0000
# 6 -0.0001 0.0000 -0.0001 2.0888 0.0000 -0.7256
#
#
#
# Elastic Compliance Matrix: (Units=1/GPa)
#
#
# Indices 1 2 3 4 5 6 
#
# 1 0.006634 -0.000982 -0.003080 0.000000 -0.000338 0.000000
# 2 -0.000982 0.012426 0.000377 0.000000 0.000134 0.000000
# 3 -0.003080 0.000377 0.015431 0.000000 0.003992 -0.000001
# 4 0.000000 0.000000 0.000000 0.035042 0.000000 0.100880
# 5 -0.000338 0.000134 0.003992 0.000000 0.027339 0.000000
# 6 0.000000 0.000000 -0.000001 0.100880 0.000000 -1.087834
#
#
# Mechanical properties :
#
#
# Convention : Reuss Voigt Hill
#
# Bulk Modulus (GPa) = 36.87034 46.40764 41.63899
# Shear Modulus (GPa) = -5.13055 30.44369 12.65657
#
# Velocity S-wave (km/s) = -1.48076 3.60705 2.32574
# Velocity P-wave (km/s) = 3.58243 6.09763 5.00074
#
# Compressibility (1/GPa) = 0.02712207
#
# Stress axis : x y z
#
# Youngs Moduli (GPa) = 150.74638 80.47818 64.80622
#
# Poissons Ratio (x) = 0.07901 0.19957
# Poissons Ratio (y) = 0.14800 -0.02446
# Poissons Ratio (z) = 0.46423 -0.03037
#
# Static dielectric constant tensor:
#      x y z
#    x 1.952100 0.000000 -0.023450 
#    y 0.000000 1.927070 0.000000 
#    z -0.023450 0.000000 1.850110 
# 
# From -- ./inp_files/279151.got.cif
#   From: 2010.05.17/outbox.cif.g08.bks.cpg/sg12_140_cif.got.tgz:279151.got - 2010.06.03 13:09:07.
