data_PCOD9170612
_publ_section_title
;
Structure prediction by ZEFSAII (Michael W. Deem and Ramdas Pophale) SiO2 
 PCOD9170612
Probable space group: C 2/M
;
_chemical_formula_sum "Si O2"
_cell_formula_units_Z 44
_cell_length_a 28.303362
_cell_length_b 11.814746
_cell_length_c 9.857024
_cell_angle_alpha 90.000000
_cell_angle_beta 44.291158
_cell_angle_gamma 90.000000
_cell_volume 2301.724155
_symmetry_space_group_name_H-M "C 2/M"
_symmetry_group_IT_number 12
_symmetry_cell_setting 'monoclinic'
loop_
_space_group_symop_operation_xyz
x,y,z
-x,y,-z
-x,-y,-z
x,-y,z
1/2+x,1/2+y,z
1/2-x,1/2+y,-z
1/2-x,1/2-y,-z
1/2+x,1/2-y,z
loop_
_atom_site_type_symbol
_atom_site_label
_atom_site_fract_x
_atom_site_fract_y
_atom_site_fract_z
Si Si1 0.114100 0.500000 0.008244
Si Si2 0.385347 0.000000 0.304009
Si Si3 0.585186 0.366240 0.206905
Si Si4 0.684928 0.237479 0.827407
Si Si5 0.444031 0.258162 0.449013
Si Si6 0.162720 0.744773 0.562518
Si Si7 0.531546 0.000000 0.606169
O O1 0.091123 0.500000 0.898284
O O2 0.155577 0.615860 0.933107
O O3 0.049281 0.500000 0.237993
O O4 0.340755 0.109144 0.423881
O O5 0.447031 0.000000 0.280085
O O6 0.574006 0.500000 0.217555
O O7 0.521859 0.297561 0.270771
O O8 0.583512 0.329157 0.367419
O O9 0.654384 0.327297 0.994525
O O10 0.765351 0.223847 0.648815
O O11 0.660143 0.275714 0.727129
O O12 0.399299 0.279002 0.406902
O O13 0.442394 0.124088 0.491808
#
# Coordination Sequence:
#
# PCOD9170612 Si02
#       7
#     4   4   8   8   8   8   4
#     4  10  17  33  54  88 118 140 180 238 287 335
#     4   8  17  30  57  84 119 144 177 228 289 343
#     4  11  24  41  59  80 115 161 193 239 287 337
#     4  10  21  38  60  87 119 148 189 235 288 344
#     4  10  21  39  60  84 117 149 194 236 285 342
#     4   9  20  38  60  89 114 152 188 233 288 342
#     4  10  17  32  60  89 106 146 181 237 285 337
#
# _framework density 19.116105000000001
#
# number of rings (size 3 to 8) (size 9 to 14) (size 15 to 20)
#    0.000    2.182    1.818    1.364    1.273    3.636 
#    4.909    0.909    0.000    0.000    0.000    0.000 
#    0.000    0.000    0.000    0.000    0.000    0.000 
#
# Total GULP energy -122630.405612 kJ/mol
# GULP energy per Si atom -5574.109346 kJ/mol
# Density = 1.907260 g / cm^3
# Si number density = 19.116105 Si / 1000 Ang^3
#
#
#
# Elastic Constant Matrix: (Units=GPa)
#
#
# Indices 1 2 3 4 5 6 
#
# 1 39.2362 4.7295 -11.7832 0.0000 6.6405 0.0000
# 2 4.7295 86.9118 9.8128 0.0000 -1.6868 0.0000
# 3 -11.7832 9.8128 40.7596 0.0000 -11.9571 0.0000
# 4 0.0000 0.0000 0.0000 15.8092 0.0000 8.3154
# 5 6.6405 -1.6868 -11.9571 0.0000 14.5456 0.0000
# 6 0.0000 0.0000 0.0000 8.3154 0.0000 8.9723
#
#
#
# Elastic Compliance Matrix: (Units=1/GPa)
#
#
# Indices 1 2 3 4 5 6 
#
# 1 0.029160 -0.002495 0.006642 0.000000 -0.008142 0.000000
# 2 -0.002495 0.012059 -0.003795 0.000000 -0.000582 0.000000
# 3 0.006642 -0.003795 0.034723 0.000000 0.025071 0.000000
# 4 0.000000 0.000000 0.000000 0.123416 0.000000 -0.114380
# 5 -0.008142 -0.000582 0.025071 0.000000 0.093008 0.000000
# 6 0.000000 0.000000 0.000000 -0.114380 0.000000 0.217460
#
#
# Mechanical properties :
#
#
# Convention : Reuss Voigt Hill
#
# Bulk Modulus (GPa) = 13.04705 19.15843 16.10274
# Shear Modulus (GPa) = 9.35155 18.80865 14.08010
#
# Velocity S-wave (km/s) = 2.21418 3.14015 2.71690
# Velocity P-wave (km/s) = 3.65743 4.81573 4.27598
#
# Compressibility (1/GPa) = 0.07664567
#
# Stress axis : x y z
#
# Youngs Moduli (GPa) = 34.29347 82.92653 28.79967
#
# Poissons Ratio (x) = 0.20688 -0.19129
# Poissons Ratio (y) = 0.08555 0.10930
# Poissons Ratio (z) = -0.22778 0.31472
#
# Static dielectric constant tensor:
#      x y z
#    x 1.691710 0.000000 0.003250 
#    y 0.000000 1.659610 0.000000 
#    z 0.003250 0.000000 1.686740 
# 
# From -- ./inp_files/109789.got.cif
#   From: 2010.05.17/outbox.cif.g08.bks.cpg/sg12_55_cif.got.tgz:109789.got - 2010.06.03 13:09:07.
