data_PCOD9170356
_publ_section_title
;
Structure prediction by ZEFSAII (Michael W. Deem and Ramdas Pophale) SiO2 
 PCOD9170356
Probable space group: C 2/M
;
_chemical_formula_sum "Si O2"
_cell_formula_units_Z 60
_cell_length_a 27.963936
_cell_length_b 8.473539
_cell_length_c 28.238066
_cell_angle_alpha 90.000000
_cell_angle_beta 29.445157
_cell_angle_gamma 90.000000
_cell_volume 3289.283688
_symmetry_space_group_name_H-M "C 2/M"
_symmetry_group_IT_number 12
_symmetry_cell_setting 'monoclinic'
loop_
_space_group_symop_operation_xyz
x,y,z
-x,y,-z
-x,-y,-z
x,-y,z
1/2+x,1/2+y,z
1/2-x,1/2+y,-z
1/2-x,1/2-y,-z
1/2+x,1/2-y,z
loop_
_atom_site_type_symbol
_atom_site_label
_atom_site_fract_x
_atom_site_fract_y
_atom_site_fract_z
Si Si1 0.293820 0.312740 0.670458
Si Si2 0.000000 0.759264 0.500000
Si Si3 0.540305 0.808624 0.017454
Si Si4 0.644939 0.814433 0.649706
Si Si5 0.112005 0.815495 0.775250
Si Si6 0.252818 0.689591 0.814581
Si Si7 0.466023 0.320735 0.638372
Si Si8 0.858878 0.313630 0.454688
O O1 0.322396 0.500000 0.641817
O O2 0.389658 0.203152 0.583758
O O3 0.210635 0.274886 0.704986
O O4 0.248872 0.286902 0.761293
O O5 0.976499 0.829848 0.572247
O O6 0.472815 0.741275 0.116710
O O7 0.537758 0.000000 0.022299
O O8 0.500000 0.766031 0.000000
O O9 0.652523 0.753768 0.923582
O O10 0.593292 0.722708 0.736576
O O11 0.760318 0.777542 0.552400
O O12 0.614396 0.770881 0.622600
O O13 0.628962 0.000000 0.670189
O O14 0.128556 0.000000 0.767618
O O15 0.256376 0.500000 0.817994
O O16 0.358236 0.748776 0.740557
O O17 0.471651 0.500000 0.651600
O O18 0.553236 0.225294 0.586215
O O19 0.836683 0.500000 0.474815
#
# Coordination Sequence:
#
# PCOD9170356 Si02
#       8
#     8   4   8   8   8   8   8   8
#     4  10  17  31  50  72 102 141 182 214 251 307
#     4  10  19  30  51  78 105 138 181 216 241 300
#     4  10  18  34  57  77 102 143 187 225 262 313
#     4  10  21  38  58  78 103 141 182 219 263 319
#     4  12  24  34  50  80 112 137 171 225 278 320
#     4   8  16  30  50  75 102 138 186 219 246 307
#     4  10  18  31  52  78 108 144 179 213 255 312
#     4  10  21  37  57  82 110 137 174 222 269 316
#
# _framework density 18.241054999999999
#
# number of rings (size 3 to 8) (size 9 to 14) (size 15 to 20)
#    0.000    2.000    1.333    4.800    0.000    1.867 
#    0.000    4.000    0.000    0.800    0.000    0.000 
#    0.000    0.000    0.000    0.000    0.000    0.000 
#
# Total GULP energy -167147.569507 kJ/mol
# GULP energy per Si atom -5571.585650 kJ/mol
# Density = 1.819954 g / cm^3
# Si number density = 18.241055 Si / 1000 Ang^3
#
#
#
# Elastic Constant Matrix: (Units=GPa)
#
#
# Indices 1 2 3 4 5 6 
#
# 1 78.6790 12.5089 37.3916 0.0013 0.8224 -0.0016
# 2 12.5089 24.9106 14.9654 -0.0004 4.2832 0.0039
# 3 37.3916 14.9654 108.8193 0.0011 3.7521 0.0004
# 4 0.0013 -0.0004 0.0011 4.6775 0.0016 10.3288
# 5 0.8224 4.2832 3.7521 0.0016 27.0738 -0.0027
# 6 -0.0016 0.0039 0.0004 10.3288 -0.0027 2.5296
#
#
#
# Elastic Compliance Matrix: (Units=1/GPa)
#
#
# Indices 1 2 3 4 5 6 
#
# 1 0.015786 -0.005255 -0.004736 0.000006 0.001008 -0.000005
# 2 -0.005255 0.046540 -0.004367 -0.000023 -0.006598 0.000015
# 3 -0.004736 -0.004367 0.011443 0.000000 -0.000751 -0.000001
# 4 0.000006 -0.000023 0.000000 -0.026669 0.000016 0.108894
# 5 0.001008 -0.006598 -0.000751 0.000016 0.038053 -0.000013
# 6 -0.000005 0.000015 -0.000001 0.108894 -0.000013 -0.049314
#
#
# Mechanical properties :
#
#
# Convention : Reuss Voigt Hill
#
# Bulk Modulus (GPa) = 22.19618 38.01565 30.10591
# Shear Modulus (GPa) = 62.83431 16.69239 39.76335
#
# Velocity S-wave (km/s) = 5.87549 3.02834 4.67399
# Velocity P-wave (km/s) = 7.63041 5.75446 6.75785
#
# Compressibility (1/GPa) = 0.04505281
#
# Stress axis : x y z
#
# Youngs Moduli (GPa) = 63.34878 21.48667 87.38586
#
# Poissons Ratio (x) = 0.11291 0.41388
# Poissons Ratio (y) = 0.33288 0.38165
# Poissons Ratio (z) = 0.30003 0.09384
#
# Static dielectric constant tensor:
#      x y z
#    x 1.616520 0.000000 -0.012150 
#    y 0.000000 1.632030 0.000000 
#    z -0.012150 0.000000 1.638200 
# 
# From -- ./inp_files/368866.got.cif
#   From: 2010.05.17/outbox.cif.g08.bks.cpg/sg12_185_cif.got.tgz:368866.got - 2010.06.03 13:09:07.
