data_PCOD9170273
_publ_section_title
;
Structure prediction by ZEFSAII (Michael W. Deem and Ramdas Pophale) SiO2 
 PCOD9170273
Probable space group: C 2/M
;
_chemical_formula_sum "Si O2"
_cell_formula_units_Z 56
_cell_length_a 8.419789
_cell_length_b 18.630570
_cell_length_c 21.326242
_cell_angle_alpha 90.000000
_cell_angle_beta 124.975534
_cell_angle_gamma 90.000000
_cell_volume 2741.170168
_symmetry_space_group_name_H-M "C 2/M"
_symmetry_group_IT_number 12
_symmetry_cell_setting 'monoclinic'
loop_
_space_group_symop_operation_xyz
x,y,z
-x,y,-z
-x,-y,-z
x,-y,z
1/2+x,1/2+y,z
1/2-x,1/2+y,-z
1/2-x,1/2-y,-z
1/2+x,1/2-y,z
loop_
_atom_site_type_symbol
_atom_site_label
_atom_site_fract_x
_atom_site_fract_y
_atom_site_fract_z
Si Si1 0.213634 0.917978 0.018769
Si Si2 0.344041 0.215134 0.674609
Si Si3 0.088986 0.197905 0.431472
Si Si4 0.217173 0.343116 0.720859
Si Si5 0.091020 0.848872 0.870112
Si Si6 0.802138 0.579839 0.416708
Si Si7 0.979583 0.295694 0.919169
O O1 0.185227 0.906594 0.937915
O O2 0.272531 0.000000 0.046543
O O3 0.370410 0.856573 0.071066
O O4 0.000000 0.905784 0.000000
O O5 0.425396 0.268185 0.640507
O O6 0.307326 0.263534 0.727020
O O7 0.519305 0.158675 0.716330
O O8 0.134045 0.193723 0.598245
O O9 0.250000 0.250000 0.500000
O O10 0.164327 0.119205 0.434950
O O11 0.398198 0.380025 0.794989
O O12 0.172292 0.375935 0.642064
O O13 0.257675 0.821288 0.860591
O O14 0.029776 0.780044 0.898924
O O15 0.737655 0.500000 0.386354
O O16 0.000000 0.578006 0.500000
O O17 0.000000 0.288765 0.000000
#
# Coordination Sequence:
#
# PCOD9170273 Si02
#       7
#     8   8   8   8   8   8   8
#     4  10  21  37  55  77 108 145 182 219 266 322
#     4   9  18  30  49  76 105 131 169 221 269 313
#     4  10  17  30  54  79 100 131 176 224 268 318
#     4  10  20  34  53  80 108 138 177 224 271 322
#     4  11  20  33  56  80 109 141 178 225 269 315
#     4  10  21  37  54  74 106 145 179 218 271 323
#     4  10  20  34  55  82 109 140 177 221 267 319
#
# _framework density 20.429231000000001
#
# number of rings (size 3 to 8) (size 9 to 14) (size 15 to 20)
#    0.000    2.000    0.000    6.857    0.000    3.143 
#    0.000    0.714    0.000    5.143    0.000    0.000 
#    0.000    0.000    0.000    0.000    0.000    0.000 
#
# Total GULP energy -155921.852048 kJ/mol
# GULP energy per Si atom -5568.637573 kJ/mol
# Density = 2.038273 g / cm^3
# Si number density = 20.429231 Si / 1000 Ang^3
#
#
#
# Elastic Constant Matrix: (Units=GPa)
#
#
# Indices 1 2 3 4 5 6 
#
# 1 101.3218 28.2311 7.8273 0.0000 24.9425 0.0000
# 2 28.2311 68.8659 2.7829 0.0000 3.7898 0.0000
# 3 7.8273 2.7829 61.1993 0.0000 18.4992 0.0000
# 4 0.0000 0.0000 0.0000 13.5665 0.0000 2.2233
# 5 24.9425 3.7898 18.4992 0.0000 32.5119 0.0000
# 6 0.0000 0.0000 0.0000 2.2233 0.0000 18.1127
#
#
#
# Elastic Compliance Matrix: (Units=1/GPa)
#
#
# Indices 1 2 3 4 5 6 
#
# 1 0.013898 -0.005160 0.001809 0.000000 -0.011090 0.000000
# 2 -0.005160 0.016532 -0.000853 0.000000 0.002517 0.000000
# 3 0.001809 -0.000853 0.019972 0.000000 -0.012653 0.000000
# 4 0.000000 0.000000 0.000000 0.075224 0.000000 -0.009234
# 5 -0.011090 0.002517 -0.012653 0.000000 0.046172 0.000000
# 6 0.000000 0.000000 0.000000 -0.009234 0.000000 0.056343
#
#
# Mechanical properties :
#
#
# Convention : Reuss Voigt Hill
#
# Bulk Modulus (GPa) = 23.81201 34.34108 29.07655
# Shear Modulus (GPa) = 19.95639 25.67460 22.81549
#
# Velocity S-wave (km/s) = 3.12886 3.54892 3.34549
# Velocity P-wave (km/s) = 4.97334 5.79995 5.40248
#
# Compressibility (1/GPa) = 0.04199561
#
# Stress axis : x y z
#
# Youngs Moduli (GPa) = 71.95521 60.48786 50.06993
#
# Poissons Ratio (x) = 0.31212 -0.09060
# Poissons Ratio (y) = 0.37129 0.04269
# Poissons Ratio (z) = -0.13020 0.05157
#
# Static dielectric constant tensor:
#      x y z
#    x 1.862640 0.000000 0.091830 
#    y 0.000000 1.769020 0.000000 
#    z 0.091830 0.000000 1.848760 
# 
# From -- ./inp_files/356479.got.cif
#   From: 2010.05.17/outbox.cif.g08.bks.cpg/sg12_179_cif.got.tgz:356479.got - 2010.06.03 13:09:07.
