data_PCOD9170200
_publ_section_title
;
Structure prediction by ZEFSAII (Michael W. Deem and Ramdas Pophale) SiO2 
 PCOD9170200
Probable space group: C 2/M
;
_chemical_formula_sum "Si O2"
_cell_formula_units_Z 56
_cell_length_a 27.488096
_cell_length_b 18.355656
_cell_length_c 8.275139
_cell_angle_alpha 90.000000
_cell_angle_beta 135.601112
_cell_angle_gamma 90.000000
_cell_volume 2921.261118
_symmetry_space_group_name_H-M "C 2/M"
_symmetry_group_IT_number 12
_symmetry_cell_setting 'monoclinic'
loop_
_space_group_symop_operation_xyz
x,y,z
-x,y,-z
-x,-y,-z
x,-y,z
1/2+x,1/2+y,z
1/2-x,1/2+y,-z
1/2-x,1/2-y,-z
1/2+x,1/2-y,z
loop_
_atom_site_type_symbol
_atom_site_label
_atom_site_fract_x
_atom_site_fract_y
_atom_site_fract_z
Si Si1 0.260207 0.579780 0.738144
Si Si2 0.474958 0.086581 0.193855
Si Si3 0.205652 0.774356 0.242998
Si Si4 0.225604 0.083864 0.841429
Si Si5 0.661526 0.263855 0.627687
Si Si6 0.395773 0.138389 0.682275
Si Si7 0.631724 0.830924 0.871483
O O1 0.272858 0.500000 0.702854
O O2 0.308731 0.641037 0.776230
O O3 0.180242 0.602085 0.514075
O O4 0.273188 0.580579 0.960790
O O5 0.553479 0.109788 0.338789
O O6 0.436842 0.124031 0.253616
O O7 0.471454 0.000000 0.199601
O O8 0.431258 0.112420 0.931401
O O9 0.250000 0.750000 0.500000
O O10 0.259849 0.764356 0.221791
O O11 0.143428 0.722501 0.052004
O O12 0.171768 0.148832 0.662660
O O13 0.214189 0.000000 0.757066
O O14 0.302354 0.113851 0.975891
O O15 0.616400 0.224893 0.379142
O O16 0.634893 0.223024 0.725330
#
# Coordination Sequence:
#
# PCOD9170200 Si02
#       7
#     8   8   8   8   8   8   8
#     4  10  17  30  51  75 100 135 166 206 257 298
#     4  11  23  36  50  75 104 140 180 214 248 302
#     4  10  18  30  49  72  98 138 171 203 252 309
#     4  10  18  31  52  77 104 130 163 214 262 305
#     4  10  19  35  50  75 102 136 173 211 260 308
#     4  10  20  36  52  69 104 143 175 209 250 307
#     4  11  18  33  49  74 108 135 171 211 251 306
#
# _framework density 19.169802000000001
#
# number of rings (size 3 to 8) (size 9 to 14) (size 15 to 20)
#    0.000    1.714    4.286    4.714    0.000    0.571 
#    0.000    3.571    0.000    0.000    0.000    5.000 
#    0.000    0.000    0.000    0.000    0.000    0.000 
#
# Total GULP energy -156078.737349 kJ/mol
# GULP energy per Si atom -5574.240620 kJ/mol
# Density = 1.912617 g / cm^3
# Si number density = 19.169802 Si / 1000 Ang^3
#
#
#
# Elastic Constant Matrix: (Units=GPa)
#
#
# Indices 1 2 3 4 5 6 
#
# 1 65.9266 28.0966 -1.0182 0.0000 0.8925 0.0000
# 2 28.0966 195.5811 30.7343 0.0000 7.8191 0.0000
# 3 -1.0182 30.7343 46.8977 0.0000 -2.9811 0.0000
# 4 0.0000 0.0000 0.0000 27.6616 0.0000 0.5521
# 5 0.8925 7.8191 -2.9811 0.0000 19.8069 0.0000
# 6 0.0000 0.0000 0.0000 0.5521 0.0000 24.7249
#
#
#
# Elastic Compliance Matrix: (Units=1/GPa)
#
#
# Indices 1 2 3 4 5 6 
#
# 1 0.016351 -0.002718 0.002178 0.000000 0.000664 0.000000
# 2 -0.002718 0.006314 -0.004390 0.000000 -0.003031 0.000000
# 3 0.002178 -0.004390 0.024586 0.000000 0.005335 0.000000
# 4 0.000000 0.000000 0.000000 0.036167 0.000000 -0.000808
# 5 0.000664 -0.003031 0.005335 0.000000 0.052457 0.000000
# 6 0.000000 0.000000 0.000000 -0.000808 0.000000 0.040463
#
#
# Mechanical properties :
#
#
# Convention : Reuss Voigt Hill
#
# Bulk Modulus (GPa) = 26.74269 47.11453 36.92861
# Shear Modulus (GPa) = 25.16830 31.14486 28.15658
#
# Velocity S-wave (km/s) = 3.62735 4.03511 3.83665
# Velocity P-wave (km/s) = 5.61464 6.80737 6.23957
#
# Compressibility (1/GPa) = 0.03739340
#
# Stress axis : x y z
#
# Youngs Moduli (GPa) = 61.15715 158.36805 40.67310
#
# Poissons Ratio (x) = 0.43042 -0.08860
# Poissons Ratio (y) = 0.16622 0.17855
# Poissons Ratio (z) = -0.13322 0.69520
#
# Static dielectric constant tensor:
#      x y z
#    x 1.721520 0.000000 -0.062270 
#    y 0.000000 1.724080 0.000000 
#    z -0.062270 0.000000 1.697180 
# 
# From -- ./inp_files/105542.got.cif
#   From: 2010.05.17/outbox.cif.g08.bks.cpg/sg12_53_cif.got.tgz:105542.got - 2010.06.03 13:09:07.
