data_PCOD9170596
_publ_section_title
;
Structure prediction by ZEFSAII (Michael W. Deem and Ramdas Pophale) SiO2 
 PCOD9170596
Probable space group: C 2/M
;
_chemical_formula_sum "Si O2"
_cell_formula_units_Z 56
_cell_length_a 26.567261
_cell_length_b 23.908280
_cell_length_c 11.504046
_cell_angle_alpha 90.000000
_cell_angle_beta 21.353896
_cell_angle_gamma 90.000000
_cell_volume 2660.720018
_symmetry_space_group_name_H-M "C 2/M"
_symmetry_group_IT_number 12
_symmetry_cell_setting 'monoclinic'
loop_
_space_group_symop_operation_xyz
x,y,z
-x,y,-z
-x,-y,-z
x,-y,z
1/2+x,1/2+y,z
1/2-x,1/2+y,-z
1/2-x,1/2-y,-z
1/2+x,1/2-y,z
loop_
_atom_site_type_symbol
_atom_site_label
_atom_site_fract_x
_atom_site_fract_y
_atom_site_fract_z
Si Si1 0.334622 0.333285 0.349215
Si Si2 0.055951 0.711770 0.255476
Si Si3 0.439964 0.631594 0.899397
Si Si4 0.648661 0.266571 0.466031
Si Si5 0.348755 0.435874 0.881489
Si Si6 0.687632 0.561721 0.458018
Si Si7 0.367229 0.085838 0.850153
O O1 0.673646 0.339305 0.771254
O O2 0.318932 0.279398 0.466653
O O3 0.267272 0.387085 0.555499
O O4 0.500000 0.341898 0.000000
O O5 0.084793 0.646565 0.211057
O O6 0.000000 0.733686 0.500000
O O7 0.953283 0.720473 0.367354
O O8 0.203800 0.738665 0.910656
O O9 0.560960 0.677519 0.616571
O O10 0.360821 0.606393 0.961541
O O11 0.532996 0.579790 0.749106
O O12 0.500000 0.438726 0.500000
O O13 0.308870 0.500000 0.998509
O O14 0.246844 0.412099 0.004403
O O15 0.684390 0.500000 0.518749
O O16 0.789829 0.560175 0.127749
O O17 0.500000 0.059857 0.500000
#
# Coordination Sequence:
#
# PCOD9170596 Si02
#       7
#     8   8   8   8   8   8   8
#     4   8  18  36  55  86 120 151 196 252 296 345
#     4  11  22  37  60  89 120 160 204 249 310 362
#     4  10  20  37  59  86 123 152 199 257 300 348
#     4  10  20  38  58  86 122 157 201 255 301 358
#     4  11  21  35  59  89 121 159 200 248 305 357
#     4  10  17  32  58  84 117 154 193 244 302 357
#     4  11  23  38  56  86 129 161 197 245 305 373
#
# _framework density 21.046934
#
# number of rings (size 3 to 8) (size 9 to 14) (size 15 to 20)
#    0.000    2.143    4.286    1.286    0.000    8.286 
#    0.000    6.429    0.000    0.857    0.000    2.000 
#    0.000    0.000    0.000    0.000    0.000    0.000 
#
# Total GULP energy -155934.438627 kJ/mol
# GULP energy per Si atom -5569.087094 kJ/mol
# Density = 2.099903 g / cm^3
# Si number density = 21.046934 Si / 1000 Ang^3
#
#
#
# Elastic Constant Matrix: (Units=GPa)
#
#
# Indices 1 2 3 4 5 6 
#
# 1 99.2583 48.2818 47.5779 0.0068 14.8803 -0.0082
# 2 48.2818 83.7468 33.3120 0.0079 -4.5654 -0.0096
# 3 47.5779 33.3120 110.3995 0.0148 15.1146 -0.0220
# 4 0.0068 0.0079 0.0148 33.4165 0.0009 -37.8704
# 5 14.8803 -4.5654 15.1146 0.0009 27.7114 0.0000
# 6 -0.0082 -0.0096 -0.0220 -37.8704 0.0000 64.8316
#
#
#
# Elastic Compliance Matrix: (Units=1/GPa)
#
#
# Indices 1 2 3 4 5 6 
#
# 1 0.017639 -0.009240 -0.003575 0.000000 -0.009044 0.000000
# 2 -0.009240 0.019035 -0.003102 -0.000003 0.009790 -0.000001
# 3 -0.003575 -0.003102 0.012257 0.000000 -0.005277 0.000003
# 4 0.000000 -0.000003 0.000000 0.088535 -0.000003 0.051716
# 5 -0.009044 0.009790 -0.005277 -0.000003 0.045433 -0.000003
# 6 0.000000 -0.000001 0.000003 0.051716 -0.000003 0.045634
#
#
# Mechanical properties :
#
#
# Convention : Reuss Voigt Hill
#
# Bulk Modulus (GPa) = 58.49050 61.30534 59.89792
# Shear Modulus (GPa) = 18.79225 36.14076 27.46651
#
# Velocity S-wave (km/s) = 2.99134 4.14835 3.61641
# Velocity P-wave (km/s) = 6.30727 7.22054 6.77930
#
# Compressibility (1/GPa) = 0.01709679
#
# Stress axis : x y z
#
# Youngs Moduli (GPa) = 56.69275 52.53389 81.58426
#
# Poissons Ratio (x) = 0.48541 0.29170
# Poissons Ratio (y) = 0.52384 0.25307
# Poissons Ratio (z) = 0.20270 0.16295
#
# Static dielectric constant tensor:
#      x y z
#    x 1.883970 0.000000 0.078870 
#    y 0.000000 1.821920 0.000000 
#    z 0.078870 0.000000 1.774080 
# 
# From -- ./inp_files/185128.got.cif
#   From: 2010.05.17/outbox.cif.g08.bks.cpg/sg12_93_cif.got.tgz:185128.got - 2010.06.03 13:09:07.
