data_PCOD9170368
_publ_section_title
;
Structure prediction by ZEFSAII (Michael W. Deem and Ramdas Pophale) SiO2 
 PCOD9170368
Probable space group: C 2/M
;
_chemical_formula_sum "Si O2"
_cell_formula_units_Z 48
_cell_length_a 21.704879
_cell_length_b 17.688793
_cell_length_c 9.120034
_cell_angle_alpha 90.000000
_cell_angle_beta 57.127381
_cell_angle_gamma 90.000000
_cell_volume 2940.823278
_symmetry_space_group_name_H-M "C 2/M"
_symmetry_group_IT_number 12
_symmetry_cell_setting 'monoclinic'
loop_
_space_group_symop_operation_xyz
x,y,z
-x,y,-z
-x,-y,-z
x,-y,z
1/2+x,1/2+y,z
1/2-x,1/2+y,-z
1/2-x,1/2-y,-z
1/2+x,1/2-y,z
loop_
_atom_site_type_symbol
_atom_site_label
_atom_site_fract_x
_atom_site_fract_y
_atom_site_fract_z
Si Si1 0.538138 0.912030 0.609658
Si Si2 0.079969 0.084552 0.822557
Si Si3 0.340201 0.788226 0.534090
Si Si4 0.541343 0.667406 0.590280
Si Si5 0.041104 0.711020 0.103049
Si Si6 0.673164 0.729445 0.782498
O O1 0.500000 0.907056 0.500000
O O2 0.614501 0.865597 0.507035
O O3 0.485787 0.866801 0.790004
O O4 0.547755 0.000000 0.635145
O O5 0.068544 0.103592 0.666143
O O6 0.131657 0.149367 0.820584
O O7 0.108633 0.000000 0.807048
O O8 0.000000 0.089402 0.000000
O O9 0.390510 0.721949 0.536526
O O10 0.334347 0.769587 0.367324
O O11 0.258429 0.784644 0.701873
O O12 0.500000 0.640156 0.500000
O O13 0.488162 0.722905 0.752673
O O14 0.126717 0.721727 0.958323
O O15 0.000000 0.720006 0.000000
#
# Coordination Sequence:
#
# PCOD9170368 Si02
#       6
#     8   8   8   8   8   8
#     4  10  21  36  52  74 106 139 168 203 254 310
#     4  10  18  31  51  72  95 128 164 202 244 286
#     4   9  18  31  51  76 100 129 162 205 257 296
#     4  10  18  32  50  72 102 130 165 202 241 298
#     4  11  16  32  54  76  98 128 172 214 241 290
#     4  10  17  31  51  78 102 121 165 215 249 291
#
# _framework density 16.321961000000002
#
# number of rings (size 3 to 8) (size 9 to 14) (size 15 to 20)
#    0.000    2.000    6.667    2.000    0.000    1.333 
#    0.000    3.333    0.000    1.000    0.000    0.000 
#    0.000    0.000    0.000    0.000    0.000    0.000 
#
# Total GULP energy -133766.828478 kJ/mol
# GULP energy per Si atom -5573.617853 kJ/mol
# Density = 1.628481 g / cm^3
# Si number density = 16.321961 Si / 1000 Ang^3
#
#
#
# Elastic Constant Matrix: (Units=GPa)
#
#
# Indices 1 2 3 4 5 6 
#
# 1 69.9576 27.1285 37.7557 0.0000 -25.3485 0.0000
# 2 27.1285 87.7334 26.1294 0.0000 -14.7692 0.0000
# 3 37.7557 26.1294 63.7820 0.0000 -26.0992 0.0000
# 4 0.0000 0.0000 0.0000 15.2643 0.0000 0.6260
# 5 -25.3485 -14.7692 -26.0992 0.0000 36.8908 0.0000
# 6 0.0000 0.0000 0.0000 0.6260 0.0000 12.2184
#
#
#
# Elastic Compliance Matrix: (Units=1/GPa)
#
#
# Indices 1 2 3 4 5 6 
#
# 1 0.023514 -0.003115 -0.009207 0.000000 0.008396 0.000000
# 2 -0.003115 0.013503 -0.003309 0.000000 0.000924 0.000000
# 3 -0.009207 -0.003309 0.027239 0.000000 0.011619 0.000000
# 4 0.000000 0.000000 0.000000 0.065650 0.000000 -0.003364
# 5 0.008396 0.000924 0.011619 0.000000 0.041466 0.000000
# 6 0.000000 0.000000 0.000000 -0.003364 0.000000 0.082016
#
#
# Mechanical properties :
#
#
# Convention : Reuss Voigt Hill
#
# Bulk Modulus (GPa) = 30.31093 44.83336 37.57214
# Shear Modulus (GPa) = 16.91198 21.57200 19.24199
#
# Velocity S-wave (km/s) = 3.22242 3.63940 3.43724
# Velocity P-wave (km/s) = 5.69704 6.72221 6.23074
#
# Compressibility (1/GPa) = 0.03299140
#
# Stress axis : x y z
#
# Youngs Moduli (GPa) = 42.52861 74.05966 36.71215
#
# Poissons Ratio (x) = 0.23072 0.33801
# Poissons Ratio (y) = 0.13249 0.12150
# Poissons Ratio (z) = 0.39157 0.24510
#
# Static dielectric constant tensor:
#      x y z
#    x 1.549660 0.000000 -0.005150 
#    y 0.000000 1.543490 0.000000 
#    z -0.005150 0.000000 1.560860 
# 
# From -- ./inp_files/74604.got.cif
#   From: 2010.05.17/outbox.cif.g08.bks.cpg/sg12_38_cif.got.tgz:74604.got - 2010.06.03 13:09:07.
