data_PCOD9170408
_publ_section_title
;
Structure prediction by ZEFSAII (Michael W. Deem and Ramdas Pophale) SiO2 
 PCOD9170408
Probable space group: C 2/M
;
_chemical_formula_sum "Si O2"
_cell_formula_units_Z 56
_cell_length_a 22.405492
_cell_length_b 7.799465
_cell_length_c 14.453980
_cell_angle_alpha 90.000000
_cell_angle_beta 99.174713
_cell_angle_gamma 90.000000
_cell_volume 2493.531482
_symmetry_space_group_name_H-M "C 2/M"
_symmetry_group_IT_number 12
_symmetry_cell_setting 'monoclinic'
loop_
_space_group_symop_operation_xyz
x,y,z
-x,y,-z
-x,-y,-z
x,-y,z
1/2+x,1/2+y,z
1/2-x,1/2+y,-z
1/2-x,1/2-y,-z
1/2+x,1/2-y,z
loop_
_atom_site_type_symbol
_atom_site_label
_atom_site_fract_x
_atom_site_fract_y
_atom_site_fract_z
Si Si1 0.766497 0.792597 0.608670
Si Si2 0.970311 0.203946 0.269687
Si Si3 0.657336 0.803808 0.707824
Si Si4 0.771724 0.191725 0.106428
Si Si5 0.645741 0.704220 0.113989
Si Si6 0.600942 0.704978 0.302169
Si Si7 0.446854 0.290524 0.056601
O O1 0.750000 0.750000 0.500000
O O2 0.711394 0.726144 0.659355
O O3 0.834499 0.726996 0.646574
O O4 0.768576 0.000000 0.623689
O O5 0.035662 0.271471 0.319530
O O6 0.909850 0.229021 0.313885
O O7 0.956409 0.272000 0.162696
O O8 0.978319 0.000000 0.261530
O O9 0.680927 0.792797 0.819632
O O10 0.651462 0.000000 0.678865
O O11 0.708399 0.201975 0.145437
O O12 0.885632 0.260229 0.988736
O O13 0.795798 0.000000 0.105489
O O14 0.659006 0.500000 0.112451
O O15 0.602506 0.727238 0.191117
O O16 0.750000 0.750000 0.000000
O O17 0.602629 0.500000 0.321302
O O18 0.446740 0.500000 0.058084
O O19 0.500000 0.238438 0.000000
#
# Coordination Sequence:
#
# PCOD9170408 Si02
#       7
#     8   8   8   8   8   8   8
#     4  10  22  42  67  91 115 153 201 253 312 369
#     4  10  19  33  57  89 122 159 203 243 291 356
#     4  11  23  41  62  87 124 160 195 248 312 367
#     4  12  24  37  55  82 119 162 207 251 297 351
#     4  10  17  31  54  80 114 154 199 247 293 346
#     4   9  17  34  60  86 116 155 196 241 295 359
#     4   9  15  25  48  80 112 153 201 239 276 335
#
# _framework density 22.458107999999999
#
# number of rings (size 3 to 8) (size 9 to 14) (size 15 to 20)
#    0.000    1.857    2.857    2.571    0.000    2.286 
#    0.000    2.143    0.000    5.143    0.000    0.000 
#    0.000    0.000    0.000    0.000    0.000    0.000 
#
# Total GULP energy -156281.749686 kJ/mol
# GULP energy per Si atom -5581.491060 kJ/mol
# Density = 2.240699 g / cm^3
# Si number density = 22.458108 Si / 1000 Ang^3
#
#
#
# Elastic Constant Matrix: (Units=GPa)
#
#
# Indices 1 2 3 4 5 6 
#
# 1 219.3690 9.7604 57.6049 0.0000 -6.9405 0.0000
# 2 9.7604 25.6701 -2.9400 0.0000 -0.6189 0.0000
# 3 57.6049 -2.9400 75.0008 0.0000 2.3308 0.0000
# 4 0.0000 0.0000 0.0000 16.0180 0.0000 -0.7769
# 5 -6.9405 -0.6189 2.3308 0.0000 24.4490 0.0000
# 6 0.0000 0.0000 0.0000 -0.7769 0.0000 21.5300
#
#
#
# Elastic Compliance Matrix: (Units=1/GPa)
#
#
# Indices 1 2 3 4 5 6 
#
# 1 0.006005 -0.002781 -0.004786 0.000000 0.002091 0.000000
# 2 -0.002781 0.040437 0.003725 0.000000 -0.000121 0.000000
# 3 -0.004786 0.003725 0.017246 0.000000 -0.002909 0.000000
# 4 0.000000 0.000000 0.000000 0.062539 0.000000 0.002257
# 5 0.002091 -0.000121 -0.002909 0.000000 0.041769 0.000000
# 6 0.000000 0.000000 0.000000 0.002257 0.000000 0.046528
#
#
# Mechanical properties :
#
#
# Convention : Reuss Voigt Hill
#
# Bulk Modulus (GPa) = 17.85623 49.87672 33.86648
# Shear Modulus (GPa) = 20.75744 29.44039 25.09891
#
# Velocity S-wave (km/s) = 3.04349 3.62457 3.34666
# Velocity P-wave (km/s) = 4.50761 6.30663 5.48143
#
# Compressibility (1/GPa) = 0.05600285
#
# Stress axis : x y z
#
# Youngs Moduli (GPa) = 166.51975 24.72987 57.98505
#
# Poissons Ratio (x) = 0.06878 0.27754
# Poissons Ratio (y) = 0.46311 -0.21599
# Poissons Ratio (z) = 0.79703 -0.09212
#
# Static dielectric constant tensor:
#      x y z
#    x 1.901750 0.000000 -0.040370 
#    y 0.000000 1.854130 0.000000 
#    z -0.040370 0.000000 1.817750 
# 
# From -- ./inp_files/280256.got.cif
#   From: 2010.05.17/outbox.cif.g08.bks.cpg/sg12_141_cif.got.tgz:280256.got - 2010.06.03 13:09:07.
