data_PCOD9170090
_publ_section_title
;
Structure prediction by ZEFSAII (Michael W. Deem and Ramdas Pophale) SiO2 
 PCOD9170090
Probable space group: C 2/M
;
_chemical_formula_sum "Si O2"
_cell_formula_units_Z 56
_cell_length_a 29.636897
_cell_length_b 14.092188
_cell_length_c 9.314196
_cell_angle_alpha 90.000000
_cell_angle_beta 119.305516
_cell_angle_gamma 90.000000
_cell_volume 3392.220313
_symmetry_space_group_name_H-M "C 2/M"
_symmetry_group_IT_number 12
_symmetry_cell_setting 'monoclinic'
loop_
_space_group_symop_operation_xyz
x,y,z
-x,y,-z
-x,-y,-z
x,-y,z
1/2+x,1/2+y,z
1/2-x,1/2+y,-z
1/2-x,1/2-y,-z
1/2+x,1/2-y,z
loop_
_atom_site_type_symbol
_atom_site_label
_atom_site_fract_x
_atom_site_fract_y
_atom_site_fract_z
Si Si1 0.345621 0.113986 0.200437
Si Si2 0.508366 0.000000 0.345320
Si Si3 0.305908 0.893205 0.586257
Si Si4 0.438184 0.213724 0.890755
Si Si5 0.056067 0.500000 0.015173
Si Si6 0.760189 0.888588 0.790666
Si Si7 0.156871 0.268283 0.091769
Si Si8 0.594261 0.155117 0.438630
O O1 0.288764 0.129597 0.180942
O O2 0.387219 0.165865 0.369412
O O3 0.355176 0.000000 0.219061
O O4 0.347944 0.157991 0.046509
O O5 0.500000 0.000000 0.500000
O O6 0.455880 0.000000 0.172480
O O7 0.543685 0.089408 0.360074
O O8 0.259341 0.871770 0.403838
O O9 0.315602 0.820590 0.729864
O O10 0.355575 0.892244 0.557243
O O11 0.299957 0.000000 0.634710
O O12 0.399866 0.264591 0.941614
O O13 0.420774 0.235261 0.700249
O O14 0.500000 0.224507 0.000000
O O15 0.423316 0.101912 0.902839
O O16 0.000000 0.500000 0.000000
O O17 0.807216 0.819240 0.896801
O O18 0.773051 0.000000 0.822953
#
# Coordination Sequence:
#
# PCOD9170090 Si02
#       8
#     8   4   8   8   4   8   8   8
#     4  10  20  30  47  70 101 123 152 189 238 285
#     4  12  20  24  40  60  98 136 174 178 211 267
#     4   9  17  30  51  68  94 122 154 188 232 284
#     4  10  20  30  46  65  97 129 165 190 227 271
#     4  10  18  30  42  60  94 140 162 186 218 275
#     4   9  19  37  51  66  92 127 155 198 245 281
#     4  11  21  29  50  73  95 121 164 196 226 283
#     4  10  17  30  40  61  95 137 155 177 225 275
#
# _framework density 16.508362000000002
#
# number of rings (size 3 to 8) (size 9 to 14) (size 15 to 20)
#    0.000    2.000    4.286    2.143    6.000    0.000 
#    0.000    0.000    0.000    0.429    0.000    0.000 
#    0.000    1.143    0.000    0.000    0.000    0.286 
#
# Total GULP energy -155896.515367 kJ/mol
# GULP energy per Si atom -5567.732692 kJ/mol
# Density = 1.647079 g / cm^3
# Si number density = 16.508362 Si / 1000 Ang^3
#
#
#
# Elastic Constant Matrix: (Units=GPa)
#
#
# Indices 1 2 3 4 5 6 
#
# 1 75.2911 19.7622 28.7422 0.0000 -0.1741 0.0000
# 2 19.7622 22.2142 15.8218 0.0000 1.9804 0.0000
# 3 28.7422 15.8218 83.1619 0.0000 -13.6538 0.0000
# 4 0.0000 0.0000 0.0000 11.4645 0.0000 -0.8403
# 5 -0.1741 1.9804 -13.6538 0.0000 29.5603 0.0000
# 6 0.0000 0.0000 0.0000 -0.8403 0.0000 16.7097
#
#
#
# Elastic Compliance Matrix: (Units=1/GPa)
#
#
# Indices 1 2 3 4 5 6 
#
# 1 0.018292 -0.013426 -0.003898 0.000000 -0.000793 0.000000
# 2 -0.013426 0.064094 -0.008951 0.000000 -0.008507 0.000000
# 3 -0.003898 -0.008951 0.016414 0.000000 0.008158 0.000000
# 4 0.000000 0.000000 0.000000 0.087549 0.000000 0.004403
# 5 -0.000793 -0.008507 0.008158 0.000000 0.038163 0.000000
# 6 0.000000 0.000000 0.000000 0.004403 0.000000 0.060067
#
#
# Mechanical properties :
#
#
# Convention : Reuss Voigt Hill
#
# Bulk Modulus (GPa) = 21.62110 34.36886 27.99498
# Shear Modulus (GPa) = 14.18262 19.30296 16.74279
#
# Velocity S-wave (km/s) = 2.93425 3.42319 3.18811
# Velocity P-wave (km/s) = 4.96037 6.04058 5.52693
#
# Compressibility (1/GPa) = 0.04625111
#
# Stress axis : x y z
#
# Youngs Moduli (GPa) = 54.66872 15.60214 60.92263
#
# Poissons Ratio (x) = 0.20947 0.23747
# Poissons Ratio (y) = 0.73398 0.54529
# Poissons Ratio (z) = 0.21310 0.13965
#
# Static dielectric constant tensor:
#      x y z
#    x 1.578830 0.000000 -0.003380 
#    y 0.000000 1.542710 0.000000 
#    z -0.003380 0.000000 1.627780 
# 
# From -- ./inp_files/111320.got.cif
#   From: 2010.05.17/outbox.cif.g08.bks.cpg/sg12_56_cif.got.tgz:111320.got - 2010.06.03 13:09:07.
