data_PCOD9170349
_publ_section_title
;
Structure prediction by ZEFSAII (Michael W. Deem and Ramdas Pophale) SiO2 
 PCOD9170349
Probable space group: C 2/M
;
_chemical_formula_sum "Si O2"
_cell_formula_units_Z 48
_cell_length_a 16.561053
_cell_length_b 13.782733
_cell_length_c 13.883792
_cell_angle_alpha 90.000000
_cell_angle_beta 49.023547
_cell_angle_gamma 90.000000
_cell_volume 2392.579296
_symmetry_space_group_name_H-M "C 2/M"
_symmetry_group_IT_number 12
_symmetry_cell_setting 'monoclinic'
loop_
_space_group_symop_operation_xyz
x,y,z
-x,y,-z
-x,-y,-z
x,-y,z
1/2+x,1/2+y,z
1/2-x,1/2+y,-z
1/2-x,1/2-y,-z
1/2+x,1/2-y,z
loop_
_atom_site_type_symbol
_atom_site_label
_atom_site_fract_x
_atom_site_fract_y
_atom_site_fract_z
Si Si1 0.879798 0.613591 0.802854
Si Si2 0.383610 0.804069 0.998960
Si Si3 0.612443 0.199221 0.604477
Si Si4 0.183678 0.885616 0.636940
Si Si5 0.375389 0.114696 0.200536
Si Si6 0.158337 0.890024 0.878792
O O1 0.900904 0.500000 0.807580
O O2 0.785551 0.618258 0.799262
O O3 0.991678 0.662719 0.686538
O O4 0.836363 0.665624 0.933670
O O5 0.326151 0.844644 0.139947
O O6 0.394819 0.690602 0.012306
O O7 0.499983 0.854092 0.902212
O O8 0.694325 0.154096 0.464196
O O9 0.619955 0.314679 0.614429
O O10 0.658177 0.158076 0.671156
O O11 0.140942 0.873111 0.779222
O O12 0.180798 0.000000 0.616170
O O13 0.365631 0.000000 0.209647
O O14 0.126488 0.000000 0.928364
#
# Coordination Sequence:
#
# PCOD9170349 Si02
#       6
#     8   8   8   8   8   8
#     4  10  20  34  54  77 103 134 172 216 252 297
#     4  10  17  31  49  75 101 134 164 207 257 293
#     4  10  19  34  55  79  98 134 173 212 257 295
#     4  10  20  35  54  77 105 134 169 212 255 304
#     4  10  18  30  52  78 102 126 169 220 254 292
#     4  10  21  35  50  75 109 139 167 204 255 309
#
# _framework density 20.06203
#
# number of rings (size 3 to 8) (size 9 to 14) (size 15 to 20)
#    0.000    2.000    1.667    5.000    0.000    0.667 
#    0.000    7.500    0.000    3.000    0.000    2.333 
#    0.000    0.000    0.000    0.000    0.000    0.000 
#
# Total GULP energy -133869.024319 kJ/mol
# GULP energy per Si atom -5577.876013 kJ/mol
# Density = 2.001637 g / cm^3
# Si number density = 20.062030 Si / 1000 Ang^3
#
#
#
# Elastic Constant Matrix: (Units=GPa)
#
#
# Indices 1 2 3 4 5 6 
#
# 1 42.9936 20.2879 11.4544 0.0000 -13.8930 0.0000
# 2 20.2879 151.0109 17.7853 0.0000 -2.2569 0.0000
# 3 11.4544 17.7853 40.5257 0.0000 2.4677 0.0000
# 4 0.0000 0.0000 0.0000 28.8521 0.0000 -0.0458
# 5 -13.8930 -2.2569 2.4677 0.0000 18.4398 0.0000
# 6 0.0000 0.0000 0.0000 -0.0458 0.0000 21.1639
#
#
#
# Elastic Compliance Matrix: (Units=1/GPa)
#
#
# Indices 1 2 3 4 5 6 
#
# 1 0.037032 -0.003271 -0.010794 0.000000 0.028945 0.000000
# 2 -0.003271 0.007302 -0.002202 0.000000 -0.001276 0.000000
# 3 -0.010794 -0.002202 0.029444 0.000000 -0.012342 0.000000
# 4 0.000000 0.000000 0.000000 0.034660 0.000000 0.000075
# 5 0.028945 -0.001276 -0.012342 0.000000 0.077534 0.000000
# 6 0.000000 0.000000 0.000000 0.000075 0.000000 0.047251
#
#
# Mechanical properties :
#
#
# Convention : Reuss Voigt Hill
#
# Bulk Modulus (GPa) = 24.24612 37.06506 30.65559
# Shear Modulus (GPa) = 17.88879 26.02465 21.95672
#
# Velocity S-wave (km/s) = 2.98933 3.60559 3.31182
# Velocity P-wave (km/s) = 4.90169 5.98740 5.47155
#
# Compressibility (1/GPa) = 0.04124371
#
# Stress axis : x y z
#
# Youngs Moduli (GPa) = 27.00371 136.95223 33.96221
#
# Poissons Ratio (x) = 0.44801 0.36658
# Poissons Ratio (y) = 0.08834 0.07479
# Poissons Ratio (z) = 0.29147 0.30159
#
# Static dielectric constant tensor:
#      x y z
#    x 1.755080 0.000000 0.031720 
#    y 0.000000 1.734150 0.000000 
#    z 0.031720 0.000000 1.761860 
# 
# From -- ./inp_files/231679.got.cif
#   From: 2010.05.17/outbox.cif.g08.bks.cpg/sg12_116_cif.got.tgz:231679.got - 2010.06.03 13:09:07.
