data_PCOD9170343
_publ_section_title
;
Structure prediction by ZEFSAII (Michael W. Deem and Ramdas Pophale) SiO2 
 PCOD9170343
Probable space group: C 2/M
;
_chemical_formula_sum "Si O2"
_cell_formula_units_Z 48
_cell_length_a 13.238149
_cell_length_b 17.185373
_cell_length_c 14.701418
_cell_angle_alpha 90.000000
_cell_angle_beta 140.051600
_cell_angle_gamma 90.000000
_cell_volume 2147.565426
_symmetry_space_group_name_H-M "C 2/M"
_symmetry_group_IT_number 12
_symmetry_cell_setting 'monoclinic'
loop_
_space_group_symop_operation_xyz
x,y,z
-x,y,-z
-x,-y,-z
x,-y,z
1/2+x,1/2+y,z
1/2-x,1/2+y,-z
1/2-x,1/2-y,-z
1/2+x,1/2-y,z
loop_
_atom_site_type_symbol
_atom_site_label
_atom_site_fract_x
_atom_site_fract_y
_atom_site_fract_z
Si Si1 0.567410 0.862082 0.705009
Si Si2 0.115327 0.085968 0.491344
Si Si3 0.337002 0.911258 0.040458
Si Si4 0.615118 0.683477 0.776553
Si Si5 0.150939 0.327916 0.232021
Si Si6 0.331548 0.182323 0.406796
O O1 0.622177 0.915105 0.824497
O O2 0.595332 0.775815 0.766493
O O3 0.673130 0.870766 0.686494
O O4 0.391315 0.861056 0.538478
O O5 0.278236 0.111112 0.647553
O O6 0.000000 0.084754 0.500000
O O7 0.044324 0.145764 0.370786
O O8 0.119091 0.000000 0.454394
O O9 0.475680 0.856664 0.095902
O O10 0.333192 0.000000 0.001066
O O11 0.178838 0.863837 0.906990
O O12 0.745730 0.669508 0.787710
O O13 0.191491 0.243643 0.304763
O O14 0.500000 0.228414 0.500000
#
# Coordination Sequence:
#
# PCOD9170343 Si02
#       6
#     8   8   8   8   8   8
#     4   8  17  35  54  67  92 129 175 207 230 279
#     4   9  15  26  46  65  88 128 169 190 218 282
#     4  12  24  30  42  77 116 131 144 196 263 301
#     4  10  18  34  49  67  94 138 172 192 227 292
#     4  10  17  31  49  70 100 126 159 199 245 286
#     4   7  14  34  57  73  79 122 183 215 220 268
#
# _framework density 22.35089
#
# number of rings (size 3 to 8) (size 9 to 14) (size 15 to 20)
#    1.000    1.500    1.667    2.500    0.000    3.333 
#    0.000    1.667    0.000    0.000    0.000    0.000 
#    0.000   18.000    0.000    0.000    0.000    0.000 
#
# Total GULP energy -133678.645238 kJ/mol
# GULP energy per Si atom -5569.943552 kJ/mol
# Density = 2.230002 g / cm^3
# Si number density = 22.350890 Si / 1000 Ang^3
#
#
#
# Elastic Constant Matrix: (Units=GPa)
#
#
# Indices 1 2 3 4 5 6 
#
# 1 46.7276 -2.8818 5.1606 0.0001 -16.4583 0.0002
# 2 -2.8818 57.4925 16.7039 0.0005 -10.5875 0.0007
# 3 5.1606 16.7039 112.3554 0.0003 -9.0729 -0.0001
# 4 0.0001 0.0005 0.0003 10.6125 0.0000 -9.2146
# 5 -16.4583 -10.5875 -9.0729 0.0000 31.4181 -0.0001
# 6 0.0002 0.0007 -0.0001 -9.2146 -0.0001 8.4205
#
#
#
# Elastic Compliance Matrix: (Units=1/GPa)
#
#
# Indices 1 2 3 4 5 6 
#
# 1 0.027227 0.004420 -0.000651 -0.000018 0.015565 -0.000021
# 2 0.004420 0.019865 -0.002487 -0.000047 0.008291 -0.000053
# 3 -0.000651 -0.002487 0.009425 0.000004 0.001543 0.000005
# 4 -0.000018 -0.000047 0.000004 1.891013 -0.000018 2.069352
# 5 0.015565 0.008291 0.001543 -0.000018 0.043222 -0.000020
# 6 -0.000021 -0.000053 0.000005 2.069352 -0.000020 2.383268
#
#
# Mechanical properties :
#
#
# Convention : Reuss Voigt Hill
#
# Bulk Modulus (GPa) = 16.92581 28.28233 22.60407
# Shear Modulus (GPa) = 1.13865 23.26307 12.20086
#
# Velocity S-wave (km/s) = 0.71453 3.22966 2.33894
# Velocity P-wave (km/s) = 2.87575 5.15644 4.17485
#
# Compressibility (1/GPa) = 0.05908137
#
# Stress axis : x y z
#
# Youngs Moduli (GPa) = 36.72798 50.34090 106.10638
#
# Poissons Ratio (x) = -0.22251 0.06906
# Poissons Ratio (y) = -0.16234 0.26386
# Poissons Ratio (z) = 0.02390 0.12518
#
# Static dielectric constant tensor:
#      x y z
#    x 1.956570 0.000000 -0.021820 
#    y 0.000000 1.789530 0.000000 
#    z -0.021820 0.000000 1.835280 
# 
# From -- ./inp_files/278938.got.cif
#   From: 2010.05.17/outbox.cif.g08.bks.cpg/sg12_140_cif.got.tgz:278938.got - 2010.06.03 13:09:07.
