data_PCOD9170629
_publ_section_title
;
Structure prediction by ZEFSAII (Michael W. Deem and Ramdas Pophale) SiO2 
 PCOD9170629
Probable space group: C 2/M
;
_chemical_formula_sum "Si O2"
_cell_formula_units_Z 48
_cell_length_a 10.744068
_cell_length_b 19.145264
_cell_length_c 10.034376
_cell_angle_alpha 90.000000
_cell_angle_beta 71.200824
_cell_angle_gamma 90.000000
_cell_volume 1953.942162
_symmetry_space_group_name_H-M "C 2/M"
_symmetry_group_IT_number 12
_symmetry_cell_setting 'monoclinic'
loop_
_space_group_symop_operation_xyz
x,y,z
-x,y,-z
-x,-y,-z
x,-y,z
1/2+x,1/2+y,z
1/2-x,1/2+y,-z
1/2-x,1/2-y,-z
1/2+x,1/2-y,z
loop_
_atom_site_type_symbol
_atom_site_label
_atom_site_fract_x
_atom_site_fract_y
_atom_site_fract_z
Si Si1 0.761131 0.847556 0.920190
Si Si2 0.857955 0.350525 0.329140
Si Si3 0.269679 0.500000 0.916857
Si Si4 0.205329 0.129532 0.634875
Si Si5 0.512807 0.500000 0.652562
Si Si6 0.883775 0.500000 0.646121
Si Si7 0.867337 0.717601 0.777835
Si Si8 0.434067 0.000000 0.225046
O O1 0.673773 0.844733 0.816421
O O2 0.800361 0.923709 0.960797
O O3 0.876923 0.798037 0.824264
O O4 0.675648 0.817329 0.068862
O O5 0.739746 0.341851 0.474855
O O6 0.888466 0.432572 0.320513
O O7 0.990386 0.308580 0.319351
O O8 0.365634 0.500000 0.755605
O O9 0.126008 0.500000 0.899475
O O10 0.081945 0.074287 0.671934
O O11 0.248050 0.194497 0.718006
O O12 0.310707 0.071758 0.644108
O O13 0.500000 0.500000 0.500000
O O14 0.000000 0.500000 0.500000
O O15 0.911839 0.500000 0.796612
#
# Coordination Sequence:
#
# PCOD9170629 Si02
#       8
#     8   8   4   8   4   4   8   4
#     4  10  25  43  64  91 134 178 222 265 338 401
#     4  11  20  39  66  97 129 168 209 276 338 395
#     4  10  23  44  64  87 124 186 225 258 312 417
#     4  11  22  36  66 100 127 166 223 272 328 387
#     4  11  23  41  64  97 144 185 220 272 337 395
#     4  11  15  29  57  97 128 151 187 273 320 362
#     4  11  23  42  64  98 133 169 217 284 336 388
#     4  10  17  32  63  96 126 158 210 258 325 378
#
# _framework density 24.565722000000001
#
# number of rings (size 3 to 8) (size 9 to 14) (size 15 to 20)
#    0.000    1.333    3.333    3.500    0.000    4.000 
#    0.000    9.167    0.000    0.000    0.000    0.000 
#    0.000    0.000    0.000    0.000    0.000    0.000 
#
# Total GULP energy -133636.208319 kJ/mol
# GULP energy per Si atom -5568.175347 kJ/mol
# Density = 2.450981 g / cm^3
# Si number density = 24.565722 Si / 1000 Ang^3
#
#
#
# Elastic Constant Matrix: (Units=GPa)
#
#
# Indices 1 2 3 4 5 6 
#
# 1 45.1568 3.5694 14.7665 0.0000 -6.9746 0.0000
# 2 3.5694 138.1380 4.1430 0.0000 -16.0792 0.0000
# 3 14.7665 4.1430 79.8494 0.0000 15.8156 0.0000
# 4 0.0000 0.0000 0.0000 25.8369 0.0000 -12.6030
# 5 -6.9746 -16.0792 15.8156 0.0000 39.5056 0.0000
# 6 0.0000 0.0000 0.0000 -12.6030 0.0000 22.9577
#
#
#
# Elastic Compliance Matrix: (Units=1/GPa)
#
#
# Indices 1 2 3 4 5 6 
#
# 1 0.025184 0.000348 -0.006065 0.000000 0.007016 0.000000
# 2 0.000348 0.007693 -0.001190 0.000000 0.003669 0.000000
# 3 -0.006065 -0.001190 0.015222 0.000000 -0.007649 0.000000
# 4 0.000000 0.000000 0.000000 0.052859 0.000000 0.029018
# 5 0.007016 0.003669 -0.007649 0.000000 0.031107 0.000000
# 6 0.000000 0.000000 0.000000 0.029018 0.000000 0.059488
#
#
# Mechanical properties :
#
#
# Convention : Reuss Voigt Hill
#
# Bulk Modulus (GPa) = 29.16766 34.23357 31.70061
# Shear Modulus (GPa) = 23.06311 33.70439 28.38375
#
# Velocity S-wave (km/s) = 3.06736 3.70808 3.40284
# Velocity P-wave (km/s) = 4.94409 5.68321 5.32649
#
# Compressibility (1/GPa) = 0.03428455
#
# Stress axis : x y z
#
# Youngs Moduli (GPa) = 39.70705 129.98980 65.69447
#
# Poissons Ratio (x) = -0.04521 0.39844
# Poissons Ratio (y) = -0.01381 0.07819
# Poissons Ratio (z) = 0.24082 0.15471
#
# Static dielectric constant tensor:
#      x y z
#    x 2.090450 0.000000 0.026290 
#    y 0.000000 2.111270 0.000000 
#    z 0.026290 0.000000 1.971170 
# 
# From -- ./inp_files/131733.got.cif
#   From: 2010.05.17/outbox.cif.g08.bks.cpg/sg12_66_cif.got.tgz:131733.got - 2010.06.03 13:09:07.
