data_PCOD9170806
_publ_section_title
;
Structure prediction by ZEFSAII (Michael W. Deem and Ramdas Pophale) SiO2 
 PCOD9170806
Probable space group: C 2/M
;
_chemical_formula_sum "Si O2"
_cell_formula_units_Z 64
_cell_length_a 22.979041
_cell_length_b 17.797327
_cell_length_c 15.006945
_cell_angle_alpha 90.000000
_cell_angle_beta 30.660192
_cell_angle_gamma 90.000000
_cell_volume 3129.699479
_symmetry_space_group_name_H-M "C 2/M"
_symmetry_group_IT_number 12
_symmetry_cell_setting 'monoclinic'
loop_
_space_group_symop_operation_xyz
x,y,z
-x,y,-z
-x,-y,-z
x,-y,z
1/2+x,1/2+y,z
1/2-x,1/2+y,-z
1/2-x,1/2-y,-z
1/2+x,1/2-y,z
loop_
_atom_site_type_symbol
_atom_site_label
_atom_site_fract_x
_atom_site_fract_y
_atom_site_fract_z
Si Si1 0.450344 0.319152 0.782932
Si Si2 0.415353 0.915629 0.240525
Si Si3 0.990102 0.645374 0.712100
Si Si4 0.106289 0.839433 0.419231
Si Si5 0.850124 0.367820 0.139035
Si Si6 0.661748 0.836759 0.334079
Si Si7 0.088257 0.192389 0.961027
Si Si8 0.770906 0.586484 0.939439
O O1 0.442512 0.230071 0.776216
O O2 0.560030 0.342578 0.581445
O O3 0.454090 0.330141 0.884421
O O4 0.338581 0.362443 0.894580
O O5 0.425370 0.867469 0.316741
O O6 0.344654 0.879977 0.252636
O O7 0.376369 0.000000 0.310445
O O8 0.546088 0.916965 0.033114
O O9 0.878100 0.594183 0.864105
O O10 0.063141 0.632059 0.526959
O O11 0.227707 0.880011 0.255609
O O12 0.131877 0.751829 0.360314
O O13 0.000000 0.865919 0.500000
O O14 0.891255 0.282382 0.067171
O O15 0.785217 0.840568 0.218603
O O16 0.679577 0.879241 0.218078
O O17 0.000000 0.172794 0.000000
O O18 0.737190 0.500000 0.973790
#
# Coordination Sequence:
#
# PCOD9170806 Si02
#       8
#     8   8   8   8   8   8   8   8
#     4  10  21  37  59  86 116 152 197 246 288 345
#     4  11  22  36  57  83 115 153 193 241 299 349
#     4  11  20  36  58  87 112 152 202 243 288 345
#     4  10  21  36  60  89 114 153 200 246 288 341
#     4  10  19  36  55  79 116 151 187 235 293 344
#     4   9  21  35  56  85 120 150 191 244 296 342
#     4  10  17  34  59  87 113 149 193 240 291 346
#     4  11  23  37  57  85 122 158 190 241 304 361
#
# _framework density 20.449248000000001
#
# number of rings (size 3 to 8) (size 9 to 14) (size 15 to 20)
#    0.000    1.750    2.500    3.375    1.750    2.500 
#    0.000    5.000    0.000    7.875    0.000    0.000 
#    0.000    0.000    0.000    0.000    0.000    0.000 
#
# Total GULP energy -178629.719429 kJ/mol
# GULP energy per Si atom -5582.178732 kJ/mol
# Density = 2.040270 g / cm^3
# Si number density = 20.449248 Si / 1000 Ang^3
#
#
#
# Elastic Constant Matrix: (Units=GPa)
#
#
# Indices 1 2 3 4 5 6 
#
# 1 97.4757 -0.5541 22.1724 0.0000 -25.0502 0.0000
# 2 -0.5541 25.6458 20.8374 0.0000 2.5593 0.0000
# 3 22.1724 20.8374 68.5341 0.0000 -6.9141 0.0000
# 4 0.0000 0.0000 0.0000 -0.9827 0.0000 -0.9122
# 5 -25.0502 2.5593 -6.9141 0.0000 32.9623 0.0000
# 6 0.0000 0.0000 0.0000 -0.9122 0.0000 1.5107
#
#
#
# Elastic Compliance Matrix: (Units=1/GPa)
#
#
# Indices 1 2 3 4 5 6 
#
# 1 0.013640 0.002927 -0.004373 0.000000 0.009221 0.000000
# 2 0.002927 0.054285 -0.018035 0.000000 -0.005773 0.000000
# 3 -0.004373 -0.018035 0.021756 0.000000 0.002641 0.000000
# 4 0.000000 0.000000 0.000000 -0.652097 0.000000 -0.393746
# 5 0.009221 -0.005773 0.002641 0.000000 0.038348 0.000000
# 6 0.000000 0.000000 0.000000 -0.393746 0.000000 0.424206
#
#
# Mechanical properties :
#
#
# Convention : Reuss Voigt Hill
#
# Bulk Modulus (GPa) = 19.71570 30.72968 25.22269
# Shear Modulus (GPa) = -113.64942 16.64470 -48.50236
#
# Velocity S-wave (km/s) = -7.46304 2.85608 -4.87544
# Velocity P-wave (km/s) = 8.03744 5.09276 4.39683
#
# Compressibility (1/GPa) = 0.05072099
#
# Stress axis : x y z
#
# Youngs Moduli (GPa) = 73.31361 18.42122 45.96518
#
# Poissons Ratio (x) = -0.05392 0.20098
# Poissons Ratio (y) = -0.21460 0.82896
# Poissons Ratio (z) = 0.32057 0.33222
#
# Static dielectric constant tensor:
#      x y z
#    x 1.772600 0.000000 0.010700 
#    y 0.000000 1.714500 0.000000 
#    z 0.010700 0.000000 1.722400 
# 
# From -- ./inp_files/241473.got.cif
#   From: 2010.05.17/outbox.cif.g08.bks.cpg/sg12_121_cif.got.tgz:241473.got - 2010.06.03 13:09:07.
