data_PCOD9170400
_publ_section_title
;
Structure prediction by ZEFSAII (Michael W. Deem and Ramdas Pophale) SiO2 
 PCOD9170400
Probable space group: C 2/M
;
_chemical_formula_sum "Si O2"
_cell_formula_units_Z 64
_cell_length_a 16.625017
_cell_length_b 17.331801
_cell_length_c 18.926331
_cell_angle_alpha 90.000000
_cell_angle_beta 148.184141
_cell_angle_gamma 90.000000
_cell_volume 2875.015735
_symmetry_space_group_name_H-M "C 2/M"
_symmetry_group_IT_number 12
_symmetry_cell_setting 'monoclinic'
loop_
_space_group_symop_operation_xyz
x,y,z
-x,y,-z
-x,-y,-z
x,-y,z
1/2+x,1/2+y,z
1/2-x,1/2+y,-z
1/2-x,1/2-y,-z
1/2+x,1/2-y,z
loop_
_atom_site_type_symbol
_atom_site_label
_atom_site_fract_x
_atom_site_fract_y
_atom_site_fract_z
Si Si1 0.356061 0.183360 0.657246
Si Si2 0.397100 0.349159 0.750975
Si Si3 0.636683 0.847514 0.677788
Si Si4 0.549372 0.912386 0.140271
Si Si5 0.720677 0.149236 0.133890
Si Si6 0.645378 0.915607 0.476628
Si Si7 0.000680 0.825174 0.421305
Si Si8 0.132708 0.177871 0.039740
O O1 0.409689 0.268013 0.719309
O O2 0.425890 0.123951 0.765384
O O3 0.385303 0.153052 0.601164
O O4 0.174260 0.181972 0.529660
O O5 0.265431 0.347586 0.713406
O O6 0.314749 0.406754 0.635390
O O7 0.555630 0.357258 0.912150
O O8 0.490021 0.902454 0.567995
O O9 0.574396 0.759824 0.629187
O O10 0.727250 0.864896 0.818353
O O11 0.639131 0.859018 0.150302
O O12 0.605082 0.000000 0.176662
O O13 0.373399 0.908437 0.985174
O O14 0.895750 0.134539 0.283957
O O15 0.689621 0.233341 0.076601
O O16 0.631130 0.000000 0.433300
O O17 0.000000 0.860205 0.500000
O O18 0.000000 0.180095 0.000000
#
# Coordination Sequence:
#
# PCOD9170400 Si02
#       8
#     8   8   8   8   8   8   8   8
#     4  12  22  40  61  91 124 164 209 259 308 367
#     4  11  20  39  68  94 121 156 210 266 311 360
#     4  10  20  37  65  98 121 152 204 265 311 360
#     4  11  20  33  53  81 124 171 206 246 305 372
#     4  10  17  31  53  88 120 158 202 257 299 358
#     4  12  27  43  59  88 131 174 205 248 320 388
#     4  11  18  33  60  92 119 150 205 258 299 344
#     4   9  16  32  61  95 119 143 198 267 315 346
#
# _framework density 22.260746000000001
#
# number of rings (size 3 to 8) (size 9 to 14) (size 15 to 20)
#    0.000    1.250    6.250    2.625    0.000    1.000 
#    0.000    5.625    0.000    2.250    0.000    0.000 
#    0.000    0.000    0.000    0.000    0.000    0.000 
#
# Total GULP energy -178602.390109 kJ/mol
# GULP energy per Si atom -5581.324691 kJ/mol
# Density = 2.221008 g / cm^3
# Si number density = 22.260746 Si / 1000 Ang^3
#
#
#
# Elastic Constant Matrix: (Units=GPa)
#
#
# Indices 1 2 3 4 5 6 
#
# 1 41.0830 -6.3363 10.7027 0.0003 -12.6869 0.0003
# 2 -6.3363 34.8045 9.3047 0.0009 -7.4803 0.0011
# 3 10.7027 9.3047 158.1178 0.0016 -19.8017 0.0012
# 4 0.0003 0.0009 0.0016 10.5057 0.0006 -1.1179
# 5 -12.6869 -7.4803 -19.8017 0.0006 25.9043 0.0003
# 6 0.0003 0.0011 0.0012 -1.1179 0.0003 4.2464
#
#
#
# Elastic Compliance Matrix: (Units=1/GPa)
#
#
# Indices 1 2 3 4 5 6 
#
# 1 0.031471 0.009691 -0.000464 -0.000003 0.017857 -0.000006
# 2 0.009691 0.033702 -0.000913 -0.000005 0.013780 -0.000011
# 3 -0.000464 -0.000913 0.007020 -0.000001 0.004875 -0.000002
# 4 -0.000003 -0.000005 -0.000001 0.097930 -0.000007 0.025782
# 5 0.017857 0.013780 0.004875 -0.000007 0.055055 -0.000012
# 6 -0.000006 -0.000011 -0.000002 0.025782 -0.000012 0.242283
#
#
# Mechanical properties :
#
#
# Convention : Reuss Voigt Hill
#
# Bulk Modulus (GPa) = 11.25862 29.03860 20.14861
# Shear Modulus (GPa) = 10.40709 22.82020 16.61364
#
# Velocity S-wave (km/s) = 2.16454 3.20524 2.73485
# Velocity P-wave (km/s) = 3.36386 5.17409 4.36387
#
# Compressibility (1/GPa) = 0.08882084
#
# Stress axis : x y z
#
# Youngs Moduli (GPa) = 31.77519 29.67163 142.44785
#
# Poissons Ratio (x) = -0.28756 0.06613
# Poissons Ratio (y) = -0.30795 0.13012
# Poissons Ratio (z) = 0.01475 0.02710
#
# Static dielectric constant tensor:
#      x y z
#    x 1.877150 0.000000 -0.027940 
#    y 0.000000 1.777130 0.000000 
#    z -0.027940 0.000000 1.874120 
# 
# From -- ./inp_files/317408.got.cif
#   From: 2010.05.17/outbox.cif.g08.bks.cpg/sg12_159_cif.got.tgz:317408.got - 2010.06.03 13:09:07.
