data_PCOD9170480
_publ_section_title
;
Structure prediction by ZEFSAII (Michael W. Deem and Ramdas Pophale) SiO2 
 PCOD9170480
Probable space group: C 2/M
;
_chemical_formula_sum "Si O2"
_cell_formula_units_Z 56
_cell_length_a 23.149826
_cell_length_b 17.947795
_cell_length_c 7.125804
_cell_angle_alpha 90.000000
_cell_angle_beta 47.846191
_cell_angle_gamma 90.000000
_cell_volume 2194.894177
_symmetry_space_group_name_H-M "C 2/M"
_symmetry_group_IT_number 12
_symmetry_cell_setting 'monoclinic'
loop_
_space_group_symop_operation_xyz
x,y,z
-x,y,-z
-x,-y,-z
x,-y,z
1/2+x,1/2+y,z
1/2-x,1/2+y,-z
1/2-x,1/2-y,-z
1/2+x,1/2-y,z
loop_
_atom_site_type_symbol
_atom_site_label
_atom_site_fract_x
_atom_site_fract_y
_atom_site_fract_z
Si Si1 0.573492 0.416037 0.477567
Si Si2 0.522135 0.083168 0.730127
Si Si3 0.215293 0.841088 0.248275
Si Si4 0.664628 0.820060 0.511248
Si Si5 0.189301 0.912300 0.700435
Si Si6 0.037848 0.810601 0.091401
Si Si7 0.884535 0.678909 0.939087
O O1 0.500000 0.419014 0.500000
O O2 0.588650 0.500000 0.506165
O O3 0.653479 0.377225 0.240556
O O4 0.536461 0.362649 0.711736
O O5 0.592041 0.141854 0.566403
O O6 0.545533 0.000000 0.623234
O O7 0.500000 0.080450 0.000000
O O8 0.444060 0.110936 0.798407
O O9 0.186400 0.760934 0.385676
O O10 0.210840 0.897887 0.434537
O O11 0.305118 0.830495 0.998153
O O12 0.738744 0.874880 0.347220
O O13 0.644462 0.812145 0.778941
O O14 0.179275 0.000000 0.762258
O O15 0.111219 0.864964 0.905086
O O16 0.064445 0.753412 0.193919
O O17 0.000000 0.764597 0.000000
#
# Coordination Sequence:
#
# PCOD9170480 Si02
#       7
#     8   8   8   8   8   8   8
#     4  11  25  41  56  79 114 149 181 226 280 324
#     4   9  17  26  41  67 103 145 177 209 264 325
#     4  11  19  34  54  77 108 146 181 220 269 328
#     4  10  17  32  48  75 115 142 173 220 278 318
#     4  11  20  29  51  85 115 143 180 227 274 326
#     4  12  20  35  58  85 113 142 184 227 272 328
#     4  10  18  30  51  79 109 142 175 225 271 318
#
# _framework density 25.513760000000001
#
# number of rings (size 3 to 8) (size 9 to 14) (size 15 to 20)
#    0.000    1.429    4.286    4.286    0.000    4.571 
#    0.000    0.714    0.000    0.000    0.000    0.000 
#    0.000    3.429    0.000    0.000    0.000    0.000 
#
# Total GULP energy -156755.079196 kJ/mol
# GULP energy per Si atom -5598.395686 kJ/mol
# Density = 2.545569 g / cm^3
# Si number density = 25.513760 Si / 1000 Ang^3
#
#
#
# Elastic Constant Matrix: (Units=GPa)
#
#
# Indices 1 2 3 4 5 6 
#
# 1 139.0491 55.4232 39.4923 0.0000 -57.1032 0.0000
# 2 55.4232 171.0863 32.1299 0.0000 -40.9555 0.0000
# 3 39.4923 32.1299 99.1411 0.0000 -30.7030 0.0000
# 4 0.0000 0.0000 0.0000 21.9259 0.0000 -16.8494
# 5 -57.1032 -40.9555 -30.7030 0.0000 45.7599 0.0000
# 6 0.0000 0.0000 0.0000 -16.8494 0.0000 42.6205
#
#
#
# Elastic Compliance Matrix: (Units=1/GPa)
#
#
# Indices 1 2 3 4 5 6 
#
# 1 0.014784 -0.000468 -0.000194 0.000000 0.017900 0.000000
# 2 -0.000468 0.007469 -0.000435 0.000000 0.005809 0.000000
# 3 -0.000194 -0.000435 0.012761 0.000000 0.007930 0.000000
# 4 0.000000 0.000000 0.000000 0.065511 0.000000 0.025899
# 5 0.017900 0.005809 0.007930 0.000000 0.054711 0.000000
# 6 0.000000 0.000000 0.000000 0.025899 0.000000 0.033702
#
#
# Mechanical properties :
#
#
# Convention : Reuss Voigt Hill
#
# Bulk Modulus (GPa) = 30.46943 73.70747 52.08845
# Shear Modulus (GPa) = 24.74376 40.87667 32.81021
#
# Velocity S-wave (km/s) = 3.11757 4.00702 3.58995
# Velocity P-wave (km/s) = 4.99272 7.09650 6.13545
#
# Compressibility (1/GPa) = 0.03281978
#
# Stress axis : x y z
#
# Youngs Moduli (GPa) = 67.63881 133.88936 78.36410
#
# Poissons Ratio (x) = 0.06264 0.01521
# Poissons Ratio (y) = 0.03165 0.03411
# Poissons Ratio (z) = 0.01313 0.05827
#
# Static dielectric constant tensor:
#      x y z
#    x 2.139710 0.000000 0.149640 
#    y 0.000000 1.937870 0.000000 
#    z 0.149640 0.000000 2.160590 
# 
# From -- ./inp_files/105945.got.cif
#   From: 2010.05.17/outbox.cif.g08.bks.cpg/sg12_53_cif.got.tgz:105945.got - 2010.06.03 13:09:07.
