data_PCOD9170812
_publ_section_title
;
Structure prediction by ZEFSAII (Michael W. Deem and Ramdas Pophale) SiO2 
 PCOD9170812
Probable space group: C 2/M
;
_chemical_formula_sum "Si O2"
_cell_formula_units_Z 44
_cell_length_a 13.229461
_cell_length_b 20.896341
_cell_length_c 23.426508
_cell_angle_alpha 90.000000
_cell_angle_beta 159.000009
_cell_angle_gamma 90.000000
_cell_volume 2320.859970
_symmetry_space_group_name_H-M "C 2/M"
_symmetry_group_IT_number 12
_symmetry_cell_setting 'monoclinic'
loop_
_space_group_symop_operation_xyz
x,y,z
-x,y,-z
-x,-y,-z
x,-y,z
1/2+x,1/2+y,z
1/2-x,1/2+y,-z
1/2-x,1/2-y,-z
1/2+x,1/2-y,z
loop_
_atom_site_type_symbol
_atom_site_label
_atom_site_fract_x
_atom_site_fract_y
_atom_site_fract_z
Si Si1 0.929349 0.253595 0.184200
Si Si2 0.441181 0.427530 0.401865
Si Si3 0.000000 0.653936 0.000000
Si Si4 0.326226 0.189032 0.579493
Si Si5 0.634854 0.925932 0.960350
Si Si6 0.944046 0.174403 0.859541
O O1 0.774321 0.199067 0.140185
O O2 0.142766 0.289486 0.338110
O O3 0.068923 0.221985 0.201925
O O4 0.672132 0.295866 0.023660
O O5 0.500000 0.425477 0.500000
O O6 0.515550 0.500000 0.420495
O O7 0.611491 0.370064 0.462144
O O8 0.108918 0.419525 0.215381
O O9 0.986825 0.610811 0.048980
O O10 0.250000 0.250000 0.500000
O O11 0.640112 0.167614 0.726725
O O12 0.681372 0.000000 0.997410
O O13 0.917149 0.890778 0.089464
#
# Coordination Sequence:
#
# PCOD9170812 Si02
#       6
#     8   8   4   8   8   8
#     4  10  20  36  57  82 119 145 193 239 283 345
#     4  10  23  40  58  83 120 158 193 236 288 348
#     4  10  17  34  60  84 111 142 190 248 282 328
#     4  12  24  35  59  91 119 153 189 242 301 344
#     4  10  21  38  60  83 111 154 200 232 278 349
#     4  10  22  37  58  84 113 154 188 239 290 333
#
# _framework density 18.958490000000001
#
# number of rings (size 3 to 8) (size 9 to 14) (size 15 to 20)
#    0.000    1.636    1.818    2.455    7.636    0.727 
#    0.000    0.000    0.000    5.455    0.000   10.182 
#    0.000    0.000    0.000    0.000    0.000    0.000 
#
# Total GULP energy -122900.857077 kJ/mol
# GULP energy per Si atom -5586.402594 kJ/mol
# Density = 1.891534 g / cm^3
# Si number density = 18.958490 Si / 1000 Ang^3
#
#
#
# Elastic Constant Matrix: (Units=GPa)
#
#
# Indices 1 2 3 4 5 6 
#
# 1 42.2103 28.0744 9.9104 0.0235 -1.2236 0.0209
# 2 28.0744 112.5233 25.4113 0.3388 7.8316 0.5082
# 3 9.9104 25.4113 49.8324 1.5895 -4.0373 2.3704
# 4 0.0235 0.3388 1.5895 -290.3943 0.3769 -498.1638
# 5 -1.2236 7.8316 -4.0373 0.3769 29.2781 0.5658
# 6 0.0209 0.5082 2.3704 -498.1638 0.5658 -746.3064
#
#
#
# Elastic Compliance Matrix: (Units=1/GPa)
#
#
# Indices 1 2 3 4 5 6 
#
# 1 0.028856 -0.006949 -0.001968 -0.000006 0.002794 -0.000004
# 2 -0.006949 0.012070 -0.005115 0.000002 -0.004224 -0.000013
# 3 -0.001968 -0.005115 0.023429 -0.000004 0.004515 0.000077
# 4 -0.000006 0.000002 -0.000004 0.023734 -0.000001 -0.015843
# 5 0.002794 -0.004224 0.004515 -0.000001 0.036024 0.000039
# 6 -0.000004 -0.000013 0.000077 -0.015843 0.000039 0.009236
#
#
# Mechanical properties :
#
#
# Convention : Reuss Voigt Hill
#
# Bulk Modulus (GPa) = 27.55526 36.81758 32.18642
# Shear Modulus (GPa) = 28.81673 -192.07318 -81.62823
#
# Velocity S-wave (km/s) = 3.90294 -10.07633 -6.56885
# Velocity P-wave (km/s) = 5.90564 10.76635 6.36544
#
# Compressibility (1/GPa) = 0.03629071
#
# Stress axis : x y z
#
# Youngs Moduli (GPa) = 34.65466 82.85000 42.68206
#
# Poissons Ratio (x) = 0.57576 0.08401
# Poissons Ratio (y) = 0.24083 0.21830
# Poissons Ratio (z) = 0.06821 0.42374
#
# Static dielectric constant tensor:
#      x y z
#    x 1.654950 0.000000 -0.022410 
#    y 0.000000 1.678890 -0.000020 
#    z -0.022410 -0.000020 1.649790 
# 
# From -- ./inp_files/340892.got.cif
#   From: 2010.05.17/outbox.cif.g08.bks.cpg/sg12_171_cif.got.tgz:340892.got - 2010.06.03 13:09:07.
