data_PCOD9170716
_publ_section_title
;
Structure prediction by ZEFSAII (Michael W. Deem and Ramdas Pophale) SiO2 
 PCOD9170716
Probable space group: C 2/M
;
_chemical_formula_sum "Si O2"
_cell_formula_units_Z 56
_cell_length_a 9.490910
_cell_length_b 17.933323
_cell_length_c 19.070244
_cell_angle_alpha 90.000000
_cell_angle_beta 115.048754
_cell_angle_gamma 90.000000
_cell_volume 2940.546640
_symmetry_space_group_name_H-M "C 2/M"
_symmetry_group_IT_number 12
_symmetry_cell_setting 'monoclinic'
loop_
_space_group_symop_operation_xyz
x,y,z
-x,y,-z
-x,-y,-z
x,-y,z
1/2+x,1/2+y,z
1/2-x,1/2+y,-z
1/2-x,1/2-y,-z
1/2+x,1/2-y,z
loop_
_atom_site_type_symbol
_atom_site_label
_atom_site_fract_x
_atom_site_fract_y
_atom_site_fract_z
Si Si1 0.825891 0.917393 0.275815
Si Si2 0.780584 0.686535 0.177872
Si Si3 0.190916 0.666957 0.969017
Si Si4 0.679141 0.147608 0.117056
Si Si5 0.114524 0.315839 0.322481
Si Si6 0.518988 0.085941 0.586821
Si Si7 0.152087 0.146373 0.297703
O O1 0.720179 0.911855 0.184092
O O2 0.755432 0.857248 0.313905
O O3 0.997527 0.896091 0.287010
O O4 0.820330 0.000000 0.304986
O O5 0.749044 0.647971 0.096063
O O6 0.759808 0.774879 0.158590
O O7 0.669525 0.661201 0.217763
O O8 0.956500 0.674414 0.242648
O O9 0.004212 0.665171 0.923122
O O10 0.250000 0.750000 0.000000
O O11 0.229580 0.624292 0.049184
O O12 0.080464 0.355848 0.388684
O O13 0.148270 0.228244 0.331973
O O14 0.500000 0.096473 0.500000
O O15 0.696827 0.101835 0.645680
O O16 0.478772 0.000000 0.595727
#
# Coordination Sequence:
#
# PCOD9170716 Si02
#       7
#     8   8   8   8   8   8   8
#     4  12  23  36  57  88 122 153 188 240 303 353
#     4  10  17  33  59  83 110 146 199 245 280 328
#     4   9  18  29  52  84 112 148 199 247 287 335
#     4  10  18  32  52  84 114 149 191 248 292 331
#     4  11  20  38  64  88 113 151 198 241 282 348
#     4  10  23  43  63  86 120 157 190 230 290 360
#     4  11  21  37  63  89 118 149 196 245 286 337
#
# _framework density 19.044077000000001
#
# number of rings (size 3 to 8) (size 9 to 14) (size 15 to 20)
#    0.000    1.571    4.286    1.714    2.000    0.571 
#    0.000    2.143    0.000    3.429    0.000    0.000 
#    0.000    0.000    0.000    0.000    0.000    0.000 
#
# Total GULP energy -156221.686588 kJ/mol
# GULP energy per Si atom -5579.345950 kJ/mol
# Density = 1.900073 g / cm^3
# Si number density = 19.044077 Si / 1000 Ang^3
#
#
#
# Elastic Constant Matrix: (Units=GPa)
#
#
# Indices 1 2 3 4 5 6 
#
# 1 71.2137 1.7176 17.1909 0.0000 -7.5752 0.0000
# 2 1.7176 46.6264 13.9555 0.0000 -8.6380 0.0000
# 3 17.1909 13.9555 67.1937 0.0000 -23.2064 0.0000
# 4 0.0000 0.0000 0.0000 10.5824 0.0000 2.2613
# 5 -7.5752 -8.6380 -23.2064 0.0000 24.7766 0.0000
# 6 0.0000 0.0000 0.0000 2.2613 0.0000 10.7231
#
#
#
# Elastic Compliance Matrix: (Units=1/GPa)
#
#
# Indices 1 2 3 4 5 6 
#
# 1 0.015029 0.000781 -0.003438 0.000000 0.001646 0.000000
# 2 0.000781 0.023373 -0.003189 0.000000 0.005400 0.000000
# 3 -0.003438 -0.003189 0.023173 0.000000 0.019542 0.000000
# 4 0.000000 0.000000 0.000000 0.098956 0.000000 -0.020868
# 5 0.001646 0.005400 0.019542 0.000000 0.061050 0.000000
# 6 0.000000 0.000000 0.000000 -0.020868 0.000000 0.097657
#
#
# Mechanical properties :
#
#
# Convention : Reuss Voigt Hill
#
# Bulk Modulus (GPa) = 20.04747 27.86243 23.95495
# Shear Modulus (GPa) = 14.38600 19.36107 16.87354
#
# Velocity S-wave (km/s) = 2.75145 3.19195 2.97985
# Velocity P-wave (km/s) = 4.54353 5.31479 4.94422
#
# Compressibility (1/GPa) = 0.04988161
#
# Stress axis : x y z
#
# Youngs Moduli (GPa) = 66.53994 42.78390 43.15280
#
# Poissons Ratio (x) = -0.03339 0.14838
# Poissons Ratio (y) = -0.05194 0.13761
# Poissons Ratio (z) = 0.22879 0.13644
#
# Static dielectric constant tensor:
#      x y z
#    x 1.683390 0.000000 -0.023120 
#    y 0.000000 1.653640 0.000000 
#    z -0.023120 0.000000 1.670900 
# 
# From -- ./inp_files/300910.got.cif
#   From: 2010.05.17/outbox.cif.g08.bks.cpg/sg12_151_cif.got.tgz:300910.got - 2010.06.03 13:09:07.
