data_PCOD9170808
_publ_section_title
;
Structure prediction by ZEFSAII (Michael W. Deem and Ramdas Pophale) SiO2 
 PCOD9170808
Probable space group: C 2/M
;
_chemical_formula_sum "Si O2"
_cell_formula_units_Z 48
_cell_length_a 10.587886
_cell_length_b 28.541417
_cell_length_c 19.123463
_cell_angle_alpha 90.000000
_cell_angle_beta 153.043782
_cell_angle_gamma 90.000000
_cell_volume 2619.667432
_symmetry_space_group_name_H-M "C 2/M"
_symmetry_group_IT_number 12
_symmetry_cell_setting 'monoclinic'
loop_
_space_group_symop_operation_xyz
x,y,z
-x,y,-z
-x,-y,-z
x,-y,z
1/2+x,1/2+y,z
1/2-x,1/2+y,-z
1/2-x,1/2-y,-z
1/2+x,1/2-y,z
loop_
_atom_site_type_symbol
_atom_site_label
_atom_site_fract_x
_atom_site_fract_y
_atom_site_fract_z
Si Si1 0.043033 0.300050 0.104887
Si Si2 0.208426 0.402872 0.773023
Si Si3 0.293112 0.944880 0.075053
Si Si4 0.302421 0.900229 0.834344
Si Si5 0.287277 0.054492 0.459297
Si Si6 0.547586 0.696718 0.107189
O O1 0.218087 0.346856 0.203650
O O2 0.156423 0.248629 0.180885
O O3 0.747996 0.307535 0.998594
O O4 0.000000 0.297618 0.000000
O O5 0.177313 0.414234 0.839964
O O6 0.264289 0.348341 0.784819
O O7 0.945028 0.422215 0.602137
O O8 0.494588 0.430364 0.894841
O O9 0.538938 0.931704 0.144172
O O10 0.291093 0.000000 0.090939
O O11 0.000369 0.920347 0.700392
O O12 0.500000 0.899781 0.000000
O O13 0.500000 0.057751 0.500000
O O14 0.232979 0.000000 0.447296
O O15 0.500000 0.695565 0.000000
#
# Coordination Sequence:
#
# PCOD9170808 Si02
#       6
#     8   8   8   8   8   8
#     4   9  19  32  57  89 114 147 196 241 288 344
#     4  11  20  37  58  86 117 148 194 236 296 351
#     4  11  21  35  60  85 114 153 197 241 285 353
#     4  11  22  39  59  85 115 152 204 245 289 350
#     4  11  25  40  56  80 117 157 192 242 301 348
#     4  10  17  34  59  88 118 150 188 237 296 351
#
# _framework density 18.322937
#
# number of rings (size 3 to 8) (size 9 to 14) (size 15 to 20)
#    0.000    1.500    3.333    3.500    2.333    3.333 
#    0.000    2.500    0.000    0.000    0.000    0.000 
#    0.000    0.000    0.000    0.000    0.000    0.000 
#
# Total GULP energy -133918.589869 kJ/mol
# GULP energy per Si atom -5579.941245 kJ/mol
# Density = 1.828123 g / cm^3
# Si number density = 18.322937 Si / 1000 Ang^3
#
#
#
# Elastic Constant Matrix: (Units=GPa)
#
#
# Indices 1 2 3 4 5 6 
#
# 1 72.0579 28.6073 18.3896 0.0002 14.4274 0.0008
# 2 28.6073 177.0311 64.0461 0.0001 13.7415 -0.0001
# 3 18.3896 64.0461 94.0552 0.0002 1.2901 0.0017
# 4 0.0002 0.0001 0.0002 18.0349 0.0000 6.6494
# 5 14.4274 13.7415 1.2901 0.0000 23.5886 0.0012
# 6 0.0008 -0.0001 0.0017 6.6494 0.0012 23.1470
#
#
#
# Elastic Compliance Matrix: (Units=1/GPa)
#
#
# Indices 1 2 3 4 5 6 
#
# 1 0.016839 -0.001112 -0.002404 0.000000 -0.009520 0.000000
# 2 -0.001112 0.007985 -0.005169 0.000000 -0.003689 0.000001
# 3 -0.002404 -0.005169 0.014572 0.000000 0.003685 -0.000001
# 4 0.000000 0.000000 0.000000 0.062016 0.000001 -0.017815
# 5 -0.009520 -0.003689 0.003685 0.000001 0.050163 -0.000003
# 6 0.000000 0.000001 -0.000001 -0.017815 -0.000003 0.048320
#
#
# Mechanical properties :
#
#
# Convention : Reuss Voigt Hill
#
# Bulk Modulus (GPa) = 45.40560 62.80335 54.10448
# Shear Modulus (GPa) = 22.26104 28.42752 25.34428
#
# Velocity S-wave (km/s) = 3.48936 3.94315 3.72317
# Velocity P-wave (km/s) = 6.40849 7.42169 6.93362
#
# Compressibility (1/GPa) = 0.02202371
#
# Stress axis : x y z
#
# Youngs Moduli (GPa) = 59.38612 125.23678 68.62711
#
# Poissons Ratio (x) = 0.13930 0.16500
# Poissons Ratio (y) = 0.06606 0.35474
# Poissons Ratio (z) = 0.14278 0.64737
#
# Static dielectric constant tensor:
#      x y z
#    x 1.651780 0.000000 -0.008650 
#    y 0.000000 1.671530 0.000000 
#    z -0.008650 0.000000 1.595240 
# 
# From -- ./inp_files/337254.got.cif
#   From: 2010.05.17/outbox.cif.g08.bks.cpg/sg12_169_cif.got.tgz:337254.got - 2010.06.03 13:09:07.
