data_PCOD9170316
_publ_section_title
;
Structure prediction by ZEFSAII (Michael W. Deem and Ramdas Pophale) SiO2 
 PCOD9170316
Probable space group: C 2/M
;
_chemical_formula_sum "Si O2"
_cell_formula_units_Z 52
_cell_length_a 13.055737
_cell_length_b 22.647357
_cell_length_c 11.800188
_cell_angle_alpha 90.000000
_cell_angle_beta 127.868687
_cell_angle_gamma 90.000000
_cell_volume 2754.328882
_symmetry_space_group_name_H-M "C 2/M"
_symmetry_group_IT_number 12
_symmetry_cell_setting 'monoclinic'
loop_
_space_group_symop_operation_xyz
x,y,z
-x,y,-z
-x,-y,-z
x,-y,z
1/2+x,1/2+y,z
1/2-x,1/2+y,-z
1/2-x,1/2-y,-z
1/2+x,1/2-y,z
loop_
_atom_site_type_symbol
_atom_site_label
_atom_site_fract_x
_atom_site_fract_y
_atom_site_fract_z
Si Si1 0.810279 0.788375 0.192375
Si Si2 0.633758 0.683724 0.027612
Si Si3 0.500000 0.655333 0.500000
Si Si4 0.346349 0.095415 0.892828
Si Si5 0.785401 0.068257 0.434294
Si Si6 0.463981 0.928454 0.600673
Si Si7 0.775537 0.433528 0.092687
O O1 0.748582 0.723891 0.156793
O O2 0.913131 0.805395 0.357825
O O3 0.693223 0.835726 0.126037
O O4 0.870026 0.798405 0.107851
O O5 0.673535 0.615269 0.061677
O O6 0.500000 0.695133 0.000000
O O7 0.406903 0.611786 0.508715
O O8 0.284202 0.070561 0.736021
O O9 0.500000 0.086407 0.000000
O O10 0.284366 0.067307 0.962824
O O11 0.675639 0.090299 0.447328
O O12 0.821313 0.000000 0.482969
O O13 0.500000 0.907123 0.500000
O O14 0.582308 0.914659 0.765219
O O15 0.456698 0.000000 0.592515
O O16 0.749100 0.500000 0.115488
#
# Coordination Sequence:
#
# PCOD9170316 Si02
#       7
#     8   8   4   8   8   8   8
#     4   9  21  39  58  83 113 143 190 236 284 336
#     4  10  21  40  62  81 110 150 187 232 288 340
#     4  10  21  38  56  84 117 144 190 240 288 342
#     4  10  17  30  57  86 112 144 188 236 279 324
#     4  10  19  31  53  83 119 156 185 228 285 337
#     4   9  18  32  48  73 113 156 191 219 263 330
#     4  10  20  33  53  84 115 142 186 235 275 335
#
# _framework density 18.879373000000001
#
# number of rings (size 3 to 8) (size 9 to 14) (size 15 to 20)
#    0.000    2.308    1.538    1.154    0.000    2.154 
#    1.385    1.538    0.000    0.000    0.000    0.000 
#    0.000    0.000    0.000    0.000    0.000    0.000 
#
# Total GULP energy -145078.948800 kJ/mol
# GULP energy per Si atom -5579.959569 kJ/mol
# Density = 1.883640 g / cm^3
# Si number density = 18.879373 Si / 1000 Ang^3
#
#
#
# Elastic Constant Matrix: (Units=GPa)
#
#
# Indices 1 2 3 4 5 6 
#
# 1 121.3657 38.8267 29.6965 0.0000 4.8707 0.0000
# 2 38.8267 90.3049 30.7123 0.0000 7.1160 0.0000
# 3 29.6965 30.7123 60.4819 0.0000 7.1980 0.0000
# 4 0.0000 0.0000 0.0000 4.6141 0.0000 5.2316
# 5 4.8707 7.1160 7.1980 0.0000 21.1296 0.0000
# 6 0.0000 0.0000 0.0000 5.2316 0.0000 10.4720
#
#
#
# Elastic Compliance Matrix: (Units=1/GPa)
#
#
# Indices 1 2 3 4 5 6 
#
# 1 0.010077 -0.003198 -0.003310 0.000000 -0.000118 0.000000
# 2 -0.003198 0.014507 -0.005527 0.000000 -0.002266 0.000000
# 3 -0.003310 -0.005527 0.021526 0.000000 -0.004709 0.000000
# 4 0.000000 0.000000 0.000000 0.499862 0.000000 -0.249719
# 5 -0.000118 -0.002266 -0.004709 0.000000 0.049721 0.000000
# 6 0.000000 0.000000 0.000000 -0.249719 0.000000 0.220247
#
#
# Mechanical properties :
#
#
# Convention : Reuss Voigt Hill
#
# Bulk Modulus (GPa) = 45.37011 52.29150 48.83081
# Shear Modulus (GPa) = 5.90071 18.77094 12.33583
#
# Velocity S-wave (km/s) = 1.76982 3.15660 2.55895
# Velocity P-wave (km/s) = 5.31602 6.40651 5.88657
#
# Compressibility (1/GPa) = 0.02204094
#
# Stress axis : x y z
#
# Youngs Moduli (GPa) = 99.23377 68.93436 46.45573
#
# Poissons Ratio (x) = 0.22043 0.15377
# Poissons Ratio (y) = 0.31731 0.25674
# Poissons Ratio (z) = 0.32847 0.38098
#
# Static dielectric constant tensor:
#      x y z
#    x 1.636010 0.000000 -0.011440 
#    y 0.000000 1.665710 0.000000 
#    z -0.011440 0.000000 1.643840 
# 
# From -- ./inp_files/136024.got.cif
#   From: 2010.05.17/outbox.cif.g08.bks.cpg/sg12_69_cif.got.tgz:136024.got - 2010.06.03 13:09:07.
