data_PCOD9170401
_publ_section_title
;
Structure prediction by ZEFSAII (Michael W. Deem and Ramdas Pophale) SiO2 
 PCOD9170401
Probable space group: C 2/M
;
_chemical_formula_sum "Si O2"
_cell_formula_units_Z 56
_cell_length_a 17.910131
_cell_length_b 20.500839
_cell_length_c 10.463717
_cell_angle_alpha 90.000000
_cell_angle_beta 49.940273
_cell_angle_gamma 90.000000
_cell_volume 2940.560149
_symmetry_space_group_name_H-M "C 2/M"
_symmetry_group_IT_number 12
_symmetry_cell_setting 'monoclinic'
loop_
_space_group_symop_operation_xyz
x,y,z
-x,y,-z
-x,-y,-z
x,-y,z
1/2+x,1/2+y,z
1/2-x,1/2+y,-z
1/2-x,1/2-y,-z
1/2+x,1/2-y,z
loop_
_atom_site_type_symbol
_atom_site_label
_atom_site_fract_x
_atom_site_fract_y
_atom_site_fract_z
Si Si1 0.785214 0.575199 0.083777
Si Si2 0.482694 0.736040 0.199127
Si Si3 0.831368 0.195795 0.879136
Si Si4 0.215403 0.190268 0.629828
Si Si5 0.286963 0.075863 0.387490
Si Si6 0.502270 0.889342 0.143105
Si Si7 0.400831 0.773986 0.562020
O O1 0.756942 0.500000 0.100784
O O2 0.717389 0.626162 0.086739
O O3 0.783714 0.591247 0.238594
O O4 0.896558 0.585000 0.913401
O O5 0.582690 0.698160 0.111663
O O6 0.395500 0.707249 0.209405
O O7 0.505296 0.810896 0.139129
O O8 0.434148 0.741263 0.393370
O O9 0.876088 0.220378 0.695388
O O10 0.750000 0.250000 0.000000
O O11 0.250000 0.250000 0.500000
O O12 0.220480 0.124962 0.540378
O O13 0.300017 0.188077 0.644264
O O14 0.398261 0.089129 0.312023
O O15 0.263322 0.000000 0.429221
O O16 0.500000 0.914280 0.000000
O O17 0.500000 0.810620 0.500000
#
# Coordination Sequence:
#
# PCOD9170401 Si02
#       7
#     8   8   8   8   8   8   8
#     4  10  20  33  50  76 112 143 171 218 277 325
#     4  10  19  32  51  78 105 138 176 226 267 311
#     4  11  21  34  52  78 104 140 185 228 262 318
#     4  10  17  31  54  72 100 140 176 212 261 316
#     4  10  19  32  52  80 110 140 172 214 272 334
#     4  10  18  29  50  80 109 135 175 218 272 322
#     4   9  19  32  51  75 105 135 171 222 274 302
#
# _framework density 19.043990999999998
#
# number of rings (size 3 to 8) (size 9 to 14) (size 15 to 20)
#    0.000    2.000    4.286    2.143    2.000    1.714 
#    0.000    0.714    0.000    6.857    0.000    0.000 
#    0.000    3.429    0.000    0.000    0.000    0.000 
#
# Total GULP energy -156060.132155 kJ/mol
# GULP energy per Si atom -5573.576148 kJ/mol
# Density = 1.900065 g / cm^3
# Si number density = 19.043991 Si / 1000 Ang^3
#
#
#
# Elastic Constant Matrix: (Units=GPa)
#
#
# Indices 1 2 3 4 5 6 
#
# 1 135.4055 46.9104 25.6968 0.0000 -35.0241 0.0000
# 2 46.9104 104.0985 10.0518 0.0000 -14.7345 0.0000
# 3 25.6968 10.0518 23.4657 0.0000 -0.8810 0.0000
# 4 0.0000 0.0000 0.0000 22.5543 0.0000 2.7485
# 5 -35.0241 -14.7345 -0.8810 0.0000 32.3906 0.0000
# 6 0.0000 0.0000 0.0000 2.7485 0.0000 19.5720
#
#
#
# Elastic Compliance Matrix: (Units=1/GPa)
#
#
# Indices 1 2 3 4 5 6 
#
# 1 0.014973 -0.003332 -0.014433 0.000000 0.014282 0.000000
# 2 -0.003332 0.011446 -0.001195 0.000000 0.001571 0.000000
# 3 -0.014433 -0.001195 0.058386 0.000000 -0.014562 0.000000
# 4 0.000000 0.000000 0.000000 0.045109 0.000000 -0.006335
# 5 0.014282 0.001571 -0.014562 0.000000 0.046635 0.000000
# 6 0.000000 0.000000 0.000000 -0.006335 0.000000 0.051983
#
#
# Mechanical properties :
#
#
# Convention : Reuss Voigt Hill
#
# Bulk Modulus (GPa) = 21.32908 47.58751 34.45829
# Shear Modulus (GPa) = 17.72551 26.92408 22.32480
#
# Velocity S-wave (km/s) = 3.05416 3.76411 3.42756
# Velocity P-wave (km/s) = 4.86430 6.62826 5.81357
#
# Compressibility (1/GPa) = 0.04688435
#
# Stress axis : x y z
#
# Youngs Moduli (GPa) = 66.78790 87.36975 17.12746
#
# Poissons Ratio (x) = 0.29113 0.24720
# Poissons Ratio (y) = 0.22254 0.02047
# Poissons Ratio (z) = 0.96394 0.10440
#
# Static dielectric constant tensor:
#      x y z
#    x 1.759970 0.000000 -0.017890 
#    y 0.000000 1.628460 0.000000 
#    z -0.017890 0.000000 1.708170 
# 
# From -- ./inp_files/158198.got.cif
#   From: 2010.05.17/outbox.cif.g08.bks.cpg/sg12_80_cif.got.tgz:158198.got - 2010.06.03 13:09:07.
