data_PCOD9170605
_publ_section_title
;
Structure prediction by ZEFSAII (Michael W. Deem and Ramdas Pophale) SiO2 
 PCOD9170605
Probable space group: C 2/M
;
_chemical_formula_sum "Si O2"
_cell_formula_units_Z 52
_cell_length_a 21.757717
_cell_length_b 7.843794
_cell_length_c 11.922129
_cell_angle_alpha 90.000000
_cell_angle_beta 93.645310
_cell_angle_gamma 90.000000
_cell_volume 2030.550281
_symmetry_space_group_name_H-M "C 2/M"
_symmetry_group_IT_number 12
_symmetry_cell_setting 'monoclinic'
loop_
_space_group_symop_operation_xyz
x,y,z
-x,y,-z
-x,-y,-z
x,-y,z
1/2+x,1/2+y,z
1/2-x,1/2+y,-z
1/2-x,1/2-y,-z
1/2+x,1/2-y,z
loop_
_atom_site_type_symbol
_atom_site_label
_atom_site_fract_x
_atom_site_fract_y
_atom_site_fract_z
Si Si1 0.049688 0.804974 0.288793
Si Si2 0.635841 0.695094 0.597185
Si Si3 0.728982 0.199389 0.154645
Si Si4 0.500000 0.241789 0.500000
Si Si5 0.308679 0.700627 0.616050
Si Si6 0.904252 0.298830 0.928418
Si Si7 0.363075 0.292723 0.150988
O O1 0.014967 0.684521 0.373227
O O2 0.121873 0.787011 0.325905
O O3 0.048118 0.776250 0.155500
O O4 0.028979 0.000000 0.310568
O O5 0.656202 0.500000 0.613307
O O6 0.568070 0.686579 0.533734
O O7 0.681907 0.773511 0.508837
O O8 0.627453 0.767980 0.720285
O O9 0.731168 0.215665 0.290672
O O10 0.664311 0.276143 0.107062
O O11 0.793200 0.269032 0.116129
O O12 0.727655 0.000000 0.126926
O O13 0.294283 0.500000 0.608810
O O14 0.903701 0.500000 0.905272
O O15 0.909400 0.269830 0.061303
O O16 0.365210 0.500000 0.150292
#
# Coordination Sequence:
#
# PCOD9170605 Si02
#       7
#     8   8   8   4   8   8   8
#     4   9  16  29  53  79  99 122 158 204 247 290
#     4   9  17  30  50  76 103 127 158 206 253 291
#     4   9  18  31  48  71 100 134 168 202 241 286
#     4  10  17  32  59  84  99 120 161 206 249 298
#     4   8  15  28  47  73 101 128 160 199 245 293
#     4  10  20  34  50  70 100 136 170 201 237 288
#     4  10  20  33  49  72 102 133 166 205 245 284
#
# _framework density 25.608822
#
# number of rings (size 3 to 8) (size 9 to 14) (size 15 to 20)
#    0.000    2.769    0.000    3.231    0.000    1.846 
#    0.000    1.923    0.000    6.462    0.000    0.000 
#    0.000    0.000    0.000    0.000    0.000    0.000 
#
# Total GULP energy -144882.380471 kJ/mol
# GULP energy per Si atom -5572.399249 kJ/mol
# Density = 2.555054 g / cm^3
# Si number density = 25.608822 Si / 1000 Ang^3
#
#
#
# Elastic Constant Matrix: (Units=GPa)
#
#
# Indices 1 2 3 4 5 6 
#
# 1 81.4720 10.6549 41.3421 0.0000 -7.9578 0.0000
# 2 10.6549 47.9995 8.4233 0.0000 -13.4880 0.0000
# 3 41.3421 8.4233 219.0154 0.0000 -49.9983 0.0000
# 4 0.0000 0.0000 0.0000 228.6176 0.0000 -127.2868
# 5 -7.9578 -13.4880 -49.9983 0.0000 45.9207 0.0000
# 6 0.0000 0.0000 0.0000 -127.2868 0.0000 71.0254
#
#
#
# Elastic Compliance Matrix: (Units=1/GPa)
#
#
# Indices 1 2 3 4 5 6 
#
# 1 0.013983 -0.003052 -0.002892 0.000000 -0.001623 0.000000
# 2 -0.003052 0.023498 0.001500 0.000000 0.008006 0.000000
# 3 -0.002892 0.001500 0.006708 0.000000 0.007243 0.000000
# 4 0.000000 0.000000 0.000000 1.988939 0.000000 3.564442
# 5 -0.001623 0.008006 0.007243 0.000000 0.031733 0.000000
# 6 0.000000 0.000000 0.000000 3.564442 0.000000 6.402031
#
#
# Mechanical properties :
#
#
# Convention : Reuss Voigt Hill
#
# Bulk Modulus (GPa) = 28.32971 52.14750 40.23861
# Shear Modulus (GPa) = 0.58910 88.31718 44.45314
#
# Velocity S-wave (km/s) = 0.48014 5.87894 4.17088
# Velocity P-wave (km/s) = 3.37548 8.15413 6.24034
#
# Compressibility (1/GPa) = 0.03529863
#
# Stress axis : x y z
#
# Youngs Moduli (GPa) = 71.51755 42.55756 149.08546
#
# Poissons Ratio (x) = 0.12990 0.43122
# Poissons Ratio (y) = 0.21829 -0.22365
# Poissons Ratio (z) = 0.20686 -0.06384
#
# Static dielectric constant tensor:
#      x y z
#    x 2.044400 0.000000 0.058970 
#    y 0.000000 1.945330 0.000000 
#    z 0.058970 0.000000 2.132580 
# 
# From -- ./inp_files/179920.got.cif
#   From: 2010.05.17/outbox.cif.g08.bks.cpg/sg12_90_cif.got.tgz:179920.got - 2010.06.03 13:09:07.
