data_PCOD9170536
_publ_section_title
;
Structure prediction by ZEFSAII (Michael W. Deem and Ramdas Pophale) SiO2 
 PCOD9170536
Probable space group: C 2/M
;
_chemical_formula_sum "Si O2"
_cell_formula_units_Z 56
_cell_length_a 18.944435
_cell_length_b 13.792403
_cell_length_c 11.649072
_cell_angle_alpha 90.000000
_cell_angle_beta 131.991902
_cell_angle_gamma 90.000000
_cell_volume 2262.255454
_symmetry_space_group_name_H-M "C 2/M"
_symmetry_group_IT_number 12
_symmetry_cell_setting 'monoclinic'
loop_
_space_group_symop_operation_xyz
x,y,z
-x,y,-z
-x,-y,-z
x,-y,z
1/2+x,1/2+y,z
1/2-x,1/2+y,-z
1/2-x,1/2-y,-z
1/2+x,1/2-y,z
loop_
_atom_site_type_symbol
_atom_site_label
_atom_site_fract_x
_atom_site_fract_y
_atom_site_fract_z
Si Si1 0.727499 0.103981 0.192367
Si Si2 0.859221 0.723727 0.087111
Si Si3 0.856905 0.612390 0.311176
Si Si4 0.590280 0.703938 0.525506
Si Si5 0.877066 0.822490 0.686699
Si Si6 0.124853 0.110467 0.059744
Si Si7 0.332483 0.890996 0.609672
O O1 0.648523 0.148873 0.025819
O O2 0.818325 0.171389 0.302542
O O3 0.693065 0.095696 0.284065
O O4 0.756125 0.000000 0.175825
O O5 0.904722 0.818244 0.076656
O O6 0.750000 0.750000 0.000000
O O7 0.894647 0.667517 0.237757
O O8 0.884919 0.500000 0.343966
O O9 0.895494 0.678690 0.457154
O O10 0.741216 0.613934 0.185659
O O11 0.500000 0.677909 0.500000
O O12 0.588825 0.647644 0.403366
O O13 0.905604 0.857922 0.844235
O O14 0.765346 0.855015 0.557950
O O15 0.893536 0.707008 0.690897
O O16 0.095786 0.000000 0.007361
O O17 0.360084 0.000000 0.597909
#
# Coordination Sequence:
#
# PCOD9170536 Si02
#       7
#     8   8   8   8   8   8   8
#     4  10  18  32  52  78 107 135 171 218 271 321
#     4  10  17  32  53  85 112 134 166 219 279 329
#     4  10  20  35  56  84 113 140 175 223 275 325
#     4  11  23  37  51  74 108 151 191 219 255 316
#     4  10  18  31  48  72 108 138 174 224 268 318
#     4  10  18  31  55  85 112 135 167 220 286 332
#     4   9  16  26  47  74 100 129 164 215 277 324
#
# _framework density 24.754055999999999
#
# number of rings (size 3 to 8) (size 9 to 14) (size 15 to 20)
#    0.000    2.000    4.286    2.571    0.000    3.429 
#    0.000    0.000    0.000    0.857    0.000    2.000 
#    0.000    0.000    0.000    0.000    0.000    0.000 
#
# Total GULP energy -156271.128169 kJ/mol
# GULP energy per Si atom -5581.111720 kJ/mol
# Density = 2.469771 g / cm^3
# Si number density = 24.754056 Si / 1000 Ang^3
#
#
#
# Elastic Constant Matrix: (Units=GPa)
#
#
# Indices 1 2 3 4 5 6 
#
# 1 84.9151 22.5125 27.9546 0.0000 -29.7192 0.0000
# 2 22.5125 175.7119 41.0343 0.0000 -24.6494 0.0000
# 3 27.9546 41.0343 118.3014 0.0000 -21.8151 0.0000
# 4 0.0000 0.0000 0.0000 66.4521 0.0000 -7.7294
# 5 -29.7192 -24.6494 -21.8151 0.0000 33.6225 0.0000
# 6 0.0000 0.0000 0.0000 -7.7294 0.0000 11.8184
#
#
#
# Elastic Compliance Matrix: (Units=1/GPa)
#
#
# Indices 1 2 3 4 5 6 
#
# 1 0.017268 0.000155 -0.001475 0.000000 0.014420 0.000000
# 2 0.000155 0.006597 -0.001599 0.000000 0.003936 0.000000
# 3 -0.001475 -0.001599 0.010109 0.000000 0.004083 0.000000
# 4 0.000000 0.000000 0.000000 0.016287 0.000000 0.010652
# 5 0.014420 0.003936 0.004083 0.000000 0.048022 0.000000
# 6 0.000000 0.000000 0.000000 0.010652 0.000000 0.091581
#
#
# Mechanical properties :
#
#
# Convention : Reuss Voigt Hill
#
# Bulk Modulus (GPa) = 35.54264 62.43681 48.98972
# Shear Modulus (GPa) = 24.38066 41.54039 32.96053
#
# Velocity S-wave (km/s) = 3.14174 4.10094 3.65296
# Velocity P-wave (km/s) = 5.24883 6.90660 6.13398
#
# Compressibility (1/GPa) = 0.02813522
#
# Stress axis : x y z
#
# Youngs Moduli (GPa) = 57.91170 151.58800 98.92087
#
# Poissons Ratio (x) = -0.02349 0.14592
# Poissons Ratio (y) = -0.00897 0.15818
# Poissons Ratio (z) = 0.08542 0.24240
#
# Static dielectric constant tensor:
#      x y z
#    x 2.056020 0.000000 0.009560 
#    y 0.000000 2.049100 0.000000 
#    z 0.009560 0.000000 1.952450 
# 
# From -- ./inp_files/156761.got.cif
#   From: 2010.05.17/outbox.cif.g08.bks.cpg/sg12_79_cif.got.tgz:156761.got - 2010.06.03 13:09:07.
