data_PCOD9170928
_publ_section_title
;
Structure prediction by ZEFSAII (Michael W. Deem and Ramdas Pophale) SiO2 
 PCOD9170928
Probable space group: C 2/M
;
_chemical_formula_sum "Si O2"
_cell_formula_units_Z 56
_cell_length_a 19.139409
_cell_length_b 17.283398
_cell_length_c 25.230507
_cell_angle_alpha 90.000000
_cell_angle_beta 20.088252
_cell_angle_gamma 90.000000
_cell_volume 2866.611365
_symmetry_space_group_name_H-M "C 2/M"
_symmetry_group_IT_number 12
_symmetry_cell_setting 'monoclinic'
loop_
_space_group_symop_operation_xyz
x,y,z
-x,y,-z
-x,-y,-z
x,-y,z
1/2+x,1/2+y,z
1/2-x,1/2+y,-z
1/2-x,1/2-y,-z
1/2+x,1/2-y,z
loop_
_atom_site_type_symbol
_atom_site_label
_atom_site_fract_x
_atom_site_fract_y
_atom_site_fract_z
Si Si1 0.426169 0.913927 0.816188
Si Si2 0.048081 0.855323 0.148211
Si Si3 0.877577 0.246818 0.800320
Si Si4 0.930883 0.734667 0.139587
Si Si5 0.881019 0.585239 0.529768
Si Si6 0.500007 0.240755 0.601904
Si Si7 0.797207 0.868325 0.618334
O O1 0.405422 0.838302 0.793437
O O2 0.649199 0.912182 0.683834
O O3 0.389347 0.000000 0.819750
O O4 0.255473 0.896733 0.982920
O O5 0.069788 0.802820 0.185127
O O6 0.987630 0.797036 0.144147
O O7 0.859202 0.912242 0.288630
O O8 0.010043 0.228208 0.654363
O O9 0.640729 0.226360 0.958865
O O10 0.737448 0.761625 0.244370
O O11 0.847929 0.660753 0.230775
O O12 0.945611 0.500000 0.466198
O O13 0.000000 0.602992 0.500000
O O14 0.922822 0.653846 0.459431
O O15 0.616801 0.294328 0.476230
O O16 0.000000 0.904543 0.500000
#
# Coordination Sequence:
#
# PCOD9170928 Si02
#       7
#     8   8   8   8   8   8   8
#     4  11  22  37  57  84 116 150 187 231 281 336
#     4  11  19  38  60  82 108 150 196 235 264 333
#     4  11  22  35  59  87 117 145 186 236 288 328
#     4  10  17  37  59  80 111 147 194 232 264 329
#     4  11  21  35  56  82 117 157 192 226 274 336
#     4  11  21  35  57  89 116 148 184 237 284 332
#     4  10  19  36  62  84 108 146 195 233 271 333
#
# _framework density 19.535260000000001
#
# number of rings (size 3 to 8) (size 9 to 14) (size 15 to 20)
#    0.000    1.286    5.714    2.143    0.000    3.143 
#    0.000    0.000    0.000    3.429    0.000    2.000 
#    0.000    0.000    0.000    0.000    0.000    0.000 
#
# Total GULP energy -156202.464519 kJ/mol
# GULP energy per Si atom -5578.659447 kJ/mol
# Density = 1.949080 g / cm^3
# Si number density = 19.535260 Si / 1000 Ang^3
#
#
#
# Elastic Constant Matrix: (Units=GPa)
#
#
# Indices 1 2 3 4 5 6 
#
# 1 44.7577 3.6350 31.5024 0.0525 -2.1702 0.0060
# 2 3.6350 53.1217 11.6585 0.0253 -6.1872 -0.0096
# 3 31.5024 11.6585 87.2031 0.1339 -16.7548 -0.0229
# 4 0.0525 0.0253 0.1339 -4.8308 -0.0141 -0.5278
# 5 -2.1702 -6.1872 -16.7548 -0.0141 36.6656 0.0031
# 6 0.0060 -0.0096 -0.0229 -0.5278 0.0031 12.9029
#
#
#
# Elastic Compliance Matrix: (Units=1/GPa)
#
#
# Indices 1 2 3 4 5 6 
#
# 1 0.030371 0.000070 -0.011657 0.000021 -0.003517 -0.000033
# 2 0.000070 0.019571 -0.002200 0.000034 0.002301 0.000011
# 3 -0.011657 -0.002200 0.017286 0.000316 0.006838 0.000046
# 4 0.000021 0.000034 0.000316 -0.206075 0.000073 -0.008430
# 5 -0.003517 0.002301 0.006838 0.000073 0.030578 0.000011
# 6 -0.000033 0.000011 0.000046 -0.008430 0.000011 0.077157
#
#
# Mechanical properties :
#
#
# Convention : Reuss Voigt Hill
#
# Bulk Modulus (GPa) = 25.21740 30.96381 28.09060
# Shear Modulus (GPa) = 516.58938 18.16665 267.37801
#
# Velocity S-wave (km/s) = 16.27924 3.05280 11.71181
# Velocity P-wave (km/s) = 19.13865 5.32079 14.04633
#
# Compressibility (1/GPa) = 0.03965516
#
# Stress axis : x y z
#
# Youngs Moduli (GPa) = 32.92635 51.09680 57.85038
#
# Poissons Ratio (x) = -0.00360 0.67435
# Poissons Ratio (y) = -0.00232 0.12726
# Poissons Ratio (z) = 0.38382 0.11240
#
# Static dielectric constant tensor:
#      x y z
#    x 1.699780 -0.000010 -0.023030 
#    y -0.000010 1.670490 0.000020 
#    z -0.023030 0.000020 1.717260 
# 
# From -- ./inp_files/366709.got.cif
#   From: 2010.05.17/outbox.cif.g08.bks.cpg/sg12_184_cif.got.tgz:366709.got - 2010.06.03 13:09:07.
