data_PCOD9170778
_publ_section_title
;
Structure prediction by ZEFSAII (Michael W. Deem and Ramdas Pophale) SiO2 
 PCOD9170778
Probable space group: C 2/M
;
_chemical_formula_sum "Si O2"
_cell_formula_units_Z 60
_cell_length_a 9.109210
_cell_length_b 26.773996
_cell_length_c 19.796699
_cell_angle_alpha 90.000000
_cell_angle_beta 40.338033
_cell_angle_gamma 90.000000
_cell_volume 3125.284388
_symmetry_space_group_name_H-M "C 2/M"
_symmetry_group_IT_number 12
_symmetry_cell_setting 'monoclinic'
loop_
_space_group_symop_operation_xyz
x,y,z
-x,y,-z
-x,-y,-z
x,-y,z
1/2+x,1/2+y,z
1/2-x,1/2+y,-z
1/2-x,1/2-y,-z
1/2+x,1/2-y,z
loop_
_atom_site_type_symbol
_atom_site_label
_atom_site_fract_x
_atom_site_fract_y
_atom_site_fract_z
Si Si1 0.176156 0.878716 0.497357
Si Si2 0.386984 0.869023 0.182224
Si Si3 0.639026 0.288972 0.347366
Si Si4 0.537116 0.559715 0.668639
Si Si5 0.000000 0.593999 0.000000
Si Si6 0.505213 0.442688 0.833052
Si Si7 0.521944 0.190398 0.320974
Si Si8 0.177461 0.137441 0.879195
O O1 0.186365 0.916389 0.556539
O O2 0.419366 0.861875 0.383873
O O3 0.000000 0.896427 0.500000
O O4 0.062627 0.826644 0.562274
O O5 0.260145 0.816952 0.241989
O O6 0.478287 0.873149 0.074776
O O7 0.589996 0.875661 0.163673
O O8 0.205303 0.913179 0.256779
O O9 0.563507 0.233138 0.360453
O O10 0.825580 0.290043 0.340350
O O11 0.523763 0.500000 0.667474
O O12 0.597811 0.571432 0.725642
O O13 0.231476 0.562573 0.923838
O O14 0.565593 0.500000 0.825134
O O15 0.586168 0.407253 0.864732
O O16 0.748925 0.180570 0.198661
O O17 0.000000 0.150824 0.000000
#
# Coordination Sequence:
#
# PCOD9170778 Si02
#       8
#     8   8   8   8   4   8   8   8
#     4   9  18  36  60  86 116 147 187 238 283 341
#     4   9  19  35  55  82 114 148 188 234 279 333
#     4   9  19  36  56  84 112 143 188 235 282 342
#     4   9  19  36  59  88 117 147 188 236 285 340
#     4  10  17  34  56  80 110 144 188 234 277 320
#     4  10  21  36  57  82 112 149 192 234 279 337
#     4  10  21  37  59  83 113 148 191 236 285 342
#     4  11  22  40  54  80 120 153 191 238 284 334
#
# _framework density 19.198253999999999
#
# number of rings (size 3 to 8) (size 9 to 14) (size 15 to 20)
#    0.000    2.400    1.333    1.400    0.000    4.800 
#    1.200    4.000    0.000    1.600    0.000    0.000 
#    0.000    0.000    0.000    0.000    0.000    0.000 
#
# Total GULP energy -167271.785157 kJ/mol
# GULP energy per Si atom -5575.726172 kJ/mol
# Density = 1.915456 g / cm^3
# Si number density = 19.198254 Si / 1000 Ang^3
#
#
#
# Elastic Constant Matrix: (Units=GPa)
#
#
# Indices 1 2 3 4 5 6 
#
# 1 37.8655 13.4989 16.4323 0.0000 5.1767 0.0000
# 2 13.4989 27.2560 18.6875 0.0000 0.8653 0.0000
# 3 16.4323 18.6875 85.3609 0.0002 21.0181 0.0000
# 4 0.0000 0.0000 0.0002 14.2769 0.0000 7.0756
# 5 5.1767 0.8653 21.0181 0.0000 27.6675 0.0000
# 6 0.0000 0.0000 0.0000 7.0756 0.0000 23.2757
#
#
#
# Elastic Compliance Matrix: (Units=1/GPa)
#
#
# Indices 1 2 3 4 5 6 
#
# 1 0.033189 -0.014853 -0.002119 0.000000 -0.004136 0.000000
# 2 -0.014853 0.051004 -0.010577 0.000000 0.009219 0.000000
# 3 -0.002119 -0.010577 0.017540 0.000000 -0.012597 0.000000
# 4 0.000000 0.000000 0.000000 0.082467 0.000000 -0.025069
# 5 -0.004136 0.009219 -0.012597 0.000000 0.046199 0.000000
# 6 0.000000 0.000000 0.000000 -0.025069 0.000000 0.050584
#
#
# Mechanical properties :
#
#
# Convention : Reuss Voigt Hill
#
# Bulk Modulus (GPa) = 21.44265 27.52441 24.48353
# Shear Modulus (GPa) = 14.21959 19.83495 17.02727
#
# Velocity S-wave (km/s) = 2.72448 3.21777 2.98135
# Velocity P-wave (km/s) = 4.59242 5.30787 4.96306
#
# Compressibility (1/GPa) = 0.04663604
#
# Stress axis : x y z
#
# Youngs Moduli (GPa) = 30.13010 19.60620 57.01189
#
# Poissons Ratio (x) = 0.29122 0.12081
# Poissons Ratio (y) = 0.44753 0.60299
# Poissons Ratio (z) = 0.06385 0.20737
#
# Static dielectric constant tensor:
#      x y z
#    x 1.660560 0.000000 0.016900 
#    y 0.000000 1.639520 0.000000 
#    z 0.016900 0.000000 1.736610 
# 
# From -- ./inp_files/302743.got.cif
#   From: 2010.05.17/outbox.cif.g08.bks.cpg/sg12_152_cif.got.tgz:302743.got - 2010.06.03 13:09:07.
