data_PCOD9170105
_publ_section_title
;
Structure prediction by ZEFSAII (Michael W. Deem and Ramdas Pophale) SiO2 
 PCOD9170105
Probable space group: C 2/M
;
_chemical_formula_sum "Si O2"
_cell_formula_units_Z 40
_cell_length_a 18.569042
_cell_length_b 19.968562
_cell_length_c 8.160991
_cell_angle_alpha 90.000000
_cell_angle_beta 122.288379
_cell_angle_gamma 90.000000
_cell_volume 2558.150675
_symmetry_space_group_name_H-M "C 2/M"
_symmetry_group_IT_number 12
_symmetry_cell_setting 'monoclinic'
loop_
_space_group_symop_operation_xyz
x,y,z
-x,y,-z
-x,-y,-z
x,-y,z
1/2+x,1/2+y,z
1/2-x,1/2+y,-z
1/2-x,1/2-y,-z
1/2+x,1/2-y,z
loop_
_atom_site_type_symbol
_atom_site_label
_atom_site_fract_x
_atom_site_fract_y
_atom_site_fract_z
Si Si1 0.234770 0.692815 0.615376
Si Si2 0.888443 0.626452 0.759271
Si Si3 0.091113 0.290534 0.697203
Si Si4 0.410405 0.273708 0.947989
Si Si5 0.070521 0.423827 0.851928
O O1 0.250000 0.750000 0.500000
O O2 0.188072 0.632495 0.462558
O O3 0.168640 0.721804 0.668379
O O4 0.327428 0.682566 0.806356
O O5 0.905698 0.702944 0.841143
O O6 0.973284 0.597149 0.778637
O O7 0.877733 0.585808 0.914767
O O8 0.100048 0.368290 0.760426
O O9 0.000000 0.281279 0.500000
O O10 0.092029 0.247606 0.864759
O O11 0.500000 0.304464 0.000000
O O12 0.074305 0.500000 0.800948
#
# Coordination Sequence:
#
# PCOD9170105 Si02
#       5
#     8   8   8   8   8
#     4  10  19  29  44  65  87 128 164 189 231 276
#     4   9  15  30  44  63  95 122 155 190 223 280
#     4  11  18  30  44  65  98 125 156 195 226 278
#     4  10  17  30  46  64  91 125 160 193 231 270
#     4  10  18  29  47  67  96 130 155 183 232 280
#
# _framework density 15.636297000000001
#
# number of rings (size 3 to 8) (size 9 to 14) (size 15 to 20)
#    0.000    2.000    6.000    3.000    0.000    0.400 
#    0.000    0.000    0.000    0.000    0.000    0.000 
#    0.000    8.800    0.000    0.200    0.000    0.400 
#
# Total GULP energy -111387.282381 kJ/mol
# GULP energy per Si atom -5569.364119 kJ/mol
# Density = 1.560071 g / cm^3
# Si number density = 15.636297 Si / 1000 Ang^3
#
#
#
# Elastic Constant Matrix: (Units=GPa)
#
#
# Indices 1 2 3 4 5 6 
#
# 1 118.5357 12.1317 52.4330 0.0000 1.4553 0.0000
# 2 12.1317 29.2068 24.7647 0.0000 0.7778 0.0000
# 3 52.4330 24.7647 125.0655 0.0000 16.9443 0.0000
# 4 0.0000 0.0000 0.0000 10.3966 0.0000 4.7208
# 5 1.4553 0.7778 16.9443 0.0000 27.0724 0.0000
# 6 0.0000 0.0000 0.0000 4.7208 0.0000 5.0420
#
#
#
# Elastic Compliance Matrix: (Units=1/GPa)
#
#
# Indices 1 2 3 4 5 6 
#
# 1 0.010503 -0.000508 -0.004620 0.000000 0.002342 0.000000
# 2 -0.000508 0.041631 -0.008602 0.000000 0.004215 0.000000
# 3 -0.004620 -0.008602 0.012641 0.000000 -0.007416 0.000000
# 4 0.000000 0.000000 0.000000 0.167320 0.000000 -0.156660
# 5 0.002342 0.004215 -0.007416 0.000000 0.041333 0.000000
# 6 0.000000 0.000000 0.000000 -0.156660 0.000000 0.345012
#
#
# Mechanical properties :
#
#
# Convention : Reuss Voigt Hill
#
# Bulk Modulus (GPa) = 26.79837 50.16298 38.48067
# Shear Modulus (GPa) = 7.59489 20.73411 14.16450
#
# Velocity S-wave (km/s) = 2.20630 3.64541 3.01304
# Velocity P-wave (km/s) = 4.86478 7.06183 6.06365
#
# Compressibility (1/GPa) = 0.03731570
#
# Stress axis : x y z
#
# Youngs Moduli (GPa) = 95.20961 24.02080 79.10889
#
# Poissons Ratio (x) = 0.01219 0.36549
# Poissons Ratio (y) = 0.04833 0.68047
# Poissons Ratio (z) = 0.43988 0.20662
#
# Static dielectric constant tensor:
#      x y z
#    x 1.534700 0.000000 -0.003520 
#    y 0.000000 1.498870 0.000000 
#    z -0.003520 0.000000 1.599290 
# 
# From -- ./inp_files/62578.got.cif
#   From: 2010.05.17/outbox.cif.g08.bks.cpg/sg12_32_cif.got.tgz:62578.got - 2010.06.03 13:09:07.
