data_PCOD9170246
_publ_section_title
;
Structure prediction by ZEFSAII (Michael W. Deem and Ramdas Pophale) SiO2 
 PCOD9170246
Probable space group: C 2/M
;
_chemical_formula_sum "Si O2"
_cell_formula_units_Z 52
_cell_length_a 7.752782
_cell_length_b 21.294494
_cell_length_c 17.591487
_cell_angle_alpha 90.000000
_cell_angle_beta 54.820178
_cell_angle_gamma 90.000000
_cell_volume 2373.746700
_symmetry_space_group_name_H-M "C 2/M"
_symmetry_group_IT_number 12
_symmetry_cell_setting 'monoclinic'
loop_
_space_group_symop_operation_xyz
x,y,z
-x,y,-z
-x,-y,-z
x,-y,z
1/2+x,1/2+y,z
1/2-x,1/2+y,-z
1/2-x,1/2-y,-z
1/2+x,1/2-y,z
loop_
_atom_site_type_symbol
_atom_site_label
_atom_site_fract_x
_atom_site_fract_y
_atom_site_fract_z
Si Si1 0.064890 0.184488 0.107718
Si Si2 0.512322 0.927483 0.751034
Si Si3 0.500000 0.774549 0.500000
Si Si4 0.846943 0.323735 0.894465
Si Si5 0.429552 0.568897 0.229494
Si Si6 0.796979 0.660672 0.423522
Si Si7 0.756789 0.931867 0.442515
O O1 0.052536 0.254972 0.143405
O O2 0.862214 0.175966 0.104844
O O3 0.059503 0.129037 0.170004
O O4 0.268415 0.176757 0.001532
O O5 0.478906 0.884223 0.834069
O O6 0.286000 0.931629 0.765474
O O7 0.649928 0.885234 0.658336
O O8 0.583352 0.000000 0.744833
O O9 0.689524 0.726769 0.435608
O O10 0.507402 0.816962 0.573495
O O11 0.531142 0.500000 0.192116
O O12 0.360306 0.573978 0.334266
O O13 0.669595 0.622039 0.519705
O O14 0.500000 0.932560 0.500000
O O15 0.812246 0.000000 0.461071
#
# Coordination Sequence:
#
# PCOD9170246 Si02
#       7
#     8   8   4   8   8   8   8
#     4   9  18  34  52  76 104 134 166 215 256 309
#     4  10  19  32  53  77 103 135 172 213 261 308
#     4  10  24  34  52  74 106 136 174 214 268 304
#     4   9  19  33  53  76 102 133 173 206 261 310
#     4   9  17  29  51  81 103 132 174 214 254 299
#     4  11  20  37  51  76 104 137 170 217 257 315
#     4  10  17  30  53  74  98 136 175 207 246 308
#
# _framework density 21.906296000000001
#
# number of rings (size 3 to 8) (size 9 to 14) (size 15 to 20)
#    0.000    2.308    2.308    0.462    0.000    5.538 
#    0.000    4.615    0.000    2.769    0.000    4.308 
#    0.000    0.000    0.000    0.000    0.000    0.000 
#
# Total GULP energy -145008.146991 kJ/mol
# GULP energy per Si atom -5577.236423 kJ/mol
# Density = 2.185644 g / cm^3
# Si number density = 21.906296 Si / 1000 Ang^3
#
#
#
# Elastic Constant Matrix: (Units=GPa)
#
#
# Indices 1 2 3 4 5 6 
#
# 1 21.4266 5.9253 0.8221 0.0000 2.2332 0.0000
# 2 5.9253 194.5883 72.8391 0.0000 3.4382 0.0000
# 3 0.8221 72.8391 75.3864 0.0000 5.4811 0.0000
# 4 0.0000 0.0000 0.0000 42.3884 0.0000 1.0382
# 5 2.2332 3.4382 5.4811 0.0000 10.7634 0.0000
# 6 0.0000 0.0000 0.0000 1.0382 0.0000 17.6441
#
#
#
# Elastic Compliance Matrix: (Units=1/GPa)
#
#
# Indices 1 2 3 4 5 6 
#
# 1 0.048272 -0.002151 0.002316 0.000000 -0.010508 0.000000
# 2 -0.002151 0.008168 -0.008008 0.000000 0.001915 0.000000
# 3 0.002316 -0.008008 0.021627 0.000000 -0.008936 0.000000
# 4 0.000000 0.000000 0.000000 0.023625 0.000000 -0.001390
# 5 -0.010508 0.001915 -0.008936 0.000000 0.099027 0.000000
# 6 0.000000 0.000000 0.000000 -0.001390 0.000000 0.056758
#
#
# Mechanical properties :
#
#
# Convention : Reuss Voigt Hill
#
# Bulk Modulus (GPa) = 16.03052 50.06382 33.04717
# Shear Modulus (GPa) = 17.00925 28.28016 22.64470
#
# Velocity S-wave (km/s) = 2.78952 3.59689 3.21862
# Velocity P-wave (km/s) = 4.20819 6.33667 5.37877
#
# Compressibility (1/GPa) = 0.06238102
#
# Stress axis : x y z
#
# Youngs Moduli (GPa) = 20.71586 122.42352 46.23855
#
# Poissons Ratio (x) = 0.26336 -0.10709
# Poissons Ratio (y) = 0.04456 0.37028
# Poissons Ratio (z) = -0.04798 0.98038
#
# Static dielectric constant tensor:
#      x y z
#    x 1.917980 0.000000 -0.028730 
#    y 0.000000 1.815810 0.000000 
#    z -0.028730 0.000000 1.776950 
# 
# From -- ./inp_files/258414.got.cif
#   From: 2010.05.17/outbox.cif.g08.bks.cpg/sg12_130_cif.got.tgz:258414.got - 2010.06.03 13:09:07.
