data_PCOD9170360
_publ_section_title
;
Structure prediction by ZEFSAII (Michael W. Deem and Ramdas Pophale) SiO2 
 PCOD9170360
Probable space group: C 2/M
;
_chemical_formula_sum "Si O2"
_cell_formula_units_Z 44
_cell_length_a 25.183382
_cell_length_b 11.268434
_cell_length_c 12.911169
_cell_angle_alpha 90.000000
_cell_angle_beta 33.225457
_cell_angle_gamma 90.000000
_cell_volume 2007.576891
_symmetry_space_group_name_H-M "C 2/M"
_symmetry_group_IT_number 12
_symmetry_cell_setting 'monoclinic'
loop_
_space_group_symop_operation_xyz
x,y,z
-x,y,-z
-x,-y,-z
x,-y,z
1/2+x,1/2+y,z
1/2-x,1/2+y,-z
1/2-x,1/2-y,-z
1/2+x,1/2-y,z
loop_
_atom_site_type_symbol
_atom_site_label
_atom_site_fract_x
_atom_site_fract_y
_atom_site_fract_z
Si Si1 0.232265 0.000000 0.008003
Si Si2 0.774924 0.500000 0.695922
Si Si3 0.453656 0.500000 0.961395
Si Si4 0.239900 0.000000 0.238877
Si Si5 0.547633 0.000000 0.033107
Si Si6 0.086709 0.203920 0.294179
Si Si7 0.560462 0.246947 0.116241
Si Si8 0.295734 0.758293 0.708022
O O1 0.160721 0.889217 0.128334
O O2 0.274459 0.000000 0.058716
O O3 0.275186 0.000000 0.822358
O O4 0.663648 0.500000 0.840405
O O5 0.817798 0.370873 0.599492
O O6 0.500000 0.500000 0.000000
O O7 0.477282 0.374859 0.864118
O O8 0.180949 0.120885 0.355269
O O9 0.334968 0.000000 0.154147
O O10 0.522674 0.127372 0.124640
O O11 0.500000 0.000000 0.000000
O O12 0.043316 0.268991 0.266523
O O13 0.149284 0.278601 0.272866
O O14 0.000000 0.147563 0.500000
O O15 0.678297 0.252013 0.909392
#
# Coordination Sequence:
#
# PCOD9170360 Si02
#       8
#     4   4   4   4   4   8   8   8
#     4  10  17  31  50  76 105 136 169 211 260 310
#     4  10  18  29  53  75 102 132 169 213 262 301
#     4  10  18  31  52  79 102 128 175 225 262 287
#     4   8  18  27  49  72  96 131 168 202 254 306
#     4  10  20  32  49  76 103 133 174 221 257 291
#     4  11  20  31  49  79 112 140 167 208 264 320
#     4  10  19  33  51  75 103 137 172 211 260 303
#     4   9  18  31  49  73 102 135 168 208 255 315
#
# _framework density 21.916968000000001
#
# number of rings (size 3 to 8) (size 9 to 14) (size 15 to 20)
#    0.000    2.182    3.636    1.364    5.091    0.000 
#    0.000    1.818    0.000    0.000    0.000   47.091 
#    0.000    0.000    0.000    0.000    0.000    0.000 
#
# Total GULP energy -122486.101956 kJ/mol
# GULP energy per Si atom -5567.550089 kJ/mol
# Density = 2.186708 g / cm^3
# Si number density = 21.916968 Si / 1000 Ang^3
#
#
#
# Elastic Constant Matrix: (Units=GPa)
#
#
# Indices 1 2 3 4 5 6 
#
# 1 146.2731 80.1784 6.0153 0.0000 9.3982 0.0000
# 2 80.1784 193.0079 15.9893 0.0000 6.2334 0.0000
# 3 6.0153 15.9893 36.9480 0.0000 -4.5297 0.0000
# 4 0.0000 0.0000 0.0000 124.1717 0.0000 23.7190
# 5 9.3982 6.2334 -4.5297 0.0000 10.9194 0.0000
# 6 0.0000 0.0000 0.0000 23.7190 0.0000 29.4668
#
#
#
# Elastic Compliance Matrix: (Units=1/GPa)
#
#
# Indices 1 2 3 4 5 6 
#
# 1 0.009222 -0.003571 -0.000715 0.000000 -0.006195 0.000000
# 2 -0.003571 0.006951 -0.002672 0.000000 -0.002002 0.000000
# 3 -0.000715 -0.002672 0.030133 0.000000 0.014641 0.000000
# 4 0.000000 0.000000 0.000000 0.009517 0.000000 -0.007660
# 5 -0.006195 -0.002002 0.014641 0.000000 0.104128 0.000000
# 6 0.000000 0.000000 0.000000 -0.007660 0.000000 0.040103
#
#
# Mechanical properties :
#
#
# Convention : Reuss Voigt Hill
#
# Bulk Modulus (GPa) = 30.87588 64.51056 47.69322
# Shear Modulus (GPa) = 22.24535 51.18133 36.71334
#
# Velocity S-wave (km/s) = 3.18934 4.83767 4.09725
# Velocity P-wave (km/s) = 5.26125 7.79115 6.64766
#
# Compressibility (1/GPa) = 0.03238774
#
# Stress axis : x y z
#
# Youngs Moduli (GPa) = 108.44055 143.86810 33.18650
#
# Poissons Ratio (x) = 0.51382 0.02374
# Poissons Ratio (y) = 0.38729 0.08867
# Poissons Ratio (z) = 0.07756 0.38442
#
# Static dielectric constant tensor:
#      x y z
#    x 1.806160 0.000000 -0.002660 
#    y 0.000000 1.933420 0.000000 
#    z -0.002660 0.000000 1.819320 
# 
# From -- ./inp_files/175169.got.cif
#   From: 2010.05.17/outbox.cif.g08.bks.cpg/sg12_88_cif.got.tgz:175169.got - 2010.06.03 13:09:07.
