data_PCOD9170969
_publ_section_title
;
Structure prediction by ZEFSAII (Michael W. Deem and Ramdas Pophale) SiO2 
 PCOD9170969
Probable space group: C 2/M
;
_chemical_formula_sum "Si O2"
_cell_formula_units_Z 56
_cell_length_a 24.178605
_cell_length_b 7.298199
_cell_length_c 19.089585
_cell_angle_alpha 90.000000
_cell_angle_beta 53.701396
_cell_angle_gamma 90.000000
_cell_volume 2714.860994
_symmetry_space_group_name_H-M "C 2/M"
_symmetry_group_IT_number 12
_symmetry_cell_setting 'monoclinic'
loop_
_space_group_symop_operation_xyz
x,y,z
-x,y,-z
-x,-y,-z
x,-y,z
1/2+x,1/2+y,z
1/2-x,1/2+y,-z
1/2-x,1/2-y,-z
1/2+x,1/2-y,z
loop_
_atom_site_type_symbol
_atom_site_label
_atom_site_fract_x
_atom_site_fract_y
_atom_site_fract_z
Si Si1 0.787877 0.282030 0.208526
Si Si2 0.435355 0.220520 0.258754
Si Si3 0.363173 0.723217 0.516046
Si Si4 0.938101 0.724051 0.095685
Si Si5 0.714150 0.782620 0.620657
Si Si6 0.639422 0.723492 0.317811
Si Si7 0.003665 0.786175 0.344085
O O1 0.788357 0.500000 0.195508
O O2 0.862139 0.214006 0.128822
O O3 0.785999 0.258964 0.294415
O O4 0.714671 0.212435 0.236577
O O5 0.446511 0.280010 0.170548
O O6 0.361055 0.290326 0.342975
O O7 0.494868 0.271634 0.267576
O O8 0.430696 0.000000 0.260672
O O9 0.361294 0.500000 0.513787
O O10 0.289165 0.787609 0.541519
O O11 0.367718 0.771049 0.594880
O O12 0.432542 0.791094 0.428169
O O13 0.937752 0.500000 0.095620
O O14 0.000000 0.783543 0.000000
O O15 0.714167 0.000000 0.607396
O O16 0.640792 0.500000 0.314137
O O17 0.573908 0.788225 0.323290
O O18 0.003178 0.000000 0.364235
#
# Coordination Sequence:
#
# PCOD9170969 Si02
#       7
#     8   8   8   8   8   8   8
#     4   7  10  18  34  56  77  94 118 159 201 223
#     4   9  17  28  40  56  80 105 124 150 197 243
#     4   8  13  22  37  56  75  98 134 173 194 206
#     4   8  13  23  42  64  78  91 122 165 197 225
#     4   7  11  21  36  53  74  99 126 157 193 228
#     4   8  13  22  36  54  76 101 131 164 192 216
#     4  10  18  25  37  58  81 105 132 160 186 219
#
# _framework density 20.627208
#
# number of rings (size 3 to 8) (size 9 to 14) (size 15 to 20)
#    0.000    3.857    0.000    3.857    0.000    2.286 
#    0.000    0.000    0.000    3.000    0.000    8.000 
#    0.000    0.000    0.000    0.000    0.000    0.000 
#
# Total GULP energy -156056.423977 kJ/mol
# GULP energy per Si atom -5573.443713 kJ/mol
# Density = 2.058026 g / cm^3
# Si number density = 20.627208 Si / 1000 Ang^3
#
#
#
# Elastic Constant Matrix: (Units=GPa)
#
#
# Indices 1 2 3 4 5 6 
#
# 1 176.0195 0.0943 69.0970 -0.0019 -31.2275 0.0007
# 2 0.0943 79.9108 0.9230 -0.0187 -7.3606 -0.0081
# 3 69.0970 0.9230 129.0139 -0.0012 -34.9170 0.0007
# 4 -0.0019 -0.0187 -0.0012 -12.9945 -0.0011 10.1708
# 5 -31.2275 -7.3606 -34.9170 -0.0011 24.4106 0.0000
# 6 0.0007 -0.0081 0.0007 10.1708 0.0000 3.3133
#
#
#
# Elastic Compliance Matrix: (Units=1/GPa)
#
#
# Indices 1 2 3 4 5 6 
#
# 1 0.007813 0.000649 -0.002335 -0.000001 0.006850 0.000002
# 2 0.000649 0.013122 0.001394 0.000002 0.006780 0.000027
# 3 -0.002335 0.001394 0.013538 -0.000001 0.016798 0.000004
# 4 -0.000001 0.000002 -0.000001 -0.022616 -0.000003 0.069425
# 5 0.006850 0.006780 0.016798 -0.000003 0.075801 0.000020
# 6 0.000002 0.000027 0.000004 0.069425 0.000020 0.088699
#
#
# Mechanical properties :
#
#
# Convention : Reuss Voigt Hill
#
# Bulk Modulus (GPa) = 29.50983 58.35254 43.93119
# Shear Modulus (GPa) = 26.56223 23.93453 25.24838
#
# Velocity S-wave (km/s) = 3.59239 3.41007 3.50241
# Velocity P-wave (km/s) = 5.61643 6.62233 6.14002
#
# Compressibility (1/GPa) = 0.03388701
#
# Stress axis : x y z
#
# Youngs Moduli (GPa) = 127.99605 76.21021 73.86626
#
# Poissons Ratio (x) = -0.04944 0.17248
# Poissons Ratio (y) = -0.08303 -0.10294
# Poissons Ratio (z) = 0.29887 -0.10621
#
# Static dielectric constant tensor:
#      x y z
#    x 1.758200 0.000000 -0.035610 
#    y 0.000000 1.806300 0.000000 
#    z -0.035610 0.000000 1.728120 
# 
# From -- ./inp_files/282518.got.cif
#   From: 2010.05.17/outbox.cif.g08.bks.cpg/sg12_142_cif.got.tgz:282518.got - 2010.06.03 13:09:07.
