data_PCOD9170557
_publ_section_title
;
Structure prediction by ZEFSAII (Michael W. Deem and Ramdas Pophale) SiO2 
 PCOD9170557
Probable space group: C 2/M
;
_chemical_formula_sum "Si O2"
_cell_formula_units_Z 60
_cell_length_a 5.738294
_cell_length_b 28.042440
_cell_length_c 18.511363
_cell_angle_alpha 90.000000
_cell_angle_beta 69.888164
_cell_angle_gamma 90.000000
_cell_volume 2797.134389
_symmetry_space_group_name_H-M "C 2/M"
_symmetry_group_IT_number 12
_symmetry_cell_setting 'monoclinic'
loop_
_space_group_symop_operation_xyz
x,y,z
-x,y,-z
-x,-y,-z
x,-y,z
1/2+x,1/2+y,z
1/2-x,1/2+y,-z
1/2-x,1/2-y,-z
1/2+x,1/2-y,z
loop_
_atom_site_type_symbol
_atom_site_label
_atom_site_fract_x
_atom_site_fract_y
_atom_site_fract_z
Si Si1 0.805550 0.125182 0.649733
Si Si2 0.030204 0.226558 0.318451
Si Si3 0.898349 0.053338 0.285065
Si Si4 0.681256 0.125039 0.206924
Si Si5 0.075897 0.793879 0.148838
Si Si6 0.465402 0.863678 0.927982
Si Si7 0.107128 0.446632 0.568814
Si Si8 0.500000 0.706587 0.000000
O O1 0.964052 0.172836 0.648838
O O2 0.539642 0.136018 0.714082
O O3 0.762397 0.099742 0.577094
O O4 0.920628 0.082026 0.682737
O O5 0.246461 0.253808 0.341584
O O6 0.117704 0.227629 0.224260
O O7 0.859095 0.084829 0.218956
O O8 0.630704 0.051924 0.353003
O O9 0.983741 0.000000 0.262892
O O10 0.580165 0.108545 0.140604
O O11 0.832591 0.173542 0.182796
O O12 0.298947 0.830676 0.112856
O O13 0.041261 0.767759 0.073951
O O14 0.231903 0.828763 0.965115
O O15 0.500000 0.890350 0.000000
O O16 0.226621 0.500000 0.561588
O O17 0.000000 0.441412 0.500000
#
# Coordination Sequence:
#
# PCOD9170557 Si02
#       8
#     8   8   8   8   8   8   8   4
#     4  11  21  37  60  84 124 157 200 250 308 360
#     4  12  26  39  61  89 120 164 218 269 307 358
#     4  10  20  33  58  91 122 155 191 239 302 372
#     4  10  17  32  55  80 116 154 198 248 301 369
#     4  10  18  35  53  79 111 156 198 260 313 370
#     4   9  16  28  51  78 105 151 198 243 309 371
#     4   9  20  38  63  97 130 158 191 236 300 377
#     4   8  18  28  54  74 111 148 200 242 325 380
#
# _framework density 21.450524000000001
#
# number of rings (size 3 to 8) (size 9 to 14) (size 15 to 20)
#    0.000    2.000    2.667    1.200    3.733    1.067 
#    0.000    2.667    0.000    1.200    0.000   22.400 
#    0.000    0.000    0.000    0.000    0.000    0.000 
#
# Total GULP energy -167380.017707 kJ/mol
# GULP energy per Si atom -5579.333924 kJ/mol
# Density = 2.140170 g / cm^3
# Si number density = 21.450524 Si / 1000 Ang^3
#
#
#
# Elastic Constant Matrix: (Units=GPa)
#
#
# Indices 1 2 3 4 5 6 
#
# 1 81.2327 22.5729 14.5435 0.0000 13.2863 0.0000
# 2 22.5729 104.7471 34.8522 0.0000 28.5387 0.0000
# 3 14.5435 34.8522 71.4676 0.0000 28.3344 0.0000
# 4 0.0000 0.0000 0.0000 89.3218 0.0000 101.6317
# 5 13.2863 28.5387 28.3344 0.0000 45.0084 0.0000
# 6 0.0000 0.0000 0.0000 101.6317 0.0000 142.1312
#
#
#
# Elastic Compliance Matrix: (Units=1/GPa)
#
#
# Indices 1 2 3 4 5 6 
#
# 1 0.013375 -0.002007 -0.000909 0.000000 -0.002103 0.000000
# 2 -0.002007 0.012596 -0.003735 0.000000 -0.005043 0.000000
# 3 -0.000909 -0.003735 0.019927 0.000000 -0.009908 0.000000
# 4 0.000000 0.000000 0.000000 0.060062 0.000000 -0.042948
# 5 -0.002103 -0.005043 -0.009908 0.000000 0.032274 0.000000
# 6 0.000000 0.000000 0.000000 -0.042948 0.000000 0.037746
#
#
# Mechanical properties :
#
#
# Convention : Reuss Voigt Hill
#
# Bulk Modulus (GPa) = 30.67829 44.59830 37.63829
# Shear Modulus (GPa) = 24.98168 67.65753 46.31960
#
# Velocity S-wave (km/s) = 3.41635 5.62225 4.65194
# Velocity P-wave (km/s) = 5.46762 7.93616 6.81460
#
# Compressibility (1/GPa) = 0.03259635
#
# Stress axis : x y z
#
# Youngs Moduli (GPa) = 74.76789 79.39069 50.18325
#
# Poissons Ratio (x) = 0.15931 0.04563
# Poissons Ratio (y) = 0.15003 0.18742
# Poissons Ratio (z) = 0.06798 0.29651
#
# Static dielectric constant tensor:
#      x y z
#    x 1.861940 0.000000 0.032030 
#    y 0.000000 1.777500 0.000000 
#    z 0.032030 0.000000 1.825800 
# 
# From -- ./inp_files/253889.got.cif
#   From: 2010.05.17/outbox.cif.g08.bks.cpg/sg12_127_cif.got.tgz:253889.got - 2010.06.03 13:09:07.
