data_PCOD9170003
_publ_section_title
;
Structure prediction by ZEFSAII (Michael W. Deem and Ramdas Pophale) SiO2 
 PCOD9170003
Probable space group: C 2/M
;
_chemical_formula_sum "Si O2"
_cell_formula_units_Z 56
_cell_length_a 16.557868
_cell_length_b 14.749519
_cell_length_c 12.848741
_cell_angle_alpha 90.000000
_cell_angle_beta 62.694927
_cell_angle_gamma 90.000000
_cell_volume 2788.288648
_symmetry_space_group_name_H-M "C 2/M"
_symmetry_group_IT_number 12
_symmetry_cell_setting 'monoclinic'
loop_
_space_group_symop_operation_xyz
x,y,z
-x,y,-z
-x,-y,-z
x,-y,z
1/2+x,1/2+y,z
1/2-x,1/2+y,-z
1/2-x,1/2-y,-z
1/2+x,1/2-y,z
loop_
_atom_site_type_symbol
_atom_site_label
_atom_site_fract_x
_atom_site_fract_y
_atom_site_fract_z
Si Si1 0.890943 0.895530 0.585593
Si Si2 0.374192 0.901431 0.775104
Si Si3 0.281954 0.603522 0.277177
Si Si4 0.623535 0.718282 0.606672
Si Si5 0.407336 0.393200 0.004310
Si Si6 0.592740 0.295618 0.210743
Si Si7 0.938341 0.397642 0.438013
O O1 0.854920 0.842896 0.506576
O O2 0.871994 0.842692 0.704158
O O3 0.000000 0.896270 0.500000
O O4 0.860842 0.000000 0.609361
O O5 0.323197 0.893551 0.693494
O O6 0.363653 0.803612 0.832067
O O7 0.481747 0.906573 0.694600
O O8 0.343693 0.000000 0.836909
O O9 0.305112 0.500000 0.298830
O O10 0.316800 0.678919 0.335181
O O11 0.330995 0.617360 0.136920
O O12 0.517119 0.707876 0.704810
O O13 0.629707 0.822137 0.564330
O O14 0.421244 0.500000 0.978752
O O15 0.388533 0.350822 0.904265
O O16 0.500000 0.355341 0.000000
O O17 0.903871 0.500000 0.475574
O O18 0.000000 0.364980 0.500000
#
# Coordination Sequence:
#
# PCOD9170003 Si02
#       7
#     8   8   8   8   8   8   8
#     4   9  17  27  44  73 103 129 158 201 250 295
#     4   9  19  34  51  73 100 133 173 210 249 295
#     4  10  20  33  50  75 106 135 164 205 255 306
#     4  10  17  29  50  75 100 130 167 206 251 297
#     4  10  19  31  50  76 102 131 167 208 252 301
#     4  10  18  31  51  72  99 132 172 209 244 294
#     4   9  17  32  53  73  95 130 177 215 242 286
#
# _framework density 20.084004
#
# number of rings (size 3 to 8) (size 9 to 14) (size 15 to 20)
#    0.000    2.429    1.429    3.000    0.000    1.714 
#    0.000    2.857    0.000    4.714    0.000    0.000 
#    0.000    0.000    0.000    0.000    0.000    0.000 
#
# Total GULP energy -156096.820819 kJ/mol
# GULP energy per Si atom -5574.886458 kJ/mol
# Density = 2.003829 g / cm^3
# Si number density = 20.084004 Si / 1000 Ang^3
#
#
#
# Elastic Constant Matrix: (Units=GPa)
#
#
# Indices 1 2 3 4 5 6 
#
# 1 55.4955 49.0957 29.9950 0.0000 5.5420 0.0000
# 2 49.0957 150.5085 61.5589 0.0000 22.0924 0.0000
# 3 29.9950 61.5589 73.1850 0.0000 24.3497 0.0000
# 4 0.0000 0.0000 0.0000 21.2826 0.0000 11.6927
# 5 5.5420 22.0924 24.3497 0.0000 29.7282 0.0000
# 6 0.0000 0.0000 0.0000 11.6927 0.0000 21.2450
#
#
#
# Elastic Compliance Matrix: (Units=1/GPa)
#
#
# Indices 1 2 3 4 5 6 
#
# 1 0.027507 -0.006750 -0.007642 0.000000 0.006147 0.000000
# 2 -0.006750 0.011797 -0.006404 0.000000 -0.002264 0.000000
# 3 -0.007642 -0.006404 0.027664 0.000000 -0.016476 0.000000
# 4 0.000000 0.000000 0.000000 0.067352 0.000000 -0.037069
# 5 0.006147 -0.002264 -0.016476 0.000000 0.047669 0.000000
# 6 0.000000 0.000000 0.000000 -0.037069 0.000000 0.067472
#
#
# Mechanical properties :
#
#
# Convention : Reuss Voigt Hill
#
# Bulk Modulus (GPa) = 39.40352 62.27646 50.83999
# Shear Modulus (GPa) = 16.69386 23.68712 20.19049
#
# Velocity S-wave (km/s) = 2.88619 3.43797 3.17409
# Velocity P-wave (km/s) = 5.54695 6.84360 6.22911
#
# Compressibility (1/GPa) = 0.02537845
#
# Stress axis : x y z
#
# Youngs Moduli (GPa) = 36.35418 84.76530 36.14798
#
# Poissons Ratio (x) = 0.57213 0.27623
# Poissons Ratio (y) = 0.24538 0.23148
# Poissons Ratio (z) = 0.27781 0.54281
#
# Static dielectric constant tensor:
#      x y z
#    x 1.742740 0.000000 -0.071620 
#    y 0.000000 1.742250 0.000000 
#    z -0.071620 0.000000 1.744250 
# 
# From -- ./inp_files/156551.got.cif
#   From: 2010.05.17/outbox.cif.g08.bks.cpg/sg12_79_cif.got.tgz:156551.got - 2010.06.03 13:09:07.
