data_PCOD9170618
_publ_section_title
;
Structure prediction by ZEFSAII (Michael W. Deem and Ramdas Pophale) SiO2 
 PCOD9170618
Probable space group: C 2/M
;
_chemical_formula_sum "Si O2"
_cell_formula_units_Z 40
_cell_length_a 24.380254
_cell_length_b 7.978337
_cell_length_c 24.822587
_cell_angle_alpha 90.000000
_cell_angle_beta 155.321260
_cell_angle_gamma 90.000000
_cell_volume 2015.975565
_symmetry_space_group_name_H-M "C 2/M"
_symmetry_group_IT_number 12
_symmetry_cell_setting 'monoclinic'
loop_
_space_group_symop_operation_xyz
x,y,z
-x,y,-z
-x,-y,-z
x,-y,z
1/2+x,1/2+y,z
1/2-x,1/2+y,-z
1/2-x,1/2-y,-z
1/2+x,1/2-y,z
loop_
_atom_site_type_symbol
_atom_site_label
_atom_site_fract_x
_atom_site_fract_y
_atom_site_fract_z
Si Si1 0.637623 0.500000 0.590683
Si Si2 0.100624 0.799765 0.853349
Si Si3 0.329715 0.296551 0.199284
Si Si4 0.085592 0.500000 0.129781
Si Si5 0.033592 0.680538 0.466550
Si Si6 0.530148 0.698623 0.906166
O O1 0.500000 0.500000 0.500000
O O2 0.758452 0.500000 0.738976
O O3 0.634056 0.333734 0.551592
O O4 0.084413 0.745584 0.777049
O O5 0.019899 0.747233 0.833965
O O6 0.092252 0.000000 0.845714
O O7 0.250000 0.750000 0.000000
O O8 0.321484 0.500000 0.194015
O O9 0.403655 0.226658 0.317189
O O10 0.183194 0.225237 0.060278
O O11 0.050360 0.331011 0.130705
O O12 0.000000 0.500000 0.000000
O O13 0.084683 0.500000 0.494529
O O14 0.000000 0.668785 0.500000
O O15 0.498407 0.500000 0.883936
#
# Coordination Sequence:
#
# PCOD9170618 Si02
#       6
#     4   8   8   4   8   8
#     4  10  24  44  64  82 120 160 204 253 304 368
#     4   8  16  29  52  88 123 160 199 247 301 357
#     4  10  17  32  61  95 127 160 207 253 301 359
#     4  12  28  42  64  94 124 164 205 253 318 363
#     4  10  21  35  57  86 118 157 203 251 299 357
#     4  10  21  38  59  89 132 164 197 253 312 364
#
# _framework density 19.841511000000001
#
# number of rings (size 3 to 8) (size 9 to 14) (size 15 to 20)
#    0.000    2.200    2.000    0.600    7.000    2.000 
#    0.000    0.000    0.000    1.200    0.000    0.000 
#    0.000    0.000    0.000    0.000    0.000    0.000 
#
# Total GULP energy -111430.431110 kJ/mol
# GULP energy per Si atom -5571.521556 kJ/mol
# Density = 1.979635 g / cm^3
# Si number density = 19.841511 Si / 1000 Ang^3
#
#
#
# Elastic Constant Matrix: (Units=GPa)
#
#
# Indices 1 2 3 4 5 6 
#
# 1 92.4555 23.2639 35.7003 0.0000 -14.4248 0.0000
# 2 23.2639 129.7718 17.7788 0.0000 3.2878 0.0000
# 3 35.7003 17.7788 90.0659 0.0001 -11.8085 0.0000
# 4 0.0000 0.0000 0.0001 13.5335 0.0000 -0.6240
# 5 -14.4248 3.2878 -11.8085 0.0000 26.4195 0.0000
# 6 0.0000 0.0000 0.0000 -0.6240 0.0000 19.9882
#
#
#
# Elastic Compliance Matrix: (Units=1/GPa)
#
#
# Indices 1 2 3 4 5 6 
#
# 1 0.013933 -0.002053 -0.004341 0.000000 0.005922 0.000000
# 2 -0.002053 0.008303 -0.001177 0.000000 -0.002680 0.000000
# 3 -0.004341 -0.001177 0.013559 0.000000 0.003837 0.000000
# 4 0.000000 0.000000 0.000000 0.073997 0.000000 0.002310
# 5 0.005922 -0.002680 0.003837 0.000000 0.043133 0.000000
# 6 0.000000 0.000000 0.000000 0.002310 0.000000 0.050102
#
#
# Mechanical properties :
#
#
# Convention : Reuss Voigt Hill
#
# Bulk Modulus (GPa) = 48.41776 51.75324 50.08550
# Shear Modulus (GPa) = 22.21709 27.69159 24.95434
#
# Velocity S-wave (km/s) = 3.34986 3.73988 3.55023
# Velocity P-wave (km/s) = 6.27832 6.69245 6.48869
#
# Compressibility (1/GPa) = 0.02065358
#
# Stress axis : x y z
#
# Youngs Moduli (GPa) = 71.77311 120.43883 73.75220
#
# Poissons Ratio (x) = 0.24726 0.32015
# Poissons Ratio (y) = 0.14735 0.08678
# Poissons Ratio (z) = 0.31156 0.14171
#
# Static dielectric constant tensor:
#      x y z
#    x 1.748010 0.000000 -0.019030 
#    y 0.000000 1.799510 0.000000 
#    z -0.019030 0.000000 1.673580 
# 
# From -- ./inp_files/368945.got.cif
#   From: 2010.05.17/outbox.cif.g08.bks.cpg/sg12_185_cif.got.tgz:368945.got - 2010.06.03 13:09:07.
