data_PCOD9170735
_publ_section_title
;
Structure prediction by ZEFSAII (Michael W. Deem and Ramdas Pophale) SiO2 
 PCOD9170735
Probable space group: C 2/M
;
_chemical_formula_sum "Si O2"
_cell_formula_units_Z 52
_cell_length_a 16.140627
_cell_length_b 13.424327
_cell_length_c 14.655660
_cell_angle_alpha 90.000000
_cell_angle_beta 52.645868
_cell_angle_gamma 90.000000
_cell_volume 2524.242818
_symmetry_space_group_name_H-M "C 2/M"
_symmetry_group_IT_number 12
_symmetry_cell_setting 'monoclinic'
loop_
_space_group_symop_operation_xyz
x,y,z
-x,y,-z
-x,-y,-z
x,-y,z
1/2+x,1/2+y,z
1/2-x,1/2+y,-z
1/2-x,1/2-y,-z
1/2+x,1/2-y,z
loop_
_atom_site_type_symbol
_atom_site_label
_atom_site_fract_x
_atom_site_fract_y
_atom_site_fract_z
Si Si1 0.827268 0.681339 0.758218
Si Si2 0.604868 0.500000 0.136756
Si Si3 0.960561 0.616025 0.829203
Si Si4 0.370662 0.500000 0.284882
Si Si5 0.296156 0.825209 0.577284
Si Si6 0.231630 0.669912 0.932068
Si Si7 0.174964 0.000000 0.890889
Si Si8 0.183513 0.617082 0.631888
O O1 0.919242 0.680424 0.770802
O O2 0.854045 0.663867 0.635257
O O3 0.754543 0.777966 0.820845
O O4 0.751411 0.593563 0.841281
O O5 0.486146 0.500000 0.249341
O O6 0.676244 0.591464 0.118781
O O7 0.605746 0.500000 0.026294
O O8 0.952153 0.500000 0.807970
O O9 0.082365 0.635101 0.762284
O O10 0.883500 0.631335 0.966579
O O11 0.304402 0.400206 0.351904
O O12 0.380315 0.500000 0.169017
O O13 0.264206 0.708490 0.590538
O O14 0.352683 0.864747 0.449110
O O15 0.250000 0.750000 0.000000
O O16 0.216923 0.500000 0.619120
#
# Coordination Sequence:
#
# PCOD9170735 Si02
#       8
#     8   4   8   4   8   8   4   8
#     4  10  19  34  56  80 114 148 176 232 283 320
#     4  12  19  34  53  83 112 152 186 225 283 340
#     4  10  18  34  58  82 111 144 188 232 270 327
#     4  10  23  32  56  82 110 148 189 232 286 329
#     4  10  22  41  56  80 116 142 188 239 275 334
#     4  10  19  32  53  79 116 147 181 221 276 335
#     4  10  17  34  49  79 112 140 187 234 270 319
#     4  10  22  39  62  82 105 150 192 230 283 332
#
# _framework density 20.600235999999999
#
# number of rings (size 3 to 8) (size 9 to 14) (size 15 to 20)
#    0.000    1.846    5.385    0.231    4.308    0.615 
#    1.385    2.308    0.000    1.846    0.000    4.308 
#    0.000    0.000    0.000    0.000    0.000    0.000 
#
# Total GULP energy -144792.801645 kJ/mol
# GULP energy per Si atom -5568.953909 kJ/mol
# Density = 2.055335 g / cm^3
# Si number density = 20.600236 Si / 1000 Ang^3
#
#
#
# Elastic Constant Matrix: (Units=GPa)
#
#
# Indices 1 2 3 4 5 6 
#
# 1 13.3261 16.0972 0.6481 0.0000 -10.5170 0.0000
# 2 16.0972 112.7910 4.4285 0.0000 -13.4796 0.0000
# 3 0.6481 4.4285 50.3286 0.0000 -3.8678 0.0000
# 4 0.0000 0.0000 0.0000 36.8654 0.0000 6.8220
# 5 -10.5170 -13.4796 -3.8678 0.0000 25.8437 0.0000
# 6 0.0000 0.0000 0.0000 6.8220 0.0000 14.1769
#
#
#
# Elastic Compliance Matrix: (Units=1/GPa)
#
#
# Indices 1 2 3 4 5 6 
#
# 1 0.125721 -0.012682 0.002954 0.000000 0.044989 0.000000
# 2 -0.012682 0.010745 -0.000757 0.000000 0.000330 0.000000
# 3 0.002954 -0.000757 0.020192 0.000000 0.003830 0.000000
# 4 0.000000 0.000000 0.000000 0.029777 0.000000 -0.014329
# 5 0.044989 0.000330 0.003830 0.000000 0.057748 0.000000
# 6 0.000000 0.000000 0.000000 -0.014329 0.000000 0.077433
#
#
# Mechanical properties :
#
#
# Convention : Reuss Voigt Hill
#
# Bulk Modulus (GPa) = 7.36975 24.31038 15.84007
# Shear Modulus (GPa) = 12.89275 25.72866 19.31070
#
# Velocity S-wave (km/s) = 2.50442 3.53788 3.06502
# Velocity P-wave (km/s) = 3.45660 5.33999 4.49798
#
# Compressibility (1/GPa) = 0.13568980
#
# Stress axis : x y z
#
# Youngs Moduli (GPa) = 7.95410 93.06590 49.52392
#
# Poissons Ratio (x) = 1.18026 -0.14631
# Poissons Ratio (y) = 0.10087 0.03748
# Poissons Ratio (z) = -0.02350 0.07043
#
# Static dielectric constant tensor:
#      x y z
#    x 1.753880 0.000000 -0.005930 
#    y 0.000000 1.763740 0.000000 
#    z -0.005930 0.000000 1.763390 
# 
# From -- ./inp_files/214758.got.cif
#   From: 2010.05.17/outbox.cif.g08.bks.cpg/sg12_108_cif.got.tgz:214758.got - 2010.06.03 13:09:07.
