data_PCOD9170121
_publ_section_title
;
Structure prediction by ZEFSAII (Michael W. Deem and Ramdas Pophale) SiO2 
 PCOD9170121
Probable space group: C 2/M
;
_chemical_formula_sum "Si O2"
_cell_formula_units_Z 60
_cell_length_a 22.640532
_cell_length_b 15.962592
_cell_length_c 24.456884
_cell_angle_alpha 90.000000
_cell_angle_beta 16.161970
_cell_angle_gamma 90.000000
_cell_volume 2460.300113
_symmetry_space_group_name_H-M "C 2/M"
_symmetry_group_IT_number 12
_symmetry_cell_setting 'monoclinic'
loop_
_space_group_symop_operation_xyz
x,y,z
-x,y,-z
-x,-y,-z
x,-y,z
1/2+x,1/2+y,z
1/2-x,1/2+y,-z
1/2-x,1/2-y,-z
1/2+x,1/2-y,z
loop_
_atom_site_type_symbol
_atom_site_label
_atom_site_fract_x
_atom_site_fract_y
_atom_site_fract_z
Si Si1 0.039128 0.279302 0.357583
Si Si2 0.040071 0.132433 0.646925
Si Si3 0.275328 0.654344 0.731259
Si Si4 0.588571 0.500000 0.321611
Si Si5 0.596353 0.594946 0.058491
Si Si6 0.127602 0.593920 0.082580
Si Si7 0.679025 0.906356 0.507944
Si Si8 0.427275 0.768564 0.185650
O O1 0.014879 0.371722 0.355551
O O2 0.811219 0.261036 0.588933
O O3 0.033763 0.221160 0.309102
O O4 0.203134 0.241084 0.254215
O O5 0.057543 0.073293 0.578758
O O6 0.844504 0.092862 0.853964
O O7 0.239103 0.138916 0.510057
O O8 0.500000 0.639333 0.500000
O O9 0.269015 0.574291 0.775699
O O10 0.096072 0.670178 0.845500
O O11 0.604465 0.500000 0.026874
O O12 0.790927 0.604829 0.927997
O O13 0.385081 0.594111 0.285039
O O14 0.560732 0.682892 0.058204
O O15 0.034499 0.500000 0.158759
O O16 0.005769 0.673724 0.166141
O O17 0.638832 0.000000 0.560899
#
# Coordination Sequence:
#
# PCOD9170121 Si02
#       8
#     8   8   8   4   8   8   8   8
#     4   9  19  32  49  70  95 131 165 200 236 288
#     4  10  17  32  49  69  99 132 157 193 247 300
#     4   9  19  32  46  68 101 135 162 198 242 283
#     4  10  17  30  47  64  94 136 163 184 229 302
#     4   8  16  31  52  72  97 129 160 198 254 298
#     4  10  19  32  49  74 101 127 158 204 250 291
#     4   9  15  28  50  75  97 121 160 202 249 290
#     4  10  19  33  50  72  98 129 168 204 236 286
#
# _framework density 24.387269
#
# number of rings (size 3 to 8) (size 9 to 14) (size 15 to 20)
#    0.000    2.667    1.333    1.800    0.933    0.000 
#    4.800    4.000    0.000    6.400    0.000    0.000 
#    0.000    5.333    0.000    0.000    0.000    0.000 
#
# Total GULP energy -167068.180312 kJ/mol
# GULP energy per Si atom -5568.939344 kJ/mol
# Density = 2.433176 g / cm^3
# Si number density = 24.387269 Si / 1000 Ang^3
#
#
#
# Elastic Constant Matrix: (Units=GPa)
#
#
# Indices 1 2 3 4 5 6 
#
# 1 55.1307 23.8109 11.6981 -0.0093 -10.3127 -0.0139
# 2 23.8109 101.5718 7.7178 0.0442 -16.7875 -0.0708
# 3 11.6981 7.7178 75.0994 -0.0089 5.1903 0.0095
# 4 -0.0093 0.0442 -0.0089 27.0440 0.0144 1.0321
# 5 -10.3127 -16.7875 5.1903 0.0144 18.1947 -0.0016
# 6 -0.0139 -0.0708 0.0095 1.0321 -0.0016 2.6774
#
#
#
# Elastic Compliance Matrix: (Units=1/GPa)
#
#
# Indices 1 2 3 4 5 6 
#
# 1 0.022365 -0.003146 -0.003913 0.000004 0.010890 0.000052
# 2 -0.003146 0.012353 -0.001473 -0.000040 0.010035 0.000337
# 3 -0.003913 -0.001473 0.014612 0.000015 -0.007745 -0.000121
# 4 0.000004 -0.000040 0.000015 0.037529 -0.000070 -0.014468
# 5 0.010890 0.010035 -0.007745 -0.000070 0.072602 0.000420
# 6 0.000052 0.000337 -0.000121 -0.014468 0.000420 0.379084
#
#
# Mechanical properties :
#
#
# Convention : Reuss Voigt Hill
#
# Bulk Modulus (GPa) = 30.99192 35.36171 33.17682
# Shear Modulus (GPa) = 8.82823 22.15490 15.49157
#
# Velocity S-wave (km/s) = 1.90470 3.01734 2.52311
# Velocity P-wave (km/s) = 4.19202 5.16437 4.70338
#
# Compressibility (1/GPa) = 0.03226647
#
# Stress axis : x y z
#
# Youngs Moduli (GPa) = 44.71328 80.94898 68.43718
#
# Poissons Ratio (x) = 0.25463 0.26780
# Poissons Ratio (y) = 0.14065 0.10082
# Poissons Ratio (z) = 0.17497 0.11925
#
# Static dielectric constant tensor:
#      x y z
#    x 1.980230 0.000030 0.128590 
#    y 0.000030 1.908740 0.000180 
#    z 0.128590 0.000180 2.148070 
# 
# From -- ./inp_files/176075.got.cif
#   From: 2010.05.17/outbox.cif.g08.bks.cpg/sg12_89_cif.got.tgz:176075.got - 2010.06.03 13:09:07.
