data_PCOD9170826
_publ_section_title
;
Structure prediction by ZEFSAII (Michael W. Deem and Ramdas Pophale) SiO2 
 PCOD9170826
Probable space group: C 2/M
;
_chemical_formula_sum "Si O2"
_cell_formula_units_Z 56
_cell_length_a 20.021062
_cell_length_b 15.205359
_cell_length_c 17.712440
_cell_angle_alpha 90.000000
_cell_angle_beta 31.077630
_cell_angle_gamma 90.000000
_cell_volume 2783.423698
_symmetry_space_group_name_H-M "C 2/M"
_symmetry_group_IT_number 12
_symmetry_cell_setting 'monoclinic'
loop_
_space_group_symop_operation_xyz
x,y,z
-x,y,-z
-x,-y,-z
x,-y,z
1/2+x,1/2+y,z
1/2-x,1/2+y,-z
1/2-x,1/2-y,-z
1/2+x,1/2-y,z
loop_
_atom_site_type_symbol
_atom_site_label
_atom_site_fract_x
_atom_site_fract_y
_atom_site_fract_z
Si Si1 0.060164 0.601278 0.081006
Si Si2 0.815287 0.094461 0.032576
Si Si3 0.155507 0.862790 0.166585
Si Si4 0.555387 0.163900 0.257919
Si Si5 0.471705 0.279084 0.112932
Si Si6 0.285306 0.236812 0.555287
Si Si7 0.077311 0.900596 0.501990
O O1 0.031307 0.500000 0.093354
O O2 0.038618 0.622438 0.190982
O O3 0.980013 0.674066 0.114483
O O4 0.211112 0.622118 0.918364
O O5 0.664935 0.111082 0.197136
O O6 0.859120 0.000000 0.020384
O O7 0.820629 0.093669 0.936856
O O8 0.909730 0.173621 0.960600
O O9 0.120089 0.760677 0.187724
O O10 0.034931 0.902494 0.326606
O O11 0.415606 0.178451 0.429721
O O12 0.336631 0.304451 0.282961
O O13 0.500000 0.303066 0.000000
O O14 0.250000 0.250000 0.500000
O O15 0.323976 0.327523 0.561420
O O16 0.000000 0.874612 0.500000
O O17 0.130211 0.000000 0.440584
#
# Coordination Sequence:
#
# PCOD9170826 Si02
#       7
#     8   8   8   8   8   8   8
#     4  11  20  35  61  92 125 160 204 255 315 380
#     4  11  21  40  67  92 118 163 223 272 313 377
#     4  10  17  34  62  89 117 159 209 266 315 366
#     4  10  18  38  67  89 120 156 216 269 310 364
#     4  12  26  42  61  91 133 174 209 262 328 391
#     4  11  23  42  64  91 131 178 218 262 334 396
#     4  10  22  37  58  91 132 173 221 273 324 392
#
# _framework density 20.119108000000001
#
# number of rings (size 3 to 8) (size 9 to 14) (size 15 to 20)
#    0.000    1.286    4.286    4.286    2.000    1.143 
#    0.000    1.429    0.000    0.857    0.000    0.000 
#    0.000    0.000    0.000    0.000    0.000    0.000 
#
# Total GULP energy -156187.695038 kJ/mol
# GULP energy per Si atom -5578.131966 kJ/mol
# Density = 2.007332 g / cm^3
# Si number density = 20.119108 Si / 1000 Ang^3
#
#
#
# Elastic Constant Matrix: (Units=GPa)
#
#
# Indices 1 2 3 4 5 6 
#
# 1 64.8133 10.6604 33.6920 0.0000 -0.3659 0.0000
# 2 10.6604 78.3886 2.6378 0.0000 -2.6213 0.0000
# 3 33.6920 2.6378 128.0704 0.0000 -19.4182 0.0000
# 4 0.0000 0.0000 0.0000 6.8633 0.0000 4.2751
# 5 -0.3659 -2.6213 -19.4182 0.0000 23.0912 0.0000
# 6 0.0000 0.0000 0.0000 4.2751 0.0000 -0.9942
#
#
#
# Elastic Compliance Matrix: (Units=1/GPa)
#
#
# Indices 1 2 3 4 5 6 
#
# 1 0.018718 -0.002514 -0.005583 0.000000 -0.004683 0.000000
# 2 -0.002514 0.013144 0.000700 0.000000 0.002041 0.000000
# 3 -0.005583 0.000700 0.010614 0.000000 0.008917 0.000000
# 4 0.000000 0.000000 0.000000 0.039609 0.000000 0.170323
# 5 -0.004683 0.002041 0.008917 0.000000 0.050963 -0.000001
# 6 0.000000 0.000000 0.000000 0.170323 -0.000001 -0.273436
#
#
# Mechanical properties :
#
#
# Convention : Reuss Voigt Hill
#
# Bulk Modulus (GPa) = 36.12358 40.58362 38.35360
# Shear Modulus (GPa) = -42.96710 20.74420 -11.11145
#
# Velocity S-wave (km/s) = -4.62631 3.21451 -2.35262
# Velocity P-wave (km/s) = 3.24702 5.83034 3.42416
#
# Compressibility (1/GPa) = 0.02768275
#
# Stress axis : x y z
#
# Youngs Moduli (GPa) = 53.42445 76.08281 94.21145
#
# Poissons Ratio (x) = 0.19129 0.52594
# Poissons Ratio (y) = 0.13433 -0.06597
# Poissons Ratio (z) = 0.29824 -0.05327
#
# Static dielectric constant tensor:
#      x y z
#    x 2.156360 0.000000 0.066830 
#    y 0.000000 1.744830 0.000000 
#    z 0.066830 0.000000 1.724090 
# 
# From -- ./inp_files/284514.got.cif
#   From: 2010.05.17/outbox.cif.g08.bks.cpg/sg12_143_cif.got.tgz:284514.got - 2010.06.03 13:09:07.
