data_PCOD9170509
_publ_section_title
;
Structure prediction by ZEFSAII (Michael W. Deem and Ramdas Pophale) SiO2 
 PCOD9170509
Probable space group: C 2/M
;
_chemical_formula_sum "Si O2"
_cell_formula_units_Z 64
_cell_length_a 19.366391
_cell_length_b 23.224197
_cell_length_c 9.328926
_cell_angle_alpha 90.000000
_cell_angle_beta 70.177705
_cell_angle_gamma 90.000000
_cell_volume 3947.251189
_symmetry_space_group_name_H-M "C 2/M"
_symmetry_group_IT_number 12
_symmetry_cell_setting 'monoclinic'
loop_
_space_group_symop_operation_xyz
x,y,z
-x,y,-z
-x,-y,-z
x,-y,z
1/2+x,1/2+y,z
1/2-x,1/2+y,-z
1/2-x,1/2-y,-z
1/2+x,1/2-y,z
loop_
_atom_site_type_symbol
_atom_site_label
_atom_site_fract_x
_atom_site_fract_y
_atom_site_fract_z
Si Si1 0.262693 0.564432 0.332522
Si Si2 0.651246 0.565186 0.994055
Si Si3 0.738658 0.843788 0.556032
Si Si4 0.002005 0.185111 0.669650
Si Si5 0.579945 0.316640 0.009640
Si Si6 0.145195 0.763231 0.694263
Si Si7 0.074997 0.935998 0.632449
Si Si8 0.321616 0.565272 0.689577
O O1 0.235815 0.500000 0.377327
O O2 0.215896 0.611782 0.447142
O O3 0.346211 0.567429 0.340523
O O4 0.276512 0.572936 0.154955
O O5 0.624291 0.500000 0.985585
O O6 0.597698 0.615911 0.986635
O O7 0.668268 0.571047 0.149183
O O8 0.801197 0.805133 0.434414
O O9 0.677737 0.800354 0.656100
O O10 0.772873 0.884341 0.655439
O O11 0.066126 0.227486 0.677880
O O12 0.027122 0.120001 0.695797
O O13 0.000000 0.188104 0.500000
O O14 0.929129 0.197671 0.814916
O O15 0.500000 0.305341 0.000000
O O16 0.636568 0.283806 0.865548
O O17 0.100505 0.932123 0.448294
O O18 0.043595 0.000000 0.681935
O O19 0.293252 0.500000 0.679499
#
# Coordination Sequence:
#
# PCOD9170509 Si02
#       8
#     8   8   8   8   8   8   8   8
#     4   9  15  27  48  68  91 119 148 189 232 266
#     4  10  18  28  42  65  94 120 154 192 228 260
#     4  10  17  32  52  62  89 117 158 198 218 287
#     4  11  20  31  47  63  92 124 158 197 225 263
#     4  10  20  32  43  61  93 125 164 193 217 263
#     4  10  20  33  46  67  84 123 163 190 233 256
#     4   9  16  28  43  62  88 121 162 188 215 258
#     4   9  17  29  47  68  92 117 144 190 239 270
#
# _framework density 16.213813999999999
#
# number of rings (size 3 to 8) (size 9 to 14) (size 15 to 20)
#    0.000    2.250    3.750    2.625    0.000    1.000 
#    0.000    1.875    0.000    0.000    0.000    0.000 
#    0.000   20.000    0.000    0.000    0.000    0.500 
#
# Total GULP energy -178251.446544 kJ/mol
# GULP energy per Si atom -5570.357704 kJ/mol
# Density = 1.617691 g / cm^3
# Si number density = 16.213814 Si / 1000 Ang^3
#
#
#
# Elastic Constant Matrix: (Units=GPa)
#
#
# Indices 1 2 3 4 5 6 
#
# 1 17.2727 24.0021 18.1526 0.0000 -5.0065 0.0000
# 2 24.0021 94.8576 47.2163 0.0000 -12.1486 0.0000
# 3 18.1526 47.2163 125.5530 0.0000 3.7720 0.0000
# 4 0.0000 0.0000 0.0000 24.3110 0.0000 -4.7225
# 5 -5.0065 -12.1486 3.7720 0.0000 16.8278 0.0000
# 6 0.0000 0.0000 0.0000 -4.7225 0.0000 19.3128
#
#
#
# Elastic Compliance Matrix: (Units=1/GPa)
#
#
# Indices 1 2 3 4 5 6 
#
# 1 0.096382 -0.018476 -0.007498 0.000000 0.017017 0.000000
# 2 -0.018476 0.018673 -0.004622 0.000000 0.009020 0.000000
# 3 -0.007498 -0.004622 0.011029 0.000000 -0.008040 0.000000
# 4 0.000000 0.000000 0.000000 0.043185 0.000000 0.010560
# 5 0.017017 0.009020 -0.008040 0.000000 0.072802 0.000000
# 6 0.000000 0.000000 0.000000 0.010560 0.000000 0.054361
#
#
# Mechanical properties :
#
#
# Convention : Reuss Voigt Hill
#
# Bulk Modulus (GPa) = 15.41040 46.26947 30.83994
# Shear Modulus (GPa) = 13.18374 21.97780 17.58077
#
# Velocity S-wave (km/s) = 2.85462 3.68570 3.29646
# Velocity P-wave (km/s) = 4.51555 6.83459 5.79231
#
# Compressibility (1/GPa) = 0.06489125
#
# Stress axis : x y z
#
# Youngs Moduli (GPa) = 10.37537 53.55301 90.67388
#
# Poissons Ratio (x) = 0.98946 0.67987
# Poissons Ratio (y) = 0.19170 0.41909
# Poissons Ratio (z) = 0.07779 0.24752
#
# Static dielectric constant tensor:
#      x y z
#    x 1.537010 0.000000 0.025880 
#    y 0.000000 1.562610 0.000000 
#    z 0.025880 0.000000 1.634740 
# 
# From -- ./inp_files/99500.got.cif
#   From: 2010.05.17/outbox.cif.g08.bks.cpg/sg12_50_cif.got.tgz:99500.got - 2010.06.03 13:09:07.
