data_PCOD9170854
_publ_section_title
;
Structure prediction by ZEFSAII (Michael W. Deem and Ramdas Pophale) SiO2 
 PCOD9170854
Probable space group: C 2/M
;
_chemical_formula_sum "Si O2"
_cell_formula_units_Z 60
_cell_length_a 8.178212
_cell_length_b 26.129707
_cell_length_c 23.473435
_cell_angle_alpha 90.000000
_cell_angle_beta 141.300431
_cell_angle_gamma 90.000000
_cell_volume 3136.274543
_symmetry_space_group_name_H-M "C 2/M"
_symmetry_group_IT_number 12
_symmetry_cell_setting 'monoclinic'
loop_
_space_group_symop_operation_xyz
x,y,z
-x,y,-z
-x,-y,-z
x,-y,z
1/2+x,1/2+y,z
1/2-x,1/2+y,-z
1/2-x,1/2-y,-z
1/2+x,1/2-y,z
loop_
_atom_site_type_symbol
_atom_site_label
_atom_site_fract_x
_atom_site_fract_y
_atom_site_fract_z
Si Si1 0.819184 0.440667 0.007664
Si Si2 0.954983 0.275226 0.600274
Si Si3 0.229650 0.087969 0.797407
Si Si4 0.357477 0.560815 0.803759
Si Si5 0.006857 0.000000 0.659680
Si Si6 0.678067 0.406433 0.459776
Si Si7 0.926065 0.177956 0.657412
Si Si8 0.635392 0.117980 0.373490
O O1 0.812028 0.500000 0.023824
O O2 0.976977 0.410237 0.098393
O O3 0.532471 0.426695 0.906807
O O4 0.000000 0.438498 0.000000
O O5 0.750000 0.250000 0.500000
O O6 0.053146 0.228024 0.664616
O O7 0.839821 0.321224 0.607931
O O8 0.193072 0.301386 0.632684
O O9 0.188951 0.045141 0.738478
O O10 0.040992 0.069542 0.798109
O O11 0.122172 0.141388 0.744610
O O12 0.287038 0.500000 0.786053
O O13 0.111190 0.597692 0.728540
O O14 0.826871 0.044507 0.580523
O O15 0.697143 0.356540 0.426161
O O16 0.877929 0.406611 0.566699
O O17 0.394004 0.401956 0.412760
#
# Coordination Sequence:
#
# PCOD9170854 Si02
#       8
#     8   8   8   8   4   8   8   8
#     4   8  14  28  55  88 118 146 186 230 283 338
#     4  12  23  37  59  81 114 147 191 250 279 331
#     4  10  17  35  57  88 115 151 186 235 288 348
#     4  10  19  32  57  92 119 150 191 236 278 345
#     4  10  20  35  54  75 124 154 190 217 283 347
#     4  10  24  38  54  81 113 166 190 229 281 346
#     4  11  23  38  58  85 112 147 196 234 295 333
#     4  11  23  39  56  80 117 155 199 233 289 330
#
# _framework density 19.130977999999999
#
# number of rings (size 3 to 8) (size 9 to 14) (size 15 to 20)
#    0.000    1.733    4.000    2.000    3.733    0.533 
#    0.000    0.667    0.000    4.800    0.000    0.000 
#    0.000    0.000    0.000    0.000    0.000    0.000 
#
# Total GULP energy -167004.814350 kJ/mol
# GULP energy per Si atom -5566.827145 kJ/mol
# Density = 1.908744 g / cm^3
# Si number density = 19.130978 Si / 1000 Ang^3
#
#
#
# Elastic Constant Matrix: (Units=GPa)
#
#
# Indices 1 2 3 4 5 6 
#
# 1 25.7681 -1.2032 15.9585 0.0001 5.2064 0.0000
# 2 -1.2032 96.0471 72.0398 0.0001 5.5802 -0.0001
# 3 15.9585 72.0398 164.9929 -0.0003 9.6830 -0.0001
# 4 0.0001 0.0001 -0.0003 29.8973 0.0000 -4.7280
# 5 5.2064 5.5802 9.6830 0.0000 17.0438 0.0000
# 6 0.0000 -0.0001 -0.0001 -4.7280 0.0000 14.3045
#
#
#
# Elastic Compliance Matrix: (Units=1/GPa)
#
#
# Indices 1 2 3 4 5 6 
#
# 1 0.045471 0.006009 -0.006301 0.000000 -0.012278 0.000000
# 2 0.006009 0.016302 -0.007529 0.000000 -0.002895 0.000000
# 3 -0.006301 -0.007529 0.010035 0.000000 -0.001311 0.000000
# 4 0.000000 0.000000 0.000000 0.035293 0.000000 0.011665
# 5 -0.012278 -0.002895 -0.001311 0.000000 0.064115 0.000000
# 6 0.000000 0.000000 0.000000 0.011665 0.000000 0.073764
#
#
# Mechanical properties :
#
#
# Convention : Reuss Voigt Hill
#
# Bulk Modulus (GPa) = 17.80448 51.15538 34.47993
# Shear Modulus (GPa) = 17.89902 25.58334 21.74118
#
# Velocity S-wave (km/s) = 3.06208 3.66084 3.37477
# Velocity P-wave (km/s) = 4.67211 6.68331 5.76608
#
# Compressibility (1/GPa) = 0.05616563
#
# Stress axis : x y z
#
# Youngs Moduli (GPa) = 21.99189 61.34072 99.65362
#
# Poissons Ratio (x) = -0.36861 0.62795
# Poissons Ratio (y) = -0.13215 0.75032
# Poissons Ratio (z) = 0.13858 0.46185
#
# Static dielectric constant tensor:
#      x y z
#    x 1.751550 0.000000 -0.008210 
#    y 0.000000 1.632930 0.000000 
#    z -0.008210 0.000000 1.686060 
# 
# From -- ./inp_files/334086.got.cif
#   From: 2010.05.17/outbox.cif.g08.bks.cpg/sg12_168_cif.got.tgz:334086.got - 2010.06.03 13:09:07.
