data_PCOD9170982
_publ_section_title
;
Structure prediction by ZEFSAII (Michael W. Deem and Ramdas Pophale) SiO2 
 PCOD9170982
Probable space group: C 2/M
;
_chemical_formula_sum "Si O2"
_cell_formula_units_Z 60
_cell_length_a 15.193885
_cell_length_b 21.204802
_cell_length_c 8.306590
_cell_angle_alpha 90.000000
_cell_angle_beta 59.601216
_cell_angle_gamma 90.000000
_cell_volume 2308.326437
_symmetry_space_group_name_H-M "C 2/M"
_symmetry_group_IT_number 12
_symmetry_cell_setting 'monoclinic'
loop_
_space_group_symop_operation_xyz
x,y,z
-x,y,-z
-x,-y,-z
x,-y,z
1/2+x,1/2+y,z
1/2-x,1/2+y,-z
1/2-x,1/2-y,-z
1/2+x,1/2-y,z
loop_
_atom_site_type_symbol
_atom_site_label
_atom_site_fract_x
_atom_site_fract_y
_atom_site_fract_z
Si Si1 0.385473 0.709171 0.019689
Si Si2 0.263091 0.111634 0.167060
Si Si3 0.869117 0.230157 0.381799
Si Si4 0.288414 0.403323 0.440856
Si Si5 0.340529 0.249242 0.737828
Si Si6 0.000000 0.398055 0.000000
Si Si7 0.858123 0.068409 0.022911
Si Si8 0.069784 0.572251 0.584736
O O1 0.414671 0.739721 0.163562
O O2 0.260194 0.706196 0.154558
O O3 0.415769 0.636243 0.961183
O O4 0.401263 0.750914 0.847396
O O5 0.225517 0.073126 0.361583
O O6 0.206237 0.179324 0.224062
O O7 0.383215 0.125737 0.078103
O O8 0.230296 0.077392 0.031802
O O9 0.750000 0.250000 0.500000
O O10 0.864560 0.154727 0.391676
O O11 0.903749 0.258043 0.517526
O O12 0.323399 0.434629 0.241811
O O13 0.170986 0.386327 0.508635
O O14 0.016176 0.428808 0.808024
O O15 0.908588 0.000000 0.940445
O O16 0.103726 0.500000 0.519296
O O17 0.000000 0.591931 0.500000
#
# Coordination Sequence:
#
# PCOD9170982 Si02
#       8
#     8   8   8   8   8   4   8   8
#     4   8  14  23  36  51  65  82 104 133 164 196
#     4   9  18  28  38  50  65  88 114 143 172 197
#     4   8  13  22  36  51  64  77  98 132 168 199
#     4   9  17  27  37  49  64  85 113 140 167 197
#     4   8  13  24  38  50  63  80 106 135 166 199
#     4  10  19  28  36  48  64  82 111 144 172 194
#     4  10  18  26  36  51  70  90 112 137 165 197
#     4  10  19  28  36  45  61  87 116 143 166 189
#
# _framework density 25.992857999999998
#
# number of rings (size 3 to 8) (size 9 to 14) (size 15 to 20)
#    0.000    3.067    0.000    1.400    0.000    4.267 
#    0.000    0.000    0.000    0.000    0.000    0.000 
#    0.000    0.000    0.000    0.600    0.000    0.133 
#
# Total GULP energy -167117.318442 kJ/mol
# GULP energy per Si atom -5570.577281 kJ/mol
# Density = 2.593370 g / cm^3
# Si number density = 25.992858 Si / 1000 Ang^3
#
#
#
# Elastic Constant Matrix: (Units=GPa)
#
#
# Indices 1 2 3 4 5 6 
#
# 1 125.3546 10.0470 47.2539 0.0000 34.6896 0.0000
# 2 10.0470 98.6058 24.6818 0.0000 6.9065 0.0000
# 3 47.2539 24.6818 214.4047 0.0000 32.6753 0.0000
# 4 0.0000 0.0000 0.0000 55.8534 0.0000 -45.2075
# 5 34.6896 6.9065 32.6753 0.0000 54.9392 0.0000
# 6 0.0000 0.0000 0.0000 -45.2075 0.0000 68.6607
#
#
#
# Elastic Compliance Matrix: (Units=1/GPa)
#
#
# Indices 1 2 3 4 5 6 
#
# 1 0.010027 -0.000302 -0.001337 0.000000 -0.005498 0.000000
# 2 -0.000302 0.010473 -0.001064 0.000000 -0.000493 0.000000
# 3 -0.001337 -0.001064 0.005424 0.000000 -0.002248 0.000000
# 4 0.000000 0.000000 0.000000 0.038332 0.000000 0.025238
# 5 -0.005498 -0.000493 -0.002248 0.000000 0.023072 0.000000
# 6 0.000000 0.000000 0.000000 0.025238 0.000000 0.031182
#
#
# Mechanical properties :
#
#
# Convention : Reuss Voigt Hill
#
# Bulk Modulus (GPa) = 48.73809 66.92561 57.83185
# Shear Modulus (GPa) = 38.23931 59.64949 48.94440
#
# Velocity S-wave (km/s) = 3.83971 4.79565 4.34406
# Velocity P-wave (km/s) = 6.20074 7.51451 6.88901
#
# Compressibility (1/GPa) = 0.02051783
#
# Stress axis : x y z
#
# Youngs Moduli (GPa) = 99.72934 95.48357 184.37122
#
# Poissons Ratio (x) = 0.02882 0.24656
# Poissons Ratio (y) = 0.03010 0.19616
# Poissons Ratio (z) = 0.13337 0.10159
#
# Static dielectric constant tensor:
#      x y z
#    x 2.136180 0.000000 0.041690 
#    y 0.000000 2.032340 0.000000 
#    z 0.041690 0.000000 2.119240 
# 
# From -- ./inp_files/90122.got.cif
#   From: 2010.05.17/outbox.cif.g08.bks.cpg/sg12_46_cif.got.tgz:90122.got - 2010.06.03 13:09:07.
