data_PCOD9170307
_publ_section_title
;
Structure prediction by ZEFSAII (Michael W. Deem and Ramdas Pophale) SiO2 
 PCOD9170307
Probable space group: C 2/M
;
_chemical_formula_sum "Si O2"
_cell_formula_units_Z 40
_cell_length_a 17.626676
_cell_length_b 11.729928
_cell_length_c 9.365084
_cell_angle_alpha 90.000000
_cell_angle_beta 60.619567
_cell_angle_gamma 90.000000
_cell_volume 1687.274468
_symmetry_space_group_name_H-M "C 2/M"
_symmetry_group_IT_number 12
_symmetry_cell_setting 'monoclinic'
loop_
_space_group_symop_operation_xyz
x,y,z
-x,y,-z
-x,-y,-z
x,-y,z
1/2+x,1/2+y,z
1/2-x,1/2+y,-z
1/2-x,1/2-y,-z
1/2+x,1/2-y,z
loop_
_atom_site_type_symbol
_atom_site_label
_atom_site_fract_x
_atom_site_fract_y
_atom_site_fract_z
Si Si1 0.900293 0.344522 0.570061
Si Si2 0.752973 0.875132 0.071707
Si Si3 0.888691 0.872986 0.201910
Si Si4 0.384852 0.126913 0.251816
Si Si5 0.184746 0.875512 0.419475
O O1 0.834120 0.383819 0.751697
O O2 0.877833 0.380004 0.429810
O O3 0.882468 0.210336 0.585733
O O4 0.000000 0.373160 0.500000
O O5 0.833866 0.873348 0.107298
O O6 0.758100 0.000000 0.988803
O O7 0.750000 0.750000 0.000000
O O8 0.933148 0.747191 0.174024
O O9 0.825502 0.869360 0.399137
O O10 0.932139 0.000000 0.173858
O O11 0.285617 0.144047 0.289073
O O12 0.414924 0.000000 0.175623
O O13 0.160065 0.000000 0.397189
#
# Coordination Sequence:
#
# PCOD9170307 Si02
#       5
#     8   8   8   8   8
#     4  11  21  35  57  90 125 149 181 239 304 349
#     4  11  23  38  56  82 117 157 196 231 279 345
#     4   9  16  31  53  78 105 138 190 239 274 322
#     4  10  17  30  56  86 111 142 190 241 284 333
#     4   9  16  30  55  84 112 146 194 243 281 331
#
# _framework density 23.706869999999999
#
# number of rings (size 3 to 8) (size 9 to 14) (size 15 to 20)
#    0.000    2.000    4.000    1.800    0.000    3.600 
#    0.000    0.000    0.000    4.800    0.000   19.600 
#    0.000    0.000    0.000    0.000    0.000    0.000 
#
# Total GULP energy -111398.328704 kJ/mol
# GULP energy per Si atom -5569.916435 kJ/mol
# Density = 2.365291 g / cm^3
# Si number density = 23.706870 Si / 1000 Ang^3
#
#
#
# Elastic Constant Matrix: (Units=GPa)
#
#
# Indices 1 2 3 4 5 6 
#
# 1 33.8391 11.5518 20.3292 0.0000 -3.2746 0.0000
# 2 11.5518 302.8885 40.0102 0.0000 5.9298 0.0000
# 3 20.3292 40.0102 87.5282 0.0000 -8.6374 0.0000
# 4 0.0000 0.0000 0.0000 -6.4970 0.0000 13.8850
# 5 -3.2746 5.9298 -8.6374 0.0000 21.5031 0.0000
# 6 0.0000 0.0000 0.0000 13.8850 0.0000 -38.2066
#
#
#
# Elastic Compliance Matrix: (Units=1/GPa)
#
#
# Indices 1 2 3 4 5 6 
#
# 1 0.034471 -0.000353 -0.007619 0.000000 0.002286 0.000000
# 2 -0.000353 0.003577 -0.001724 0.000000 -0.001733 0.000000
# 3 -0.007619 -0.001724 0.014489 0.000000 0.005135 0.000000
# 4 0.000000 0.000000 0.000000 -0.689224 0.000000 -0.250477
# 5 0.002286 -0.001733 0.005135 0.000000 0.049393 0.000000
# 6 0.000000 0.000000 0.000000 -0.250477 0.000000 -0.117202
#
#
# Mechanical properties :
#
#
# Convention : Reuss Voigt Hill
#
# Bulk Modulus (GPa) = 30.17095 63.11535 46.64315
# Shear Modulus (GPa) = -7.41779 18.85088 5.71655
#
# Velocity S-wave (km/s) = -1.77081 2.82293 1.55454
# Velocity P-wave (km/s) = 2.92802 6.10788 4.78955
#
# Compressibility (1/GPa) = 0.03314447
#
# Stress axis : x y z
#
# Youngs Moduli (GPa) = 29.01020 279.59153 69.01661
#
# Poissons Ratio (x) = 0.09869 0.52585
# Poissons Ratio (y) = 0.01024 0.11898
# Poissons Ratio (z) = 0.22103 0.48199
#
# Static dielectric constant tensor:
#      x y z
#    x 1.866580 0.000000 0.023810 
#    y 0.000000 2.048920 0.000000 
#    z 0.023810 0.000000 1.904320 
# 
# From -- ./inp_files/83398.got.cif
#   From: 2010.05.17/outbox.cif.g08.bks.cpg/sg12_42_cif.got.tgz:83398.got - 2010.06.03 13:09:07.
