data_PCOD9170819
_publ_section_title
;
Structure prediction by ZEFSAII (Michael W. Deem and Ramdas Pophale) SiO2 
 PCOD9170819
Probable space group: C 2/M
;
_chemical_formula_sum "Si O2"
_cell_formula_units_Z 48
_cell_length_a 20.138031
_cell_length_b 14.029478
_cell_length_c 9.529766
_cell_angle_alpha 90.000000
_cell_angle_beta 103.018247
_cell_angle_gamma 90.000000
_cell_volume 2623.208027
_symmetry_space_group_name_H-M "C 2/M"
_symmetry_group_IT_number 12
_symmetry_cell_setting 'monoclinic'
loop_
_space_group_symop_operation_xyz
x,y,z
-x,y,-z
-x,-y,-z
x,-y,z
1/2+x,1/2+y,z
1/2-x,1/2+y,-z
1/2-x,1/2-y,-z
1/2+x,1/2-y,z
loop_
_atom_site_type_symbol
_atom_site_label
_atom_site_fract_x
_atom_site_fract_y
_atom_site_fract_z
Si Si1 0.910470 0.855116 0.126889
Si Si2 0.319131 0.500000 0.255921
Si Si3 0.875126 0.000000 0.572651
Si Si4 0.538446 0.306583 0.373133
Si Si5 0.717973 0.000000 0.977075
Si Si6 0.448913 0.108025 0.763424
Si Si7 0.137161 0.000000 0.107576
Si Si8 0.100331 0.640645 0.942231
O O1 0.862087 0.910788 0.213407
O O2 0.984436 0.844119 0.231198
O O3 0.886999 0.750280 0.080641
O O4 0.904317 0.912216 0.978748
O O5 0.319970 0.500000 0.422821
O O6 0.245633 0.500000 0.149801
O O7 0.915638 0.100186 0.574753
O O8 0.854509 0.000000 0.724147
O O9 0.500000 0.284470 0.500000
O O10 0.568292 0.204977 0.331755
O O11 0.787175 0.000000 0.922103
O O12 0.667953 0.087237 0.928177
O O13 0.415704 0.119418 0.902158
O O14 0.432667 0.000000 0.702792
O O15 0.531019 0.112253 0.827611
#
# Coordination Sequence:
#
# PCOD9170819 Si02
#       8
#     8   4   4   8   4   8   4   8
#     4   9  19  35  55  89 110 139 195 231 285 351
#     4  10  21  35  56  79 114 160 191 228 270 348
#     4  12  21  39  56  81 128 148 189 237 284 337
#     4  11  21  33  61  83 115 160 179 225 307 350
#     4  10  20  36  61  80 106 160 197 224 289 320
#     4  10  19  33  57  93 115 138 185 243 292 342
#     4  10  23  34  53  86 111 146 195 245 267 322
#     4  10  17  34  61  84 111 140 186 244 288 333
#
# _framework density 18.298206
#
# number of rings (size 3 to 8) (size 9 to 14) (size 15 to 20)
#    0.000    2.000    3.333    2.750    0.000    5.667 
#    0.000    0.000    7.333    3.000    0.000    0.000 
#    0.000    0.000    0.000    0.000    0.000    0.000 
#
# Total GULP energy -133698.336535 kJ/mol
# GULP energy per Si atom -5570.764022 kJ/mol
# Density = 1.825656 g / cm^3
# Si number density = 18.298206 Si / 1000 Ang^3
#
#
#
# Elastic Constant Matrix: (Units=GPa)
#
#
# Indices 1 2 3 4 5 6 
#
# 1 28.8975 12.6279 5.2349 0.0000 -1.9616 0.0000
# 2 12.6279 146.5930 14.5032 0.0000 1.0075 0.0000
# 3 5.2349 14.5032 75.2098 0.0000 -14.6108 0.0000
# 4 0.0000 0.0000 0.0000 14.2963 0.0000 -29.6353
# 5 -1.9616 1.0075 -14.6108 0.0000 20.6418 0.0000
# 6 0.0000 0.0000 0.0000 -29.6353 0.0000 80.2501
#
#
#
# Elastic Compliance Matrix: (Units=1/GPa)
#
#
# Indices 1 2 3 4 5 6 
#
# 1 0.036356 -0.003006 -0.001451 0.000000 0.002575 0.000000
# 2 -0.003006 0.007243 -0.001521 0.000000 -0.001716 0.000000
# 3 -0.001451 -0.001521 0.015859 0.000000 0.011162 0.000000
# 4 0.000000 0.000000 0.000000 0.298294 0.000000 0.110156
# 5 0.002575 -0.001716 0.011162 0.000000 0.056674 0.000000
# 6 0.000000 0.000000 0.000000 0.110156 0.000000 0.053140
#
#
# Mechanical properties :
#
#
# Convention : Reuss Voigt Hill
#
# Bulk Modulus (GPa) = 21.05133 35.04804 28.04969
# Shear Modulus (GPa) = 10.09376 37.59324 23.84350
#
# Velocity S-wave (km/s) = 2.35122 4.53755 3.61370
# Velocity P-wave (km/s) = 4.34747 6.82993 5.72488
#
# Compressibility (1/GPa) = 0.04750295
#
# Stress axis : x y z
#
# Youngs Moduli (GPa) = 27.50556 138.06816 63.05695
#
# Poissons Ratio (x) = 0.41503 0.09148
# Poissons Ratio (y) = 0.08268 0.09589
# Poissons Ratio (z) = 0.03990 0.20996
#
# Static dielectric constant tensor:
#      x y z
#    x 1.609450 0.000000 -0.012520 
#    y 0.000000 1.530610 0.000000 
#    z -0.012520 0.000000 1.634430 
# 
# From -- ./inp_files/86001.got.cif
#   From: 2010.05.17/outbox.cif.g08.bks.cpg/sg12_44_cif.got.tgz:86001.got - 2010.06.03 13:09:07.
