data_PCOD9170441
_publ_section_title
;
Structure prediction by ZEFSAII (Michael W. Deem and Ramdas Pophale) SiO2 
 PCOD9170441
Probable space group: C 2/M
;
_chemical_formula_sum "Si O2"
_cell_formula_units_Z 40
_cell_length_a 11.162710
_cell_length_b 21.107171
_cell_length_c 7.934377
_cell_angle_alpha 90.000000
_cell_angle_beta 59.179574
_cell_angle_gamma 90.000000
_cell_volume 1605.436226
_symmetry_space_group_name_H-M "C 2/M"
_symmetry_group_IT_number 12
_symmetry_cell_setting 'monoclinic'
loop_
_space_group_symop_operation_xyz
x,y,z
-x,y,-z
-x,-y,-z
x,-y,z
1/2+x,1/2+y,z
1/2-x,1/2+y,-z
1/2-x,1/2-y,-z
1/2+x,1/2-y,z
loop_
_atom_site_type_symbol
_atom_site_label
_atom_site_fract_x
_atom_site_fract_y
_atom_site_fract_z
Si Si1 0.630265 0.500000 0.276557
Si Si2 0.000000 0.184915 0.500000
Si Si3 0.145240 0.863143 0.701601
Si Si4 0.571259 0.000000 0.629474
Si Si5 0.372940 0.500000 0.233821
Si Si6 0.719123 0.762007 0.829330
Si Si7 0.160770 0.392645 0.743991
O O1 0.500000 0.500000 0.500000
O O2 0.536168 0.500000 0.175487
O O3 0.729508 0.439068 0.238616
O O4 0.022828 0.142543 0.650206
O O5 0.134561 0.227564 0.373241
O O6 0.145540 0.927139 0.810547
O O7 0.145964 0.799008 0.804347
O O8 0.276633 0.868075 0.480350
O O9 0.500000 0.000000 0.500000
O O10 0.539079 0.061045 0.767388
O O11 0.740193 0.000000 0.466156
O O12 0.642637 0.828827 0.859525
O O13 0.750000 0.750000 0.000000
#
# Coordination Sequence:
#
# PCOD9170441 Si02
#       7
#     4   4   8   4   4   8   8
#     4  11  14  30  65  95 116 143 203 269 329 379
#     4  10  20  39  68  85 120 164 204 264 324 381
#     4  10  19  36  59  92 119 160 208 257 320 380
#     4   9  17  30  53  88 121 162 209 255 313 392
#     4  10  17  31  56  90 118 150 204 264 316 378
#     4  11  24  40  58  91 130 167 213 265 317 387
#     4   9  18  33  59  92 120 158 208 260 321 387
#
# _framework density 24.915348000000002
#
# number of rings (size 3 to 8) (size 9 to 14) (size 15 to 20)
#    0.000    2.000    4.000    4.800    1.400    0.800 
#   16.200    2.000    0.000    2.400    0.000    5.600 
#    0.000    0.000    0.000    0.000    0.000    0.000 
#
# Total GULP energy -111588.082491 kJ/mol
# GULP energy per Si atom -5579.404125 kJ/mol
# Density = 2.485864 g / cm^3
# Si number density = 24.915348 Si / 1000 Ang^3
#
#
#
# Elastic Constant Matrix: (Units=GPa)
#
#
# Indices 1 2 3 4 5 6 
#
# 1 89.9252 56.2080 32.2740 0.0000 9.3277 0.0000
# 2 56.2080 274.2999 58.2406 0.0000 35.5096 0.0000
# 3 32.2740 58.2406 66.9160 0.0000 5.6717 0.0000
# 4 0.0000 0.0000 0.0000 10.5609 0.0000 20.7862
# 5 9.3277 35.5096 5.6717 0.0000 48.4704 0.0000
# 6 0.0000 0.0000 0.0000 20.7862 0.0000 24.9934
#
#
#
# Elastic Compliance Matrix: (Units=1/GPa)
#
#
# Indices 1 2 3 4 5 6 
#
# 1 0.014154 -0.001658 -0.005308 0.000000 -0.000888 0.000000
# 2 -0.001658 0.005093 -0.003377 0.000000 -0.003017 0.000000
# 3 -0.005308 -0.003377 0.020349 0.000000 0.001114 0.000000
# 4 0.000000 0.000000 0.000000 -0.148669 0.000000 0.123643
# 5 -0.000888 -0.003017 0.001114 0.000000 0.022882 0.000000
# 6 0.000000 0.000000 0.000000 0.123643 0.000000 -0.062819
#
#
# Mechanical properties :
#
#
# Convention : Reuss Voigt Hill
#
# Bulk Modulus (GPa) = 52.88467 80.50960 66.69714
# Shear Modulus (GPa) = -40.97690 35.76618 -2.60536
#
# Velocity S-wave (km/s) = -4.05982 3.79292 -1.02370
# Velocity P-wave (km/s) = 0.83928 7.18088 5.04285
#
# Compressibility (1/GPa) = 0.01890907
#
# Stress axis : x y z
#
# Youngs Moduli (GPa) = 70.65123 196.34393 49.14238
#
# Poissons Ratio (x) = 0.32563 0.26084
# Poissons Ratio (y) = 0.11717 0.16596
# Poissons Ratio (z) = 0.37501 0.66310
#
# Static dielectric constant tensor:
#      x y z
#    x 2.053800 0.000000 0.015080 
#    y 0.000000 2.040870 0.000000 
#    z 0.015080 0.000000 2.154720 
# 
# From -- ./inp_files/48662.got.cif
#   From: 2010.05.17/outbox.cif.g08.bks.cpg/sg12_25_cif.got.tgz:48662.got - 2010.06.03 13:09:07.
