data_PCOD9170866
_publ_section_title
;
Structure prediction by ZEFSAII (Michael W. Deem and Ramdas Pophale) SiO2 
 PCOD9170866
Probable space group: C 2/M
;
_chemical_formula_sum "Si O2"
_cell_formula_units_Z 56
_cell_length_a 22.423149
_cell_length_b 15.389949
_cell_length_c 13.530258
_cell_angle_alpha 90.000000
_cell_angle_beta 144.710871
_cell_angle_gamma 90.000000
_cell_volume 2697.393503
_symmetry_space_group_name_H-M "C 2/M"
_symmetry_group_IT_number 12
_symmetry_cell_setting 'monoclinic'
loop_
_space_group_symop_operation_xyz
x,y,z
-x,y,-z
-x,-y,-z
x,-y,z
1/2+x,1/2+y,z
1/2-x,1/2+y,-z
1/2-x,1/2-y,-z
1/2+x,1/2-y,z
loop_
_atom_site_type_symbol
_atom_site_label
_atom_site_fract_x
_atom_site_fract_y
_atom_site_fract_z
Si Si1 0.862241 0.358366 0.095580
Si Si2 0.895777 0.194747 0.417387
Si Si3 0.789554 0.406095 0.783255
Si Si4 0.689504 0.400920 0.240835
Si Si5 0.648850 0.235323 0.294333
Si Si6 0.725892 0.682449 0.082235
Si Si7 0.417573 0.840260 0.605974
O O1 0.775432 0.373748 0.061194
O O2 0.976395 0.385026 0.282947
O O3 0.838754 0.399541 0.958142
O O4 0.854995 0.253298 0.067960
O O5 0.831322 0.110720 0.360616
O O6 0.819077 0.255834 0.248809
O O7 0.913056 0.251594 0.538015
O O8 0.000000 0.178445 0.500000
O O9 0.810042 0.500000 0.765752
O O10 0.826771 0.328298 0.763580
O O11 0.657850 0.500000 0.212134
O O12 0.626350 0.329752 0.218746
O O13 0.686836 0.371965 0.122561
O O14 0.810473 0.389586 0.438434
O O15 0.750000 0.250000 0.500000
O O16 0.573036 0.186272 0.266282
#
# Coordination Sequence:
#
# PCOD9170866 Si02
#       7
#     8   8   8   8   8   8   8
#     4  10  19  35  58  83 115 150 182 224 287 343
#     4  10  17  35  61  85 108 144 198 234 274 325
#     4  11  23  38  57  85 119 150 183 226 286 346
#     4  10  20  36  59  86 111 145 195 237 275 325
#     4  10  19  39  57  81 109 152 190 226 281 324
#     4   9  18  34  58  82 109 158 183 223 285 331
#     4  10  20  34  60  87 109 148 191 234 276 332
#
# _framework density 20.760783
#
# number of rings (size 3 to 8) (size 9 to 14) (size 15 to 20)
#    0.000    2.000    7.143    0.000    0.000    4.286 
#    0.000    1.429    0.000    1.714    0.000    0.000 
#    0.000    0.000    0.000    0.000    0.000    0.000 
#
# Total GULP energy -156180.053812 kJ/mol
# GULP energy per Si atom -5577.859065 kJ/mol
# Density = 2.071353 g / cm^3
# Si number density = 20.760783 Si / 1000 Ang^3
#
#
#
# Elastic Constant Matrix: (Units=GPa)
#
#
# Indices 1 2 3 4 5 6 
#
# 1 65.0105 9.9788 -4.9542 0.0000 -22.5994 0.0000
# 2 9.9788 99.1870 -7.1883 0.0000 -15.5248 0.0000
# 3 -4.9542 -7.1883 36.5047 0.0000 -9.1781 0.0000
# 4 0.0000 0.0000 0.0000 4.6366 0.0000 -1.3597
# 5 -22.5994 -15.5248 -9.1781 0.0000 34.8323 0.0000
# 6 0.0000 0.0000 0.0000 -1.3597 0.0000 2.7486
#
#
#
# Elastic Compliance Matrix: (Units=1/GPa)
#
#
# Indices 1 2 3 4 5 6 
#
# 1 0.021413 0.000896 0.007149 0.000000 0.016176 0.000000
# 2 0.000896 0.011332 0.004037 0.000000 0.006696 0.000000
# 3 0.007149 0.004037 0.032961 0.000000 0.015123 0.000000
# 4 0.000000 0.000000 0.000000 0.252271 0.000000 0.124796
# 5 0.016176 0.006696 0.015123 0.000000 0.046173 0.000000
# 6 0.000000 0.000000 0.000000 0.124796 0.000000 0.425557
#
#
# Mechanical properties :
#
#
# Convention : Reuss Voigt Hill
#
# Bulk Modulus (GPa) = 11.12732 21.81942 16.47337
# Shear Modulus (GPa) = 6.28536 21.96790 14.12663
#
# Velocity S-wave (km/s) = 1.74186 3.25644 2.61137
# Velocity P-wave (km/s) = 3.06869 4.96709 4.12849
#
# Compressibility (1/GPa) = 0.08986887
#
# Stress axis : x y z
#
# Youngs Moduli (GPa) = 46.70164 88.24265 30.33888
#
# Poissons Ratio (x) = -0.07904 -0.21690
# Poissons Ratio (y) = -0.04183 -0.12246
# Poissons Ratio (z) = -0.33388 -0.35619
#
# Static dielectric constant tensor:
#      x y z
#    x 1.788730 0.000000 0.009570 
#    y 0.000000 1.740370 0.000000 
#    z 0.009570 0.000000 1.776210 
# 
# From -- ./inp_files/246572.got.cif
#   From: 2010.05.17/outbox.cif.g08.bks.cpg/sg12_124_cif.got.tgz:246572.got - 2010.06.03 13:09:07.
