data_PCOD9170347
_publ_section_title
;
Structure prediction by ZEFSAII (Michael W. Deem and Ramdas Pophale) SiO2 
 PCOD9170347
Probable space group: C 2/M
;
_chemical_formula_sum "Si O2"
_cell_formula_units_Z 60
_cell_length_a 13.026467
_cell_length_b 25.295985
_cell_length_c 11.942309
_cell_angle_alpha 90.000000
_cell_angle_beta 121.602975
_cell_angle_gamma 90.000000
_cell_volume 3351.606702
_symmetry_space_group_name_H-M "C 2/M"
_symmetry_group_IT_number 12
_symmetry_cell_setting 'monoclinic'
loop_
_space_group_symop_operation_xyz
x,y,z
-x,y,-z
-x,-y,-z
x,-y,z
1/2+x,1/2+y,z
1/2-x,1/2+y,-z
1/2-x,1/2-y,-z
1/2+x,1/2-y,z
loop_
_atom_site_type_symbol
_atom_site_label
_atom_site_fract_x
_atom_site_fract_y
_atom_site_fract_z
Si Si1 0.859345 0.202864 0.130375
Si Si2 0.370266 0.850230 0.679657
Si Si3 0.615251 0.334593 0.620384
Si Si4 0.871468 0.324563 0.121557
Si Si5 0.368839 0.215577 0.463788
Si Si6 0.000000 0.162594 0.000000
Si Si7 0.125888 0.560268 0.505235
Si Si8 0.235624 0.869088 0.249501
O O1 0.913773 0.172700 0.266036
O O2 0.863044 0.264517 0.163579
O O3 0.928425 0.196053 0.052542
O O4 0.724484 0.180477 0.033518
O O5 0.247114 0.857914 0.676400
O O6 0.490661 0.839919 0.820074
O O7 0.359722 0.799645 0.588837
O O8 0.383925 0.900056 0.604685
O O9 0.500000 0.362274 0.500000
O O10 0.627150 0.276595 0.568263
O O11 0.819748 0.363084 0.187810
O O12 0.500000 0.193288 0.500000
O O13 0.265093 0.183714 0.339034
O O14 0.100438 0.130483 0.126035
O O15 0.151473 0.500000 0.487308
O O16 0.224887 0.583635 0.647614
O O17 0.000000 0.561498 0.500000
#
# Coordination Sequence:
#
# PCOD9170347 Si02
#       8
#     8   8   8   8   8   4   8   8
#     4  10  22  34  47  77 113 155 190 219 254 316
#     4  11  20  32  55  77 106 147 180 228 281 328
#     4  11  23  33  46  77 113 150 187 224 257 325
#     4  10  18  33  50  73 111 145 189 223 259 315
#     4  10  17  31  49  74 107 142 185 224 262 309
#     4  10  24  32  55  74 114 158 181 218 260 320
#     4  10  20  36  61  87 105 129 178 242 291 326
#     4  10  17  34  50  78 108 141 178 224 269 315
#
# _framework density 17.901861
#
# number of rings (size 3 to 8) (size 9 to 14) (size 15 to 20)
#    0.000    1.733    4.000    2.000    5.600    0.533 
#    0.000    0.333    0.000    0.400    0.000    2.800 
#    0.000    0.000    0.000    0.000    0.000    0.000 
#
# Total GULP energy -167259.028147 kJ/mol
# GULP energy per Si atom -5575.300938 kJ/mol
# Density = 1.786112 g / cm^3
# Si number density = 17.901861 Si / 1000 Ang^3
#
#
#
# Elastic Constant Matrix: (Units=GPa)
#
#
# Indices 1 2 3 4 5 6 
#
# 1 81.6858 7.8690 34.1477 0.0000 14.3608 0.0000
# 2 7.8690 60.0982 14.7635 0.0000 4.7795 0.0000
# 3 34.1477 14.7635 94.6368 0.0000 28.2311 0.0000
# 4 0.0000 0.0000 0.0000 11.3727 0.0000 1.1663
# 5 14.3608 4.7795 28.2311 0.0000 37.5626 0.0000
# 6 0.0000 0.0000 0.0000 1.1663 0.0000 9.3626
#
#
#
# Elastic Compliance Matrix: (Units=1/GPa)
#
#
# Indices 1 2 3 4 5 6 
#
# 1 0.014565 -0.000627 -0.004538 0.000000 -0.002078 0.000000
# 2 -0.000627 0.017331 -0.002438 0.000000 -0.000133 0.000000
# 3 -0.004538 -0.002438 0.015435 0.000000 -0.009555 0.000000
# 4 0.000000 0.000000 0.000000 0.089068 0.000000 -0.011095
# 5 -0.002078 -0.000133 -0.009555 0.000000 0.034615 0.000000
# 6 0.000000 0.000000 0.000000 -0.011095 0.000000 0.108190
#
#
# Mechanical properties :
#
#
# Convention : Reuss Voigt Hill
#
# Bulk Modulus (GPa) = 31.12754 38.88681 35.00718
# Shear Modulus (GPa) = 16.38718 23.63560 20.01139
#
# Velocity S-wave (km/s) = 3.02882 3.63752 3.34704
# Velocity P-wave (km/s) = 5.44585 6.27785 5.87660
#
# Compressibility (1/GPa) = 0.03212589
#
# Stress axis : x y z
#
# Youngs Moduli (GPa) = 68.65924 57.70017 64.78880
#
# Poissons Ratio (x) = 0.03618 0.29399
# Poissons Ratio (y) = 0.04305 0.15793
# Poissons Ratio (z) = 0.31155 0.14065
#
# Static dielectric constant tensor:
#      x y z
#    x 1.660810 0.000000 0.029240 
#    y 0.000000 1.586160 0.000000 
#    z 0.029240 0.000000 1.644450 
# 
# From -- ./inp_files/136991.got.cif
#   From: 2010.05.17/outbox.cif.g08.bks.cpg/sg12_69_cif.got.tgz:136991.got - 2010.06.03 13:09:07.
