data_PCOD9170849
_publ_section_title
;
Structure prediction by ZEFSAII (Michael W. Deem and Ramdas Pophale) SiO2 
 PCOD9170849
Probable space group: C 2/M
;
_chemical_formula_sum "Si O2"
_cell_formula_units_Z 64
_cell_length_a 26.079757
_cell_length_b 16.926397
_cell_length_c 8.143374
_cell_angle_alpha 90.000000
_cell_angle_beta 77.944215
_cell_angle_gamma 90.000000
_cell_volume 3515.497109
_symmetry_space_group_name_H-M "C 2/M"
_symmetry_group_IT_number 12
_symmetry_cell_setting 'monoclinic'
loop_
_space_group_symop_operation_xyz
x,y,z
-x,y,-z
-x,-y,-z
x,-y,z
1/2+x,1/2+y,z
1/2-x,1/2+y,-z
1/2-x,1/2-y,-z
1/2+x,1/2-y,z
loop_
_atom_site_type_symbol
_atom_site_label
_atom_site_fract_x
_atom_site_fract_y
_atom_site_fract_z
Si Si1 0.631336 0.198871 0.135847
Si Si2 0.439733 0.755097 0.505726
Si Si3 0.594265 0.588919 0.353992
Si Si4 0.727589 0.735044 0.691283
Si Si5 0.227466 0.589050 0.151753
Si Si6 0.699323 0.649125 0.163494
Si Si7 0.438033 0.412733 0.008273
Si Si8 0.395500 0.251786 0.183590
O O1 0.596527 0.208291 0.324360
O O2 0.672905 0.128121 0.126804
O O3 0.665520 0.280215 0.103069
O O4 0.599474 0.199322 0.986142
O O5 0.500000 0.773829 0.500000
O O6 0.431110 0.660147 0.528336
O O7 0.423747 0.776964 0.330741
O O8 0.582888 0.500000 0.419194
O O9 0.656903 0.605032 0.304259
O O10 0.574167 0.595774 0.178171
O O11 0.750000 0.750000 0.500000
O O12 0.748870 0.650452 0.734410
O O13 0.754186 0.802598 0.783288
O O14 0.665718 0.742474 0.734295
O O15 0.219608 0.500000 0.214250
O O16 0.272005 0.592025 0.981368
O O17 0.417605 0.500000 0.070503
O O18 0.500000 0.411759 0.000000
O O19 0.414572 0.339271 0.121078
#
# Coordination Sequence:
#
# PCOD9170849 Si02
#       8
#     8   8   8   8   8   8   8   8
#     4  10  20  39  57  84 116 150 194 238 287 347
#     4  11  24  37  57  85 109 148 203 246 292 350
#     4  10  19  34  51  76 118 154 186 236 285 336
#     4  11  21  36  57  85 121 158 197 236 283 352
#     4  11  20  35  60  88 119 153 193 240 295 349
#     4  10  17  35  56  80 114 153 193 229 279 347
#     4  10  20  33  52  79 113 152 194 243 289 334
#     4  12  20  35  61  78 111 156 195 238 286 342
#
# _framework density 18.205107000000002
#
# number of rings (size 3 to 8) (size 9 to 14) (size 15 to 20)
#    0.000    1.375    5.000    4.125    0.000    2.250 
#    0.000    2.500    0.000    0.375    0.000    0.875 
#    0.000    0.000    0.000    0.000    0.000    0.000 
#
# Total GULP energy -178544.429378 kJ/mol
# GULP energy per Si atom -5579.513418 kJ/mol
# Density = 1.816367 g / cm^3
# Si number density = 18.205107 Si / 1000 Ang^3
#
#
#
# Elastic Constant Matrix: (Units=GPa)
#
#
# Indices 1 2 3 4 5 6 
#
# 1 90.6352 8.0496 15.2106 0.0000 15.4400 0.0000
# 2 8.0496 46.5972 0.0963 0.0000 12.0463 0.0000
# 3 15.2106 0.0963 62.6446 0.0000 18.0483 0.0000
# 4 0.0000 0.0000 0.0000 9.7878 0.0000 -2.7667
# 5 15.4400 12.0463 18.0483 0.0000 24.5830 0.0000
# 6 0.0000 0.0000 0.0000 -2.7667 0.0000 18.3388
#
#
#
# Elastic Compliance Matrix: (Units=1/GPa)
#
#
# Indices 1 2 3 4 5 6 
#
# 1 0.012407 -0.000371 -0.001039 0.000000 -0.006848 0.000000
# 2 -0.000371 0.025557 0.004555 0.000000 -0.015635 0.000000
# 3 -0.001039 0.004555 0.021134 0.000000 -0.017095 0.000000
# 4 0.000000 0.000000 0.000000 0.106719 0.000000 0.016100
# 5 -0.006848 -0.015635 -0.017095 0.000000 0.065192 0.000000
# 6 0.000000 0.000000 0.000000 0.016100 0.000000 0.056958
#
#
# Mechanical properties :
#
#
# Convention : Reuss Voigt Hill
#
# Bulk Modulus (GPa) = 15.29307 27.39890 21.34599
# Shear Modulus (GPa) = 16.47593 22.30995 19.39294
#
# Velocity S-wave (km/s) = 3.01161 3.50448 3.26735
# Velocity P-wave (km/s) = 4.52899 5.60874 5.09753
#
# Compressibility (1/GPa) = 0.06538909
#
# Stress axis : x y z
#
# Youngs Moduli (GPa) = 80.59874 39.12794 47.31793
#
# Poissons Ratio (x) = 0.01451 0.04916
# Poissons Ratio (y) = 0.02989 -0.21555
# Poissons Ratio (z) = 0.08374 -0.17824
#
# Static dielectric constant tensor:
#      x y z
#    x 1.631520 0.000000 0.007750 
#    y 0.000000 1.560640 0.000000 
#    z 0.007750 0.000000 1.628550 
# 
# From -- ./inp_files/97710.got.cif
#   From: 2010.05.17/outbox.cif.g08.bks.cpg/sg12_49_cif.got.tgz:97710.got - 2010.06.03 13:09:07.
