data_PCOD9170787
_publ_section_title
;
Structure prediction by ZEFSAII (Michael W. Deem and Ramdas Pophale) SiO2 
 PCOD9170787
Probable space group: C 2/M
;
_chemical_formula_sum "Si O2"
_cell_formula_units_Z 48
_cell_length_a 17.381738
_cell_length_b 32.075086
_cell_length_c 8.651668
_cell_angle_alpha 90.000000
_cell_angle_beta 34.421151
_cell_angle_gamma 90.000000
_cell_volume 2726.578523
_symmetry_space_group_name_H-M "C 2/M"
_symmetry_group_IT_number 12
_symmetry_cell_setting 'monoclinic'
loop_
_space_group_symop_operation_xyz
x,y,z
-x,y,-z
-x,-y,-z
x,-y,z
1/2+x,1/2+y,z
1/2-x,1/2+y,-z
1/2-x,1/2-y,-z
1/2+x,1/2-y,z
loop_
_atom_site_type_symbol
_atom_site_label
_atom_site_fract_x
_atom_site_fract_y
_atom_site_fract_z
Si Si1 0.703721 0.669628 0.282261
Si Si2 0.104764 0.828595 0.095157
Si Si3 0.151215 0.747287 0.810910
Si Si4 0.343407 0.000000 0.210381
Si Si5 0.149161 0.000000 0.829418
Si Si6 0.657566 0.907852 0.789082
Si Si7 0.149305 0.090223 0.829404
O O1 0.559654 0.670428 0.613454
O O2 0.666249 0.673010 0.164602
O O3 0.793319 0.709197 0.180462
O O4 0.785363 0.628084 0.194813
O O5 0.146271 0.789485 0.920223
O O6 0.155377 0.870905 0.932051
O O7 0.250000 0.750000 0.500000
O O8 0.000000 0.739118 0.000000
O O9 0.320274 0.045644 0.175628
O O10 0.253223 0.000000 0.514310
O O11 0.500000 0.000000 0.000000
O O12 0.166252 0.955230 0.881241
O O13 0.000000 0.000000 0.000000
O O14 0.743987 0.905917 0.487087
O O15 0.500000 0.902670 0.000000
O O16 0.000000 0.091013 0.000000
#
# Coordination Sequence:
#
# PCOD9170787 Si02
#       7
#     8   8   8   4   4   8   8
#     4  11  23  39  57  84 117 147 183 229 286 340
#     4  11  23  39  57  83 118 150 176 231 294 333
#     4  12  23  41  63  84 106 143 193 231 274 332
#     4   8  16  30  53  81 113 145 184 233 275 312
#     4   8  16  26  51  83 107 139 186 236 259 312
#     4  10  19  35  58  86 113 148 192 233 272 325
#     4  10  17  34  57  81 111 148 191 224 272 327
#
# _framework density 17.604481
#
# number of rings (size 3 to 8) (size 9 to 14) (size 15 to 20)
#    0.000    1.667    3.333    2.500    0.000    0.000 
#    0.000    3.333    0.000    2.000    0.000    7.000 
#    0.000    0.000    0.000    0.000    0.000    0.000 
#
# Total GULP energy -133825.995905 kJ/mol
# GULP energy per Si atom -5576.083163 kJ/mol
# Density = 1.756441 g / cm^3
# Si number density = 17.604481 Si / 1000 Ang^3
#
#
#
# Elastic Constant Matrix: (Units=GPa)
#
#
# Indices 1 2 3 4 5 6 
#
# 1 75.3034 72.9752 42.4026 0.0000 -9.0463 0.0000
# 2 72.9752 198.1479 40.6327 0.0000 -4.7900 0.0000
# 3 42.4026 40.6327 123.9141 0.0000 -16.8443 0.0000
# 4 0.0000 0.0000 0.0000 24.3104 0.0000 -7.3583
# 5 -9.0463 -4.7900 -16.8443 0.0000 20.4873 0.0000
# 6 0.0000 0.0000 0.0000 -7.3583 0.0000 -3.8899
#
#
#
# Elastic Compliance Matrix: (Units=1/GPa)
#
#
# Indices 1 2 3 4 5 6 
#
# 1 0.024252 -0.007770 -0.005114 0.000000 0.004687 0.000000
# 2 -0.007770 0.007901 -0.000166 0.000000 -0.001720 0.000000
# 3 -0.005114 -0.000166 0.010765 0.000000 0.006554 0.000000
# 4 0.000000 0.000000 0.000000 0.026158 0.000000 -0.049481
# 5 0.004687 -0.001720 0.006554 0.000000 0.055867 0.000000
# 6 0.000000 0.000000 0.000000 -0.049481 0.000000 -0.163475
#
#
# Mechanical properties :
#
#
# Convention : Reuss Voigt Hill
#
# Bulk Modulus (GPa) = 59.45594 78.82071 69.13832
# Shear Modulus (GPa) = -732.25829 24.27190 -353.99320
#
# Velocity S-wave (km/s) = -20.41698 3.71716 -14.19570
# Velocity P-wave (km/s) = 22.84639 7.95571 15.14371
#
# Compressibility (1/GPa) = 0.01681918
#
# Stress axis : x y z
#
# Youngs Moduli (GPa) = 41.23432 126.57284 92.89067
#
# Poissons Ratio (x) = 0.98342 0.47503
# Poissons Ratio (y) = 0.32037 0.01540
# Poissons Ratio (z) = 0.21087 0.02098
#
# Static dielectric constant tensor:
#      x y z
#    x 1.552710 0.000000 -0.004480 
#    y 0.000000 1.645840 0.000000 
#    z -0.004480 0.000000 1.583930 
# 
# From -- ./inp_files/80663.got.cif
#   From: 2010.05.17/outbox.cif.g08.bks.cpg/sg12_41_cif.got.tgz:80663.got - 2010.06.03 13:09:07.
