data_PCOD9170541
_publ_section_title
;
Structure prediction by ZEFSAII (Michael W. Deem and Ramdas Pophale) SiO2 
 PCOD9170541
Probable space group: C 2/M
;
_chemical_formula_sum "Si O2"
_cell_formula_units_Z 56
_cell_length_a 22.929793
_cell_length_b 17.772562
_cell_length_c 9.280456
_cell_angle_alpha 90.000000
_cell_angle_beta 115.970443
_cell_angle_gamma 90.000000
_cell_volume 3400.077954
_symmetry_space_group_name_H-M "C 2/M"
_symmetry_group_IT_number 12
_symmetry_cell_setting 'monoclinic'
loop_
_space_group_symop_operation_xyz
x,y,z
-x,y,-z
-x,-y,-z
x,-y,z
1/2+x,1/2+y,z
1/2-x,1/2+y,-z
1/2-x,1/2-y,-z
1/2+x,1/2-y,z
loop_
_atom_site_type_symbol
_atom_site_label
_atom_site_fract_x
_atom_site_fract_y
_atom_site_fract_z
Si Si1 0.553962 0.086388 0.182347
Si Si2 0.615987 0.302329 0.447340
Si Si3 0.146275 0.762296 0.802852
Si Si4 0.005869 0.292515 0.676673
Si Si5 0.206128 0.089185 0.402249
Si Si6 0.225254 0.189636 0.148992
Si Si7 0.818240 0.679691 0.683915
O O1 0.522440 0.134703 0.275971
O O2 0.619469 0.129778 0.208454
O O3 0.568445 0.000000 0.237005
O O4 0.500000 0.086792 0.000000
O O5 0.628850 0.301989 0.632290
O O6 0.542336 0.276757 0.339133
O O7 0.639470 0.377804 0.395948
O O8 0.659506 0.236379 0.420283
O O9 0.080070 0.726443 0.790841
O O10 0.200905 0.700260 0.823084
O O11 0.179501 0.814086 0.959629
O O12 0.000000 0.304050 0.500000
O O13 0.215816 0.123356 0.253069
O O14 0.262008 0.126614 0.561881
O O15 0.209318 0.000000 0.407092
O O16 0.206054 0.266593 0.213967
#
# Coordination Sequence:
#
# PCOD9170541 Si02
#       7
#     8   8   8   8   8   8   8
#     4  10  20  32  46  71 105 133 160 198 243 290
#     4   9  17  34  54  73  97 125 173 207 233 288
#     4  10  17  32  54  77  97 127 166 204 248 280
#     4   9  19  32  53  74  95 129 168 201 239 292
#     4  11  20  33  51  75 101 129 164 207 255 291
#     4  10  19  31  55  76 102 125 166 211 241 294
#     4  10  17  33  52  72  95 132 171 205 234 284
#
# _framework density 16.470210999999999
#
# number of rings (size 3 to 8) (size 9 to 14) (size 15 to 20)
#    0.000    2.143    2.857    2.143    0.000    0.286 
#    0.000    1.429    0.000    5.571    0.000    0.000 
#    0.000    0.000    0.000    0.000    0.000    0.000 
#
# Total GULP energy -156099.323778 kJ/mol
# GULP energy per Si atom -5574.975849 kJ/mol
# Density = 1.643272 g / cm^3
# Si number density = 16.470211 Si / 1000 Ang^3
#
#
#
# Elastic Constant Matrix: (Units=GPa)
#
#
# Indices 1 2 3 4 5 6 
#
# 1 108.1082 46.5906 23.7838 0.0000 13.5925 0.0000
# 2 46.5906 105.0614 27.8193 0.0000 4.8512 0.0000
# 3 23.7838 27.8193 57.6438 0.0000 6.3297 0.0000
# 4 0.0000 0.0000 0.0000 17.5592 0.0000 -0.4988
# 5 13.5925 4.8512 6.3297 0.0000 23.7201 0.0000
# 6 0.0000 0.0000 0.0000 -0.4988 0.0000 10.5477
#
#
#
# Elastic Compliance Matrix: (Units=1/GPa)
#
#
# Indices 1 2 3 4 5 6 
#
# 1 0.012464 -0.004666 -0.002278 0.000000 -0.005580 0.000000
# 2 -0.004666 0.012677 -0.004328 0.000000 0.001236 0.000000
# 3 -0.002278 -0.004328 0.020744 0.000000 -0.003345 0.000000
# 4 0.000000 0.000000 0.000000 0.057027 0.000000 0.002697
# 5 -0.005580 0.001236 -0.003345 0.000000 0.045996 0.000000
# 6 0.000000 0.000000 0.000000 0.002697 0.000000 0.094935
#
#
# Mechanical properties :
#
#
# Convention : Reuss Voigt Hill
#
# Bulk Modulus (GPa) = 42.84598 51.91121 47.37860
# Shear Modulus (GPa) = 18.23708 21.87336 20.05522
#
# Velocity S-wave (km/s) = 3.33119 3.64820 3.49329
# Velocity P-wave (km/s) = 6.39269 7.02371 6.71561
#
# Compressibility (1/GPa) = 0.02333941
#
# Stress axis : x y z
#
# Youngs Moduli (GPa) = 80.23289 78.88559 48.20701
#
# Poissons Ratio (x) = 0.36811 0.10980
# Poissons Ratio (y) = 0.37440 0.20865
# Poissons Ratio (z) = 0.18275 0.34144
#
# Static dielectric constant tensor:
#      x y z
#    x 1.581660 0.000000 0.008360 
#    y 0.000000 1.522080 0.000000 
#    z 0.008360 0.000000 1.566470 
# 
# From -- ./inp_files/97619.got.cif
#   From: 2010.05.17/outbox.cif.g08.bks.cpg/sg12_49_cif.got.tgz:97619.got - 2010.06.03 13:09:07.
