data_PCOD9170503
_publ_section_title
;
Structure prediction by ZEFSAII (Michael W. Deem and Ramdas Pophale) SiO2 
 PCOD9170503
Probable space group: C 2/M
;
_chemical_formula_sum "Si O2"
_cell_formula_units_Z 64
_cell_length_a 13.345588
_cell_length_b 15.725704
_cell_length_c 22.439396
_cell_angle_alpha 90.000000
_cell_angle_beta 38.816596
_cell_angle_gamma 90.000000
_cell_volume 2951.946056
_symmetry_space_group_name_H-M "C 2/M"
_symmetry_group_IT_number 12
_symmetry_cell_setting 'monoclinic'
loop_
_space_group_symop_operation_xyz
x,y,z
-x,y,-z
-x,-y,-z
x,-y,z
1/2+x,1/2+y,z
1/2-x,1/2+y,-z
1/2-x,1/2-y,-z
1/2+x,1/2-y,z
loop_
_atom_site_type_symbol
_atom_site_label
_atom_site_fract_x
_atom_site_fract_y
_atom_site_fract_z
Si Si1 0.410842 0.273151 0.106391
Si Si2 0.693665 0.089582 0.417992
Si Si3 0.127468 0.746200 0.387019
Si Si4 0.490883 0.906045 0.933222
Si Si5 0.308349 0.906253 0.843603
Si Si6 0.639401 0.594600 0.047068
Si Si7 0.829531 0.401188 0.317100
Si Si8 0.355497 0.167495 0.439567
O O1 0.403140 0.176033 0.131233
O O2 0.252698 0.328152 0.167295
O O3 0.500000 0.268368 0.000000
O O4 0.514340 0.329030 0.104856
O O5 0.500000 0.087059 0.500000
O O6 0.745450 0.173790 0.359071
O O7 0.708717 0.101600 0.481425
O O8 0.761106 0.000000 0.365733
O O9 0.215366 0.834737 0.336969
O O10 0.000000 0.762300 0.500000
O O11 0.030705 0.700926 0.378693
O O12 0.305604 0.887291 0.003374
O O13 0.531896 0.000000 0.888810
O O14 0.500000 0.913966 0.000000
O O15 0.189471 0.911274 0.954434
O O16 0.485193 0.894053 0.787545
O O17 0.306631 0.000000 0.813987
O O18 0.581467 0.500000 0.091811
O O19 0.780769 0.500000 0.335881
O O20 0.838533 0.370576 0.382155
O O21 0.250000 0.250000 0.500000
#
# Coordination Sequence:
#
# PCOD9170503 Si02
#       8
#     8   8   8   8   8   8   8   8
#     4   9  16  29  50  73  96 127 167 207 249 298
#     4   8  14  26  47  71  92 119 158 202 248 298
#     4   9  18  33  52  75 102 127 168 217 256 312
#     4   9  17  28  46  74 101 129 167 210 248 293
#     4   9  19  33  49  73 100 128 165 207 260 311
#     4   9  16  29  50  73 100 129 165 211 254 298
#     4  11  21  35  54  77 107 139 172 219 271 317
#     4  10  17  32  51  74 102 131 167 213 260 309
#
# _framework density 21.680613999999998
#
# number of rings (size 3 to 8) (size 9 to 14) (size 15 to 20)
#    0.000    3.000    2.500    1.125    0.000    2.250 
#    2.250    0.000    0.000    0.750    0.000    0.000 
#    0.000    0.000    0.000    0.000    0.000    0.000 
#
# Total GULP energy -178305.502224 kJ/mol
# GULP energy per Si atom -5572.046944 kJ/mol
# Density = 2.163127 g / cm^3
# Si number density = 21.680614 Si / 1000 Ang^3
#
#
#
# Elastic Constant Matrix: (Units=GPa)
#
#
# Indices 1 2 3 4 5 6 
#
# 1 69.8589 36.6892 -0.0807 0.0001 0.8319 0.0000
# 2 36.6892 195.2455 20.8025 0.0000 -22.3104 0.0000
# 3 -0.0807 20.8025 35.5520 0.0000 7.6140 0.0000
# 4 0.0001 0.0000 0.0000 9.0986 -0.0001 -10.0301
# 5 0.8319 -22.3104 7.6140 -0.0001 17.5587 0.0000
# 6 0.0000 0.0000 0.0000 -10.0301 0.0000 19.7516
#
#
#
# Elastic Compliance Matrix: (Units=1/GPa)
#
#
# Indices 1 2 3 4 5 6 
#
# 1 0.016873 -0.004663 0.004637 -0.000001 -0.008735 0.000000
# 2 -0.004663 0.008530 -0.008125 0.000001 0.014582 0.000000
# 3 0.004637 -0.008125 0.038749 -0.000001 -0.027346 0.000000
# 4 -0.000001 0.000001 -0.000001 0.249674 0.000003 0.126787
# 5 -0.008735 0.014582 -0.027346 0.000003 0.087752 0.000001
# 6 0.000000 0.000000 0.000000 0.126787 0.000001 0.115013
#
#
# Mechanical properties :
#
#
# Convention : Reuss Voigt Hill
#
# Bulk Modulus (GPa) = 20.89805 46.16427 33.53116
# Shear Modulus (GPa) = 9.11010 25.49812 17.30411
#
# Velocity S-wave (km/s) = 2.05209 3.43312 2.82820
# Velocity P-wave (km/s) = 3.90829 6.08722 5.11512
#
# Compressibility (1/GPa) = 0.04785135
#
# Stress axis : x y z
#
# Youngs Moduli (GPa) = 59.26686 117.23431 25.80715
#
# Poissons Ratio (x) = 0.54665 -0.11968
# Poissons Ratio (y) = 0.27635 0.20968
# Poissons Ratio (z) = -0.27485 0.95250
#
# Static dielectric constant tensor:
#      x y z
#    x 1.831870 0.000000 0.019670 
#    y 0.000000 1.854360 0.000000 
#    z 0.019670 0.000000 1.807540 
# 
# From -- ./inp_files/361255.got.cif
#   From: 2010.05.17/outbox.cif.g08.bks.cpg/sg12_181_cif.got.tgz:361255.got - 2010.06.03 13:09:07.
