data_PCOD9170882
_publ_section_title
;
Structure prediction by ZEFSAII (Michael W. Deem and Ramdas Pophale) SiO2 
 PCOD9170882
Probable space group: C 2/M
;
_chemical_formula_sum "Si O2"
_cell_formula_units_Z 52
_cell_length_a 17.884929
_cell_length_b 19.379253
_cell_length_c 9.243281
_cell_angle_alpha 90.000000
_cell_angle_beta 110.337962
_cell_angle_gamma 90.000000
_cell_volume 3003.967791
_symmetry_space_group_name_H-M "C 2/M"
_symmetry_group_IT_number 12
_symmetry_cell_setting 'monoclinic'
loop_
_space_group_symop_operation_xyz
x,y,z
-x,y,-z
-x,-y,-z
x,-y,z
1/2+x,1/2+y,z
1/2-x,1/2+y,-z
1/2-x,1/2-y,-z
1/2+x,1/2-y,z
loop_
_atom_site_type_symbol
_atom_site_label
_atom_site_fract_x
_atom_site_fract_y
_atom_site_fract_z
Si Si1 0.579708 0.360278 0.144716
Si Si2 0.244605 0.851090 0.646500
Si Si3 0.152566 0.500000 0.564415
Si Si4 0.246257 0.500000 0.348170
Si Si5 0.850741 0.349269 0.429020
Si Si6 0.164335 0.000000 0.303478
Si Si7 0.073279 0.207989 0.448625
Si Si8 0.272784 0.277011 0.858379
O O1 0.618030 0.432174 0.223499
O O2 0.562060 0.314515 0.275588
O O3 0.647210 0.321552 0.096565
O O4 0.500000 0.371129 0.000000
O O5 0.250765 0.926036 0.724999
O O6 0.287030 0.856169 0.518457
O O7 0.153959 0.828992 0.557219
O O8 0.283305 0.789631 0.762461
O O9 0.168901 0.500000 0.401751
O O10 0.115897 0.425900 0.576995
O O11 0.243533 0.500000 0.689694
O O12 0.319921 0.500000 0.512825
O O13 0.911031 0.289744 0.519243
O O14 0.799600 0.320871 0.260123
O O15 0.000000 0.187184 0.500000
O O16 0.250000 0.250000 0.000000
#
# Coordination Sequence:
#
# PCOD9170882 Si02
#       8
#     8   8   4   4   8   4   8   8
#     4  12  23  36  52  80 118 152 175 218 277 326
#     4  10  17  36  59  76 103 139 181 232 267 313
#     4   8  14  29  62  82  94 131 185 231 271 310
#     4   8  14  29  60  82  96 130 184 226 272 308
#     4  10  17  36  61  78 101 140 185 233 268 315
#     4  10  17  36  53  80 110 147 182 216 262 335
#     4  11  21  34  54  82 110 141 183 226 268 316
#     4  11  21  34  54  81 108 140 187 226 262 317
#
# _framework density 17.310438999999999
#
# number of rings (size 3 to 8) (size 9 to 14) (size 15 to 20)
#    0.462    1.231    6.154    1.154    4.308    0.000 
#    0.000    3.462    0.000    0.000    0.000    1.077 
#    0.000    0.000    0.000    0.000    0.000    0.000 
#
# Total GULP energy -144858.389485 kJ/mol
# GULP energy per Si atom -5571.476519 kJ/mol
# Density = 1.727104 g / cm^3
# Si number density = 17.310439 Si / 1000 Ang^3
#
#
#
# Elastic Constant Matrix: (Units=GPa)
#
#
# Indices 1 2 3 4 5 6 
#
# 1 47.8316 -5.4809 10.2504 0.0000 -9.3433 0.0000
# 2 -5.4809 120.1273 9.2945 0.0000 -1.4495 0.0000
# 3 10.2504 9.2945 39.6804 0.0000 -5.8916 0.0000
# 4 0.0000 0.0000 0.0000 12.0156 0.0000 6.6602
# 5 -9.3433 -1.4495 -5.8916 0.0000 23.1706 0.0000
# 6 0.0000 0.0000 0.0000 6.6602 0.0000 7.2776
#
#
#
# Elastic Compliance Matrix: (Units=1/GPa)
#
#
# Indices 1 2 3 4 5 6 
#
# 1 0.023861 0.001599 -0.005295 0.000000 0.008375 0.000000
# 2 0.001599 0.008585 -0.002337 0.000000 0.000588 0.000000
# 3 -0.005295 -0.002337 0.027828 0.000000 0.004795 0.000000
# 4 0.000000 0.000000 0.000000 0.168907 0.000000 -0.154579
# 5 0.008375 0.000588 0.004795 0.000000 0.047791 0.000000
# 6 0.000000 0.000000 0.000000 -0.154579 0.000000 0.278874
#
#
# Mechanical properties :
#
#
# Convention : Reuss Voigt Hill
#
# Bulk Modulus (GPa) = 20.74270 26.19636 23.46953
# Shear Modulus (GPa) = 8.56191 21.39777 14.97984
#
# Velocity S-wave (km/s) = 2.22639 3.51966 2.94490
# Velocity P-wave (km/s) = 4.31485 5.62881 5.01505
#
# Compressibility (1/GPa) = 0.04820974
#
# Stress axis : x y z
#
# Youngs Moduli (GPa) = 41.90993 116.47707 35.93453
#
# Poissons Ratio (x) = -0.18629 0.19027
# Poissons Ratio (y) = -0.06703 0.08397
# Poissons Ratio (z) = 0.22191 0.27219
#
# Static dielectric constant tensor:
#      x y z
#    x 1.573730 0.000000 -0.007140 
#    y 0.000000 1.642580 0.000000 
#    z -0.007140 0.000000 1.577120 
# 
# From -- ./inp_files/76999.got.cif
#   From: 2010.05.17/outbox.cif.g08.bks.cpg/sg12_39_cif.got.tgz:76999.got - 2010.06.03 13:09:07.
