data_PCOD9170388
_publ_section_title
;
Structure prediction by ZEFSAII (Michael W. Deem and Ramdas Pophale) SiO2 
 PCOD9170388
Probable space group: C 2/M
;
_chemical_formula_sum "Si O2"
_cell_formula_units_Z 64
_cell_length_a 19.610585
_cell_length_b 23.813776
_cell_length_c 8.060094
_cell_angle_alpha 90.000000
_cell_angle_beta 92.315332
_cell_angle_gamma 90.000000
_cell_volume 3761.007731
_symmetry_space_group_name_H-M "C 2/M"
_symmetry_group_IT_number 12
_symmetry_cell_setting 'monoclinic'
loop_
_space_group_symop_operation_xyz
x,y,z
-x,y,-z
-x,-y,-z
x,-y,z
1/2+x,1/2+y,z
1/2-x,1/2+y,-z
1/2-x,1/2-y,-z
1/2+x,1/2-y,z
loop_
_atom_site_type_symbol
_atom_site_label
_atom_site_fract_x
_atom_site_fract_y
_atom_site_fract_z
Si Si1 0.953459 0.846741 0.656761
Si Si2 0.814968 0.103776 0.751219
Si Si3 0.357296 0.726201 0.437607
Si Si4 0.154017 0.937977 0.897362
Si Si5 0.423169 0.321259 0.115591
Si Si6 0.795159 0.318989 0.596825
Si Si7 0.691378 0.272183 0.119664
Si Si8 0.256169 0.063359 0.592754
O O1 0.895129 0.890554 0.706505
O O2 0.909420 0.794851 0.582377
O O3 0.000000 0.864464 0.500000
O O4 0.998190 0.829117 0.820952
O O5 0.789994 0.167203 0.796456
O O6 0.777811 0.076550 0.589812
O O7 0.808361 0.069292 0.921599
O O8 0.392596 0.709643 0.273160
O O9 0.285894 0.692020 0.438334
O O10 0.336861 0.790763 0.452222
O O11 0.103860 0.885176 0.890305
O O12 0.202413 0.933026 0.740539
O O13 0.122084 0.000000 0.888207
O O14 0.381023 0.287051 0.972443
O O15 0.813348 0.278037 0.749937
O O16 0.806490 0.384255 0.624776
O O17 0.750000 0.250000 0.000000
O O18 0.283461 0.000000 0.595737
#
# Coordination Sequence:
#
# PCOD9170388 Si02
#       8
#     8   8   8   8   8   8   8   8
#     4  10  19  33  53  76 106 140 180 226 272 312
#     4  11  20  37  54  76 102 147 180 221 271 318
#     4  10  17  31  53  73  98 132 165 224 265 327
#     4  10  21  35  50  72 104 141 187 224 261 313
#     4  10  20  33  49  73 104 137 177 217 273 303
#     4  11  17  31  51  77  99 128 176 208 280 317
#     4  11  20  30  52  80 103 133 175 224 271 330
#     4  11  21  35  54  77 108 142 180 226 268 320
#
# _framework density 17.016715999999999
#
# number of rings (size 3 to 8) (size 9 to 14) (size 15 to 20)
#    0.000    1.500    5.000    2.625    0.000    2.000 
#    0.000    1.875    0.000    4.125    0.000    0.000 
#    0.000    6.500    0.000    0.000    0.000    0.250 
#
# Total GULP energy -178157.001155 kJ/mol
# GULP energy per Si atom -5567.406286 kJ/mol
# Density = 1.697799 g / cm^3
# Si number density = 17.016716 Si / 1000 Ang^3
#
#
#
# Elastic Constant Matrix: (Units=GPa)
#
#
# Indices 1 2 3 4 5 6 
#
# 1 18.6897 25.6924 10.7473 0.0000 0.5711 0.0000
# 2 25.6924 136.5206 28.9315 0.0000 4.3396 0.0000
# 3 10.7473 28.9315 94.3580 0.0000 13.1795 0.0000
# 4 0.0000 0.0000 0.0000 20.1853 0.0000 -0.3742
# 5 0.5711 4.3396 13.1795 0.0000 28.1840 0.0000
# 6 0.0000 0.0000 0.0000 -0.3742 0.0000 15.3456
#
#
#
# Elastic Compliance Matrix: (Units=1/GPa)
#
#
# Indices 1 2 3 4 5 6 
#
# 1 0.074078 -0.013004 -0.004836 0.000000 0.002763 0.000000
# 2 -0.013004 0.010117 -0.001541 0.000000 -0.000574 0.000000
# 3 -0.004836 -0.001541 0.012383 0.000000 -0.005455 0.000000
# 4 0.000000 0.000000 0.000000 0.049563 0.000000 0.001209
# 5 0.002763 -0.000574 -0.005455 0.000000 0.038065 0.000000
# 6 0.000000 0.000000 0.000000 0.001209 0.000000 0.065195
#
#
# Mechanical properties :
#
#
# Convention : Reuss Voigt Hill
#
# Bulk Modulus (GPa) = 17.29607 42.25674 29.77640
# Shear Modulus (GPa) = 16.26359 25.02278 20.64319
#
# Velocity S-wave (km/s) = 3.09486 3.83885 3.48675
# Velocity P-wave (km/s) = 4.79136 6.67348 5.80915
#
# Compressibility (1/GPa) = 0.05781661
#
# Stress axis : x y z
#
# Youngs Moduli (GPa) = 13.49923 98.84424 80.75487
#
# Poissons Ratio (x) = 1.28537 0.39054
# Poissons Ratio (y) = 0.17554 0.12442
# Poissons Ratio (z) = 0.06528 0.15229
#
# Static dielectric constant tensor:
#      x y z
#    x 1.596690 0.000000 -0.023790 
#    y 0.000000 1.587540 0.000000 
#    z -0.023790 0.000000 1.696480 
# 
# From -- ./inp_files/90189.got.cif
#   From: 2010.05.17/outbox.cif.g08.bks.cpg/sg12_46_cif.got.tgz:90189.got - 2010.06.03 13:09:07.
