data_PCOD9170191
_publ_section_title
;
Structure prediction by ZEFSAII (Michael W. Deem and Ramdas Pophale) SiO2 
 PCOD9170191
Probable space group: C 2/M
;
_chemical_formula_sum "Si O2"
_cell_formula_units_Z 40
_cell_length_a 18.702614
_cell_length_b 21.537498
_cell_length_c 12.872406
_cell_angle_alpha 90.000000
_cell_angle_beta 152.763340
_cell_angle_gamma 90.000000
_cell_volume 2373.049561
_symmetry_space_group_name_H-M "C 2/M"
_symmetry_group_IT_number 12
_symmetry_cell_setting 'monoclinic'
loop_
_space_group_symop_operation_xyz
x,y,z
-x,y,-z
-x,-y,-z
x,-y,z
1/2+x,1/2+y,z
1/2-x,1/2+y,-z
1/2-x,1/2-y,-z
1/2+x,1/2-y,z
loop_
_atom_site_type_symbol
_atom_site_label
_atom_site_fract_x
_atom_site_fract_y
_atom_site_fract_z
Si Si1 0.925453 0.691899 0.016495
Si Si2 0.398656 0.276816 0.464220
Si Si3 0.840685 0.070585 0.863403
Si Si4 0.823180 0.656337 0.501830
Si Si5 0.495854 0.328308 0.195208
O O1 0.021752 0.654421 0.227667
O O2 0.946074 0.764152 0.075760
O O3 0.741654 0.683116 0.765016
O O4 0.000000 0.681995 0.000000
O O5 0.500000 0.251923 0.500000
O O6 0.330416 0.220242 0.445045
O O7 0.498685 0.316400 0.675315
O O8 0.708955 0.101200 0.620345
O O9 0.806323 0.000000 0.848985
O O10 0.000000 0.070481 0.000000
O O11 0.883385 0.116984 0.011958
O O12 0.672669 0.659479 0.383213
#
# Coordination Sequence:
#
# PCOD9170191 Si02
#       5
#     8   8   8   8   8
#     4  11  16  30  51  72  99 134 159 195 252 302
#     4  11  21  30  47  79 105 128 161 206 249 294
#     4   9  17  31  52  76  97 124 170 211 236 279
#     4  10  18  30  50  73 101 133 163 196 250 298
#     4  10  17  30  51  73 102 133 163 197 247 299
#
# _framework density 16.855948000000001
#
# number of rings (size 3 to 8) (size 9 to 14) (size 15 to 20)
#    0.000    1.800    6.000    1.800    0.000    3.200 
#    0.000    0.000    0.000    3.000    0.000    0.000 
#    0.000    0.000    0.000    0.000    0.000    0.000 
#
# Total GULP energy -111470.602315 kJ/mol
# GULP energy per Si atom -5573.530116 kJ/mol
# Density = 1.681758 g / cm^3
# Si number density = 16.855948 Si / 1000 Ang^3
#
#
#
# Elastic Constant Matrix: (Units=GPa)
#
#
# Indices 1 2 3 4 5 6 
#
# 1 44.6591 4.7323 18.8208 0.0000 -14.7930 0.0000
# 2 4.7323 78.1274 31.2521 0.0000 -16.6950 0.0000
# 3 18.8208 31.2521 105.3294 0.0000 -33.1861 0.0000
# 4 0.0000 0.0000 0.0000 16.7842 0.0000 -7.0575
# 5 -14.7930 -16.6950 -33.1861 0.0000 15.3688 0.0000
# 6 0.0000 0.0000 0.0000 -7.0575 0.0000 4.5149
#
#
#
# Elastic Compliance Matrix: (Units=1/GPa)
#
#
# Indices 1 2 3 4 5 6 
#
# 1 0.044711 0.009956 0.018843 0.000000 0.094539 0.000000
# 2 0.009956 0.019078 0.006598 0.000000 0.044556 0.000000
# 3 0.018843 0.006598 0.037983 0.000000 0.107322 0.000000
# 4 0.000000 0.000000 0.000000 0.173846 0.000000 0.271748
# 5 0.094539 0.044556 0.107322 0.000000 0.436206 0.000000
# 6 0.000000 0.000000 0.000000 0.271748 0.000000 0.646274
#
#
# Mechanical properties :
#
#
# Convention : Reuss Voigt Hill
#
# Bulk Modulus (GPa) = 5.79482 37.52515 21.65998
# Shear Modulus (GPa) = 3.71795 18.88762 11.30279
#
# Velocity S-wave (km/s) = 1.48678 3.35107 2.59231
# Velocity P-wave (km/s) = 2.52837 6.10602 4.67312
#
# Compressibility (1/GPa) = 0.17256802
#
# Stress axis : x y z
#
# Youngs Moduli (GPa) = 22.36583 52.41596 26.32742
#
# Poissons Ratio (x) = -0.52187 -0.49609
# Poissons Ratio (y) = -0.22268 -0.17372
# Poissons Ratio (z) = -0.42144 -0.34586
#
# Static dielectric constant tensor:
#      x y z
#    x 1.570360 0.000000 0.005380 
#    y 0.000000 1.550430 0.000000 
#    z 0.005380 0.000000 1.612410 
# 
# From -- ./inp_files/48501.got.cif
#   From: 2010.05.17/outbox.cif.g08.bks.cpg/sg12_25_cif.got.tgz:48501.got - 2010.06.03 13:09:07.
