data_PCOD9170652
_publ_section_title
;
Structure prediction by ZEFSAII (Michael W. Deem and Ramdas Pophale) SiO2 
 PCOD9170652
Probable space group: C 2/M
;
_chemical_formula_sum "Si O2"
_cell_formula_units_Z 36
_cell_length_a 16.762965
_cell_length_b 17.686243
_cell_length_c 8.063892
_cell_angle_alpha 90.000000
_cell_angle_beta 130.230022
_cell_angle_gamma 90.000000
_cell_volume 1825.223773
_symmetry_space_group_name_H-M "C 2/M"
_symmetry_group_IT_number 12
_symmetry_cell_setting 'monoclinic'
loop_
_space_group_symop_operation_xyz
x,y,z
-x,y,-z
-x,-y,-z
x,-y,z
1/2+x,1/2+y,z
1/2-x,1/2+y,-z
1/2-x,1/2-y,-z
1/2+x,1/2-y,z
loop_
_atom_site_type_symbol
_atom_site_label
_atom_site_fract_x
_atom_site_fract_y
_atom_site_fract_z
Si Si1 0.921665 0.729082 0.152754
Si Si2 0.149557 0.269688 0.583153
Si Si3 0.880264 0.581657 0.903623
Si Si4 0.000000 0.854998 0.000000
Si Si5 0.292117 0.370329 0.576394
O O1 0.862082 0.750957 0.240585
O O2 0.036856 0.703043 0.366677
O O3 0.867706 0.657928 0.992583
O O4 0.945580 0.797715 0.059524
O O5 0.232538 0.334153 0.653306
O O6 0.178134 0.198372 0.507851
O O7 0.868606 0.500000 0.975156
O O8 0.794569 0.583970 0.641871
O O9 0.000000 0.585408 0.000000
O O10 0.904820 0.900227 0.787303
#
# Coordination Sequence:
#
# PCOD9170652 Si02
#       5
#     8   8   8   4   8
#     4  10  17  33  52  86 104 135 170 222 268 320
#     4   9  18  30  56  79 111 129 169 222 278 304
#     4  11  21  35  53  73 107 149 178 210 256 314
#     4  10  20  32  54  78 108 132 172 222 272 304
#     4  10  19  35  50  79 105 141 169 219 261 319
#
# _framework density 19.723609
#
# number of rings (size 3 to 8) (size 9 to 14) (size 15 to 20)
#    0.000    2.000    3.333    2.667    0.000    3.556 
#    0.000    3.889    0.000    0.000    0.000   20.222 
#    0.000    0.000    0.000    0.000    0.000    0.000 
#
# Total GULP energy -100293.129632 kJ/mol
# GULP energy per Si atom -5571.840535 kJ/mol
# Density = 1.967872 g / cm^3
# Si number density = 19.723609 Si / 1000 Ang^3
#
#
#
# Elastic Constant Matrix: (Units=GPa)
#
#
# Indices 1 2 3 4 5 6 
#
# 1 97.2719 16.9259 36.5600 0.0000 -10.0603 0.0000
# 2 16.9259 34.5850 16.3532 0.0000 6.3580 0.0000
# 3 36.5600 16.3532 140.2963 0.0000 35.0571 0.0000
# 4 0.0000 0.0000 0.0000 -3.6082 0.0000 -6.6930
# 5 -10.0603 6.3580 35.0571 0.0000 44.4759 0.0000
# 6 0.0000 0.0000 0.0000 -6.6930 0.0000 1.7307
#
#
#
# Elastic Compliance Matrix: (Units=1/GPa)
#
#
# Indices 1 2 3 4 5 6 
#
# 1 0.013986 -0.005969 -0.004922 0.000000 0.007896 0.000000
# 2 -0.005969 0.033284 -0.000994 0.000000 -0.005325 0.000000
# 3 -0.004922 -0.000994 0.010920 0.000000 -0.009578 0.000000
# 4 0.000000 0.000000 0.000000 -0.033908 0.000000 -0.131130
# 5 0.007896 -0.005325 -0.009578 0.000000 0.032581 0.000000
# 6 0.000000 0.000000 0.000000 -0.131130 0.000000 0.070691
#
#
# Mechanical properties :
#
#
# Convention : Reuss Voigt Hill
#
# Bulk Modulus (GPa) = 29.05239 45.75903 37.40571
# Shear Modulus (GPa) = 30.71320 22.00730 26.36025
#
# Velocity S-wave (km/s) = 3.95039 3.34396 3.65976
# Velocity P-wave (km/s) = 5.96399 6.17737 6.07162
#
# Compressibility (1/GPa) = 0.03442058
#
# Stress axis : x y z
#
# Youngs Moduli (GPa) = 71.50152 30.04431 91.57799
#
# Poissons Ratio (x) = 0.17933 0.45074
# Poissons Ratio (y) = 0.42679 0.09099
# Poissons Ratio (z) = 0.35193 0.02985
#
# Static dielectric constant tensor:
#      x y z
#    x 1.682940 0.000000 0.030840 
#    y 0.000000 1.672200 0.000000 
#    z 0.030840 0.000000 1.772440 
# 
# From -- ./inp_files/74755.got.cif
#   From: 2010.05.17/outbox.cif.g08.bks.cpg/sg12_38_cif.got.tgz:74755.got - 2010.06.03 13:09:07.
