data_PCOD9170001
_publ_section_title
;
Structure prediction by ZEFSAII (Michael W. Deem and Ramdas Pophale) SiO2 
 PCOD9170001
Probable space group: C 2/M
;
_chemical_formula_sum "Si O2"
_cell_formula_units_Z 56
_cell_length_a 27.636548
_cell_length_b 8.498856
_cell_length_c 14.930387
_cell_angle_alpha 90.000000
_cell_angle_beta 102.418026
_cell_angle_gamma 90.000000
_cell_volume 3424.791435
_symmetry_space_group_name_H-M "C 2/M"
_symmetry_group_IT_number 12
_symmetry_cell_setting 'monoclinic'
loop_
_space_group_symop_operation_xyz
x,y,z
-x,y,-z
-x,-y,-z
x,-y,z
1/2+x,1/2+y,z
1/2-x,1/2+y,-z
1/2-x,1/2-y,-z
1/2+x,1/2-y,z
loop_
_atom_site_type_symbol
_atom_site_label
_atom_site_fract_x
_atom_site_fract_y
_atom_site_fract_z
Si Si1 0.067168 0.808542 0.603534
Si Si2 0.371905 0.686063 0.209149
Si Si3 0.931351 0.312744 0.785228
Si Si4 0.543121 0.186738 0.882708
Si Si5 0.455251 0.690251 0.604373
Si Si6 0.608303 0.685411 0.058150
Si Si7 0.805208 0.313633 0.032285
O O1 0.111543 0.757037 0.685892
O O2 0.068781 0.762188 0.500210
O O3 0.013257 0.759929 0.620735
O O4 0.066874 0.000000 0.605390
O O5 0.361599 0.500000 0.207306
O O6 0.420648 0.717790 0.168323
O O7 0.328066 0.770775 0.138537
O O8 0.926045 0.500000 0.789112
O O9 0.929742 0.259217 0.681816
O O10 0.893638 0.232377 0.838900
O O11 0.986721 0.269490 0.841376
O O12 0.548982 0.000000 0.868531
O O13 0.563582 0.224986 0.989350
O O14 0.454603 0.500000 0.609353
O O15 0.601302 0.500000 0.044725
O O16 0.657959 0.736588 0.026080
O O17 0.806507 0.500000 0.020842
O O18 0.750000 0.250000 0.000000
#
# Coordination Sequence:
#
# PCOD9170001 Si02
#       7
#     8   8   8   8   8   8   8
#     4   8  15  27  46  69  96 129 170 209 242 278
#     4  10  17  29  50  74  98 129 166 203 243 290
#     4  11  21  31  43  66  99 134 167 203 244 284
#     4  10  19  30  43  64  97 132 164 201 241 283
#     4   9  16  29  46  66  94 134 174 208 238 276
#     4  11  22  34  50  70  92 125 165 201 241 293
#     4  11  22  38  56  76 100 124 154 199 247 295
#
# _framework density 16.351361000000001
#
# number of rings (size 3 to 8) (size 9 to 14) (size 15 to 20)
#    0.000    2.000    1.429    6.857    0.000    3.429 
#    0.000    2.857    0.000    0.000    0.000    1.000 
#    0.000    0.000    0.000    0.000    0.000    0.000 
#
# Total GULP energy -156199.435072 kJ/mol
# GULP energy per Si atom -5578.551253 kJ/mol
# Density = 1.631414 g / cm^3
# Si number density = 16.351361 Si / 1000 Ang^3
#
#
#
# Elastic Constant Matrix: (Units=GPa)
#
#
# Indices 1 2 3 4 5 6 
#
# 1 54.3679 12.8878 44.6925 0.0000 6.2364 0.0000
# 2 12.8878 35.5251 5.9125 0.0000 1.9712 0.0000
# 3 44.6925 5.9125 120.4441 0.0000 -4.5291 0.0000
# 4 0.0000 0.0000 0.0000 8.7514 0.0000 7.4670
# 5 6.2364 1.9712 -4.5291 0.0000 20.5267 0.0000
# 6 0.0000 0.0000 0.0000 7.4670 0.0000 13.6107
#
#
#
# Elastic Compliance Matrix: (Units=1/GPa)
#
#
# Indices 1 2 3 4 5 6 
#
# 1 0.031311 -0.008804 -0.011608 0.000000 -0.011229 0.000000
# 2 -0.008804 0.031048 0.001746 0.000000 0.000078 0.000000
# 3 -0.011608 0.001746 0.012757 0.000000 0.006174 0.000000
# 4 0.000000 0.000000 0.000000 0.214831 0.000000 -0.117860
# 5 -0.011229 0.000078 0.006174 0.000000 0.053483 0.000000
# 6 0.000000 0.000000 0.000000 -0.117860 0.000000 0.138131
#
#
# Mechanical properties :
#
#
# Convention : Reuss Voigt Hill
#
# Bulk Modulus (GPa) = 26.46749 37.48030 31.97389
# Shear Modulus (GPa) = 9.40754 18.36738 13.88746
#
# Velocity S-wave (km/s) = 2.40122 3.35519 2.91746
# Velocity P-wave (km/s) = 4.88975 6.16290 5.56287
#
# Compressibility (1/GPa) = 0.03778220
#
# Stress axis : x y z
#
# Youngs Moduli (GPa) = 31.93798 32.20807 78.39130
#
# Poissons Ratio (x) = 0.28355 0.90999
# Poissons Ratio (y) = 0.28118 -0.13684
# Poissons Ratio (z) = 0.37075 -0.05622
#
# Static dielectric constant tensor:
#      x y z
#    x 1.518930 0.000000 -0.002600 
#    y 0.000000 1.548700 0.000000 
#    z -0.002600 0.000000 1.589810 
# 
# From -- ./inp_files/247921.got.cif
#   From: 2010.05.17/outbox.cif.g08.bks.cpg/sg12_124_cif.got.tgz:247921.got - 2010.06.03 13:09:07.
