data_PCOD9170653
_publ_section_title
;
Structure prediction by ZEFSAII (Michael W. Deem and Ramdas Pophale) SiO2 
 PCOD9170653
Probable space group: C 2/M
;
_chemical_formula_sum "Si O2"
_cell_formula_units_Z 36
_cell_length_a 16.359776
_cell_length_b 17.941222
_cell_length_c 8.110448
_cell_angle_alpha 90.000000
_cell_angle_beta 130.513297
_cell_angle_gamma 90.000000
_cell_volume 1809.812694
_symmetry_space_group_name_H-M "C 2/M"
_symmetry_group_IT_number 12
_symmetry_cell_setting 'monoclinic'
loop_
_space_group_symop_operation_xyz
x,y,z
-x,y,-z
-x,-y,-z
x,-y,z
1/2+x,1/2+y,z
1/2-x,1/2+y,-z
1/2-x,1/2-y,-z
1/2+x,1/2-y,z
loop_
_atom_site_type_symbol
_atom_site_label
_atom_site_fract_x
_atom_site_fract_y
_atom_site_fract_z
Si Si1 0.000000 0.154786 0.000000
Si Si2 0.209693 0.221548 0.706566
Si Si3 0.927403 0.271962 0.181744
Si Si4 0.778177 0.869101 0.593514
Si Si5 0.458768 0.918516 0.755851
O O1 0.980806 0.211458 0.129127
O O2 0.109324 0.108540 0.173940
O O3 0.111488 0.236288 0.699102
O O4 0.191807 0.158269 0.549693
O O5 0.239894 0.296717 0.647561
O O6 0.315337 0.202952 0.950108
O O7 0.997568 0.346451 0.282167
O O8 0.670557 0.916929 0.431616
O O9 0.498027 0.000000 0.750983
O O10 0.500000 0.909277 0.000000
#
# Coordination Sequence:
#
# PCOD9170653 Si02
#       5
#     4   8   8   8   8
#     4  10  20  32  54  76 112 134 178 232 278 312
#     4   9  18  30  56  76 116 134 173 232 282 313
#     4  10  17  33  52  86 106 141 176 227 278 325
#     4  10  19  35  49  80 106 145 178 224 270 325
#     4  11  21  35  55  78 112 150 180 216 264 333
#
# _framework density 19.891560999999999
#
# number of rings (size 3 to 8) (size 9 to 14) (size 15 to 20)
#    0.000    2.000    3.333    2.667    0.000    3.556 
#    0.000    2.778    0.000    0.000    0.000    4.667 
#    0.000    0.000    0.000    0.000    0.000    0.000 
#
# Total GULP energy -100388.773760 kJ/mol
# GULP energy per Si atom -5577.154098 kJ/mol
# Density = 1.984629 g / cm^3
# Si number density = 19.891561 Si / 1000 Ang^3
#
#
#
# Elastic Constant Matrix: (Units=GPa)
#
#
# Indices 1 2 3 4 5 6 
#
# 1 118.7005 30.2649 35.3175 0.0000 -1.0469 0.0000
# 2 30.2649 48.8002 23.5809 0.0000 7.3595 0.0000
# 3 35.3175 23.5809 82.8818 0.0000 38.3822 0.0000
# 4 0.0000 0.0000 0.0000 0.0847 0.0000 2.1022
# 5 -1.0469 7.3595 38.3822 0.0000 52.3224 0.0000
# 6 0.0000 0.0000 0.0000 2.1022 0.0000 13.4557
#
#
#
# Elastic Compliance Matrix: (Units=1/GPa)
#
#
# Indices 1 2 3 4 5 6 
#
# 1 0.011527 -0.005090 -0.005910 0.000000 0.005282 0.000000
# 2 -0.005090 0.026214 -0.005353 0.000000 0.000138 0.000000
# 3 -0.005910 -0.005353 0.023948 0.000000 -0.016933 0.000000
# 4 0.000000 0.000000 0.000000 -4.101936 0.000000 0.640860
# 5 0.005282 0.000138 -0.016933 0.000000 0.031620 0.000000
# 6 0.000000 0.000000 0.000000 0.640860 0.000000 -0.025806
#
#
# Mechanical properties :
#
#
# Convention : Reuss Voigt Hill
#
# Bulk Modulus (GPa) = 34.50189 47.63436 41.06813
# Shear Modulus (GPa) = -1.25248 23.92050 11.33401
#
# Velocity S-wave (km/s) = -0.79437 3.47154 2.38962
# Velocity P-wave (km/s) = 4.06710 6.32991 5.32020
#
# Compressibility (1/GPa) = 0.02898392
#
# Stress axis : x y z
#
# Youngs Moduli (GPa) = 86.75065 38.14716 41.75638
#
# Poissons Ratio (x) = 0.19416 0.24678
# Poissons Ratio (y) = 0.44154 0.22354
# Poissons Ratio (z) = 0.51269 0.20421
#
# Static dielectric constant tensor:
#      x y z
#    x 1.709610 0.000000 0.025220 
#    y 0.000000 1.639330 0.000000 
#    z 0.025220 0.000000 1.791730 
# 
# From -- ./inp_files/62357.got.cif
#   From: 2010.05.17/outbox.cif.g08.bks.cpg/sg12_32_cif.got.tgz:62357.got - 2010.06.03 13:09:07.
