data_PCOD9170380
_publ_section_title
;
Structure prediction by ZEFSAII (Michael W. Deem and Ramdas Pophale) SiO2 
 PCOD9170380
Probable space group: C 2/M
;
_chemical_formula_sum "Si O2"
_cell_formula_units_Z 48
_cell_length_a 22.110474
_cell_length_b 21.141473
_cell_length_c 12.359034
_cell_angle_alpha 90.000000
_cell_angle_beta 21.084581
_cell_angle_gamma 90.000000
_cell_volume 2078.325018
_symmetry_space_group_name_H-M "C 2/M"
_symmetry_group_IT_number 12
_symmetry_cell_setting 'monoclinic'
loop_
_space_group_symop_operation_xyz
x,y,z
-x,y,-z
-x,-y,-z
x,-y,z
1/2+x,1/2+y,z
1/2-x,1/2+y,-z
1/2-x,1/2-y,-z
1/2+x,1/2-y,z
loop_
_atom_site_type_symbol
_atom_site_label
_atom_site_fract_x
_atom_site_fract_y
_atom_site_fract_z
Si Si1 0.203698 0.000000 0.155827
Si Si2 0.000000 0.776920 0.000000
Si Si3 0.747842 0.272144 0.250837
Si Si4 0.213550 0.363732 0.246383
Si Si5 0.596671 0.364534 0.672435
Si Si6 0.060659 0.000000 0.773899
Si Si7 0.202104 0.500000 0.253205
Si Si8 0.202452 0.861434 0.148748
O O1 0.248081 0.069825 0.124094
O O2 0.000000 0.000000 0.500000
O O3 0.271761 0.000000 0.919254
O O4 0.909461 0.738807 0.056855
O O5 0.866614 0.821846 0.284176
O O6 0.656651 0.204959 0.382564
O O7 0.645872 0.325043 0.486056
O O8 0.784592 0.303751 0.075063
O O9 0.124609 0.431767 0.414449
O O10 0.394882 0.369872 0.001505
O O11 0.245885 0.360245 0.063318
O O12 0.658851 0.435679 0.582740
O O13 0.000000 0.000000 0.000000
O O14 0.891480 0.000000 0.984233
O O15 0.000000 0.854596 0.500000
#
# Coordination Sequence:
#
# PCOD9170380 Si02
#       8
#     4   4   8   8   8   4   4   8
#     4   8  16  26  48  76 105 130 156 213 275 323
#     4  10  22  37  48  69 108 146 184 210 254 315
#     4  11  21  32  53  75 112 144 174 214 267 323
#     4   9  18  32  51  81 109 132 170 220 272 322
#     4  10  19  34  53  78 105 139 174 222 273 313
#     4  10  18  30  54  80 105 131 173 232 267 309
#     4   8  16  30  48  72 105 133 160 218 273 309
#     4  10  17  31  52  81 108 132 174 218 276 319
#
# _framework density 23.095521000000002
#
# number of rings (size 3 to 8) (size 9 to 14) (size 15 to 20)
#    0.000    2.333    2.500    1.000    2.333    0.000 
#    0.000    0.000    0.000    2.000    0.000    9.917 
#    0.000    0.000    0.000    0.000    0.000    0.000 
#
# Total GULP energy -133853.902033 kJ/mol
# GULP energy per Si atom -5577.245918 kJ/mol
# Density = 2.304296 g / cm^3
# Si number density = 23.095521 Si / 1000 Ang^3
#
#
#
# Elastic Constant Matrix: (Units=GPa)
#
#
# Indices 1 2 3 4 5 6 
#
# 1 87.8003 44.2603 -0.4752 0.0000 1.1482 0.0041
# 2 44.2603 217.6739 27.6881 0.0088 4.0821 0.0025
# 3 -0.4752 27.6881 48.5359 0.0011 -5.0187 -0.0058
# 4 0.0000 0.0088 0.0011 -2.7574 -0.0002 -18.1352
# 5 1.1482 4.0821 -5.0187 -0.0002 18.6659 0.0020
# 6 0.0041 0.0025 -0.0058 -18.1352 0.0020 -19.8964
#
#
#
# Elastic Compliance Matrix: (Units=1/GPa)
#
#
# Indices 1 2 3 4 5 6 
#
# 1 0.012827 -0.002840 0.001778 0.000004 0.000310 -0.000002
# 2 -0.002840 0.005648 -0.003456 -0.000002 -0.001990 0.000003
# 3 0.001778 -0.003456 0.023307 -0.000008 0.006913 0.000001
# 4 0.000004 -0.000002 -0.000008 0.072609 0.000006 -0.066182
# 5 0.000310 -0.001990 0.006913 0.000006 0.055848 -0.000002
# 6 -0.000002 0.000003 0.000001 -0.066182 -0.000002 0.010063
#
#
# Mechanical properties :
#
#
# Convention : Reuss Voigt Hill
#
# Bulk Modulus (GPa) = 30.53808 55.21739 42.87773
# Shear Modulus (GPa) = 24.96834 18.03820 21.50327
#
# Velocity S-wave (km/s) = 3.29156 2.79772 3.05463
# Velocity P-wave (km/s) = 5.26280 5.86485 5.57196
#
# Compressibility (1/GPa) = 0.03274600
#
# Stress axis : x y z
#
# Youngs Moduli (GPa) = 77.96227 177.04161 42.90571
#
# Poissons Ratio (x) = 0.50281 -0.07628
# Poissons Ratio (y) = 0.22142 0.14827
# Poissons Ratio (z) = -0.13860 0.61181
#
# Static dielectric constant tensor:
#      x y z
#    x 1.871970 0.000010 -0.041110 
#    y 0.000010 2.000930 0.000030 
#    z -0.041110 0.000030 1.861940 
# 
# From -- ./inp_files/169630.got.cif
#   From: 2010.05.17/outbox.cif.g08.bks.cpg/sg12_85_cif.got.tgz:169630.got - 2010.06.03 13:09:07.
