data_PCOD9170507
_publ_section_title
;
Structure prediction by ZEFSAII (Michael W. Deem and Ramdas Pophale) SiO2 
 PCOD9170507
Probable space group: C 2/M
;
_chemical_formula_sum "Si O2"
_cell_formula_units_Z 48
_cell_length_a 17.756593
_cell_length_b 23.166338
_cell_length_c 21.709003
_cell_angle_alpha 90.000000
_cell_angle_beta 18.657384
_cell_angle_gamma 90.000000
_cell_volume 2856.817646
_symmetry_space_group_name_H-M "C 2/M"
_symmetry_group_IT_number 12
_symmetry_cell_setting 'monoclinic'
loop_
_space_group_symop_operation_xyz
x,y,z
-x,y,-z
-x,-y,-z
x,-y,z
1/2+x,1/2+y,z
1/2-x,1/2+y,-z
1/2-x,1/2-y,-z
1/2+x,1/2-y,z
loop_
_atom_site_type_symbol
_atom_site_label
_atom_site_fract_x
_atom_site_fract_y
_atom_site_fract_z
Si Si1 0.916073 0.667316 0.835133
Si Si2 0.745549 0.434990 0.385421
Si Si3 0.425336 0.711522 0.223798
Si Si4 0.284939 0.279436 0.715214
Si Si5 0.296716 0.091652 0.204100
Si Si6 0.439230 0.781671 0.397554
O O1 0.075791 0.613231 0.728378
O O2 0.010670 0.725196 0.796751
O O3 0.931354 0.677270 0.750133
O O4 0.641395 0.668479 0.064327
O O5 0.782986 0.500000 0.379887
O O6 0.473466 0.416626 0.609509
O O7 0.787912 0.435635 0.278799
O O8 0.361349 0.728266 0.203472
O O9 0.204512 0.690439 0.434780
O O10 0.500000 0.289176 0.500000
O O11 0.157973 0.340330 0.819316
O O12 0.387257 0.261992 0.702065
O O13 0.500000 0.070743 0.000000
O O14 0.250000 0.750000 0.500000
#
# Coordination Sequence:
#
# PCOD9170507 Si02
#       6
#     8   8   8   8   8   8
#     4  10  19  33  49  71 101 134 171 216 258 303
#     4  11  23  39  51  70 104 143 183 221 252 301
#     4   9  18  31  49  73 105 131 165 209 266 314
#     4  10  17  32  51  77 111 140 164 208 267 320
#     4  11  21  33  55  75 103 136 178 216 259 310
#     4   9  18  28  46  73 103 132 166 203 254 318
#
# _framework density 16.801912999999999
#
# number of rings (size 3 to 8) (size 9 to 14) (size 15 to 20)
#    0.000    2.000    3.333    3.000    2.333    4.000 
#    0.000    0.000    0.000    0.000    0.000    2.333 
#    0.000    4.000    0.000    0.000    0.000    0.000 
#
# Total GULP energy -133670.241253 kJ/mol
# GULP energy per Si atom -5569.593386 kJ/mol
# Density = 1.676367 g / cm^3
# Si number density = 16.801913 Si / 1000 Ang^3
#
#
#
# Elastic Constant Matrix: (Units=GPa)
#
#
# Indices 1 2 3 4 5 6 
#
# 1 70.6354 23.7849 5.7350 0.0222 2.6319 -0.0173
# 2 23.7849 60.0697 27.9859 0.0525 -0.8822 -0.0280
# 3 5.7350 27.9859 87.4271 0.0615 7.3574 -0.0743
# 4 0.0222 0.0525 0.0615 1.6586 -0.0572 0.7005
# 5 2.6319 -0.8822 7.3574 -0.0572 17.2394 0.0185
# 6 -0.0173 -0.0280 -0.0743 0.7005 0.0185 7.1875
#
#
#
# Elastic Compliance Matrix: (Units=1/GPa)
#
#
# Indices 1 2 3 4 5 6 
#
# 1 0.016647 -0.007376 0.001571 -0.000195 -0.003590 0.000056
# 2 -0.007376 0.023078 -0.007362 -0.000170 0.005448 -0.000001
# 3 0.001571 -0.007362 0.014256 -0.000633 -0.006703 0.000201
# 4 -0.000195 -0.000170 -0.000633 0.628941 0.002445 -0.061307
# 5 -0.003590 0.005448 -0.006703 0.002445 0.061703 -0.000454
# 6 0.000056 -0.000001 0.000201 -0.061307 -0.000454 0.145108
#
#
# Mechanical properties :
#
#
# Convention : Reuss Voigt Hill
#
# Bulk Modulus (GPa) = 36.16869 37.01600 36.59234
# Shear Modulus (GPa) = 5.40375 15.92551 10.66463
#
# Velocity S-wave (km/s) = 1.79531 3.08204 2.52211
# Velocity P-wave (km/s) = 5.08633 5.89440 5.50521
#
# Compressibility (1/GPa) = 0.02764822
#
# Stress axis : x y z
#
# Youngs Moduli (GPa) = 60.06993 43.33128 70.14418
#
# Poissons Ratio (x) = 0.31962 -0.11023
# Poissons Ratio (y) = 0.44309 0.51640
# Poissons Ratio (z) = -0.09440 0.31900
#
# Static dielectric constant tensor:
#      x y z
#    x 1.598890 -0.000040 -0.003020 
#    y -0.000040 1.553100 0.000130 
#    z -0.003020 0.000130 1.640930 
# 
# From -- ./inp_files/317871.got.cif
#   From: 2010.05.17/outbox.cif.g08.bks.cpg/sg12_159_cif.got.tgz:317871.got - 2010.06.03 13:09:07.
