data_PCOD9170728
_publ_section_title
;
Structure prediction by ZEFSAII (Michael W. Deem and Ramdas Pophale) SiO2 
 PCOD9170728
Probable space group: C 2/M
;
_chemical_formula_sum "Si O2"
_cell_formula_units_Z 44
_cell_length_a 15.748236
_cell_length_b 21.114487
_cell_length_c 7.231144
_cell_angle_alpha 90.000000
_cell_angle_beta 136.881227
_cell_angle_gamma 90.000000
_cell_volume 1643.486806
_symmetry_space_group_name_H-M "C 2/M"
_symmetry_group_IT_number 12
_symmetry_cell_setting 'monoclinic'
loop_
_space_group_symop_operation_xyz
x,y,z
-x,y,-z
-x,-y,-z
x,-y,z
1/2+x,1/2+y,z
1/2-x,1/2+y,-z
1/2-x,1/2-y,-z
1/2+x,1/2-y,z
loop_
_atom_site_type_symbol
_atom_site_label
_atom_site_fract_x
_atom_site_fract_y
_atom_site_fract_z
Si Si1 0.532646 0.000000 0.337776
Si Si2 0.070698 0.633844 0.329155
Si Si3 0.127055 0.000000 0.578603
Si Si4 0.222467 0.862639 0.055940
Si Si5 0.197450 0.133375 0.576063
Si Si6 0.015389 0.768792 0.747252
Si Si7 0.205611 0.000000 0.086521
O O1 0.500000 0.000000 0.500000
O O2 0.497971 0.067522 0.198855
O O3 0.683387 0.000000 0.589640
O O4 0.183227 0.636143 0.362809
O O5 0.994754 0.697991 0.198439
O O6 0.141917 0.634563 0.640403
O O7 0.139130 0.937101 0.479040
O O8 0.000000 0.000000 0.500000
O O9 0.234997 0.000000 0.909718
O O10 0.224638 0.858870 0.838391
O O11 0.144997 0.802388 0.998442
O O12 0.154856 0.928079 0.014689
O O13 0.096779 0.186526 0.363050
O O14 0.000000 0.768431 0.500000
#
# Coordination Sequence:
#
# PCOD9170728 Si02
#       7
#     4   8   4   8   8   8   4
#     4  10  21  39  63  86 116 159 201 244 294 353
#     4  11  22  39  62  87 119 159 201 247 297 349
#     4  10  17  33  61  88 124 159 191 246 302 359
#     4   9  20  38  61  88 120 156 194 243 300 356
#     4  10  20  35  58  89 120 155 199 244 299 356
#     4  10  21  37  57  85 120 157 197 242 297 355
#     4   8  16  34  62  88 112 148 192 236 296 352
#
# _framework density 26.772348999999998
#
# number of rings (size 3 to 8) (size 9 to 14) (size 15 to 20)
#    0.000    2.182    0.000    4.364    0.000    3.636 
#    0.000    5.455    0.000   40.364    0.000    0.000 
#    0.000    0.000    0.000    0.000    0.000    0.000 
#
# Total GULP energy -123255.043686 kJ/mol
# GULP energy per Si atom -5602.501986 kJ/mol
# Density = 2.671141 g / cm^3
# Si number density = 26.772349 Si / 1000 Ang^3
#
#
#
# Elastic Constant Matrix: (Units=GPa)
#
#
# Indices 1 2 3 4 5 6 
#
# 1 125.5454 75.3669 -11.1838 0.0000 -0.9834 0.0000
# 2 75.3669 286.4497 8.9344 0.0000 27.2890 0.0000
# 3 -11.1838 8.9344 75.0550 0.0000 -5.1609 0.0000
# 4 0.0000 0.0000 0.0000 9.5321 0.0000 22.2456
# 5 -0.9834 27.2890 -5.1609 0.0000 32.6139 0.0000
# 6 0.0000 0.0000 0.0000 22.2456 0.0000 40.9495
#
#
#
# Elastic Compliance Matrix: (Units=1/GPa)
#
#
# Indices 1 2 3 4 5 6 
#
# 1 0.009963 -0.002983 0.002054 0.000000 0.003121 0.000000
# 2 -0.002983 0.004721 -0.001298 0.000000 -0.004245 0.000000
# 3 0.002054 -0.001298 0.014016 0.000000 0.003366 0.000000
# 4 0.000000 0.000000 0.000000 -0.391754 0.000000 0.212818
# 5 0.003121 -0.004245 0.003366 0.000000 0.034841 0.000000
# 6 0.000000 0.000000 0.000000 0.212818 0.000000 -0.091192
#
#
# Mechanical properties :
#
#
# Convention : Reuss Voigt Hill
#
# Bulk Modulus (GPa) = 41.24384 70.36501 55.80443
# Shear Modulus (GPa) = -12.28895 44.21462 15.96283
#
# Velocity S-wave (km/s) = -2.14479 4.06828 2.44446
# Velocity P-wave (km/s) = 3.05046 6.95756 5.37182
#
# Compressibility (1/GPa) = 0.02424604
#
# Stress axis : x y z
#
# Youngs Moduli (GPa) = 100.36776 211.83006 71.34867
#
# Poissons Ratio (x) = 0.63186 -0.14657
# Poissons Ratio (y) = 0.29938 0.09263
# Poissons Ratio (z) = -0.20619 0.27503
#
# Static dielectric constant tensor:
#      x y z
#    x 2.086610 0.000000 0.038820 
#    y 0.000000 2.085840 0.000000 
#    z 0.038820 0.000000 2.120710 
# 
# From -- ./inp_files/63750.got.cif
#   From: 2010.05.17/outbox.cif.g08.bks.cpg/sg12_32_cif.got.tgz:63750.got - 2010.06.03 13:09:07.
