data_PCOD9170859
_publ_section_title
;
Structure prediction by ZEFSAII (Michael W. Deem and Ramdas Pophale) SiO2 
 PCOD9170859
Probable space group: C 2/M
;
_chemical_formula_sum "Si O2"
_cell_formula_units_Z 64
_cell_length_a 14.286646
_cell_length_b 15.207199
_cell_length_c 23.252716
_cell_angle_alpha 90.000000
_cell_angle_beta 36.377544
_cell_angle_gamma 90.000000
_cell_volume 2996.288296
_symmetry_space_group_name_H-M "C 2/M"
_symmetry_group_IT_number 12
_symmetry_cell_setting 'monoclinic'
loop_
_space_group_symop_operation_xyz
x,y,z
-x,y,-z
-x,-y,-z
x,-y,z
1/2+x,1/2+y,z
1/2-x,1/2+y,-z
1/2-x,1/2-y,-z
1/2+x,1/2-y,z
loop_
_atom_site_type_symbol
_atom_site_label
_atom_site_fract_x
_atom_site_fract_y
_atom_site_fract_z
Si Si1 0.207479 0.288053 0.346852
Si Si2 0.716605 0.094482 0.248040
Si Si3 0.084418 0.769528 0.140507
Si Si4 0.273250 0.396163 0.837249
Si Si5 0.450353 0.255224 0.088359
Si Si6 0.505829 0.678138 0.631185
Si Si7 0.516068 0.095191 0.234378
Si Si8 0.736472 0.812584 0.579389
O O1 0.156810 0.377762 0.340580
O O2 0.399342 0.289492 0.248006
O O3 0.172897 0.263672 0.429650
O O4 0.128749 0.214678 0.344775
O O5 0.824192 0.173215 0.171719
O O6 0.586294 0.087987 0.263528
O O7 0.799950 0.000000 0.209913
O O8 0.185774 0.842712 0.124100
O O9 0.082436 0.761386 0.072436
O O10 0.105761 0.672762 0.157105
O O11 0.244189 0.500000 0.859434
O O12 0.130087 0.340979 0.878644
O O13 0.422301 0.380037 0.720875
O O14 0.500000 0.280466 0.000000
O O15 0.595595 0.760531 0.616999
O O16 0.645689 0.640281 0.522454
O O17 0.337346 0.124375 0.335917
O O18 0.527403 0.000000 0.200238
#
# Coordination Sequence:
#
# PCOD9170859 Si02
#       8
#     8   8   8   8   8   8   8   8
#     4  10  17  35  59  85 118 162 206 249 308 357
#     4  10  19  36  64  91 123 160 203 253 310 377
#     4  10  20  40  64  90 119 162 203 251 319 377
#     4  12  24  43  66  94 128 167 213 261 319 382
#     4  11  24  44  70  92 127 162 201 259 327 386
#     4  11  19  37  56  84 121 169 208 257 306 361
#     4  10  18  35  61  86 119 163 209 250 304 368
#     4  10  20  32  58  84 122 165 213 255 304 358
#
# _framework density 21.359760999999999
#
# number of rings (size 3 to 8) (size 9 to 14) (size 15 to 20)
#    0.000    1.500    7.500    0.375    0.000    4.000 
#    0.000    0.000    0.000    3.750    0.000    0.000 
#    0.000    0.000    0.000    0.000    0.000    0.000 
#
# Total GULP energy -178286.345102 kJ/mol
# GULP energy per Si atom -5571.448284 kJ/mol
# Density = 2.131115 g / cm^3
# Si number density = 21.359761 Si / 1000 Ang^3
#
#
#
# Elastic Constant Matrix: (Units=GPa)
#
#
# Indices 1 2 3 4 5 6 
#
# 1 120.4090 31.3081 12.8537 -0.0001 11.0132 0.0000
# 2 31.3081 138.4016 19.5631 -0.0002 9.0849 0.0001
# 3 12.8537 19.5631 57.6570 -0.0010 20.8985 0.0003
# 4 -0.0001 -0.0002 -0.0010 5.6241 0.0003 3.8960
# 5 11.0132 9.0849 20.8985 0.0003 36.4054 -0.0001
# 6 0.0000 0.0001 0.0003 3.8960 -0.0001 10.8954
#
#
#
# Elastic Compliance Matrix: (Units=1/GPa)
#
#
# Indices 1 2 3 4 5 6 
#
# 1 0.009025 -0.001817 -0.000720 0.000000 -0.001863 0.000000
# 2 -0.001817 0.007963 -0.002242 0.000000 -0.000150 0.000000
# 3 -0.000720 -0.002242 0.022708 0.000006 -0.012258 -0.000003
# 4 0.000000 0.000000 0.000006 0.236356 -0.000006 -0.084518
# 5 -0.001863 -0.000150 -0.012258 -0.000006 0.035107 0.000003
# 6 0.000000 0.000000 -0.000003 -0.084518 0.000003 0.122004
#
#
# Mechanical properties :
#
#
# Convention : Reuss Voigt Hill
#
# Bulk Modulus (GPa) = 33.18148 49.32416 41.25282
# Shear Modulus (GPa) = 11.04316 27.43450 19.23883
#
# Velocity S-wave (km/s) = 2.27625 3.58774 3.00443
# Velocity P-wave (km/s) = 4.74096 6.34860 5.60274
#
# Compressibility (1/GPa) = 0.03013729
#
# Stress axis : x y z
#
# Youngs Moduli (GPa) = 110.80492 125.57618 44.03639
#
# Poissons Ratio (x) = 0.22823 0.03170
# Poissons Ratio (y) = 0.20138 0.09874
# Poissons Ratio (z) = 0.07977 0.28159
#
# Static dielectric constant tensor:
#      x y z
#    x 1.837370 0.000000 -0.014390 
#    y 0.000000 1.793920 0.000000 
#    z -0.014390 0.000000 1.857200 
# 
# From -- ./inp_files/340152.got.cif
#   From: 2010.05.17/outbox.cif.g08.bks.cpg/sg12_171_cif.got.tgz:340152.got - 2010.06.03 13:09:07.
