data_PCOD9170034
_publ_section_title
;
Structure prediction by ZEFSAII (Michael W. Deem and Ramdas Pophale) SiO2 
 PCOD9170034
Probable space group: C 2/M
;
_chemical_formula_sum "Si O2"
_cell_formula_units_Z 64
_cell_length_a 20.937549
_cell_length_b 8.717025
_cell_length_c 24.770321
_cell_angle_alpha 90.000000
_cell_angle_beta 53.350362
_cell_angle_gamma 90.000000
_cell_volume 3627.128182
_symmetry_space_group_name_H-M "C 2/M"
_symmetry_group_IT_number 12
_symmetry_cell_setting 'monoclinic'
loop_
_space_group_symop_operation_xyz
x,y,z
-x,y,-z
-x,-y,-z
x,-y,z
1/2+x,1/2+y,z
1/2-x,1/2+y,-z
1/2-x,1/2-y,-z
1/2+x,1/2-y,z
loop_
_atom_site_type_symbol
_atom_site_label
_atom_site_fract_x
_atom_site_fract_y
_atom_site_fract_z
Si Si1 0.545017 0.315339 0.849629
Si Si2 0.661979 0.686266 0.271251
Si Si3 0.424823 0.677767 0.996558
Si Si4 0.177716 0.316768 0.863548
Si Si5 0.396455 0.816176 0.290317
Si Si6 0.788444 0.814752 0.632619
Si Si7 0.980792 0.184460 0.352430
Si Si8 0.930130 0.683497 0.492801
O O1 0.546634 0.500000 0.849693
O O2 0.618427 0.254408 0.848774
O O3 0.555822 0.253398 0.784265
O O4 0.463518 0.266310 0.921118
O O5 0.661290 0.500000 0.271448
O O6 0.732797 0.734513 0.195599
O O7 0.684851 0.733110 0.320631
O O8 0.573114 0.736399 0.301930
O O9 0.401303 0.500000 0.003058
O O10 0.355200 0.768550 0.061422
O O11 0.500000 0.682817 0.000000
O O12 0.173477 0.500000 0.860315
O O13 0.303470 0.773796 0.330370
O O14 0.430775 0.754030 0.328827
O O15 0.401617 0.000000 0.285858
O O16 0.847511 0.739910 0.559910
O O17 0.795429 0.000000 0.625862
O O18 0.947969 0.239206 0.426622
O O19 0.978332 0.000000 0.351118
O O20 0.930041 0.500000 0.486728
O O21 0.000000 0.725496 0.500000
#
# Coordination Sequence:
#
# PCOD9170034 Si02
#       8
#     8   8   8   8   8   8   8   8
#     4  10  19  32  51  76 111 150 185 220 271 332
#     4   9  18  34  56  82 109 142 185 226 270 325
#     4   8  16  29  44  72 111 146 180 223 272 325
#     4  10  17  29  51  81 111 141 183 233 275 315
#     4  11  23  39  58  83 115 143 181 233 277 321
#     4  10  20  38  61  82 108 146 184 223 273 329
#     4  11  23  40  61  81 109 149 186 219 271 339
#     4  11  23  38  58  87 116 140 178 232 277 316
#
# _framework density 17.644812999999999
#
# number of rings (size 3 to 8) (size 9 to 14) (size 15 to 20)
#    0.000    2.000    2.500    2.625    0.000    4.750 
#    0.000    2.500    0.000    0.750    0.000    0.000 
#    0.000    0.000    0.000    0.000    0.000    0.000 
#
# Total GULP energy -178572.897684 kJ/mol
# GULP energy per Si atom -5580.403053 kJ/mol
# Density = 1.760465 g / cm^3
# Si number density = 17.644813 Si / 1000 Ang^3
#
#
#
# Elastic Constant Matrix: (Units=GPa)
#
#
# Indices 1 2 3 4 5 6 
#
# 1 76.3366 22.5728 36.3650 0.0000 4.2397 -0.0005
# 2 22.5728 39.8373 34.7011 0.0000 1.4203 -0.0017
# 3 36.3650 34.7011 140.7181 0.0000 -3.2105 -0.0001
# 4 0.0000 0.0000 0.0000 15.3498 0.0000 17.9846
# 5 4.2397 1.4203 -3.2105 0.0000 23.1966 0.0001
# 6 -0.0005 -0.0017 -0.0001 17.9846 0.0001 7.9037
#
#
#
# Elastic Compliance Matrix: (Units=1/GPa)
#
#
# Indices 1 2 3 4 5 6 
#
# 1 0.016587 -0.007005 -0.002627 0.000000 -0.002966 0.000000
# 2 -0.007005 0.035145 -0.006898 0.000005 -0.001826 -0.000004
# 3 -0.002627 -0.006898 0.009537 -0.000001 0.002222 0.000001
# 4 0.000000 0.000005 -0.000001 -0.039103 -0.000001 0.088978
# 5 -0.002966 -0.001826 0.002222 -0.000001 0.044071 0.000001
# 6 0.000000 -0.000004 0.000001 0.088978 0.000001 -0.075942
#
#
# Mechanical properties :
#
#
# Convention : Reuss Voigt Hill
#
# Bulk Modulus (GPa) = 35.44881 49.35220 42.40051
# Shear Modulus (GPa) = 152.62941 20.17355 86.40148
#
# Velocity S-wave (km/s) = 9.31068 3.38496 7.00524
# Velocity P-wave (km/s) = 11.64985 6.58087 9.46115
#
# Compressibility (1/GPa) = 0.02820969
#
# Stress axis : x y z
#
# Youngs Moduli (GPa) = 60.28694 28.45334 104.85398
#
# Poissons Ratio (x) = 0.19931 0.27544
# Poissons Ratio (y) = 0.42230 0.72331
# Poissons Ratio (z) = 0.15836 0.19628
#
# Static dielectric constant tensor:
#      x y z
#    x 1.575870 0.000000 -0.009210 
#    y 0.000000 1.595650 0.000000 
#    z -0.009210 0.000000 1.611080 
# 
# From -- ./inp_files/346090.got.cif
#   From: 2010.05.17/outbox.cif.g08.bks.cpg/sg12_174_cif.got.tgz:346090.got - 2010.06.03 13:09:07.
