data_PCOD9170645
_publ_section_title
;
Structure prediction by ZEFSAII (Michael W. Deem and Ramdas Pophale) SiO2 
 PCOD9170645
Probable space group: C 2/M
;
_chemical_formula_sum "Si O2"
_cell_formula_units_Z 48
_cell_length_a 15.149110
_cell_length_b 22.563665
_cell_length_c 17.135293
_cell_angle_alpha 90.000000
_cell_angle_beta 155.655532
_cell_angle_gamma 90.000000
_cell_volume 2414.454511
_symmetry_space_group_name_H-M "C 2/M"
_symmetry_group_IT_number 12
_symmetry_cell_setting 'monoclinic'
loop_
_space_group_symop_operation_xyz
x,y,z
-x,y,-z
-x,-y,-z
x,-y,z
1/2+x,1/2+y,z
1/2-x,1/2+y,-z
1/2-x,1/2-y,-z
1/2+x,1/2-y,z
loop_
_atom_site_type_symbol
_atom_site_label
_atom_site_fract_x
_atom_site_fract_y
_atom_site_fract_z
Si Si1 0.519338 0.119417 0.668785
Si Si2 0.576325 0.275096 0.175084
Si Si3 0.346840 0.253506 0.259520
Si Si4 0.941424 0.838672 0.677382
Si Si5 0.332373 0.410831 0.800462
Si Si6 0.661059 0.566574 0.943576
O O1 0.559319 0.188084 0.678739
O O2 0.274911 0.122769 0.497670
O O3 0.602322 0.085267 0.657497
O O4 0.671785 0.094609 0.859697
O O5 0.763059 0.240129 0.280529
O O6 0.570602 0.289093 0.262253
O O7 0.614671 0.341276 0.171021
O O8 0.358262 0.248115 0.964831
O O9 0.506890 0.303305 0.358841
O O10 0.128057 0.884780 0.850316
O O11 0.426510 0.437043 0.797128
O O12 0.500000 0.432855 0.000000
O O13 0.723816 0.500000 0.972145
#
# Coordination Sequence:
#
# PCOD9170645 Si02
#       6
#     8   8   8   8   8   8
#     4  10  19  32  49  76 103 140 176 213 263 313
#     4   9  16  30  51  75 105 140 169 207 260 321
#     4  10  17  33  51  78 110 141 171 215 266 322
#     4  11  21  32  55  77 110 142 177 215 267 320
#     4   8  13  29  46  64  96 131 164 203 247 296
#     4  10  21  35  50  72 104 144 187 222 253 304
#
# _framework density 19.880265000000001
#
# number of rings (size 3 to 8) (size 9 to 14) (size 15 to 20)
#    0.000    2.333    6.667    1.000    0.000    9.667 
#    0.000    0.833    0.000    0.000    0.000    2.333 
#    0.000    5.333    0.000    0.000    0.000    0.000 
#
# Total GULP energy -133612.497193 kJ/mol
# GULP energy per Si atom -5567.187383 kJ/mol
# Density = 1.983502 g / cm^3
# Si number density = 19.880265 Si / 1000 Ang^3
#
#
#
# Elastic Constant Matrix: (Units=GPa)
#
#
# Indices 1 2 3 4 5 6 
#
# 1 46.4202 20.5208 1.3868 0.0000 3.7627 0.0000
# 2 20.5208 61.7054 8.5378 0.0000 0.4218 -0.0001
# 3 1.3868 8.5378 64.7274 0.0010 11.8222 -0.0001
# 4 0.0000 0.0000 0.0010 -1.0195 0.0002 5.0841
# 5 3.7627 0.4218 11.8222 0.0002 13.7050 0.0000
# 6 0.0000 -0.0001 -0.0001 5.0841 0.0000 -3.5408
#
#
#
# Elastic Compliance Matrix: (Units=1/GPa)
#
#
# Indices 1 2 3 4 5 6 
#
# 1 0.026145 -0.008943 0.002232 0.000000 -0.008828 0.000000
# 2 -0.008943 0.019597 -0.003242 0.000001 0.004649 0.000001
# 3 0.002232 -0.003242 0.018901 -0.000002 -0.016817 -0.000004
# 4 0.000000 0.000001 -0.000002 0.159220 0.000000 0.228620
# 5 -0.008828 0.004649 -0.016817 0.000000 0.089754 0.000000
# 6 0.000000 0.000001 -0.000004 0.228620 0.000000 0.045845
#
#
# Mechanical properties :
#
#
# Convention : Reuss Voigt Hill
#
# Bulk Modulus (GPa) = 22.35379 25.97152 24.16265
# Shear Modulus (GPa) = 12.68132 11.32278 12.00205
#
# Velocity S-wave (km/s) = 2.52838 2.38911 2.45973
# Velocity P-wave (km/s) = 4.44884 4.55003 4.49972
#
# Compressibility (1/GPa) = 0.04473514
#
# Stress axis : x y z
#
# Youngs Moduli (GPa) = 38.24864 51.02807 52.90755
#
# Poissons Ratio (x) = 0.45635 -0.11808
# Poissons Ratio (y) = 0.34206 0.17155
# Poissons Ratio (z) = -0.08537 0.16546
#
# Static dielectric constant tensor:
#      x y z
#    x 1.729130 0.000000 0.014140 
#    y 0.000000 1.707730 0.000000 
#    z 0.014140 0.000000 1.808160 
# 
# From -- ./inp_files/317927.got.cif
#   From: 2010.05.17/outbox.cif.g08.bks.cpg/sg12_159_cif.got.tgz:317927.got - 2010.06.03 13:09:07.
