data_PCOD9170472
_publ_section_title
;
Structure prediction by ZEFSAII (Michael W. Deem and Ramdas Pophale) SiO2 
 PCOD9170472
Probable space group: C 2/M
;
_chemical_formula_sum "Si O2"
_cell_formula_units_Z 56
_cell_length_a 22.189819
_cell_length_b 18.705125
_cell_length_c 10.010744
_cell_angle_alpha 90.000000
_cell_angle_beta 43.065758
_cell_angle_gamma 90.000000
_cell_volume 2837.252283
_symmetry_space_group_name_H-M "C 2/M"
_symmetry_group_IT_number 12
_symmetry_cell_setting 'monoclinic'
loop_
_space_group_symop_operation_xyz
x,y,z
-x,y,-z
-x,-y,-z
x,-y,z
1/2+x,1/2+y,z
1/2-x,1/2+y,-z
1/2-x,1/2-y,-z
1/2+x,1/2-y,z
loop_
_atom_site_type_symbol
_atom_site_label
_atom_site_fract_x
_atom_site_fract_y
_atom_site_fract_z
Si Si1 0.873082 0.694035 0.255944
Si Si2 0.788944 0.698340 0.760940
Si Si3 0.154850 0.084659 0.300899
Si Si4 0.654134 0.083555 0.153667
Si Si5 0.027215 0.324393 0.183819
Si Si6 0.321275 0.316927 0.490766
Si Si7 0.890124 0.798184 0.812828
O O1 0.774406 0.663701 0.411855
O O2 0.876865 0.779466 0.283699
O O3 0.933752 0.657923 0.270580
O O4 0.911975 0.682509 0.045968
O O5 0.830176 0.621869 0.729503
O O6 0.803104 0.745765 0.609068
O O7 0.838089 0.746672 0.793741
O O8 0.684484 0.690987 0.954187
O O9 0.146585 0.122556 0.459091
O O10 0.096072 0.128583 0.289070
O O11 0.138478 0.000000 0.331224
O O12 0.255944 0.096249 0.080752
O O13 0.572665 0.119568 0.208649
O O14 0.642094 0.000000 0.186656
O O15 0.029732 0.248170 0.258459
#
# Coordination Sequence:
#
# PCOD9170472 Si02
#       7
#     8   8   8   8   8   8   8
#     4  10  20  28  49  67  94 128 164 191 233 274
#     4   8  13  25  46  66  88 118 156 193 229 264
#     4   9  16  28  50  76  97 120 153 197 248 288
#     4   9  16  28  49  74 100 126 152 190 240 286
#     4  10  17  32  46  73  96 123 163 200 226 280
#     4  10  17  32  47  72  95 125 161 202 229 277
#     4   8  13  25  46  67  88 116 151 198 234 265
#
# _framework density 19.737404999999999
#
# number of rings (size 3 to 8) (size 9 to 14) (size 15 to 20)
#    0.000    2.857    2.857    1.714    0.000    0.000 
#    0.000    8.571    0.000    8.571    0.000    2.000 
#    0.000    0.000    0.000    0.000    0.000    0.000 
#
# Total GULP energy -155948.744247 kJ/mol
# GULP energy per Si atom -5569.598009 kJ/mol
# Density = 1.969248 g / cm^3
# Si number density = 19.737405 Si / 1000 Ang^3
#
#
#
# Elastic Constant Matrix: (Units=GPa)
#
#
# Indices 1 2 3 4 5 6 
#
# 1 90.3585 30.9540 -0.2794 0.0000 0.1671 0.0000
# 2 30.9540 118.9940 7.4713 0.0000 6.5558 0.0000
# 3 -0.2794 7.4713 23.9769 0.0000 -2.4831 0.0000
# 4 0.0000 0.0000 0.0000 16.5660 0.0000 6.2469
# 5 0.1671 6.5558 -2.4831 0.0000 14.9713 0.0000
# 6 0.0000 0.0000 0.0000 6.2469 0.0000 19.6134
#
#
#
# Elastic Compliance Matrix: (Units=1/GPa)
#
#
# Indices 1 2 3 4 5 6 
#
# 1 0.012215 -0.003348 0.001346 0.000000 0.001553 0.000000
# 2 -0.003348 0.009766 -0.003583 0.000000 -0.004833 0.000000
# 3 0.001346 -0.003583 0.043751 0.000000 0.008810 0.000000
# 4 0.000000 0.000000 0.000000 0.068604 0.000000 -0.021850
# 5 0.001553 -0.004833 0.008810 0.000000 0.070355 0.000000
# 6 0.000000 0.000000 0.000000 -0.021850 0.000000 0.057945
#
#
# Mechanical properties :
#
#
# Convention : Reuss Voigt Hill
#
# Bulk Modulus (GPa) = 18.32702 34.40235 26.36468
# Shear Modulus (GPa) = 17.12376 23.24237 20.18307
#
# Velocity S-wave (km/s) = 2.94867 3.43531 3.20125
# Velocity P-wave (km/s) = 4.57148 5.76221 5.20103
#
# Compressibility (1/GPa) = 0.05456425
#
# Stress axis : x y z
#
# Youngs Moduli (GPa) = 81.86592 102.39799 22.85652
#
# Poissons Ratio (x) = 0.34279 -0.03077
# Poissons Ratio (y) = 0.27405 0.08189
# Poissons Ratio (z) = -0.11021 0.36685
#
# Static dielectric constant tensor:
#      x y z
#    x 1.719670 0.000000 0.004040 
#    y 0.000000 1.685740 0.000000 
#    z 0.004040 0.000000 1.818090 
# 
# From -- ./inp_files/177061.got.cif
#   From: 2010.05.17/outbox.cif.g08.bks.cpg/sg12_89_cif.got.tgz:177061.got - 2010.06.03 13:09:07.
