data_PCOD9170528
_publ_section_title
;
Structure prediction by ZEFSAII (Michael W. Deem and Ramdas Pophale) SiO2 
 PCOD9170528
Probable space group: C 2/M
;
_chemical_formula_sum "Si O2"
_cell_formula_units_Z 56
_cell_length_a 13.477489
_cell_length_b 21.283115
_cell_length_c 12.260812
_cell_angle_alpha 90.000000
_cell_angle_beta 125.566551
_cell_angle_gamma 90.000000
_cell_volume 2860.811104
_symmetry_space_group_name_H-M "C 2/M"
_symmetry_group_IT_number 12
_symmetry_cell_setting 'monoclinic'
loop_
_space_group_symop_operation_xyz
x,y,z
-x,y,-z
-x,-y,-z
x,-y,z
1/2+x,1/2+y,z
1/2-x,1/2+y,-z
1/2-x,1/2-y,-z
1/2+x,1/2-y,z
loop_
_atom_site_type_symbol
_atom_site_label
_atom_site_fract_x
_atom_site_fract_y
_atom_site_fract_z
Si Si1 0.409986 0.932174 0.042972
Si Si2 0.987492 0.653293 0.264282
Si Si3 0.787176 0.828446 0.143310
Si Si4 0.416366 0.735571 0.051647
Si Si5 0.140222 0.788557 0.576537
Si Si6 0.739287 0.165345 0.553501
Si Si7 0.635138 0.072868 0.642307
O O1 0.303014 0.884323 0.945605
O O2 0.358832 0.000000 0.037134
O O3 0.500000 0.935070 0.000000
O O4 0.496415 0.907303 0.193759
O O5 0.963417 0.710631 0.166307
O O6 0.881507 0.627780 0.277043
O O7 0.109807 0.666387 0.407092
O O8 0.889329 0.822183 0.114917
O O9 0.829445 0.827619 0.295202
O O10 0.707437 0.764817 0.077502
O O11 0.500000 0.724471 0.000000
O O12 0.160371 0.826496 0.476588
O O13 0.229366 0.728307 0.620434
O O14 0.000000 0.767240 0.500000
O O15 0.732782 0.102323 0.620588
O O16 0.500000 0.071282 0.500000
O O17 0.660995 0.000000 0.690762
#
# Coordination Sequence:
#
# PCOD9170528 Si02
#       7
#     8   8   8   8   8   8   8
#     4  10  20  34  55  80 104 134 172 218 273 323
#     4  10  17  32  53  78 109 133 166 214 265 323
#     4  10  20  34  51  75 107 136 173 220 262 313
#     4  10  19  31  52  79 106 137 170 213 270 321
#     4  11  21  34  51  74 103 140 182 219 262 312
#     4  10  20  32  51  76 106 139 172 218 267 316
#     4   9  17  29  48  76 106 135 166 204 258 318
#
# _framework density 19.574867000000001
#
# number of rings (size 3 to 8) (size 9 to 14) (size 15 to 20)
#    0.000    2.000    0.000    6.857    0.000    1.714 
#    0.000    0.714    0.000    2.143    0.000    0.000 
#    0.000    0.000    0.000    0.000    0.000    0.000 
#
# Total GULP energy -155996.822956 kJ/mol
# GULP energy per Si atom -5571.315106 kJ/mol
# Density = 1.953031 g / cm^3
# Si number density = 19.574867 Si / 1000 Ang^3
#
#
#
# Elastic Constant Matrix: (Units=GPa)
#
#
# Indices 1 2 3 4 5 6 
#
# 1 119.7591 38.3228 8.8483 0.0000 -31.5508 0.0000
# 2 38.3228 87.0734 13.8581 0.0000 -12.9627 0.0000
# 3 8.8483 13.8581 36.5425 0.0000 -13.7943 0.0000
# 4 0.0000 0.0000 0.0000 -22.4289 0.0000 -1.0673
# 5 -31.5508 -12.9627 -13.7943 0.0000 23.2038 0.0000
# 6 0.0000 0.0000 0.0000 -1.0673 0.0000 23.1788
#
#
#
# Elastic Compliance Matrix: (Units=1/GPa)
#
#
# Indices 1 2 3 4 5 6 
#
# 1 0.014982 -0.004361 0.006184 0.000000 0.021612 0.000000
# 2 -0.004361 0.014009 -0.004565 0.000000 -0.000818 0.000000
# 3 0.006184 -0.004565 0.038436 0.000000 0.028708 0.000000
# 4 0.000000 0.000000 0.000000 -0.044488 0.000000 -0.002049
# 5 0.021612 -0.000818 0.028708 0.000000 0.089093 0.000000
# 6 0.000000 0.000000 0.000000 -0.002049 0.000000 0.043049
#
#
# Mechanical properties :
#
#
# Convention : Reuss Voigt Hill
#
# Bulk Modulus (GPa) = 16.14369 40.60373 28.37371
# Shear Modulus (GPa) = 27.59182 16.94711 22.26947
#
# Velocity S-wave (km/s) = 3.75848 2.94557 3.37658
# Velocity P-wave (km/s) = 5.20576 5.68826 5.45235
#
# Compressibility (1/GPa) = 0.06194370
#
# Stress axis : x y z
#
# Youngs Moduli (GPa) = 66.74460 71.38395 26.01710
#
# Poissons Ratio (x) = 0.31130 -0.16090
# Poissons Ratio (y) = 0.29107 0.11878
# Poissons Ratio (z) = -0.41277 0.32589
#
# Static dielectric constant tensor:
#      x y z
#    x 1.829150 0.000000 -0.132330 
#    y 0.000000 1.711200 0.000000 
#    z -0.132330 0.000000 1.821700 
# 
# From -- ./inp_files/135504.got.cif
#   From: 2010.05.17/outbox.cif.g08.bks.cpg/sg12_68_cif.got.tgz:135504.got - 2010.06.03 13:09:07.
