data_PCOD9170980
_publ_section_title
;
Structure prediction by ZEFSAII (Michael W. Deem and Ramdas Pophale) SiO2 
 PCOD9170980
Probable space group: C 2/M
;
_chemical_formula_sum "Si O2"
_cell_formula_units_Z 48
_cell_length_a 15.058945
_cell_length_b 24.256330
_cell_length_c 11.632592
_cell_angle_alpha 90.000000
_cell_angle_beta 140.824689
_cell_angle_gamma 90.000000
_cell_volume 2684.131525
_symmetry_space_group_name_H-M "C 2/M"
_symmetry_group_IT_number 12
_symmetry_cell_setting 'monoclinic'
loop_
_space_group_symop_operation_xyz
x,y,z
-x,y,-z
-x,-y,-z
x,-y,z
1/2+x,1/2+y,z
1/2-x,1/2+y,-z
1/2-x,1/2-y,-z
1/2+x,1/2-y,z
loop_
_atom_site_type_symbol
_atom_site_label
_atom_site_fract_x
_atom_site_fract_y
_atom_site_fract_z
Si Si1 0.000000 0.666913 0.000000
Si Si2 0.299499 0.808560 0.003927
Si Si3 0.971731 0.879026 0.337528
Si Si4 0.348378 0.500000 0.211154
Si Si5 0.724575 0.120987 0.411055
Si Si6 0.800227 0.500000 0.687258
Si Si7 0.501996 0.880446 0.637759
Si Si8 0.939887 0.500000 0.199430
O O1 0.095113 0.696886 0.999599
O O2 0.882407 0.634796 0.803314
O O3 0.381005 0.843190 0.183169
O O4 0.250000 0.750000 0.000000
O O5 0.164277 0.844396 0.833177
O O6 0.000000 0.872973 0.500000
O O7 0.117202 0.856884 0.429875
O O8 0.935598 0.943834 0.284401
O O9 0.268929 0.500000 0.255918
O O10 0.222612 0.500000 0.994452
O O11 0.642855 0.135741 0.444552
O O12 0.746910 0.055604 0.421558
O O13 0.968432 0.500000 0.827612
O O14 0.500000 0.873991 0.500000
O O15 0.525564 0.944330 0.697318
#
# Coordination Sequence:
#
# PCOD9170980 Si02
#       8
#     4   8   8   4   8   4   8   4
#     4  10  20  41  60  86 118 151 202 248 298 350
#     4  11  24  42  63  88 120 157 203 251 296 350
#     4  12  21  36  60  94 129 150 188 246 311 356
#     4  12  19  31  57  94 129 153 181 242 311 359
#     4  10  21  34  59  91 122 155 190 245 295 355
#     4  10  18  25  51  94 123 152 188 225 298 368
#     4  10  22  43  62  85 119 163 208 237 287 359
#     4  10  20  33  61  86 120 162 197 242 284 352
#
# _framework density 17.882878999999999
#
# number of rings (size 3 to 8) (size 9 to 14) (size 15 to 20)
#    0.000    1.333    5.000    1.250    4.667    0.667 
#    3.000    1.667    0.000    1.000    0.000    0.000 
#    0.000    0.000    0.000    0.000    0.000    0.000 
#
# Total GULP energy -133765.099821 kJ/mol
# GULP energy per Si atom -5573.545826 kJ/mol
# Density = 1.784218 g / cm^3
# Si number density = 17.882879 Si / 1000 Ang^3
#
#
#
# Elastic Constant Matrix: (Units=GPa)
#
#
# Indices 1 2 3 4 5 6 
#
# 1 129.3873 44.1316 82.4036 0.0000 13.3323 0.0000
# 2 44.1316 97.7203 36.1489 0.0000 9.3498 0.0000
# 3 82.4036 36.1489 110.8276 0.0000 20.5848 0.0000
# 4 0.0000 0.0000 0.0000 -29.9569 0.0000 -1.4262
# 5 13.3323 9.3498 20.5848 0.0000 36.4630 0.0000
# 6 0.0000 0.0000 0.0000 -1.4262 0.0000 24.2718
#
#
#
# Elastic Compliance Matrix: (Units=1/GPa)
#
#
# Indices 1 2 3 4 5 6 
#
# 1 0.015513 -0.003151 -0.010728 0.000000 0.001192 0.000000
# 2 -0.003151 0.012307 -0.001451 0.000000 -0.001184 0.000000
# 3 -0.010728 -0.001451 0.018629 0.000000 -0.006222 0.000000
# 4 0.000000 0.000000 0.000000 -0.033288 0.000000 -0.001956
# 5 0.001192 -0.001184 -0.006222 0.000000 0.030805 0.000000
# 6 0.000000 0.000000 0.000000 -0.001956 0.000000 0.041085
#
#
# Mechanical properties :
#
#
# Convention : Reuss Voigt Hill
#
# Bulk Modulus (GPa) = 63.34142 73.70037 68.52089
# Shear Modulus (GPa) = 41.33123 17.83899 29.58511
#
# Velocity S-wave (km/s) = 4.81273 3.16182 4.07182
# Velocity P-wave (km/s) = 8.14740 7.39133 7.77856
#
# Compressibility (1/GPa) = 0.01578746
#
# Stress axis : x y z
#
# Youngs Moduli (GPa) = 64.46113 81.25760 53.68111
#
# Poissons Ratio (x) = 0.25608 0.57589
# Poissons Ratio (y) = 0.20315 0.07789
# Poissons Ratio (z) = 0.69154 0.11790
#
# Static dielectric constant tensor:
#      x y z
#    x 1.944960 0.000000 0.226470 
#    y 0.000000 1.634300 0.000000 
#    z 0.226470 0.000000 1.728590 
# 
# From -- ./inp_files/148080.got.cif
#   From: 2010.05.17/outbox.cif.g08.bks.cpg/sg12_75_cif.got.tgz:148080.got - 2010.06.03 13:09:07.
