data_PCOD9170968
_publ_section_title
;
Structure prediction by ZEFSAII (Michael W. Deem and Ramdas Pophale) SiO2 
 PCOD9170968
Probable space group: C 2/M
;
_chemical_formula_sum "Si O2"
_cell_formula_units_Z 56
_cell_length_a 14.114425
_cell_length_b 31.393738
_cell_length_c 18.769746
_cell_angle_alpha 90.000000
_cell_angle_beta 22.808465
_cell_angle_gamma 90.000000
_cell_volume 3224.084370
_symmetry_space_group_name_H-M "C 2/M"
_symmetry_group_IT_number 12
_symmetry_cell_setting 'monoclinic'
loop_
_space_group_symop_operation_xyz
x,y,z
-x,y,-z
-x,-y,-z
x,-y,z
1/2+x,1/2+y,z
1/2-x,1/2+y,-z
1/2-x,1/2-y,-z
1/2+x,1/2-y,z
loop_
_atom_site_type_symbol
_atom_site_label
_atom_site_fract_x
_atom_site_fract_y
_atom_site_fract_z
Si Si1 0.482777 0.316052 0.326522
Si Si2 0.100813 0.691178 0.155808
Si Si3 0.630909 0.724931 0.734511
Si Si4 0.731348 0.547853 0.150423
Si Si5 0.892451 0.371945 0.965275
Si Si6 0.785915 0.270801 0.781065
Si Si7 0.057894 0.113686 0.377098
O O1 0.319519 0.301606 0.372000
O O2 0.572202 0.272608 0.300307
O O3 0.407777 0.349607 0.439629
O O4 0.714444 0.339443 0.129208
O O5 0.076513 0.645705 0.135692
O O6 0.115686 0.694734 0.230480
O O7 0.904321 0.725433 0.262349
O O8 0.362603 0.709297 0.946868
O O9 0.792229 0.719802 0.693061
O O10 0.654257 0.500000 0.185175
O O11 0.559227 0.571236 0.327771
O O12 0.772348 0.581579 0.058246
O O13 0.000000 0.544949 0.000000
O O14 0.157960 0.371864 0.817070
O O15 0.500000 0.263671 0.000000
O O16 0.000000 0.106723 0.500000
#
# Coordination Sequence:
#
# PCOD9170968 Si02
#       7
#     8   8   8   8   8   8   8
#     4   9  15  24  37  52  71  98 128 155 183 218
#     4   8  13  19  32  54  74  94 121 155 187 213
#     4   8  13  19  31  52  75  95 122 158 187 208
#     4   8  15  27  41  56  74  96 118 142 179 224
#     4   9  15  25  39  53  73  96 122 148 176 220
#     4   9  13  19  34  55  75  93 124 164 190 206
#     4  10  18  25  37  55  74  98 124 152 182 213
#
# _framework density 17.369271999999999
#
# number of rings (size 3 to 8) (size 9 to 14) (size 15 to 20)
#    0.000    3.286    0.000    5.571    0.000    0.286 
#    0.000    0.000    0.000    7.714    0.000    0.000 
#    0.000   28.000    0.000    0.000    0.000   68.571 
#
# Total GULP energy -156009.097582 kJ/mol
# GULP energy per Si atom -5571.753485 kJ/mol
# Density = 1.732974 g / cm^3
# Si number density = 17.369272 Si / 1000 Ang^3
#
#
#
# Elastic Constant Matrix: (Units=GPa)
#
#
# Indices 1 2 3 4 5 6 
#
# 1 129.3471 65.9862 28.3889 -0.0215 29.3699 0.0667
# 2 65.9862 122.2848 27.6164 0.0040 24.5010 -0.0175
# 3 28.3889 27.6164 76.2301 -0.0241 26.1627 0.0181
# 4 -0.0215 0.0040 -0.0241 6.8771 0.0158 2.4016
# 5 29.3699 24.5010 26.1627 0.0158 27.0532 -0.0391
# 6 0.0667 -0.0175 0.0181 2.4016 -0.0391 17.1634
#
#
#
# Elastic Compliance Matrix: (Units=1/GPa)
#
#
# Indices 1 2 3 4 5 6 
#
# 1 0.012208 -0.004818 0.000375 0.000094 -0.009252 -0.000087
# 2 -0.004818 0.011923 -0.000920 -0.000023 -0.004677 0.000024
# 3 0.000375 -0.000920 0.019706 0.000144 -0.018632 -0.000086
# 4 0.000094 -0.000023 0.000144 0.152884 -0.000341 -0.021394
# 5 -0.009252 -0.004677 -0.018632 -0.000341 0.069264 0.000256
# 6 -0.000087 0.000024 -0.000086 -0.021394 0.000256 0.061258
#
#
# Mechanical properties :
#
#
# Convention : Reuss Voigt Hill
#
# Bulk Modulus (GPa) = 30.20205 63.53830 46.87017
# Shear Modulus (GPa) = 14.32640 23.94343 19.13492
#
# Velocity S-wave (km/s) = 2.87507 3.71684 3.32272
# Velocity P-wave (km/s) = 5.33360 7.42160 6.46249
#
# Compressibility (1/GPa) = 0.03311034
#
# Stress axis : x y z
#
# Youngs Moduli (GPa) = 81.91468 83.87490 50.74472
#
# Poissons Ratio (x) = 0.40414 -0.01901
# Poissons Ratio (y) = 0.39470 0.04666
# Poissons Ratio (z) = -0.03069 0.07712
#
# Static dielectric constant tensor:
#      x y z
#    x 1.621070 -0.000010 0.022730 
#    y -0.000010 1.578900 0.000040 
#    z 0.022730 0.000040 1.712250 
# 
# From -- ./inp_files/273127.got.cif
#   From: 2010.05.17/outbox.cif.g08.bks.cpg/sg12_137_cif.got.tgz:273127.got - 2010.06.03 13:09:07.
