data_PCOD9170732
_publ_section_title
;
Structure prediction by ZEFSAII (Michael W. Deem and Ramdas Pophale) SiO2 
 PCOD9170732
Probable space group: C 2/M
;
_chemical_formula_sum "Si O2"
_cell_formula_units_Z 40
_cell_length_a 16.834589
_cell_length_b 18.348574
_cell_length_c 7.975693
_cell_angle_alpha 90.000000
_cell_angle_beta 132.959411
_cell_angle_gamma 90.000000
_cell_volume 1802.965521
_symmetry_space_group_name_H-M "C 2/M"
_symmetry_group_IT_number 12
_symmetry_cell_setting 'monoclinic'
loop_
_space_group_symop_operation_xyz
x,y,z
-x,y,-z
-x,-y,-z
x,-y,z
1/2+x,1/2+y,z
1/2-x,1/2+y,-z
1/2-x,1/2-y,-z
1/2+x,1/2-y,z
loop_
_atom_site_type_symbol
_atom_site_label
_atom_site_fract_x
_atom_site_fract_y
_atom_site_fract_z
Si Si1 0.948662 0.860767 0.613585
Si Si2 0.650864 0.417675 0.033588
Si Si3 0.746798 0.162978 0.144770
Si Si4 0.504301 0.806245 0.708111
Si Si5 0.274969 0.803949 0.386543
O O1 0.821227 0.873173 0.398058
O O2 0.983328 0.779116 0.722194
O O3 0.000000 0.864138 0.500000
O O4 0.021958 0.915353 0.822436
O O5 0.688958 0.500000 0.105272
O O6 0.684330 0.363712 0.228998
O O7 0.710051 0.378397 0.958899
O O8 0.779536 0.248402 0.230042
O O9 0.616081 0.165161 0.947251
O O10 0.500000 0.812438 0.500000
O O11 0.389673 0.841702 0.591030
O O12 0.250000 0.750000 0.500000
#
# Coordination Sequence:
#
# PCOD9170732 Si02
#       5
#     8   8   8   8   8
#     4   8  17  28  54  87 118 151 197 260 304 352
#     4  11  21  38  63  93 129 166 210 266 322 379
#     4  10  19  37  60  87 122 161 219 257 304 370
#     4  10  17  33  63  88 118 158 221 274 300 356
#     4  11  23  38  61  93 128 168 215 262 318 384
#
# _framework density 22.185669999999998
#
# number of rings (size 3 to 8) (size 9 to 14) (size 15 to 20)
#    0.000    2.000    4.000    1.800    0.000    4.400 
#    0.000    3.000    0.000    6.000    0.000    2.800 
#    0.000    0.000    0.000    0.000    0.000    0.000 
#
# Total GULP energy -111400.551740 kJ/mol
# GULP energy per Si atom -5570.027587 kJ/mol
# Density = 2.213517 g / cm^3
# Si number density = 22.185670 Si / 1000 Ang^3
#
#
#
# Elastic Constant Matrix: (Units=GPa)
#
#
# Indices 1 2 3 4 5 6 
#
# 1 57.3043 11.8435 54.7866 0.0000 19.4536 0.0000
# 2 11.8435 96.9653 55.0504 0.0000 -6.2452 0.0000
# 3 54.7866 55.0504 170.9952 0.0000 47.7517 0.0000
# 4 0.0000 0.0000 0.0000 7.7432 0.0000 6.3514
# 5 19.4536 -6.2452 47.7517 0.0000 56.6185 0.0000
# 6 0.0000 0.0000 0.0000 6.3514 0.0000 12.5778
#
#
#
# Elastic Compliance Matrix: (Units=1/GPa)
#
#
# Indices 1 2 3 4 5 6 
#
# 1 0.025543 0.001388 -0.008140 0.000000 -0.001758 0.000000
# 2 0.001388 0.014686 -0.007184 0.000000 0.007202 0.000000
# 3 -0.008140 -0.007184 0.013354 0.000000 -0.009259 0.000000
# 4 0.000000 0.000000 0.000000 0.220458 0.000000 -0.111324
# 5 -0.001758 0.007202 -0.009259 0.000000 0.026869 0.000000
# 6 0.000000 0.000000 0.000000 -0.111324 0.000000 0.135720
#
#
# Mechanical properties :
#
#
# Convention : Reuss Voigt Hill
#
# Bulk Modulus (GPa) = 38.89234 63.18065 51.03649
# Shear Modulus (GPa) = 10.56921 28.96019 19.76470
#
# Velocity S-wave (km/s) = 2.18502 3.61689 2.98799
# Velocity P-wave (km/s) = 4.89226 6.78104 5.91256
#
# Compressibility (1/GPa) = 0.02571201
#
# Stress axis : x y z
#
# Youngs Moduli (GPa) = 39.14990 68.09310 74.88132
#
# Poissons Ratio (x) = -0.09453 0.60952
# Poissons Ratio (y) = -0.05435 0.53794
# Poissons Ratio (z) = 0.31867 0.48917
#
# Static dielectric constant tensor:
#      x y z
#    x 1.962480 0.000000 -0.033670 
#    y 0.000000 1.766380 0.000000 
#    z -0.033670 0.000000 1.915710 
# 
# From -- ./inp_files/87633.got.cif
#   From: 2010.05.17/outbox.cif.g08.bks.cpg/sg12_44_cif.got.tgz:87633.got - 2010.06.03 13:09:07.
