data_PCOD9170597
_publ_section_title
;
Structure prediction by ZEFSAII (Michael W. Deem and Ramdas Pophale) SiO2 
 PCOD9170597
Probable space group: C 2/M
;
_chemical_formula_sum "Si O2"
_cell_formula_units_Z 64
_cell_length_a 25.794460
_cell_length_b 29.839233
_cell_length_c 9.748409
_cell_angle_alpha 90.000000
_cell_angle_beta 152.283187
_cell_angle_gamma 90.000000
_cell_volume 3489.762676
_symmetry_space_group_name_H-M "C 2/M"
_symmetry_group_IT_number 12
_symmetry_cell_setting 'monoclinic'
loop_
_space_group_symop_operation_xyz
x,y,z
-x,y,-z
-x,-y,-z
x,-y,z
1/2+x,1/2+y,z
1/2-x,1/2+y,-z
1/2-x,1/2-y,-z
1/2+x,1/2-y,z
loop_
_atom_site_type_symbol
_atom_site_label
_atom_site_fract_x
_atom_site_fract_y
_atom_site_fract_z
Si Si1 0.963438 0.124743 0.758608
Si Si2 0.210722 0.360138 0.106590
Si Si3 0.318722 0.847974 0.292184
Si Si4 0.206962 0.550457 0.731205
Si Si5 0.971007 0.708197 0.269618
Si Si6 0.920768 0.810490 0.179901
Si Si7 0.627722 0.951149 0.849668
Si Si8 0.534709 0.448633 0.727544
O O1 0.837655 0.141203 0.447000
O O2 0.039516 0.157069 0.846436
O O3 0.979173 0.077092 0.721589
O O4 0.000000 0.123181 0.000000
O O5 0.198270 0.353870 0.912467
O O6 0.135597 0.323011 0.001767
O O7 0.162252 0.409523 0.021432
O O8 0.339416 0.898566 0.400887
O O9 0.422933 0.814446 0.555600
O O10 0.205207 0.824743 0.078173
O O11 0.160245 0.500000 0.582008
O O12 0.203122 0.548462 0.888652
O O13 0.331261 0.552195 0.961277
O O14 0.939664 0.759673 0.173025
O O15 0.000000 0.705759 0.500000
O O16 0.000000 0.815961 0.500000
O O17 0.500000 0.944981 0.500000
O O18 0.635411 0.000000 0.933860
O O19 0.500000 0.427677 0.500000
O O20 0.496896 0.500000 0.639549
#
# Coordination Sequence:
#
# PCOD9170597 Si02
#       8
#     8   8   8   8   8   8   8   8
#     4  12  25  38  54  80 117 158 193 231 286 345
#     4  10  19  34  53  79 119 145 188 238 288 344
#     4  10  17  32  58  85 115 141 183 243 297 348
#     4   9  16  26  46  77 111 142 176 217 267 334
#     4   9  21  32  56  90 111 140 186 247 305 345
#     4  11  21  36  59  83 111 147 191 238 298 345
#     4   9  16  27  49  85 121 147 175 226 293 343
#     4  10  19  34  57  85 111 144 190 234 282 337
#
# _framework density 18.339355999999999
#
# number of rings (size 3 to 8) (size 9 to 14) (size 15 to 20)
#    0.000    2.000    2.500    3.750    1.750    3.250 
#    0.000    0.625    0.000    0.000    0.000    0.000 
#    0.000    6.000    0.000    0.000    0.000    0.000 
#
# Total GULP energy -178269.112128 kJ/mol
# GULP energy per Si atom -5570.909754 kJ/mol
# Density = 1.829761 g / cm^3
# Si number density = 18.339356 Si / 1000 Ang^3
#
#
#
# Elastic Constant Matrix: (Units=GPa)
#
#
# Indices 1 2 3 4 5 6 
#
# 1 63.9450 40.8994 41.6072 0.0000 11.5161 0.0000
# 2 40.8994 139.4672 27.7213 0.0000 17.8480 0.0000
# 3 41.6072 27.7213 43.3879 0.0000 17.7970 0.0000
# 4 0.0000 0.0000 0.0000 29.4644 0.0000 15.6670
# 5 11.5161 17.8480 17.7970 0.0000 25.1938 0.0000
# 6 0.0000 0.0000 0.0000 15.6670 0.0000 4.0205
#
#
#
# Elastic Compliance Matrix: (Units=1/GPa)
#
#
# Indices 1 2 3 4 5 6 
#
# 1 0.049771 -0.006804 -0.050724 0.000000 0.017902 0.000000
# 2 -0.006804 0.009305 0.002827 0.000000 -0.005479 0.000000
# 3 -0.050724 0.002827 0.086160 0.000000 -0.039681 0.000000
# 4 0.000000 0.000000 0.000000 -0.031660 0.000000 0.123369
# 5 0.017902 -0.005479 -0.039681 0.000000 0.063421 0.000000
# 6 0.000000 0.000000 0.000000 0.123369 0.000000 -0.232016
#
#
# Mechanical properties :
#
#
# Convention : Reuss Voigt Hill
#
# Bulk Modulus (GPa) = 27.90636 51.91731 39.91184
# Shear Modulus (GPa) = 75.38082 20.84057 48.11070
#
# Velocity S-wave (km/s) = 6.41814 3.37469 5.12743
# Velocity P-wave (km/s) = 8.37694 6.59965 7.54084
#
# Compressibility (1/GPa) = 0.03583412
#
# Stress axis : x y z
#
# Youngs Moduli (GPa) = 20.09183 107.47277 11.60626
#
# Poissons Ratio (x) = 0.73129 0.58872
# Poissons Ratio (y) = 0.13671 -0.03282
# Poissons Ratio (z) = 1.01914 -0.30388
#
# Static dielectric constant tensor:
#      x y z
#    x 1.662400 0.000000 0.100000 
#    y 0.000000 1.695760 0.000000 
#    z 0.100000 0.000000 1.832070 
# 
# From -- ./inp_files/80721.got.cif
#   From: 2010.05.17/outbox.cif.g08.bks.cpg/sg12_41_cif.got.tgz:80721.got - 2010.06.03 13:09:07.
