data_PCOD9170248
_publ_section_title
;
Structure prediction by ZEFSAII (Michael W. Deem and Ramdas Pophale) SiO2 
 PCOD9170248
Probable space group: C 2/M
;
_chemical_formula_sum "Si O2"
_cell_formula_units_Z 56
_cell_length_a 11.016417
_cell_length_b 29.173431
_cell_length_c 9.354267
_cell_angle_alpha 90.000000
_cell_angle_beta 100.240580
_cell_angle_gamma 90.000000
_cell_volume 2958.445700
_symmetry_space_group_name_H-M "C 2/M"
_symmetry_group_IT_number 12
_symmetry_cell_setting 'monoclinic'
loop_
_space_group_symop_operation_xyz
x,y,z
-x,y,-z
-x,-y,-z
x,-y,z
1/2+x,1/2+y,z
1/2-x,1/2+y,-z
1/2-x,1/2-y,-z
1/2+x,1/2-y,z
loop_
_atom_site_type_symbol
_atom_site_label
_atom_site_fract_x
_atom_site_fract_y
_atom_site_fract_z
Si Si1 0.364070 0.552854 0.044000
Si Si2 0.540636 0.196320 0.745851
Si Si3 0.308668 0.199720 0.518710
Si Si4 0.228696 0.355295 0.939323
Si Si5 0.021597 0.049861 0.336885
Si Si6 0.122968 0.146752 0.320080
Si Si7 0.578848 0.297678 0.869035
O O1 0.329768 0.500000 0.003312
O O2 0.397201 0.555412 0.218874
O O3 0.500000 0.562090 0.000000
O O4 0.268205 0.592618 0.983967
O O5 0.396402 0.194713 0.674305
O O6 0.608196 0.193143 0.606054
O O7 0.589933 0.157963 0.866341
O O8 0.579706 0.245418 0.818654
O O9 0.250000 0.250000 0.500000
O O10 0.195842 0.164878 0.472594
O O11 0.299676 0.343625 0.806509
O O12 0.290926 0.321484 0.068332
O O13 0.105697 0.092722 0.321287
O O14 0.000000 0.049899 0.500000
O O15 0.073308 0.000000 0.305462
O O16 0.994719 0.172733 0.264738
O O17 0.500000 0.299682 0.000000
#
# Coordination Sequence:
#
# PCOD9170248 Si02
#       7
#     8   8   8   8   8   8   8
#     4  10  17  30  53  76  99 130 168 208 255 311
#     4  10  21  33  49  71 101 138 171 213 256 301
#     4  10  20  35  50  68  98 138 178 211 251 305
#     4  10  18  31  48  74 100 127 168 211 256 299
#     4  10  20  32  48  78 109 129 160 210 264 311
#     4  10  18  31  51  68  98 135 166 208 251 300
#     4  10  18  31  49  73 101 133 167 213 260 297
#
# _framework density 18.928858000000002
#
# number of rings (size 3 to 8) (size 9 to 14) (size 15 to 20)
#    0.000    2.000    4.286    0.857    0.000    1.143 
#    0.000    0.000    0.000    0.857    0.000    4.000 
#    0.000    4.000    0.000    0.000    0.000    0.000 
#
# Total GULP energy -156049.620909 kJ/mol
# GULP energy per Si atom -5573.200747 kJ/mol
# Density = 1.888578 g / cm^3
# Si number density = 18.928858 Si / 1000 Ang^3
#
#
#
# Elastic Constant Matrix: (Units=GPa)
#
#
# Indices 1 2 3 4 5 6 
#
# 1 35.7154 29.3703 47.3612 0.0000 29.7813 0.0000
# 2 29.3703 134.5040 54.7222 0.0000 48.2985 0.0000
# 3 47.3612 54.7222 105.1148 0.0000 40.3519 0.0000
# 4 0.0000 0.0000 0.0000 31.1117 0.0000 4.1580
# 5 29.7813 48.2985 40.3519 0.0000 43.2180 0.0000
# 6 0.0000 0.0000 0.0000 4.1580 0.0000 15.1155
#
#
#
# Elastic Compliance Matrix: (Units=1/GPa)
#
#
# Indices 1 2 3 4 5 6 
#
# 1 0.111665 0.009457 -0.033729 0.000000 -0.056024 0.000000
# 2 0.009457 0.013435 -0.004660 0.000000 -0.017180 0.000000
# 3 -0.033729 -0.004660 0.025274 0.000000 0.004852 0.000000
# 4 0.000000 0.000000 0.000000 0.033369 0.000000 -0.009179
# 5 -0.056024 -0.017180 0.004852 0.000000 0.076413 0.000000
# 6 0.000000 0.000000 0.000000 -0.009179 0.000000 0.068682
#
#
# Mechanical properties :
#
#
# Convention : Reuss Voigt Hill
#
# Bulk Modulus (GPa) = 10.80971 59.80459 35.30715
# Shear Modulus (GPa) = 11.97495 27.48109 19.72802
#
# Velocity S-wave (km/s) = 2.51794 3.81439 3.23184
# Velocity P-wave (km/s) = 3.76517 7.14580 5.71135
#
# Compressibility (1/GPa) = 0.09250940
#
# Stress axis : x y z
#
# Youngs Moduli (GPa) = 8.95533 74.43498 39.56698
#
# Poissons Ratio (x) = -0.70391 1.33455
# Poissons Ratio (y) = -0.08469 0.18438
# Poissons Ratio (z) = 0.30205 0.34686
#
# Static dielectric constant tensor:
#      x y z
#    x 1.708270 0.000000 -0.002960 
#    y 0.000000 1.656850 0.000000 
#    z -0.002960 0.000000 1.719580 
# 
# From -- ./inp_files/54296.got.cif
#   From: 2010.05.17/outbox.cif.g08.bks.cpg/sg12_28_cif.got.tgz:54296.got - 2010.06.03 13:09:07.
