data_PCOD9170887
_publ_section_title
;
Structure prediction by ZEFSAII (Michael W. Deem and Ramdas Pophale) SiO2 
 PCOD9170887
Probable space group: C 2/M
;
_chemical_formula_sum "Si O2"
_cell_formula_units_Z 56
_cell_length_a 28.479036
_cell_length_b 16.331153
_cell_length_c 16.676597
_cell_angle_alpha 90.000000
_cell_angle_beta 158.845002
_cell_angle_gamma 90.000000
_cell_volume 2799.155585
_symmetry_space_group_name_H-M "C 2/M"
_symmetry_group_IT_number 12
_symmetry_cell_setting 'monoclinic'
loop_
_space_group_symop_operation_xyz
x,y,z
-x,y,-z
-x,-y,-z
x,-y,z
1/2+x,1/2+y,z
1/2-x,1/2+y,-z
1/2-x,1/2-y,-z
1/2+x,1/2-y,z
loop_
_atom_site_type_symbol
_atom_site_label
_atom_site_fract_x
_atom_site_fract_y
_atom_site_fract_z
Si Si1 0.632535 0.350885 0.988747
Si Si2 0.139608 0.834445 0.399658
Si Si3 0.647812 0.911467 0.767515
Si Si4 0.291406 0.284733 0.309525
Si Si5 0.085521 0.594773 0.916579
Si Si6 0.082956 0.665855 0.213581
Si Si7 0.445816 0.215878 0.267467
O O1 0.494919 0.384102 0.801682
O O2 0.602251 0.288490 0.866571
O O3 0.745797 0.406449 0.133349
O O4 0.694069 0.291809 0.153310
O O5 0.180527 0.809454 0.554948
O O6 0.102462 0.753264 0.289465
O O7 0.272246 0.868626 0.573088
O O8 0.500000 0.910811 0.500000
O O9 0.652900 0.831317 0.831828
O O10 0.667558 0.000000 0.840369
O O11 0.426193 0.252382 0.486426
O O12 0.221129 0.357641 0.149968
O O13 0.104133 0.500000 0.930530
O O14 0.016321 0.642816 0.733745
O O15 0.998889 0.609384 0.857197
O O16 0.000000 0.675836 0.000000
#
# Coordination Sequence:
#
# PCOD9170887 Si02
#       7
#     8   8   8   8   8   8   8
#     4  10  19  35  58  83 110 148 196 239 276 338
#     4  10  19  33  57  84 110 153 195 234 283 336
#     4  11  22  35  56  86 113 145 187 237 290 337
#     4  10  17  36  56  82 114 146 196 236 281 337
#     4  11  22  36  57  88 122 150 189 243 297 342
#     4  11  19  33  56  85 115 149 196 241 278 338
#     4  10  20  38  60  81 112 153 196 232 283 352
#
# _framework density 20.006032999999999
#
# number of rings (size 3 to 8) (size 9 to 14) (size 15 to 20)
#    0.000    1.571    7.143    0.857    0.000    0.286 
#    0.000    3.571    0.000    0.000    0.000   15.000 
#    0.000    0.000    0.000    0.000    0.000    0.000 
#
# Total GULP energy -156001.744259 kJ/mol
# GULP energy per Si atom -5571.490866 kJ/mol
# Density = 1.996050 g / cm^3
# Si number density = 20.006033 Si / 1000 Ang^3
#
#
#
# Elastic Constant Matrix: (Units=GPa)
#
#
# Indices 1 2 3 4 5 6 
#
# 1 49.7964 6.9951 16.9687 0.0000 27.8759 0.0000
# 2 6.9951 79.3245 24.0051 0.0000 13.7864 0.0000
# 3 16.9687 24.0051 90.1116 0.0000 27.7136 0.0000
# 4 0.0000 0.0000 0.0000 2.1791 0.0000 -4.0324
# 5 27.8759 13.7864 27.7136 0.0000 35.7435 0.0000
# 6 0.0000 0.0000 0.0000 -4.0324 0.0000 6.2370
#
#
#
# Elastic Compliance Matrix: (Units=1/GPa)
#
#
# Indices 1 2 3 4 5 6 
#
# 1 0.036195 0.001447 0.002169 0.000000 -0.030468 0.000000
# 2 0.001447 0.014059 -0.002630 0.000000 -0.004512 0.000000
# 3 0.002169 -0.002630 0.015229 0.000000 -0.012485 0.000000
# 4 0.000000 0.000000 0.000000 -2.336602 0.000000 -1.510674
# 5 -0.030468 -0.004512 -0.012485 0.000000 0.063160 0.000000
# 6 0.000000 0.000000 0.000000 -1.510674 0.000000 -0.816355
#
#
# Mechanical properties :
#
#
# Convention : Reuss Voigt Hill
#
# Bulk Modulus (GPa) = 14.82452 35.01893 24.92173
# Shear Modulus (GPa) = -1.66456 20.24948 9.29246
#
# Velocity S-wave (km/s) = -0.91315 3.18491 2.15752
# Velocity P-wave (km/s) = 2.51283 5.57378 4.32327
#
# Compressibility (1/GPa) = 0.06745580
#
# Stress axis : x y z
#
# Youngs Moduli (GPa) = 27.62782 71.12928 65.66278
#
# Poissons Ratio (x) = -0.10293 -0.14243
# Poissons Ratio (y) = -0.03998 0.17270
# Poissons Ratio (z) = -0.05993 0.18707
#
# Static dielectric constant tensor:
#      x y z
#    x 1.738890 0.000000 0.032130 
#    y 0.000000 1.692810 0.000000 
#    z 0.032130 0.000000 1.763800 
# 
# From -- ./inp_files/296957.got.cif
#   From: 2010.05.17/outbox.cif.g08.bks.cpg/sg12_149_cif.got.tgz:296957.got - 2010.06.03 13:09:07.
