data_PCOD9170466
_publ_section_title
;
Structure prediction by ZEFSAII (Michael W. Deem and Ramdas Pophale) SiO2 
 PCOD9170466
Probable space group: C 2/M
;
_chemical_formula_sum "Si O2"
_cell_formula_units_Z 48
_cell_length_a 15.005603
_cell_length_b 16.337125
_cell_length_c 15.445281
_cell_angle_alpha 90.000000
_cell_angle_beta 142.186274
_cell_angle_gamma 90.000000
_cell_volume 2321.419422
_symmetry_space_group_name_H-M "C 2/M"
_symmetry_group_IT_number 12
_symmetry_cell_setting 'monoclinic'
loop_
_space_group_symop_operation_xyz
x,y,z
-x,y,-z
-x,-y,-z
x,-y,z
1/2+x,1/2+y,z
1/2-x,1/2+y,-z
1/2-x,1/2-y,-z
1/2+x,1/2-y,z
loop_
_atom_site_type_symbol
_atom_site_label
_atom_site_fract_x
_atom_site_fract_y
_atom_site_fract_z
Si Si1 0.655928 0.671569 0.153216
Si Si2 0.154227 0.631727 0.158081
Si Si3 0.809989 0.161840 0.627805
Si Si4 0.193110 0.666392 0.909953
Si Si5 0.110487 0.091397 0.805844
Si Si6 0.849362 0.350696 0.657715
O O1 0.638303 0.769686 0.152263
O O2 0.695509 0.633903 0.276541
O O3 0.768307 0.663321 0.161223
O O4 0.500000 0.640303 0.000000
O O5 0.286920 0.613194 0.196200
O O6 0.186409 0.603213 0.280554
O O7 0.000000 0.601626 0.000000
O O8 0.779968 0.259343 0.609317
O O9 0.706427 0.119094 0.478086
O O10 0.973668 0.149644 0.717783
O O11 0.022754 0.657839 0.792588
O O12 0.250000 0.750000 0.000000
O O13 0.283898 0.598400 0.030591
O O14 0.053523 0.000000 0.752056
#
# Coordination Sequence:
#
# PCOD9170466 Si02
#       6
#     8   8   8   8   8   8
#     4  10  17  31  63  88 113 149 201 251 295 341
#     4  10  18  34  58  88 114 154 201 248 292 349
#     4  10  21  37  54  91 120 154 197 249 304 347
#     4  12  18  37  62  88 115 154 206 252 290 350
#     4  12  24  38  58  89 127 161 196 243 307 371
#     4  10  20  35  62  86 119 149 203 260 290 337
#
# _framework density 20.677004
#
# number of rings (size 3 to 8) (size 9 to 14) (size 15 to 20)
#    0.000    1.333    6.667    1.000    0.000    1.667 
#    0.000    9.167    0.000    0.000    0.000    2.333 
#    0.000    0.000    0.000    0.000    0.000    0.000 
#
# Total GULP energy -133878.332773 kJ/mol
# GULP energy per Si atom -5578.263866 kJ/mol
# Density = 2.062994 g / cm^3
# Si number density = 20.677004 Si / 1000 Ang^3
#
#
#
# Elastic Constant Matrix: (Units=GPa)
#
#
# Indices 1 2 3 4 5 6 
#
# 1 132.7284 3.7929 38.1022 0.0001 -37.0417 0.0000
# 2 3.7929 28.4868 8.4193 0.0000 -8.8058 0.0000
# 3 38.1022 8.4193 108.8739 0.0001 -34.0931 0.0000
# 4 0.0001 0.0000 0.0001 2.8540 0.0000 1.4008
# 5 -37.0417 -8.8058 -34.0931 0.0000 42.4487 0.0000
# 6 0.0000 0.0000 0.0000 1.4008 0.0000 -4.9666
#
#
#
# Elastic Compliance Matrix: (Units=1/GPa)
#
#
# Indices 1 2 3 4 5 6 
#
# 1 0.010107 0.001529 -0.001061 0.000000 0.008285 0.000000
# 2 0.001529 0.037772 -0.000781 -0.000001 0.008542 0.000000
# 3 -0.001061 -0.000781 0.012393 0.000000 0.008865 0.000000
# 4 0.000000 -0.000001 0.000000 0.307778 -0.000001 0.086808
# 5 0.008285 0.008542 0.008865 -0.000001 0.039680 0.000000
# 6 0.000000 0.000000 0.000000 0.086808 0.000000 -0.176862
#
#
# Mechanical properties :
#
#
# Convention : Reuss Voigt Hill
#
# Bulk Modulus (GPa) = 16.76579 41.19089 28.97834
# Shear Modulus (GPa) = 19.89055 22.71888 21.30471
#
# Velocity S-wave (km/s) = 3.10492 3.31834 3.21340
# Velocity P-wave (km/s) = 4.58040 5.88610 5.27381
#
# Compressibility (1/GPa) = 0.05964526
#
# Stress axis : x y z
#
# Youngs Moduli (GPa) = 98.93964 26.47476 80.69176
#
# Poissons Ratio (x) = -0.04047 0.08562
# Poissons Ratio (y) = -0.15126 0.06302
# Poissons Ratio (z) = 0.10499 0.02068
#
# Static dielectric constant tensor:
#      x y z
#    x 1.752210 0.000000 -0.053430 
#    y 0.000000 1.764070 0.000000 
#    z -0.053430 0.000000 1.770570 
# 
# From -- ./inp_files/216485.got.cif
#   From: 2010.05.17/outbox.cif.g08.bks.cpg/sg12_109_cif.got.tgz:216485.got - 2010.06.03 13:09:07.
