data_PCOD9170574
_publ_section_title
;
Structure prediction by ZEFSAII (Michael W. Deem and Ramdas Pophale) SiO2 
 PCOD9170574
Probable space group: C 2/M
;
_chemical_formula_sum "Si O2"
_cell_formula_units_Z 40
_cell_length_a 25.486153
_cell_length_b 15.232485
_cell_length_c 4.958251
_cell_angle_alpha 90.000000
_cell_angle_beta 83.483935
_cell_angle_gamma 90.000000
_cell_volume 1912.444951
_symmetry_space_group_name_H-M "C 2/M"
_symmetry_group_IT_number 12
_symmetry_cell_setting 'monoclinic'
loop_
_space_group_symop_operation_xyz
x,y,z
-x,y,-z
-x,-y,-z
x,-y,z
1/2+x,1/2+y,z
1/2-x,1/2+y,-z
1/2-x,1/2-y,-z
1/2+x,1/2-y,z
loop_
_atom_site_type_symbol
_atom_site_label
_atom_site_fract_x
_atom_site_fract_y
_atom_site_fract_z
Si Si1 0.843201 0.365091 0.135825
Si Si2 0.313693 0.500000 0.102838
Si Si3 0.411914 0.096582 0.603234
Si Si4 0.877896 0.825516 0.192934
Si Si5 0.554455 0.287588 0.340273
Si Si6 0.243864 0.500000 0.643032
O O1 0.890414 0.392333 0.312843
O O2 0.842004 0.259802 0.149433
O O3 0.791596 0.415567 0.263068
O O4 0.861186 0.394973 0.829730
O O5 0.347185 0.414001 0.152813
O O6 0.262425 0.500000 0.325229
O O7 0.294764 0.500000 0.806035
O O8 0.446140 0.181164 0.659929
O O9 0.435481 0.000000 0.626006
O O10 0.898758 0.816182 0.484616
O O11 0.928606 0.818068 0.965195
O O12 0.500000 0.319930 0.500000
#
# Coordination Sequence:
#
# PCOD9170574 Si02
#       6
#     8   4   8   8   8   4
#     4  10  20  35  58  84 116 156 181 226 283 337
#     4  12  26  40  59  84 112 152 197 250 278 322
#     4  10  17  32  56  85 121 151 180 222 283 336
#     4  10  23  42  58  82 122 149 183 241 297 322
#     4  10  21  38  62  86 112 150 192 234 281 349
#     4  12  22  36  62  88 112 148 202 226 268 362
#
# _framework density 20.915634000000001
#
# number of rings (size 3 to 8) (size 9 to 14) (size 15 to 20)
#    0.000    1.600    2.000    3.000    0.000    2.000 
#    0.000    3.000    0.000    7.200    0.000    0.000 
#    0.000    0.000    0.000    0.000    0.000    0.000 
#
# Total GULP energy -111765.322678 kJ/mol
# GULP energy per Si atom -5588.266134 kJ/mol
# Density = 2.086803 g / cm^3
# Si number density = 20.915634 Si / 1000 Ang^3
#
#
#
# Elastic Constant Matrix: (Units=GPa)
#
#
# Indices 1 2 3 4 5 6 
#
# 1 26.4329 19.7448 -4.8912 0.0000 -15.2634 0.0000
# 2 19.7448 116.9325 2.5170 0.0000 -17.1211 0.0000
# 3 -4.8912 2.5170 71.4149 0.0000 1.8025 0.0000
# 4 0.0000 0.0000 0.0000 18.4173 0.0000 5.8286
# 5 -15.2634 -17.1211 1.8025 0.0000 29.3771 0.0000
# 6 0.0000 0.0000 0.0000 5.8286 0.0000 5.0485
#
#
#
# Elastic Compliance Matrix: (Units=1/GPa)
#
#
# Indices 1 2 3 4 5 6 
#
# 1 0.058342 -0.006036 0.003538 0.000000 0.026578 0.000000
# 2 -0.006036 0.009990 -0.000835 0.000000 0.002737 0.000000
# 3 0.003538 -0.000835 0.014262 0.000000 0.000477 0.000000
# 4 0.000000 0.000000 0.000000 0.085558 0.000000 -0.098779
# 5 0.026578 0.002737 0.000477 0.000000 0.049415 0.000000
# 6 0.000000 0.000000 0.000000 -0.098779 0.000000 0.312122
#
#
# Mechanical properties :
#
#
# Convention : Reuss Voigt Hill
#
# Bulk Modulus (GPa) = 13.17024 27.72459 20.44742
# Shear Modulus (GPa) = 8.90210 23.72924 16.31567
#
# Velocity S-wave (km/s) = 2.06529 3.37192 2.79600
# Velocity P-wave (km/s) = 3.46378 5.33329 4.49676
#
# Compressibility (1/GPa) = 0.07592876
#
# Stress axis : x y z
#
# Youngs Moduli (GPa) = 17.14022 100.10094 70.11462
#
# Poissons Ratio (x) = 0.60422 -0.24805
# Poissons Ratio (y) = 0.10346 0.05852
# Poissons Ratio (z) = -0.06064 0.08354
#
# Static dielectric constant tensor:
#      x y z
#    x 1.730440 0.000000 -0.017020 
#    y 0.000000 1.740490 0.000000 
#    z -0.017020 0.000000 1.722360 
# 
# From -- ./inp_files/24226.got.cif
#   From: 2010.05.17/outbox.cif.g08.bks.cpg/sg12_13_cif.got.tgz:24226.got - 2010.06.03 13:09:07.
