data_PCOD9170976
_publ_section_title
;
Structure prediction by ZEFSAII (Michael W. Deem and Ramdas Pophale) SiO2 
 PCOD9170976
Probable space group: C 2/M
;
_chemical_formula_sum "Si O2"
_cell_formula_units_Z 48
_cell_length_a 26.500268
_cell_length_b 10.868283
_cell_length_c 6.941233
_cell_angle_alpha 90.000000
_cell_angle_beta 70.309104
_cell_angle_gamma 90.000000
_cell_volume 1882.258497
_symmetry_space_group_name_H-M "C 2/M"
_symmetry_group_IT_number 12
_symmetry_cell_setting 'monoclinic'
loop_
_space_group_symop_operation_xyz
x,y,z
-x,y,-z
-x,-y,-z
x,-y,z
1/2+x,1/2+y,z
1/2-x,1/2+y,-z
1/2-x,1/2-y,-z
1/2+x,1/2-y,z
loop_
_atom_site_type_symbol
_atom_site_label
_atom_site_fract_x
_atom_site_fract_y
_atom_site_fract_z
Si Si1 0.977436 0.637249 0.808527
Si Si2 0.966378 0.132718 0.243588
Si Si3 0.798066 0.500000 0.986729
Si Si4 0.643542 0.233648 0.088268
Si Si5 0.791443 0.000000 0.402132
Si Si6 0.669217 0.000000 0.604598
Si Si7 0.672490 0.500000 0.082794
Si Si8 0.348467 0.728311 0.351687
O O1 0.981384 0.500000 0.725006
O O2 0.916119 0.682364 0.871991
O O3 0.012931 0.746303 0.678207
O O4 0.000000 0.628272 0.000000
O O5 0.904814 0.158651 0.278545
O O6 0.972473 0.000000 0.330592
O O7 0.000000 0.126412 0.000000
O O8 0.822717 0.500000 0.172417
O O9 0.821288 0.625327 0.864053
O O10 0.734140 0.500000 0.071453
O O11 0.643777 0.371125 0.176004
O O12 0.669982 0.252097 0.844428
O O13 0.807041 0.872191 0.487102
O O14 0.728864 0.000000 0.445132
O O15 0.822815 0.000000 0.157736
O O16 0.643167 0.131735 0.586728
#
# Coordination Sequence:
#
# PCOD9170976 Si02
#       8
#     8   8   4   8   4   4   4   8
#     4  10  18  25  42  67 103 133 157 191 258 322
#     4  10  18  25  42  67 103 133 157 191 258 322
#     4  10  20  36  48  72  98 138 172 218 248 296
#     4  10  18  30  46  70 100 137 160 206 254 304
#     4  10  20  36  48  72  98 138 172 218 248 296
#     4  10  22  32  54  68 102 136 178 210 256 290
#     4  10  22  32  54  68 102 136 178 210 256 290
#     4  10  18  30  46  70 100 137 160 206 254 304
#
# _framework density 25.501279
#
# number of rings (size 3 to 8) (size 9 to 14) (size 15 to 20)
#    0.000    2.000    5.000    1.000    2.333    0.000 
#    0.000    0.000    0.000    0.000    0.000    0.000 
#    0.000    8.000    0.000    0.000    0.000    0.000 
#
# Total GULP energy -134004.342641 kJ/mol
# GULP energy per Si atom -5583.514277 kJ/mol
# Density = 2.544324 g / cm^3
# Si number density = 25.501279 Si / 1000 Ang^3
#
#
#
# Elastic Constant Matrix: (Units=GPa)
#
#
# Indices 1 2 3 4 5 6 
#
# 1 83.5870 48.8336 35.3834 0.0000 -17.1275 0.0000
# 2 48.8336 308.3013 11.6586 0.0000 -31.2436 0.0000
# 3 35.3834 11.6586 31.2419 0.0000 6.4314 0.0000
# 4 0.0000 0.0000 0.0000 5.4899 0.0000 -38.2504
# 5 -17.1275 -31.2436 6.4314 0.0000 52.6557 0.0000
# 6 0.0000 0.0000 0.0000 -38.2504 0.0000 30.1703
#
#
#
# Elastic Compliance Matrix: (Units=1/GPa)
#
#
# Indices 1 2 3 4 5 6 
#
# 1 0.032747 -0.002280 -0.039136 0.000000 0.014079 0.000000
# 2 -0.002280 0.003706 0.000923 0.000000 0.001345 0.000000
# 3 -0.039136 0.000923 0.080520 0.000000 -0.022017 0.000000
# 4 0.000000 0.000000 0.000000 -0.023253 0.000000 -0.029481
# 5 0.014079 0.001345 -0.022017 0.000000 0.027058 0.000000
# 6 0.000000 0.000000 0.000000 -0.029481 0.000000 -0.004231
#
#
# Mechanical properties :
#
#
# Convention : Reuss Voigt Hill
#
# Bulk Modulus (GPa) = 27.78788 68.32016 48.05402
# Shear Modulus (GPa) = 23.86317 39.48016 31.67167
#
# Velocity S-wave (km/s) = 3.06234 3.93894 3.52797
# Velocity P-wave (km/s) = 4.83986 6.89464 5.95652
#
# Compressibility (1/GPa) = 0.03598692
#
# Stress axis : x y z
#
# Youngs Moduli (GPa) = 30.53696 269.82225 12.41932
#
# Poissons Ratio (x) = 0.61528 0.48604
# Poissons Ratio (y) = 0.06963 -0.01146
# Poissons Ratio (z) = 1.19508 -0.24899
#
# Static dielectric constant tensor:
#      x y z
#    x 1.991740 0.000000 0.080680 
#    y 0.000000 2.116710 0.000000 
#    z 0.080680 0.000000 2.028730 
# 
# From -- ./inp_files/174445.got.cif
#   From: 2010.05.17/outbox.cif.g08.bks.cpg/sg12_88_cif.got.tgz:174445.got - 2010.06.03 13:09:07.
