data_PCOD9170548
_publ_section_title
;
Structure prediction by ZEFSAII (Michael W. Deem and Ramdas Pophale) SiO2 
 PCOD9170548
Probable space group: C 2/M
;
_chemical_formula_sum "Si O2"
_cell_formula_units_Z 52
_cell_length_a 17.409604
_cell_length_b 12.847102
_cell_length_c 11.103668
_cell_angle_alpha 90.000000
_cell_angle_beta 93.175943
_cell_angle_gamma 90.000000
_cell_volume 2479.664893
_symmetry_space_group_name_H-M "C 2/M"
_symmetry_group_IT_number 12
_symmetry_cell_setting 'monoclinic'
loop_
_space_group_symop_operation_xyz
x,y,z
-x,y,-z
-x,-y,-z
x,-y,z
1/2+x,1/2+y,z
1/2-x,1/2+y,-z
1/2-x,1/2-y,-z
1/2+x,1/2-y,z
loop_
_atom_site_type_symbol
_atom_site_label
_atom_site_fract_x
_atom_site_fract_y
_atom_site_fract_z
Si Si1 0.789154 0.674376 0.631274
Si Si2 0.620632 0.615685 0.328513
Si Si3 0.290299 0.117531 0.895029
Si Si4 0.853063 0.300756 0.387513
Si Si5 0.147339 0.723051 0.873332
Si Si6 0.488106 0.385239 0.139828
Si Si7 0.500000 0.299126 0.500000
O O1 0.819627 0.792434 0.650972
O O2 0.814850 0.618953 0.756080
O O3 0.822607 0.639802 0.504822
O O4 0.697384 0.692405 0.616741
O O5 0.653373 0.500000 0.335555
O O6 0.572089 0.632121 0.203010
O O7 0.554442 0.631525 0.422064
O O8 0.218015 0.195719 0.890614
O O9 0.267395 0.000000 0.924306
O O10 0.349473 0.158048 0.002355
O O11 0.842692 0.341558 0.250509
O O12 0.941460 0.272577 0.419991
O O13 0.072019 0.793249 0.845632
O O14 0.461035 0.500000 0.182535
O O15 0.500000 0.391695 0.000000
#
# Coordination Sequence:
#
# PCOD9170548 Si02
#       7
#     8   8   8   8   8   8   4
#     4   9  19  36  53  82 120 154 190 230 287 342
#     4  10  19  31  52  85 117 146 182 230 289 348
#     4  10  21  37  59  82 110 152 199 238 284 345
#     4   9  18  34  56  82 114 158 190 229 285 343
#     4  10  19  36  57  84 117 147 189 243 292 338
#     4  10  19  30  49  81 116 150 182 224 292 354
#     4  10  17  32  54  84 117 148 187 238 282 350
#
# _framework density 20.970576999999999
#
# number of rings (size 3 to 8) (size 9 to 14) (size 15 to 20)
#    0.000    2.308    1.538    1.615    0.000    0.000 
#    0.000   23.077    0.000    4.154    0.000    5.385 
#    0.000    0.000    0.000    0.000    0.000    0.000 
#
# Total GULP energy -144835.855047 kJ/mol
# GULP energy per Si atom -5570.609810 kJ/mol
# Density = 2.092285 g / cm^3
# Si number density = 20.970577 Si / 1000 Ang^3
#
#
#
# Elastic Constant Matrix: (Units=GPa)
#
#
# Indices 1 2 3 4 5 6 
#
# 1 55.8860 13.6872 13.1606 0.0000 11.9808 0.0000
# 2 13.6872 47.4198 25.1747 0.0000 6.0321 0.0000
# 3 13.1606 25.1747 154.5538 0.0000 10.1767 0.0000
# 4 0.0000 0.0000 0.0000 13.8872 0.0000 -4.1343
# 5 11.9808 6.0321 10.1767 0.0000 29.6092 0.0000
# 6 0.0000 0.0000 0.0000 -4.1343 0.0000 15.7222
#
#
#
# Elastic Compliance Matrix: (Units=1/GPa)
#
#
# Indices 1 2 3 4 5 6 
#
# 1 0.020740 -0.004796 -0.000508 0.000000 -0.007240 0.000000
# 2 -0.004796 0.024551 -0.003468 0.000000 -0.001869 0.000000
# 3 -0.000508 -0.003468 0.007181 0.000000 -0.001556 0.000000
# 4 0.000000 0.000000 0.000000 0.078124 0.000000 0.020544
# 5 -0.007240 -0.001869 -0.001556 0.000000 0.037619 0.000000
# 6 0.000000 0.000000 0.000000 0.020544 0.000000 0.069007
#
#
# Mechanical properties :
#
#
# Convention : Reuss Voigt Hill
#
# Bulk Modulus (GPa) = 28.62932 40.21162 34.42047
# Shear Modulus (GPa) = 18.76826 25.56619 22.16723
#
# Velocity S-wave (km/s) = 2.99487 3.49541 3.25478
# Velocity P-wave (km/s) = 5.06367 5.95881 5.52939
#
# Compressibility (1/GPa) = 0.03492923
#
# Stress axis : x y z
#
# Youngs Moduli (GPa) = 48.21624 40.73131 139.26038
#
# Poissons Ratio (x) = 0.19533 0.07077
# Poissons Ratio (y) = 0.23122 0.48290
# Poissons Ratio (z) = 0.02450 0.14124
#
# Static dielectric constant tensor:
#      x y z
#    x 1.790220 0.000000 0.003760 
#    y 0.000000 1.748830 0.000000 
#    z 0.003760 0.000000 1.888140 
# 
# From -- ./inp_files/155418.got.cif
#   From: 2010.05.17/outbox.cif.g08.bks.cpg/sg12_78_cif.got.tgz:155418.got - 2010.06.03 13:09:07.
