data_PCOD9170740
_publ_section_title
;
Structure prediction by ZEFSAII (Michael W. Deem and Ramdas Pophale) SiO2 
 PCOD9170740
Probable space group: C 2/M
;
_chemical_formula_sum "Si O2"
_cell_formula_units_Z 60
_cell_length_a 9.363313
_cell_length_b 27.430585
_cell_length_c 18.667421
_cell_angle_alpha 90.000000
_cell_angle_beta 46.486434
_cell_angle_gamma 90.000000
_cell_volume 3477.070820
_symmetry_space_group_name_H-M "C 2/M"
_symmetry_group_IT_number 12
_symmetry_cell_setting 'monoclinic'
loop_
_space_group_symop_operation_xyz
x,y,z
-x,y,-z
-x,-y,-z
x,-y,z
1/2+x,1/2+y,z
1/2-x,1/2+y,-z
1/2-x,1/2-y,-z
1/2+x,1/2-y,z
loop_
_atom_site_type_symbol
_atom_site_label
_atom_site_fract_x
_atom_site_fract_y
_atom_site_fract_z
Si Si1 0.560250 0.842837 0.272655
Si Si2 0.219909 0.703852 0.747951
Si Si3 0.039951 0.724004 0.568943
Si Si4 0.656577 0.111487 0.844292
Si Si5 0.936364 0.554199 0.801818
Si Si6 0.000000 0.920944 0.000000
Si Si7 0.541156 0.712737 0.900865
Si Si8 0.227065 0.864546 0.044623
O O1 0.427148 0.812394 0.263446
O O2 0.488231 0.825049 0.374966
O O3 0.544346 0.899893 0.258708
O O4 0.778768 0.823494 0.180868
O O5 0.387314 0.737420 0.656236
O O6 0.284095 0.652443 0.759926
O O7 0.107734 0.736023 0.845688
O O8 0.250000 0.750000 0.500000
O O9 0.000000 0.714559 0.500000
O O10 0.583979 0.068070 0.817333
O O11 0.757495 0.105274 0.886775
O O12 0.444240 0.135366 0.936329
O O13 0.984264 0.500000 0.758584
O O14 0.705097 0.553682 0.905635
O O15 0.918457 0.889797 0.961559
O O16 0.354472 0.690329 0.922681
O O17 0.500000 0.713947 0.000000
#
# Coordination Sequence:
#
# PCOD9170740 Si02
#       8
#     8   8   8   8   8   4   8   8
#     4  10  21  36  54  85 110 143 186 232 271 332
#     4  10  22  33  51  79 111 145 185 222 274 332
#     4  11  22  39  59  82 111 144 185 226 280 335
#     4   9  21  33  48  73 108 144 189 227 269 318
#     4  10  19  36  57  78 106 145 187 231 278 323
#     4  10  17  34  50  78 108 150 194 228 265 320
#     4  11  20  29  49  74 114 153 185 214 265 327
#     4  10  18  32  47  70 113 150 185 227 262 313
#
# _framework density 17.255904000000001
#
# number of rings (size 3 to 8) (size 9 to 14) (size 15 to 20)
#    0.000    1.867    3.333    1.800    5.600    1.067 
#    0.000    6.000    0.000    0.400    0.000    7.467 
#    0.000    0.000    0.000    0.000    0.000    0.000 
#
# Total GULP energy -167120.051356 kJ/mol
# GULP energy per Si atom -5570.668379 kJ/mol
# Density = 1.721663 g / cm^3
# Si number density = 17.255904 Si / 1000 Ang^3
#
#
#
# Elastic Constant Matrix: (Units=GPa)
#
#
# Indices 1 2 3 4 5 6 
#
# 1 94.2829 36.9117 31.6576 0.0000 20.0309 0.0000
# 2 36.9117 112.9002 41.4551 0.0000 6.4261 0.0000
# 3 31.6576 41.4551 82.2299 0.0000 16.9940 0.0000
# 4 0.0000 0.0000 0.0000 12.3374 0.0000 -1.0342
# 5 20.0309 6.4261 16.9940 0.0000 26.1798 0.0000
# 6 0.0000 0.0000 0.0000 -1.0342 0.0000 8.8673
#
#
#
# Elastic Compliance Matrix: (Units=1/GPa)
#
#
# Indices 1 2 3 4 5 6 
#
# 1 0.014559 -0.003525 -0.001969 0.000000 -0.008996 0.000000
# 2 -0.003525 0.011747 -0.005228 0.000000 0.003207 0.000000
# 3 -0.001969 -0.005228 0.017299 0.000000 -0.008439 0.000000
# 4 0.000000 0.000000 0.000000 0.081854 0.000000 0.009546
# 5 -0.008996 0.003207 -0.008439 0.000000 0.049771 0.000000
# 6 0.000000 0.000000 0.000000 0.009546 0.000000 0.113887
#
#
# Mechanical properties :
#
#
# Convention : Reuss Voigt Hill
#
# Bulk Modulus (GPa) = 45.12362 56.60687 50.86525
# Shear Modulus (GPa) = 15.72590 21.43616 18.58103
#
# Velocity S-wave (km/s) = 3.02211 3.52838 3.28501
# Velocity P-wave (km/s) = 6.19548 7.03384 6.62793
#
# Compressibility (1/GPa) = 0.02216134
#
# Stress axis : x y z
#
# Youngs Moduli (GPa) = 68.68748 85.12953 57.80822
#
# Poissons Ratio (x) = 0.30007 0.11381
# Poissons Ratio (y) = 0.24212 0.30221
# Poissons Ratio (z) = 0.13523 0.44503
#
# Static dielectric constant tensor:
#      x y z
#    x 1.636010 0.000000 0.011920 
#    y 0.000000 1.615940 0.000000 
#    z 0.011920 0.000000 1.588130 
# 
# From -- ./inp_files/259703.got.cif
#   From: 2010.05.17/outbox.cif.g08.bks.cpg/sg12_130_cif.got.tgz:259703.got - 2010.06.03 13:09:07.
