data_PCOD9170971
_publ_section_title
;
Structure prediction by ZEFSAII (Michael W. Deem and Ramdas Pophale) SiO2 
 PCOD9170971
Probable space group: C 2/M
;
_chemical_formula_sum "Si O2"
_cell_formula_units_Z 48
_cell_length_a 25.541088
_cell_length_b 7.466476
_cell_length_c 14.926700
_cell_angle_alpha 90.000000
_cell_angle_beta 110.422150
_cell_angle_gamma 90.000000
_cell_volume 2667.636597
_symmetry_space_group_name_H-M "C 2/M"
_symmetry_group_IT_number 12
_symmetry_cell_setting 'monoclinic'
loop_
_space_group_symop_operation_xyz
x,y,z
-x,y,-z
-x,-y,-z
x,-y,z
1/2+x,1/2+y,z
1/2-x,1/2+y,-z
1/2-x,1/2-y,-z
1/2+x,1/2-y,z
loop_
_atom_site_type_symbol
_atom_site_label
_atom_site_fract_x
_atom_site_fract_y
_atom_site_fract_z
Si Si1 0.834125 0.205683 0.981449
Si Si2 0.517792 0.280760 0.730153
Si Si3 0.444768 0.710030 0.530379
Si Si4 0.959174 0.219525 0.055161
Si Si5 0.122518 0.784117 0.671124
Si Si6 0.215112 0.288863 0.859564
O O1 0.895457 0.283508 0.003958
O O2 0.820154 0.207582 0.079299
O O3 0.837779 0.000000 0.953042
O O4 0.778369 0.283448 0.902354
O O5 0.517265 0.500000 0.728001
O O6 0.465792 0.217666 0.638098
O O7 0.519648 0.224693 0.833986
O O8 0.574602 0.225057 0.712916
O O9 0.500000 0.718896 0.500000
O O10 0.432417 0.500000 0.537494
O O11 0.395565 0.783560 0.438009
O O12 0.957900 0.000000 0.055673
O O13 0.000000 0.274488 0.000000
O O14 0.181962 0.735964 0.747966
O O15 0.119450 0.000000 0.666308
O O16 0.218079 0.500000 0.881166
#
# Coordination Sequence:
#
# PCOD9170971 Si02
#       6
#     8   8   8   8   8   8
#     4   9  17  29  40  55  79 105 132 160 191 228
#     4   8  12  20  35  56  79  99 124 160 194 226
#     4   7  11  18  32  54  75  97 125 155 191 229
#     4   9  15  23  39  61  80  99 126 162 200 229
#     4   9  14  23  39  57  78 103 128 156 194 233
#     4  10  18  25  38  58  81 106 130 157 191 232
#
# _framework density 17.993454
#
# number of rings (size 3 to 8) (size 9 to 14) (size 15 to 20)
#    0.000    3.333    1.667    2.500    0.000    0.667 
#    0.000    0.000    0.000    5.000    0.000    1.167 
#    0.000    0.000    0.000    0.000    0.000    0.000 
#
# Total GULP energy -133606.734142 kJ/mol
# GULP energy per Si atom -5566.947256 kJ/mol
# Density = 1.795250 g / cm^3
# Si number density = 17.993454 Si / 1000 Ang^3
#
#
#
# Elastic Constant Matrix: (Units=GPa)
#
#
# Indices 1 2 3 4 5 6 
#
# 1 105.2473 3.1312 81.6021 0.0000 16.6785 0.0000
# 2 3.1312 52.6918 2.9153 0.0000 -0.7635 0.0000
# 3 81.6021 2.9153 163.1223 0.0000 34.1073 0.0000
# 4 0.0000 0.0000 0.0000 5.5090 0.0000 2.7054
# 5 16.6785 -0.7635 34.1073 0.0000 29.5997 0.0000
# 6 0.0000 0.0000 0.0000 2.7054 0.0000 -1.9850
#
#
#
# Elastic Compliance Matrix: (Units=1/GPa)
#
#
# Indices 1 2 3 4 5 6 
#
# 1 0.015536 -0.000488 -0.007812 0.000000 0.000236 0.000000
# 2 -0.000488 0.019043 -0.000338 0.000000 0.001155 0.000000
# 3 -0.007812 -0.000338 0.012023 0.000000 -0.009460 0.000000
# 4 0.000000 0.000000 0.000000 0.108738 0.000000 0.148205
# 5 0.000236 0.001155 -0.009460 0.000000 0.044582 0.000000
# 6 0.000000 0.000000 0.000000 0.148205 0.000000 -0.301789
#
#
# Mechanical properties :
#
#
# Convention : Reuss Voigt Hill
#
# Bulk Modulus (GPa) = 34.10029 55.15095 44.62562
# Shear Modulus (GPa) = -66.83028 22.18560 -22.32234
#
# Velocity S-wave (km/s) = -6.10099 3.51519 -3.52601
# Velocity P-wave (km/s) = 5.53505 6.86968 2.87713
#
# Compressibility (1/GPa) = 0.02932526
#
# Stress axis : x y z
#
# Youngs Moduli (GPa) = 64.36746 52.51360 83.17695
#
# Poissons Ratio (x) = 0.02560 0.64981
# Poissons Ratio (y) = 0.03138 0.02811
# Poissons Ratio (z) = 0.50286 0.01775
#
# Static dielectric constant tensor:
#      x y z
#    x 1.590540 0.000000 0.050800 
#    y 0.000000 1.700660 0.000000 
#    z 0.050800 0.000000 1.655250 
# 
# From -- ./inp_files/236863.got.cif
#   From: 2010.05.17/outbox.cif.g08.bks.cpg/sg12_119_cif.got.tgz:236863.got - 2010.06.03 13:09:07.
