data_PCOD9170649
_publ_section_title
;
Structure prediction by ZEFSAII (Michael W. Deem and Ramdas Pophale) SiO2 
 PCOD9170649
Probable space group: C 2/M
;
_chemical_formula_sum "Si O2"
_cell_formula_units_Z 48
_cell_length_a 8.264088
_cell_length_b 25.666018
_cell_length_c 9.351177
_cell_angle_alpha 90.000000
_cell_angle_beta 74.877290
_cell_angle_gamma 90.000000
_cell_volume 1914.754897
_symmetry_space_group_name_H-M "C 2/M"
_symmetry_group_IT_number 12
_symmetry_cell_setting 'monoclinic'
loop_
_space_group_symop_operation_xyz
x,y,z
-x,y,-z
-x,-y,-z
x,-y,z
1/2+x,1/2+y,z
1/2-x,1/2+y,-z
1/2-x,1/2-y,-z
1/2+x,1/2-y,z
loop_
_atom_site_type_symbol
_atom_site_label
_atom_site_fract_x
_atom_site_fract_y
_atom_site_fract_z
Si Si1 0.454020 0.234693 0.846146
Si Si2 0.668783 0.195991 0.553593
Si Si3 0.142391 0.626035 0.167501
Si Si4 0.119597 0.144082 0.114069
Si Si5 0.386902 0.056908 0.381197
Si Si6 0.130421 0.897588 0.623157
O O1 0.608164 0.209951 0.725421
O O2 0.324013 0.189317 0.828638
O O3 0.400873 0.294481 0.838694
O O4 0.500000 0.229149 0.000000
O O5 0.500000 0.185854 0.500000
O O6 0.750000 0.250000 0.500000
O O7 0.802862 0.153737 0.474821
O O8 0.261553 0.598529 0.255682
O O9 0.963559 0.602293 0.261432
O O10 0.206828 0.621004 0.989934
O O11 0.050766 0.111926 0.265864
O O12 0.000000 0.138821 0.000000
O O13 0.500000 0.059585 0.500000
O O14 0.199929 0.061361 0.492349
O O15 0.409359 0.000000 0.308973
#
# Coordination Sequence:
#
# PCOD9170649 Si02
#       6
#     8   8   8   8   8   8
#     4  11  21  33  51  78 114 150 188 225 269 338
#     4  12  22  36  56  82 115 156 197 235 278 337
#     4  10  18  32  51  72 107 143 176 229 278 336
#     4   9  19  29  46  75 107 142 173 212 278 328
#     4   9  17  30  52  76  97 133 185 237 286 336
#     4  10  17  33  52  74 105 142 184 229 279 334
#
# _framework density 25.068481999999999
#
# number of rings (size 3 to 8) (size 9 to 14) (size 15 to 20)
#    0.000    1.833    5.000    1.000    0.000    1.333 
#    0.000    0.833    0.000    5.500    0.000    0.000 
#    0.000    2.000    0.000    0.000    0.000    0.000 
#
# Total GULP energy -133662.556203 kJ/mol
# GULP energy per Si atom -5569.273175 kJ/mol
# Density = 2.501143 g / cm^3
# Si number density = 25.068482 Si / 1000 Ang^3
#
#
#
# Elastic Constant Matrix: (Units=GPa)
#
#
# Indices 1 2 3 4 5 6 
#
# 1 56.8709 -1.2393 39.9226 0.0000 11.5021 0.0000
# 2 -1.2393 117.9854 55.1525 0.0000 -11.5571 0.0000
# 3 39.9226 55.1525 236.5110 0.0000 -39.0945 0.0000
# 4 0.0000 0.0000 0.0000 30.3047 0.0000 -3.3068
# 5 11.5021 -11.5571 -39.0945 0.0000 50.4067 0.0000
# 6 0.0000 0.0000 0.0000 -3.3068 0.0000 7.4873
#
#
#
# Elastic Compliance Matrix: (Units=1/GPa)
#
#
# Indices 1 2 3 4 5 6 
#
# 1 0.023919 0.002174 -0.006153 0.000000 -0.009732 0.000000
# 2 0.002174 0.009722 -0.002693 0.000000 -0.000356 0.000000
# 3 -0.006153 -0.002693 0.006911 0.000000 0.006146 0.000000
# 4 0.000000 0.000000 0.000000 0.034669 0.000000 0.015312
# 5 -0.009732 -0.000356 0.006146 0.000000 0.026745 0.000000
# 6 0.000000 0.000000 0.000000 0.015312 0.000000 0.140322
#
#
# Mechanical properties :
#
#
# Convention : Reuss Voigt Hill
#
# Bulk Modulus (GPa) = 36.75356 66.55988 51.65672
# Shear Modulus (GPa) = 18.88925 38.80851 28.84888
#
# Velocity S-wave (km/s) = 2.74798 3.93886 3.39603
# Velocity P-wave (km/s) = 4.97611 6.87714 6.00236
#
# Compressibility (1/GPa) = 0.02720825
#
# Stress axis : x y z
#
# Youngs Moduli (GPa) = 41.80842 102.85446 144.70256
#
# Poissons Ratio (x) = -0.22363 0.89036
# Poissons Ratio (y) = -0.09090 0.38968
# Poissons Ratio (z) = 0.25725 0.27699
#
# Static dielectric constant tensor:
#      x y z
#    x 2.212850 0.000000 -0.030360 
#    y 0.000000 1.951080 0.000000 
#    z -0.030360 0.000000 -2.045230 
# 
# From -- ./inp_files/136508.got.cif
#   From: 2010.05.17/outbox.cif.g08.bks.cpg/sg12_69_cif.got.tgz:136508.got - 2010.06.03 13:09:07.
