data_PCOD9170228
_publ_section_title
;
Structure prediction by ZEFSAII (Michael W. Deem and Ramdas Pophale) SiO2 
 PCOD9170228
Probable space group: C 2/M
;
_chemical_formula_sum "Si O2"
_cell_formula_units_Z 44
_cell_length_a 21.280062
_cell_length_b 16.085199
_cell_length_c 8.412082
_cell_angle_alpha 90.000000
_cell_angle_beta 51.866379
_cell_angle_gamma 90.000000
_cell_volume 2264.862053
_symmetry_space_group_name_H-M "C 2/M"
_symmetry_group_IT_number 12
_symmetry_cell_setting 'monoclinic'
loop_
_space_group_symop_operation_xyz
x,y,z
-x,y,-z
-x,-y,-z
x,-y,z
1/2+x,1/2+y,z
1/2-x,1/2+y,-z
1/2-x,1/2-y,-z
1/2+x,1/2-y,z
loop_
_atom_site_type_symbol
_atom_site_label
_atom_site_fract_x
_atom_site_fract_y
_atom_site_fract_z
Si Si1 0.059177 0.256451 0.176230
Si Si2 0.122246 0.248001 0.414143
Si Si3 0.849356 0.908531 0.415730
Si Si4 0.500000 0.359768 0.000000
Si Si5 0.409266 0.906024 0.078020
Si Si6 0.698482 0.903787 0.442820
O O1 0.107966 0.226305 0.252512
O O2 0.053219 0.196986 0.033588
O O3 0.966670 0.266742 0.376066
O O4 0.096762 0.341529 0.054439
O O5 0.156794 0.169207 0.455831
O O6 0.173622 0.331227 0.361607
O O7 0.788795 0.897553 0.363627
O O8 0.831858 0.000000 0.513855
O O9 0.938900 0.907808 0.207150
O O10 0.353127 0.888303 0.315925
O O11 0.393839 0.000000 0.049549
O O12 0.500000 0.900433 0.000000
O O13 0.682983 0.000000 0.416349
#
# Coordination Sequence:
#
# PCOD9170228 Si02
#       6
#     8   8   8   4   8   8
#     4  10  19  33  54  80 110 142 178 219 258 319
#     4  10  20  34  54  82 111 141 176 220 269 310
#     4  10  21  38  58  78 103 140 182 226 269 315
#     4  10  19  38  57  76 100 140 183 222 266 320
#     4  10  17  30  52  77 107 145 176 208 255 316
#     4  10  20  35  56  81 110 141 177 217 263 319
#
# _framework density 19.427232
#
# number of rings (size 3 to 8) (size 9 to 14) (size 15 to 20)
#    0.000    2.000    2.727    1.909    0.000    0.727 
#    0.000   13.636    0.000    4.364    0.000    0.000 
#    0.000    0.000    0.000    0.000    0.000    0.000 
#
# Total GULP energy -122719.891552 kJ/mol
# GULP energy per Si atom -5578.176889 kJ/mol
# Density = 1.938301 g / cm^3
# Si number density = 19.427232 Si / 1000 Ang^3
#
#
#
# Elastic Constant Matrix: (Units=GPa)
#
#
# Indices 1 2 3 4 5 6 
#
# 1 71.0405 54.1442 2.7564 0.0000 14.6989 0.0000
# 2 54.1442 113.4715 16.1016 0.0000 27.3892 0.0000
# 3 2.7564 16.1016 24.2838 0.0000 7.1567 0.0000
# 4 0.0000 0.0000 0.0000 6.6152 0.0000 -5.6077
# 5 14.6989 27.3892 7.1567 0.0000 33.1468 0.0000
# 6 0.0000 0.0000 0.0000 -5.6077 0.0000 16.6617
#
#
#
# Elastic Compliance Matrix: (Units=1/GPa)
#
#
# Indices 1 2 3 4 5 6 
#
# 1 0.022786 -0.011141 0.005410 0.000000 -0.002066 0.000000
# 2 -0.011141 0.017039 -0.007839 0.000000 -0.007446 0.000000
# 3 0.005410 -0.007839 0.047590 0.000000 -0.006197 0.000000
# 4 0.000000 0.000000 0.000000 0.211512 0.000000 0.071187
# 5 -0.002066 -0.007446 -0.006197 0.000000 0.038576 0.000000
# 6 0.000000 0.000000 0.000000 0.071187 0.000000 0.083977
#
#
# Mechanical properties :
#
#
# Convention : Reuss Voigt Hill
#
# Bulk Modulus (GPa) = 16.59096 39.42223 28.00660
# Shear Modulus (GPa) = 10.66758 20.33765 15.50261
#
# Velocity S-wave (km/s) = 2.34584 3.23904 2.82793
# Velocity P-wave (km/s) = 3.98696 5.85874 5.01102
#
# Compressibility (1/GPa) = 0.06027378
#
# Stress axis : x y z
#
# Youngs Moduli (GPa) = 43.88744 58.69047 21.01303
#
# Poissons Ratio (x) = 0.65389 -0.11368
# Poissons Ratio (y) = 0.48896 0.16471
# Poissons Ratio (z) = -0.23743 0.46005
#
# Static dielectric constant tensor:
#      x y z
#    x 1.672100 0.000000 -0.022000 
#    y 0.000000 1.705330 0.000000 
#    z -0.022000 0.000000 1.686180 
# 
# From -- ./inp_files/85605.got.cif
#   From: 2010.05.17/outbox.cif.g08.bks.cpg/sg12_43_cif.got.tgz:85605.got - 2010.06.03 13:09:07.
