data_PCOD9170240
_publ_section_title
;
Structure prediction by ZEFSAII (Michael W. Deem and Ramdas Pophale) SiO2 
 PCOD9170240
Probable space group: C 2/M
;
_chemical_formula_sum "Si O2"
_cell_formula_units_Z 44
_cell_length_a 9.858026
_cell_length_b 26.665781
_cell_length_c 10.419577
_cell_angle_alpha 90.000000
_cell_angle_beta 135.005117
_cell_angle_gamma 90.000000
_cell_volume 1936.602857
_symmetry_space_group_name_H-M "C 2/M"
_symmetry_group_IT_number 12
_symmetry_cell_setting 'monoclinic'
loop_
_space_group_symop_operation_xyz
x,y,z
-x,y,-z
-x,-y,-z
x,-y,z
1/2+x,1/2+y,z
1/2-x,1/2+y,-z
1/2-x,1/2-y,-z
1/2+x,1/2-y,z
loop_
_atom_site_type_symbol
_atom_site_label
_atom_site_fract_x
_atom_site_fract_y
_atom_site_fract_z
Si Si1 0.672566 0.829380 0.713931
Si Si2 0.231338 0.500000 0.823476
Si Si3 0.138222 0.915158 0.291146
Si Si4 0.845721 0.883040 0.281823
Si Si5 0.279927 0.775064 0.881970
Si Si6 0.469760 0.090947 0.733837
O O1 0.500000 0.835113 0.500000
O O2 0.844220 0.862085 0.769991
O O3 0.718118 0.771319 0.751867
O O4 0.590736 0.858280 0.784462
O O5 0.327912 0.457102 0.791841
O O6 0.111209 0.544336 0.818201
O O7 0.312560 0.917619 0.512676
O O8 0.940382 0.917592 0.235992
O O9 0.827341 0.826810 0.215681
O O10 0.651416 0.902112 0.217979
O O11 0.000000 0.881281 0.500000
O O12 0.500000 0.785478 0.000000
O O13 0.250000 0.750000 0.000000
#
# Coordination Sequence:
#
# PCOD9170240 Si02
#       6
#     8   4   8   8   8   8
#     4   9  18  35  56  78 108 149 186 219 267 331
#     4  10  17  30  52  84 117 140 174 230 282 322
#     4   9  17  30  52  80 110 142 180 224 273 324
#     4  10  21  36  53  80 115 149 183 224 274 329
#     4  12  24  37  55  82 111 146 186 230 277 322
#     4   9  17  30  52  80 111 144 179 223 275 322
#
# _framework density 22.720196999999999
#
# number of rings (size 3 to 8) (size 9 to 14) (size 15 to 20)
#    0.000    2.182    0.000    5.455    0.000    0.727 
#    0.000   10.000    0.000    0.000    0.000   80.182 
#    0.000    0.000    0.000    0.000    0.000    0.000 
#
# Total GULP energy -122481.312220 kJ/mol
# GULP energy per Si atom -5567.332374 kJ/mol
# Density = 2.266849 g / cm^3
# Si number density = 22.720197 Si / 1000 Ang^3
#
#
#
# Elastic Constant Matrix: (Units=GPa)
#
#
# Indices 1 2 3 4 5 6 
#
# 1 183.8203 54.1629 31.1752 0.0000 9.3752 0.0000
# 2 54.1629 132.9476 19.0202 0.0000 5.1988 0.0000
# 3 31.1752 19.0202 51.2012 0.0000 -4.3814 0.0000
# 4 0.0000 0.0000 0.0000 -40.3973 0.0000 -12.3894
# 5 9.3752 5.1988 -4.3814 0.0000 13.6337 0.0000
# 6 0.0000 0.0000 0.0000 -12.3894 0.0000 33.5371
#
#
#
# Elastic Compliance Matrix: (Units=1/GPa)
#
#
# Indices 1 2 3 4 5 6 
#
# 1 0.006989 -0.002078 -0.003935 0.000000 -0.005278 0.000000
# 2 -0.002078 0.008790 -0.002226 0.000000 -0.002638 0.000000
# 3 -0.003935 -0.002226 0.023710 0.000000 0.011174 0.000000
# 4 0.000000 0.000000 0.000000 -0.022235 0.000000 -0.008214
# 5 -0.005278 -0.002638 0.011174 0.000000 0.081574 0.000000
# 6 0.000000 0.000000 0.000000 -0.008214 0.000000 0.026783
#
#
# Mechanical properties :
#
#
# Convention : Reuss Voigt Hill
#
# Bulk Modulus (GPa) = 43.45764 64.07619 53.76691
# Shear Modulus (GPa) = 33.38686 18.92875 26.15781
#
# Velocity S-wave (km/s) = 3.83754 2.88952 3.39676
# Velocity P-wave (km/s) = 6.22932 6.27662 6.25302
#
# Compressibility (1/GPa) = 0.02301091
#
# Stress axis : x y z
#
# Youngs Moduli (GPa) = 143.08307 113.76683 42.17644
#
# Poissons Ratio (x) = 0.23640 0.16597
# Poissons Ratio (y) = 0.29731 0.09388
# Poissons Ratio (z) = 0.56306 0.25323
#
# Static dielectric constant tensor:
#      x y z
#    x 1.848550 0.000000 -0.021920 
#    y 0.000000 1.829580 0.000000 
#    z -0.021920 0.000000 1.929110 
# 
# From -- ./inp_files/124465.got.cif
#   From: 2010.05.17/outbox.cif.g08.bks.cpg/sg12_63_cif.got.tgz:124465.got - 2010.06.03 13:09:07.
