data_PCOD9170539
_publ_section_title
;
Structure prediction by ZEFSAII (Michael W. Deem and Ramdas Pophale) SiO2 
 PCOD9170539
Probable space group: C 2/M
;
_chemical_formula_sum "Si O2"
_cell_formula_units_Z 60
_cell_length_a 17.615642
_cell_length_b 15.893936
_cell_length_c 8.844548
_cell_angle_alpha 90.000000
_cell_angle_beta 78.582329
_cell_angle_gamma 90.000000
_cell_volume 2427.307410
_symmetry_space_group_name_H-M "C 2/M"
_symmetry_group_IT_number 12
_symmetry_cell_setting 'monoclinic'
loop_
_space_group_symop_operation_xyz
x,y,z
-x,y,-z
-x,-y,-z
x,-y,z
1/2+x,1/2+y,z
1/2-x,1/2+y,-z
1/2-x,1/2-y,-z
1/2+x,1/2-y,z
loop_
_atom_site_type_symbol
_atom_site_label
_atom_site_fract_x
_atom_site_fract_y
_atom_site_fract_z
Si Si1 0.340876 0.094096 0.067046
Si Si2 0.212673 0.373509 0.246661
Si Si3 0.841687 0.500000 0.475130
Si Si4 0.334605 0.266492 0.535499
Si Si5 0.662633 0.595355 0.242935
Si Si6 0.065376 0.264061 0.799029
Si Si7 0.513973 0.092498 0.670682
Si Si8 0.387975 0.601801 0.072788
O O1 0.255584 0.096035 0.177677
O O2 0.383978 0.177702 0.107816
O O3 0.375905 0.000000 0.079663
O O4 0.324470 0.097234 0.894787
O O5 0.195565 0.428646 0.400337
O O6 0.172173 0.286719 0.307452
O O7 0.304258 0.376864 0.180664
O O8 0.894348 0.571247 0.364711
O O9 0.250000 0.250000 0.500000
O O10 0.351574 0.357274 0.596198
O O11 0.394831 0.247049 0.380600
O O12 0.638583 0.500000 0.273892
O O13 0.623159 0.622039 0.100782
O O14 0.996626 0.330220 0.785644
O O15 0.057451 0.170512 0.867767
O O16 0.500000 0.110826 0.500000
O O17 0.475770 0.000000 0.711865
O O18 0.403091 0.500000 0.082979
#
# Coordination Sequence:
#
# PCOD9170539 Si02
#       8
#     8   8   4   8   8   8   8   8
#     4  10  19  30  46  70 103 140 177 202 242 307
#     4  11  18  31  48  71 108 146 170 196 245 308
#     4  10  17  32  54  75  98 145 172 204 249 312
#     4  12  20  29  43  72 103 133 174 214 243 295
#     4   9  19  34  45  63 103 149 175 198 242 305
#     4  12  21  31  50  77  98 132 173 220 263 298
#     4   9  20  38  57  74 101 136 175 220 271 309
#     4  10  20  33  48  70 107 144 172 203 245 310
#
# _framework density 24.718747
#
# number of rings (size 3 to 8) (size 9 to 14) (size 15 to 20)
#    0.400    1.200    5.333    2.000    0.000    2.667 
#    1.200    0.000    0.000    2.000    0.000    0.000 
#    0.000    2.133    0.000    0.000    0.000    0.000 
#
# Total GULP energy -167001.396145 kJ/mol
# GULP energy per Si atom -5566.713205 kJ/mol
# Density = 2.466249 g / cm^3
# Si number density = 24.718747 Si / 1000 Ang^3
#
#
#
# Elastic Constant Matrix: (Units=GPa)
#
#
# Indices 1 2 3 4 5 6 
#
# 1 48.8690 20.9733 29.7283 0.0000 -6.0990 0.0000
# 2 20.9733 133.5617 65.1815 0.0000 21.9192 0.0000
# 3 29.7283 65.1815 117.2682 0.0000 -12.3948 0.0000
# 4 0.0000 0.0000 0.0000 48.3074 0.0000 14.9018
# 5 -6.0990 21.9192 -12.3948 0.0000 35.5149 0.0000
# 6 0.0000 0.0000 0.0000 14.9018 0.0000 1.6452
#
#
#
# Elastic Compliance Matrix: (Units=1/GPa)
#
#
# Indices 1 2 3 4 5 6 
#
# 1 0.024741 -0.002350 -0.004531 0.000000 0.004118 0.000000
# 2 -0.002350 0.013909 -0.008395 0.000000 -0.011918 0.000000
# 3 -0.004531 -0.008395 0.015375 0.000000 0.009769 0.000000
# 4 0.000000 0.000000 0.000000 -0.011538 0.000000 0.104510
# 5 0.004118 -0.011918 0.009769 0.000000 0.039629 0.000000
# 6 0.000000 0.000000 0.000000 0.104510 0.000000 -0.338791
#
#
# Mechanical properties :
#
#
# Convention : Reuss Voigt Hill
#
# Bulk Modulus (GPa) = 42.60037 59.05171 50.82604
# Shear Modulus (GPa) = -22.90441 29.34790 3.22175
#
# Velocity S-wave (km/s) = -3.04731 3.44942 1.14289
# Velocity P-wave (km/s) = 2.21132 6.30920 4.72736
#
# Compressibility (1/GPa) = 0.02347398
#
# Stress axis : x y z
#
# Youngs Moduli (GPa) = 40.41800 71.89567 65.04132
#
# Poissons Ratio (x) = 0.16894 0.29469
# Poissons Ratio (y) = 0.09498 0.54603
# Poissons Ratio (z) = 0.18313 0.60357
#
# Static dielectric constant tensor:
#      x y z
#    x 2.055240 0.000000 0.046030 
#    y 0.000000 2.326500 0.000000 
#    z 0.046030 0.000000 1.967210 
# 
# From -- ./inp_files/104015.got.cif
#   From: 2010.05.17/outbox.cif.g08.bks.cpg/sg12_53_cif.got.tgz:104015.got - 2010.06.03 13:09:07.
