data_PCOD9170268
_publ_section_title
;
Structure prediction by ZEFSAII (Michael W. Deem and Ramdas Pophale) SiO2 
 PCOD9170268
Probable space group: C 2/M
;
_chemical_formula_sum "Si O2"
_cell_formula_units_Z 56
_cell_length_a 18.325327
_cell_length_b 19.165053
_cell_length_c 21.094305
_cell_angle_alpha 90.000000
_cell_angle_beta 157.395669
_cell_angle_gamma 90.000000
_cell_volume 2847.547217
_symmetry_space_group_name_H-M "C 2/M"
_symmetry_group_IT_number 12
_symmetry_cell_setting 'monoclinic'
loop_
_space_group_symop_operation_xyz
x,y,z
-x,y,-z
-x,-y,-z
x,-y,z
1/2+x,1/2+y,z
1/2-x,1/2+y,-z
1/2-x,1/2-y,-z
1/2+x,1/2-y,z
loop_
_atom_site_type_symbol
_atom_site_label
_atom_site_fract_x
_atom_site_fract_y
_atom_site_fract_z
Si Si1 0.274577 0.919908 0.553772
Si Si2 0.462639 0.216402 0.670371
Si Si3 0.878970 0.293265 0.463658
Si Si4 0.250106 0.863796 0.663888
Si Si5 0.231239 0.419585 0.186543
Si Si6 0.821689 0.416234 0.995009
Si Si7 0.981139 0.150112 0.758370
O O1 0.438844 0.861025 0.678941
O O2 0.181620 0.908845 0.548549
O O3 0.133132 0.897061 0.384572
O O4 0.334294 0.000000 0.595553
O O5 0.250000 0.250000 0.500000
O O6 0.504659 0.209286 0.629315
O O7 0.555930 0.275611 0.788754
O O8 0.808101 0.214817 0.395214
O O9 0.683314 0.334514 0.322126
O O10 0.000000 0.316856 0.500000
O O11 0.195502 0.881623 0.692149
O O12 0.476091 0.878994 0.842376
O O13 0.284559 0.500000 0.236147
O O14 0.274404 0.396413 0.149948
O O15 0.000000 0.416752 0.000000
O O16 0.852050 0.500000 0.019817
O O17 0.670933 0.392180 0.926439
#
# Coordination Sequence:
#
# PCOD9170268 Si02
#       7
#     8   8   8   8   8   8   8
#     4  10  17  30  54  76  99 134 176 216 258 309
#     4   8  16  34  48  72 104 132 166 222 260 301
#     4  10  20  34  54  76 105 139 177 224 262 300
#     4  11  18  31  51  82 106 140 175 213 255 317
#     4   8  16  29  42  66 107 141 162 194 245 307
#     4  10  21  34  52  76 112 146 172 215 265 312
#     4  10  19  37  51  75 106 141 175 219 265 316
#
# _framework density 19.666046999999999
#
# number of rings (size 3 to 8) (size 9 to 14) (size 15 to 20)
#    0.000    2.714    4.286    2.571    2.000    0.571 
#    0.000    0.000    0.000   16.286    0.000    0.000 
#    0.000    9.143    0.000    0.000    0.000    0.000 
#
# Total GULP energy -155937.258502 kJ/mol
# GULP energy per Si atom -5569.187804 kJ/mol
# Density = 1.962129 g / cm^3
# Si number density = 19.666047 Si / 1000 Ang^3
#
#
#
# Elastic Constant Matrix: (Units=GPa)
#
#
# Indices 1 2 3 4 5 6 
#
# 1 135.8161 37.0330 27.3287 0.0016 4.7397 -0.0039
# 2 37.0330 99.8414 22.7281 0.0150 -3.1853 0.0012
# 3 27.3287 22.7281 44.4072 0.0210 2.2196 0.0002
# 4 0.0016 0.0150 0.0210 6.6842 0.0120 4.6038
# 5 4.7397 -3.1853 2.2196 0.0120 28.2098 0.0014
# 6 -0.0039 0.0012 0.0002 4.6038 0.0014 24.7158
#
#
#
# Elastic Compliance Matrix: (Units=1/GPa)
#
#
# Indices 1 2 3 4 5 6 
#
# 1 0.008909 -0.002398 -0.004183 0.000020 -0.001438 -0.000002
# 2 -0.002398 0.012068 -0.004808 -0.000017 0.002144 0.000002
# 3 -0.004183 -0.004808 0.027655 -0.000082 -0.002016 0.000015
# 4 0.000020 -0.000017 -0.000082 0.171626 -0.000070 -0.031969
# 5 -0.001438 0.002144 -0.002016 -0.000070 0.036091 0.000011
# 6 -0.000002 0.000002 0.000015 -0.031969 0.000011 0.046415
#
#
# Mechanical properties :
#
#
# Convention : Reuss Voigt Hill
#
# Bulk Modulus (GPa) = 38.68001 50.47161 44.57581
# Shear Modulus (GPa) = 14.96289 24.78696 19.87493
#
# Velocity S-wave (km/s) = 2.76134 3.55405 3.18248
# Velocity P-wave (km/s) = 5.46606 6.52394 6.01829
#
# Compressibility (1/GPa) = 0.02585315
#
# Stress axis : x y z
#
# Youngs Moduli (GPa) = 112.24957 82.86195 36.15993
#
# Poissons Ratio (x) = 0.19870 0.15127
# Poissons Ratio (y) = 0.26917 0.17386
# Poissons Ratio (z) = 0.46958 0.39841
#
# Static dielectric constant tensor:
#      x y z
#    x 1.782120 -0.000010 -0.015890 
#    y -0.000010 1.699920 -0.000020 
#    z -0.015890 -0.000020 1.803510 
# 
# From -- ./inp_files/317195.got.cif
#   From: 2010.05.17/outbox.cif.g08.bks.cpg/sg12_159_cif.got.tgz:317195.got - 2010.06.03 13:09:07.
