data_PCOD9170455
_publ_section_title
;
Structure prediction by ZEFSAII (Michael W. Deem and Ramdas Pophale) SiO2 
 PCOD9170455
Probable space group: C 2/M
;
_chemical_formula_sum "Si O2"
_cell_formula_units_Z 64
_cell_length_a 27.402978
_cell_length_b 14.390293
_cell_length_c 15.993295
_cell_angle_alpha 90.000000
_cell_angle_beta 147.576779
_cell_angle_gamma 90.000000
_cell_volume 3381.481383
_symmetry_space_group_name_H-M "C 2/M"
_symmetry_group_IT_number 12
_symmetry_cell_setting 'monoclinic'
loop_
_space_group_symop_operation_xyz
x,y,z
-x,y,-z
-x,-y,-z
x,-y,z
1/2+x,1/2+y,z
1/2-x,1/2+y,-z
1/2-x,1/2-y,-z
1/2+x,1/2-y,z
loop_
_atom_site_type_symbol
_atom_site_label
_atom_site_fract_x
_atom_site_fract_y
_atom_site_fract_z
Si Si1 0.023314 0.262625 0.127515
Si Si2 0.874791 0.211620 0.249319
Si Si3 0.706162 0.148545 0.431650
Si Si4 0.606629 0.397193 0.367458
Si Si5 0.289522 0.891423 0.057805
Si Si6 0.382711 0.101583 0.525236
Si Si7 0.576158 0.895116 0.901305
Si Si8 0.913440 0.207607 0.488930
O O1 0.107908 0.336069 0.247143
O O2 0.056926 0.177470 0.234711
O O3 0.940940 0.316846 0.054047
O O4 0.000000 0.233282 0.000000
O O5 0.812753 0.144514 0.103761
O O6 0.872489 0.177290 0.341423
O O7 0.978281 0.214118 0.368423
O O8 0.836543 0.316615 0.186509
O O9 0.750000 0.250000 0.500000
O O10 0.786961 0.096316 0.502954
O O11 0.684554 0.111521 0.492965
O O12 0.565726 0.500000 0.301765
O O13 0.602748 0.357688 0.455469
O O14 0.296109 0.000000 0.090548
O O15 0.341674 0.879424 0.044133
O O16 0.483989 0.106784 0.711818
O O17 0.374831 0.190589 0.455630
O O18 0.371595 0.000000 0.469741
O O19 0.583772 0.000000 0.947303
#
# Coordination Sequence:
#
# PCOD9170455 Si02
#       8
#     8   8   8   8   8   8   8   8
#     4  10  20  35  56  85 117 147 183 234 284 334
#     4  10  23  37  59  85 114 148 186 240 281 330
#     4   9  17  35  56  80 110 146 185 228 275 332
#     4  11  22  38  59  80 112 156 194 230 275 333
#     4  10  20  39  60  82 112 148 186 230 285 337
#     4  10  17  31  58  84 110 139 177 233 285 328
#     4   9  17  33  57  82 109 144 183 226 283 338
#     4  11  21  39  57  84 114 147 194 232 282 333
#
# _framework density 18.926615999999999
#
# number of rings (size 3 to 8) (size 9 to 14) (size 15 to 20)
#    0.000    2.000    5.000    0.375    0.000    3.500 
#    0.000    3.750    0.000    0.000    0.000    0.000 
#    0.000    0.000    0.000    0.000    0.000    0.000 
#
# Total GULP energy -178359.574193 kJ/mol
# GULP energy per Si atom -5573.736694 kJ/mol
# Density = 1.888354 g / cm^3
# Si number density = 18.926616 Si / 1000 Ang^3
#
#
#
# Elastic Constant Matrix: (Units=GPa)
#
#
# Indices 1 2 3 4 5 6 
#
# 1 77.3744 21.4910 21.8043 0.0000 -9.6326 0.0000
# 2 21.4910 92.8592 3.5047 0.0000 -5.2970 0.0000
# 3 21.8043 3.5047 38.5122 0.0000 -0.4245 0.0000
# 4 0.0000 0.0000 0.0000 4.3981 0.0000 5.9065
# 5 -9.6326 -5.2970 -0.4245 0.0000 17.5740 0.0000
# 6 0.0000 0.0000 0.0000 5.9065 0.0000 -7.5333
#
#
#
# Elastic Compliance Matrix: (Units=1/GPa)
#
#
# Indices 1 2 3 4 5 6 
#
# 1 0.017561 -0.003223 -0.009556 0.000000 0.008423 0.000000
# 2 -0.003223 0.011585 0.000790 0.000000 0.001744 0.000000
# 3 -0.009556 0.000790 0.031258 0.000000 -0.004245 0.000000
# 4 0.000000 0.000000 0.000000 0.110753 0.000000 0.086836
# 5 0.008423 0.001744 -0.004245 0.000000 0.061942 0.000000
# 6 0.000000 0.000000 0.000000 0.086836 0.000000 -0.064661
#
#
# Mechanical properties :
#
#
# Convention : Reuss Voigt Hill
#
# Bulk Modulus (GPa) = 27.45437 33.59397 30.52417
# Shear Modulus (GPa) = 24.44291 13.68416 19.06354
#
# Velocity S-wave (km/s) = 3.59758 2.69180 3.17714
# Velocity P-wave (km/s) = 5.63862 5.23920 5.44257
#
# Compressibility (1/GPa) = 0.03642408
#
# Stress axis : x y z
#
# Youngs Moduli (GPa) = 56.94439 86.32140 31.99225
#
# Poissons Ratio (x) = 0.27822 0.30573
# Poissons Ratio (y) = 0.18354 -0.02527
# Poissons Ratio (z) = 0.54418 -0.06818
#
# Static dielectric constant tensor:
#      x y z
#    x 1.668180 0.000000 0.011160 
#    y 0.000000 1.685410 0.000000 
#    z 0.011160 0.000000 1.649760 
# 
# From -- ./inp_files/240737.got.cif
#   From: 2010.05.17/outbox.cif.g08.bks.cpg/sg12_121_cif.got.tgz:240737.got - 2010.06.03 13:09:07.
