data_PCOD9170771
_publ_section_title
;
Structure prediction by ZEFSAII (Michael W. Deem and Ramdas Pophale) SiO2 
 PCOD9170771
Probable space group: C 2/M
;
_chemical_formula_sum "Si O2"
_cell_formula_units_Z 56
_cell_length_a 16.144695
_cell_length_b 17.610645
_cell_length_c 9.642815
_cell_angle_alpha 90.000000
_cell_angle_beta 120.372437
_cell_angle_gamma 90.000000
_cell_volume 2365.361023
_symmetry_space_group_name_H-M "C 2/M"
_symmetry_group_IT_number 12
_symmetry_cell_setting 'monoclinic'
loop_
_space_group_symop_operation_xyz
x,y,z
-x,y,-z
-x,-y,-z
x,-y,z
1/2+x,1/2+y,z
1/2-x,1/2+y,-z
1/2-x,1/2-y,-z
1/2+x,1/2-y,z
loop_
_atom_site_type_symbol
_atom_site_label
_atom_site_fract_x
_atom_site_fract_y
_atom_site_fract_z
Si Si1 0.235056 0.327448 0.676461
Si Si2 0.373693 0.088433 0.992300
Si Si3 0.080756 0.721278 0.776398
Si Si4 0.424456 0.662059 0.542431
Si Si5 0.176517 0.127724 0.976611
Si Si6 0.794458 0.335129 0.664419
Si Si7 0.475548 0.417197 0.840764
O O1 0.143605 0.304815 0.696661
O O2 0.198479 0.352914 0.493698
O O3 0.303601 0.255088 0.699357
O O4 0.294066 0.377988 0.836151
O O5 0.267725 0.099480 0.969288
O O6 0.359550 0.116236 0.822163
O O7 0.402701 0.000000 0.026325
O O8 0.433474 0.150075 0.133088
O O9 0.983372 0.762648 0.642927
O O10 0.144943 0.785849 0.909377
O O11 0.500000 0.626517 0.500000
O O12 0.318875 0.659738 0.390137
O O13 0.409866 0.616571 0.670324
O O14 0.081439 0.081111 0.863933
O O15 0.440041 0.500000 0.848075
O O16 0.500000 0.370759 0.000000
#
# Coordination Sequence:
#
# PCOD9170771 Si02
#       7
#     8   8   8   8   8   8   8
#     4  10  18  32  57  79 113 138 189 245 280 326
#     4  11  21  36  59  85 114 153 192 235 289 346
#     4  10  19  38  57  83 116 149 198 239 272 346
#     4  11  21  35  55  84 114 149 187 237 290 334
#     4  10  17  34  55  79 106 148 197 233 264 330
#     4  11  20  33  54  89 113 142 183 240 297 335
#     4  10  21  34  48  75 119 156 182 218 278 350
#
# _framework density 23.675032999999999
#
# number of rings (size 3 to 8) (size 9 to 14) (size 15 to 20)
#    0.000    1.571    4.286    3.000    0.000    0.857 
#    0.000    3.571    0.000    0.429    0.000    5.000 
#    0.000    0.000    0.000    0.000    0.000    0.000 
#
# Total GULP energy -156224.881810 kJ/mol
# GULP energy per Si atom -5579.460065 kJ/mol
# Density = 2.362115 g / cm^3
# Si number density = 23.675033 Si / 1000 Ang^3
#
#
#
# Elastic Constant Matrix: (Units=GPa)
#
#
# Indices 1 2 3 4 5 6 
#
# 1 73.2113 -6.2634 3.9983 0.0000 -14.9022 0.0000
# 2 -6.2634 88.0803 39.9385 0.0000 -12.1082 0.0000
# 3 3.9983 39.9385 157.7023 0.0000 -36.7816 0.0000
# 4 0.0000 0.0000 0.0000 15.7519 0.0000 -7.9655
# 5 -14.9022 -12.1082 -36.7816 0.0000 33.1613 0.0000
# 6 0.0000 0.0000 0.0000 -7.9655 0.0000 10.5892
#
#
#
# Elastic Compliance Matrix: (Units=1/GPa)
#
#
# Indices 1 2 3 4 5 6 
#
# 1 0.015586 0.001779 0.001267 0.000000 0.009059 0.000000
# 2 0.001779 0.013082 -0.002776 0.000000 0.002497 0.000000
# 3 0.001267 -0.002776 0.009319 0.000000 0.009893 0.000000
# 4 0.000000 0.000000 0.000000 0.102460 0.000000 0.077073
# 5 0.009059 0.002497 0.009893 0.000000 0.046111 0.000000
# 6 0.000000 0.000000 0.000000 0.077073 0.000000 0.152413
#
#
# Mechanical properties :
#
#
# Convention : Reuss Voigt Hill
#
# Bulk Modulus (GPa) = 25.95490 43.81563 34.88527
# Shear Modulus (GPa) = 14.23401 30.65518 22.44459
#
# Velocity S-wave (km/s) = 2.45465 3.60228 3.08235
# Velocity P-wave (km/s) = 4.36125 5.98742 5.23783
#
# Compressibility (1/GPa) = 0.03852837
#
# Stress axis : x y z
#
# Youngs Moduli (GPa) = 64.15969 76.44305 107.30610
#
# Poissons Ratio (x) = -0.13600 -0.13598
# Poissons Ratio (y) = -0.11415 0.29784
# Poissons Ratio (z) = -0.08131 0.21217
#
# Static dielectric constant tensor:
#      x y z
#    x 2.039910 0.000000 -0.031790 
#    y 0.000000 1.992990 0.000000 
#    z -0.031790 0.000000 1.911290 
# 
# From -- ./inp_files/97830.got.cif
#   From: 2010.05.17/outbox.cif.g08.bks.cpg/sg12_49_cif.got.tgz:97830.got - 2010.06.03 13:09:07.
