data_PCOD9170302
_publ_section_title
;
Structure prediction by ZEFSAII (Michael W. Deem and Ramdas Pophale) SiO2 
 PCOD9170302
Probable space group: C 2/M
;
_chemical_formula_sum "Si O2"
_cell_formula_units_Z 52
_cell_length_a 22.821996
_cell_length_b 20.308979
_cell_length_c 17.201382
_cell_angle_alpha 90.000000
_cell_angle_beta 164.872316
_cell_angle_gamma 90.000000
_cell_volume 2080.641515
_symmetry_space_group_name_H-M "C 2/M"
_symmetry_group_IT_number 12
_symmetry_cell_setting 'monoclinic'
loop_
_space_group_symop_operation_xyz
x,y,z
-x,y,-z
-x,-y,-z
x,-y,z
1/2+x,1/2+y,z
1/2-x,1/2+y,-z
1/2-x,1/2-y,-z
1/2+x,1/2-y,z
loop_
_atom_site_type_symbol
_atom_site_label
_atom_site_fract_x
_atom_site_fract_y
_atom_site_fract_z
Si Si1 0.415867 0.000000 0.790330
Si Si2 0.295896 0.622506 0.661425
Si Si3 0.531150 0.000000 0.323104
Si Si4 0.410118 0.500000 0.165304
Si Si5 0.261920 0.247518 0.889283
Si Si6 0.059454 0.355977 0.189676
Si Si7 0.127638 0.240285 0.495489
Si Si8 0.257909 0.399172 0.841218
O O1 0.382832 0.000000 0.654835
O O2 0.521344 0.928482 0.938583
O O3 0.172080 0.000000 0.517991
O O4 0.129749 0.567324 0.483086
O O5 0.208246 0.637005 0.460160
O O6 0.264221 0.691100 0.665989
O O7 0.545154 0.592766 0.970658
O O8 0.263725 0.000000 0.986704
O O9 0.350168 0.437221 0.034960
O O10 0.252645 0.320897 0.845004
O O11 0.023424 0.231508 0.622082
O O12 0.362243 0.193410 0.960425
O O13 0.444984 0.251626 0.192862
O O14 0.214844 0.320212 0.325608
O O15 0.000000 0.421248 0.500000
#
# Coordination Sequence:
#
# PCOD9170302 Si02
#       8
#     4   8   4   4   8   8   8   8
#     4  10  20  33  56  81 108 135 167 215 277 316
#     4  10  17  34  49  72 102 138 175 216 262 302
#     4  10  20  32  53  70 106 139 178 223 247 304
#     4  12  21  37  50  71 106 147 191 217 245 288
#     4  10  19  32  51  79  98 130 173 216 266 308
#     4  10  17  32  53  74 105 129 160 217 269 313
#     4  10  17  30  56  74  99 127 168 221 272 310
#     4  12  22  36  53  72 106 150 186 216 249 301
#
# _framework density 24.992293
#
# number of rings (size 3 to 8) (size 9 to 14) (size 15 to 20)
#    0.000    1.538    6.154    2.077    0.000    4.923 
#    0.000    3.846    0.000    0.000    0.000    0.538 
#    0.000    1.231    0.000    0.000    0.000    0.000 
#
# Total GULP energy -145598.793804 kJ/mol
# GULP energy per Si atom -5599.953608 kJ/mol
# Density = 2.493541 g / cm^3
# Si number density = 24.992293 Si / 1000 Ang^3
#
#
#
# Elastic Constant Matrix: (Units=GPa)
#
#
# Indices 1 2 3 4 5 6 
#
# 1 76.2306 28.7114 34.6369 -0.0001 25.9490 0.0000
# 2 28.7114 193.3198 26.8247 -0.0001 29.7651 -0.0001
# 3 34.6369 26.8247 108.2305 -0.0020 24.8785 -0.0014
# 4 -0.0001 -0.0001 -0.0020 10.8527 -0.0004 -4.7264
# 5 25.9490 29.7651 24.8785 -0.0004 60.7914 -0.0002
# 6 0.0000 -0.0001 -0.0014 -4.7264 -0.0002 3.1312
#
#
#
# Elastic Compliance Matrix: (Units=1/GPa)
#
#
# Indices 1 2 3 4 5 6 
#
# 1 0.017124 -0.001204 -0.004015 -0.000005 -0.005077 -0.000009
# 2 -0.001204 0.005749 -0.000563 -0.000001 -0.002070 -0.000001
# 3 -0.004015 -0.000563 0.011267 0.000012 -0.002621 0.000023
# 4 -0.000005 -0.000001 0.000012 0.268938 0.000000 0.405951
# 5 -0.005077 -0.002070 -0.002621 0.000000 0.020703 0.000000
# 6 -0.000009 -0.000001 0.000023 0.405951 0.000000 0.932132
#
#
# Mechanical properties :
#
#
# Convention : Reuss Voigt Hill
#
# Bulk Modulus (GPa) = 44.29921 62.01408 53.15665
# Shear Modulus (GPa) = 3.92156 34.12892 19.02524
#
# Velocity S-wave (km/s) = 1.25400 3.69938 2.76206
# Velocity P-wave (km/s) = 4.45649 6.56615 5.61136
#
# Compressibility (1/GPa) = 0.02257376
#
# Stress axis : x y z
#
# Youngs Moduli (GPa) = 58.39746 173.95681 88.75844
#
# Poissons Ratio (x) = 0.20953 0.35634
# Poissons Ratio (y) = 0.07034 0.05002
# Poissons Ratio (z) = 0.23445 0.09802
#
# Static dielectric constant tensor:
#      x y z
#    x 2.044040 0.000000 -0.058390 
#    y 0.000000 1.924120 0.000000 
#    z -0.058390 0.000000 1.966180 
# 
# From -- ./inp_files/354490.got.cif
#   From: 2010.05.17/outbox.cif.g08.bks.cpg/sg12_178_cif.got.tgz:354490.got - 2010.06.03 13:09:07.
