data_PCOD9170031
_publ_section_title
;
Structure prediction by ZEFSAII (Michael W. Deem and Ramdas Pophale) SiO2 
 PCOD9170031
Probable space group: C 2/M
;
_chemical_formula_sum "Si O2"
_cell_formula_units_Z 40
_cell_length_a 13.800666
_cell_length_b 10.111198
_cell_length_c 12.756937
_cell_angle_alpha 90.000000
_cell_angle_beta 116.219925
_cell_angle_gamma 90.000000
_cell_volume 1596.953392
_symmetry_space_group_name_H-M "C 2/M"
_symmetry_group_IT_number 12
_symmetry_cell_setting 'monoclinic'
loop_
_space_group_symop_operation_xyz
x,y,z
-x,y,-z
-x,-y,-z
x,-y,z
1/2+x,1/2+y,z
1/2-x,1/2+y,-z
1/2-x,1/2-y,-z
1/2+x,1/2-y,z
loop_
_atom_site_type_symbol
_atom_site_label
_atom_site_fract_x
_atom_site_fract_y
_atom_site_fract_z
Si Si1 0.336131 0.500000 0.870650
Si Si2 0.570416 0.000000 0.282756
Si Si3 0.702772 0.500000 0.481771
Si Si4 0.616720 0.000000 0.641918
Si Si5 0.747463 0.500000 0.934667
Si Si6 0.975964 0.000000 0.306226
Si Si7 0.135221 0.214475 0.607991
Si Si8 0.355113 0.789502 0.844020
O O1 0.237596 0.500000 0.742370
O O2 0.394843 0.641466 0.885704
O O3 0.277525 0.500000 0.955546
O O4 0.463724 0.000000 0.299822
O O5 0.575614 0.124770 0.205202
O O6 0.671395 0.000000 0.413599
O O7 0.605233 0.500000 0.343917
O O8 0.667458 0.634164 0.521928
O O9 0.606305 0.135252 0.574211
O O10 0.625682 0.500000 0.823806
O O11 0.820020 0.375734 0.928842
O O12 0.949305 0.871989 0.366043
O O13 0.240790 0.219008 0.730351
#
# Coordination Sequence:
#
# PCOD9170031 Si02
#       8
#     4   4   4   4   4   4   8   8
#     4  10  17  29  51  77  99 123 163 211 240 278
#     4   9  18  34  50  70 103 135 155 191 253 308
#     4   9  16  32  55  71  94 133 168 198 236 292
#     4  10  19  31  48  76 107 125 152 203 253 296
#     4   9  16  28  50  77  95 123 168 210 240 276
#     4   9  16  30  51  73  93 127 173 205 232 284
#     4   8  15  28  49  74  95 123 162 201 240 285
#     4   8  16  29  47  72  99 127 163 199 241 292
#
# _framework density 25.047695000000001
#
# number of rings (size 3 to 8) (size 9 to 14) (size 15 to 20)
#    0.000    3.200    0.000    4.200    0.000    0.000 
#    0.000    7.000    0.000    0.000    0.000   14.000 
#    0.000    0.000    0.000    0.000    0.000    0.000 
#
# Total GULP energy -111518.343169 kJ/mol
# GULP energy per Si atom -5575.917158 kJ/mol
# Density = 2.499069 g / cm^3
# Si number density = 25.047695 Si / 1000 Ang^3
#
#
#
# Elastic Constant Matrix: (Units=GPa)
#
#
# Indices 1 2 3 4 5 6 
#
# 1 126.2904 62.3187 33.2474 0.0000 -19.3036 0.0000
# 2 62.3187 248.1024 31.0828 0.0000 -31.8176 0.0000
# 3 33.2474 31.0828 44.6879 0.0000 18.9577 0.0000
# 4 0.0000 0.0000 0.0000 4.9601 0.0000 -11.0539
# 5 -19.3036 -31.8176 18.9577 0.0000 36.5713 0.0000
# 6 0.0000 0.0000 0.0000 -11.0539 0.0000 -1.6479
#
#
#
# Elastic Compliance Matrix: (Units=1/GPa)
#
#
# Indices 1 2 3 4 5 6 
#
# 1 0.016324 0.001418 -0.022189 0.000000 0.021352 0.000000
# 2 0.001418 0.006554 -0.010705 0.000000 0.012000 0.000000
# 3 -0.022189 -0.010705 0.070827 0.000000 -0.057741 0.000000
# 4 0.000000 0.000000 0.000000 0.012641 0.000000 -0.084794
# 5 0.021352 0.012000 -0.057741 0.000000 0.078986 0.000000
# 6 0.000000 0.000000 0.000000 -0.084794 0.000000 -0.038048
#
#
# Mechanical properties :
#
#
# Convention : Reuss Voigt Hill
#
# Bulk Modulus (GPa) = 32.51708 74.70872 53.61290
# Shear Modulus (GPa) = 22.67711 27.47216 25.07463
#
# Velocity S-wave (km/s) = 3.01218 3.31538 3.16741
# Velocity P-wave (km/s) = 5.01078 6.67435 5.90148
#
# Compressibility (1/GPa) = 0.03075307
#
# Stress axis : x y z
#
# Youngs Moduli (GPa) = 61.25993 152.56822 14.11895
#
# Poissons Ratio (x) = -0.21634 0.31329
# Poissons Ratio (y) = -0.08687 0.15114
# Poissons Ratio (z) = 1.35932 1.63319
#
# Static dielectric constant tensor:
#      x y z
#    x 1.988050 0.000000 0.016880 
#    y 0.000000 1.986240 0.000000 
#    z 0.016880 0.000000 1.984660 
# 
# From -- ./inp_files/273789.got.cif
#   From: 2010.05.17/outbox.cif.g08.bks.cpg/sg12_137_cif.got.tgz:273789.got - 2010.06.03 13:09:07.
