data_PCOD9170026
_publ_section_title
;
Structure prediction by ZEFSAII (Michael W. Deem and Ramdas Pophale) SiO2 
 PCOD9170026
Probable space group: C 2/M
;
_chemical_formula_sum "Si O2"
_cell_formula_units_Z 64
_cell_length_a 25.280906
_cell_length_b 7.733734
_cell_length_c 17.047586
_cell_angle_alpha 90.000000
_cell_angle_beta 92.905125
_cell_angle_gamma 90.000000
_cell_volume 3328.788882
_symmetry_space_group_name_H-M "C 2/M"
_symmetry_group_IT_number 12
_symmetry_cell_setting 'monoclinic'
loop_
_space_group_symop_operation_xyz
x,y,z
-x,y,-z
-x,-y,-z
x,-y,z
1/2+x,1/2+y,z
1/2-x,1/2+y,-z
1/2-x,1/2-y,-z
1/2+x,1/2-y,z
loop_
_atom_site_type_symbol
_atom_site_label
_atom_site_fract_x
_atom_site_fract_y
_atom_site_fract_z
Si Si1 0.432728 0.290157 0.175156
Si Si2 0.156794 0.211021 0.949530
Si Si3 0.650501 0.703001 0.125417
Si Si4 0.150102 0.701682 0.697403
Si Si5 0.962224 0.291601 0.609386
Si Si6 0.050701 0.206318 0.213374
Si Si7 0.237387 0.200961 0.823625
Si Si8 0.077924 0.288400 0.558508
O O1 0.432339 0.500000 0.180891
O O2 0.398971 0.243679 0.095632
O O3 0.398959 0.221537 0.245911
O O4 0.492931 0.227300 0.182769
O O5 0.203247 0.273391 0.894644
O O6 0.160183 0.000000 0.949095
O O7 0.159743 0.274772 0.038541
O O8 0.639553 0.500000 0.112945
O O9 0.600253 0.777085 0.168039
O O10 0.705072 0.717239 0.176849
O O11 0.162300 0.500000 0.688980
O O12 0.200218 0.783086 0.744697
O O13 0.127640 0.771926 0.613539
O O14 0.962969 0.500000 0.608580
O O15 0.943999 0.235387 0.693355
O O16 0.926923 0.234961 0.532449
O O17 0.022631 0.234686 0.595644
O O18 0.049187 0.000000 0.201188
O O19 0.246424 0.000000 0.839584
O O20 0.078639 0.500000 0.560405
#
# Coordination Sequence:
#
# PCOD9170026 Si02
#       8
#     8   8   8   8   8   8   8   8
#     4   9  17  30  46  70 102 130 157 195 241 284
#     4   8  16  31  51  71  93 123 161 204 245 283
#     4  10  20  34  50  69  94 131 171 201 235 285
#     4  10  17  29  51  76  98 124 158 197 241 288
#     4   9  16  30  49  70  99 131 161 192 230 285
#     4  10  20  31  46  71 104 133 161 197 237 284
#     4  10  20  34  51  73  97 122 159 208 252 286
#     4   8  15  27  48  75  98 124 160 196 231 281
#
# _framework density 19.226212
#
# number of rings (size 3 to 8) (size 9 to 14) (size 15 to 20)
#    0.000    2.750    1.250    2.625    0.000    1.000 
#    0.000    7.500    0.000    0.750    0.000    5.250 
#    0.000    0.000    0.000    0.000    0.000    0.000 
#
# Total GULP energy -178412.831330 kJ/mol
# GULP energy per Si atom -5575.400979 kJ/mol
# Density = 1.918245 g / cm^3
# Si number density = 19.226212 Si / 1000 Ang^3
#
#
#
# Elastic Constant Matrix: (Units=GPa)
#
#
# Indices 1 2 3 4 5 6 
#
# 1 79.6177 -4.6396 23.0424 0.0000 11.0098 0.0000
# 2 -4.6396 27.1280 -3.9151 0.0000 -3.5880 0.0000
# 3 23.0424 -3.9151 45.8224 0.0000 22.4256 0.0000
# 4 0.0000 0.0000 0.0000 22.5315 0.0000 -0.9853
# 5 11.0098 -3.5880 22.4256 0.0000 18.8578 0.0000
# 6 0.0000 0.0000 0.0000 -0.9853 0.0000 13.8324
#
#
#
# Elastic Compliance Matrix: (Units=1/GPa)
#
#
# Indices 1 2 3 4 5 6 
#
# 1 0.014762 0.001523 -0.007696 0.000000 0.000823 0.000000
# 2 0.001523 0.037980 -0.001488 0.000000 0.008107 0.000000
# 3 -0.007696 -0.001488 0.056233 0.000000 -0.062662 0.000000
# 4 0.000000 0.000000 0.000000 0.044521 0.000000 0.003171
# 5 0.000823 0.008107 -0.062662 0.000000 0.128607 0.000000
# 6 0.000000 0.000000 0.000000 0.003171 0.000000 0.072520
#
#
# Mechanical properties :
#
#
# Convention : Reuss Voigt Hill
#
# Bulk Modulus (GPa) = 10.67781 20.17152 15.42467
# Shear Modulus (GPa) = 12.46370 20.24970 16.35670
#
# Velocity S-wave (km/s) = 2.54887 3.24888 2.91993
# Velocity P-wave (km/s) = 3.77202 4.95863 4.40546
#
# Compressibility (1/GPa) = 0.09365216
#
# Stress axis : x y z
#
# Youngs Moduli (GPa) = 67.74006 26.32953 17.78304
#
# Poissons Ratio (x) = -0.04010 0.13686
# Poissons Ratio (y) = -0.10316 0.02647
# Poissons Ratio (z) = 0.52135 0.03919
#
# Static dielectric constant tensor:
#      x y z
#    x 1.660090 0.000000 0.019370 
#    y 0.000000 1.711970 0.000000 
#    z 0.019370 0.000000 1.682740 
# 
# From -- ./inp_files/287772.got.cif
#   From: 2010.05.17/outbox.cif.g08.bks.cpg/sg12_144_cif.got.tgz:287772.got - 2010.06.03 13:09:07.
