data_PCOD9170843
_publ_section_title
;
Structure prediction by ZEFSAII (Michael W. Deem and Ramdas Pophale) SiO2 
 PCOD9170843
Probable space group: C 2/M
;
_chemical_formula_sum "Si O2"
_cell_formula_units_Z 50
_cell_length_a 16.100423
_cell_length_b 13.682676
_cell_length_c 25.504486
_cell_angle_alpha 90.000000
_cell_angle_beta 157.931762
_cell_angle_gamma 90.000000
_cell_volume 2110.951878
_symmetry_space_group_name_H-M "C 2/M"
_symmetry_group_IT_number 12
_symmetry_cell_setting 'monoclinic'
loop_
_space_group_symop_operation_xyz
x,y,z
-x,y,-z
-x,-y,-z
x,-y,z
1/2+x,1/2+y,z
1/2-x,1/2+y,-z
1/2-x,1/2-y,-z
1/2+x,1/2-y,z
loop_
_atom_site_type_symbol
_atom_site_label
_atom_site_fract_x
_atom_site_fract_y
_atom_site_fract_z
Si Si1 0.592119 0.610206 0.423474
Si Si2 0.824565 0.323427 0.966993
Si Si3 0.000000 0.500000 0.000000
Si Si4 0.399440 0.289132 0.781433
Si Si5 0.663989 0.101696 0.321148
Si Si6 0.977293 0.669172 0.373875
Si Si7 0.746505 0.363457 0.135330
O O1 0.494753 0.500000 0.357012
O O2 0.715027 0.605198 0.552013
O O3 0.466171 0.713188 0.356485
O O4 0.769403 0.634109 0.480760
O O5 0.594747 0.341887 0.863679
O O6 0.763819 0.250954 0.884051
O O7 0.939467 0.415370 0.008746
O O8 0.979053 0.260520 0.097052
O O9 0.301283 0.199396 0.690322
O O10 0.188137 0.350860 0.675616
O O11 0.401524 0.099196 0.179517
O O12 0.729112 0.000000 0.332014
O O13 0.871973 0.618015 0.262102
O O14 0.500000 0.397539 0.000000
#
# Coordination Sequence:
#
# PCOD9170843 Si02
#       7
#     8   8   2   8   8   8   8
#     4   9  20  39  57  84 110 149 200 241 276 354
#     4  10  21  35  54  81 123 151 190 234 285 351
#     4  12  20  36  56  80 114 174 204 232 264 362
#     4  10  20  36  55  85 117 153 180 239 302 344
#     4   9  20  34  55  81 113 143 186 235 289 341
#     4  10  19  35  61  82 110 155 191 233 299 335
#     4  10  17  35  55  78 113 150 181 228 286 359
#
# _framework density 23.685997
#
# number of rings (size 3 to 8) (size 9 to 14) (size 15 to 20)
#    0.000    2.240    2.400    0.000    1.120    1.600 
#    5.760    1.600    0.000    0.000    0.000    4.480 
#    0.000    0.000    0.000    0.000    0.000    0.000 
#
# Total GULP energy -139224.907855 kJ/mol
# GULP energy per Si atom -5568.996314 kJ/mol
# Density = 2.363209 g / cm^3
# Si number density = 23.685997 Si / 1000 Ang^3
#
#
#
# Elastic Constant Matrix: (Units=GPa)
#
#
# Indices 1 2 3 4 5 6 
#
# 1 96.5708 5.9540 13.9258 0.0066 24.1651 -0.0006
# 2 5.9540 93.1492 -8.0558 -0.0006 -5.4016 0.0004
# 3 13.9258 -8.0558 43.9694 -0.0048 21.6257 -0.0001
# 4 0.0066 -0.0006 -0.0048 -2.1069 0.0094 -2.8984
# 5 24.1651 -5.4016 21.6257 0.0094 37.3685 -0.0026
# 6 -0.0006 0.0004 -0.0001 -2.8984 -0.0026 2.6014
#
#
#
# Elastic Compliance Matrix: (Units=1/GPa)
#
#
# Indices 1 2 3 4 5 6 
#
# 1 0.012504 -0.001288 -0.000179 0.000004 -0.008169 -0.000001
# 2 -0.001288 0.011050 0.001730 -0.000002 0.001430 -0.000002
# 3 -0.000179 0.001730 0.032063 -0.000053 -0.018190 -0.000075
# 4 0.000004 -0.000002 -0.000053 -0.187398 0.000060 -0.208793
# 5 -0.008169 0.001430 -0.018190 0.000060 0.042777 0.000107
# 6 -0.000001 -0.000002 -0.000075 -0.208793 0.000107 0.151779
#
#
# Mechanical properties :
#
#
# Convention : Reuss Voigt Hill
#
# Bulk Modulus (GPa) = 17.81174 28.59305 23.20239
# Shear Modulus (GPa) = 61.75565 22.36362 42.05964
#
# Velocity S-wave (km/s) = 5.11168 3.07607 4.21850
# Velocity P-wave (km/s) = 6.50963 4.97134 5.79178
#
# Compressibility (1/GPa) = 0.05614275
#
# Stress axis : x y z
#
# Youngs Moduli (GPa) = 79.97136 90.49530 31.18873
#
# Poissons Ratio (x) = 0.11660 0.00557
# Poissons Ratio (y) = 0.10304 -0.05394
# Poissons Ratio (z) = 0.01428 -0.15651
#
# Static dielectric constant tensor:
#      x y z
#    x 1.917930 0.000010 0.027000 
#    y 0.000010 1.929060 -0.000010 
#    z 0.027000 -0.000010 1.944130 
# 
# From -- ./inp_files/379483.got.cif
#   From: 2010.05.17/outbox.cif.g08.bks.cpg/sg12_190_cif.got.tgz:379483.got - 2010.06.03 13:09:07.
