data_PCOD9170867
_publ_section_title
;
Structure prediction by ZEFSAII (Michael W. Deem and Ramdas Pophale) SiO2 
 PCOD9170867
Probable space group: C 2/M
;
_chemical_formula_sum "Si O2"
_cell_formula_units_Z 44
_cell_length_a 7.739066
_cell_length_b 19.427421
_cell_length_c 12.181721
_cell_angle_alpha 90.000000
_cell_angle_beta 81.124445
_cell_angle_gamma 90.000000
_cell_volume 1809.591836
_symmetry_space_group_name_H-M "C 2/M"
_symmetry_group_IT_number 12
_symmetry_cell_setting 'monoclinic'
loop_
_space_group_symop_operation_xyz
x,y,z
-x,y,-z
-x,-y,-z
x,-y,z
1/2+x,1/2+y,z
1/2-x,1/2+y,-z
1/2-x,1/2-y,-z
1/2+x,1/2-y,z
loop_
_atom_site_type_symbol
_atom_site_label
_atom_site_fract_x
_atom_site_fract_y
_atom_site_fract_z
Si Si1 0.304872 0.392152 0.552772
Si Si2 0.571797 0.281589 0.301403
Si Si3 0.698567 0.500000 0.259673
Si Si4 0.855837 0.580553 0.886936
Si Si5 0.701670 0.141310 0.332341
Si Si6 0.742380 0.373410 0.115022
O O1 0.500000 0.417957 0.500000
O O2 0.336895 0.317247 0.602331
O O3 0.243018 0.440578 0.656013
O O4 0.194573 0.390677 0.453226
O O5 0.562077 0.200715 0.321167
O O6 0.384054 0.317057 0.311639
O O7 0.677457 0.304970 0.182209
O O8 0.644368 0.438396 0.178794
O O9 0.859199 0.500000 0.917154
O O10 0.801698 0.588686 0.766788
O O11 0.053432 0.609207 0.879837
O O12 0.735655 0.622358 0.984000
#
# Coordination Sequence:
#
# PCOD9170867 Si02
#       6
#     8   8   4   8   8   8
#     4   9  20  36  60  88 125 162 198 247 305 363
#     4  10  22  41  64  89 121 166 206 247 305 358
#     4  10  17  35  61  87 120 161 198 236 305 368
#     4  11  22  40  63  91 127 158 203 254 303 362
#     4  11  23  40  62  93 125 159 207 255 298 361
#     4  10  20  41  65  87 120 166 202 246 310 362
#
# _framework density 24.314875000000001
#
# number of rings (size 3 to 8) (size 9 to 14) (size 15 to 20)
#    0.000    1.818    1.818    2.455    1.273    1.455 
#    6.545    9.091    0.000    0.000    0.000    0.000 
#    0.000    0.000    0.000    0.000    0.000    0.000 
#
# Total GULP energy -122584.852449 kJ/mol
# GULP energy per Si atom -5572.038748 kJ/mol
# Density = 2.425953 g / cm^3
# Si number density = 24.314875 Si / 1000 Ang^3
#
#
#
# Elastic Constant Matrix: (Units=GPa)
#
#
# Indices 1 2 3 4 5 6 
#
# 1 72.4701 -10.9380 14.1125 0.0000 -10.0942 0.0000
# 2 -10.9380 49.6000 3.5951 0.0000 1.5592 0.0000
# 3 14.1125 3.5951 95.2785 0.0000 1.6314 0.0000
# 4 0.0000 0.0000 0.0000 23.6353 0.0000 -21.0098
# 5 -10.0942 1.5592 1.6314 0.0000 21.8274 0.0000
# 6 0.0000 0.0000 0.0000 -21.0098 0.0000 58.2301
#
#
#
# Elastic Compliance Matrix: (Units=1/GPa)
#
#
# Indices 1 2 3 4 5 6 
#
# 1 0.015839 0.003453 -0.002601 0.000000 0.007273 0.000000
# 2 0.003453 0.021011 -0.001308 0.000000 0.000194 0.000000
# 3 -0.002601 -0.001308 0.010963 0.000000 -0.001929 0.000000
# 4 0.000000 0.000000 0.000000 0.062287 0.000000 0.022473
# 5 0.007273 0.000194 -0.001929 0.000000 0.049308 0.000000
# 6 0.000000 0.000000 0.000000 0.022473 0.000000 0.025282
#
#
# Mechanical properties :
#
#
# Convention : Reuss Voigt Hill
#
# Bulk Modulus (GPa) = 21.32071 25.65422 23.48747
# Shear Modulus (GPa) = 24.84650 34.77715 29.81183
#
# Velocity S-wave (km/s) = 3.20013 3.78601 3.50533
# Velocity P-wave (km/s) = 4.73731 5.44845 5.10527
#
# Compressibility (1/GPa) = 0.04690274
#
# Stress axis : x y z
#
# Youngs Moduli (GPa) = 63.13356 47.59318 91.21456
#
# Poissons Ratio (x) = -0.16433 0.23724
# Poissons Ratio (y) = -0.21799 0.11927
# Poissons Ratio (z) = 0.16421 0.06223
#
# Static dielectric constant tensor:
#      x y z
#    x 2.054660 0.000000 -0.032610 
#    y 0.000000 1.884270 0.000000 
#    z -0.032610 0.000000 1.955850 
# 
# From -- ./inp_files/120730.got.cif
#   From: 2010.05.17/outbox.cif.g08.bks.cpg/sg12_61_cif.got.tgz:120730.got - 2010.06.03 13:09:07.
