data_PCOD9170516
_publ_section_title
;
Structure prediction by ZEFSAII (Michael W. Deem and Ramdas Pophale) SiO2 
 PCOD9170516
Probable space group: C 2/M
;
_chemical_formula_sum "Si O2"
_cell_formula_units_Z 56
_cell_length_a 18.881976
_cell_length_b 36.541921
_cell_length_c 7.080144
_cell_angle_alpha 90.000000
_cell_angle_beta 147.943107
_cell_angle_gamma 90.000000
_cell_volume 2592.865464
_symmetry_space_group_name_H-M "C 2/M"
_symmetry_group_IT_number 12
_symmetry_cell_setting 'monoclinic'
loop_
_space_group_symop_operation_xyz
x,y,z
-x,y,-z
-x,-y,-z
x,-y,z
1/2+x,1/2+y,z
1/2-x,1/2+y,-z
1/2-x,1/2-y,-z
1/2+x,1/2-y,z
loop_
_atom_site_type_symbol
_atom_site_label
_atom_site_fract_x
_atom_site_fract_y
_atom_site_fract_z
Si Si1 0.523383 0.288464 0.782919
Si Si2 0.873883 0.657566 0.353285
Si Si3 0.154593 0.922222 0.405596
Si Si4 0.156933 0.000000 0.400364
Si Si5 0.874165 0.500000 0.570615
Si Si6 0.803207 0.734309 0.323560
Si Si7 0.872149 0.581370 0.574103
Si Si8 0.402857 0.359959 0.445296
O O1 0.500000 0.286902 0.500000
O O2 0.410477 0.264322 0.623581
O O3 0.496079 0.330924 0.764529
O O4 0.670963 0.273357 0.144101
O O5 0.878886 0.695313 0.481005
O O6 0.874493 0.618030 0.455757
O O7 0.000000 0.658153 0.500000
O O8 0.726243 0.660679 0.928563
O O9 0.191544 0.961823 0.575607
O O10 0.244322 0.916657 0.423752
O O11 0.162613 0.890541 0.574191
O O12 0.000000 0.923316 0.000000
O O13 0.240455 0.000000 0.395404
O O14 0.000000 0.000000 0.000000
O O15 0.875521 0.540876 0.482502
O O16 0.000000 0.500000 0.000000
O O17 0.750000 0.750000 0.000000
O O18 0.000000 0.582408 0.000000
O O19 0.500000 0.375118 0.500000
#
# Coordination Sequence:
#
# PCOD9170516 Si02
#       8
#     8   8   8   4   4   8   8   8
#     4   9  17  30  50  76 107 135 182 218 259 319
#     4  12  22  33  56  85 114 140 183 239 276 324
#     4  10  20  35  59  77 109 149 182 228 272 328
#     4   8  16  32  52  80  98 140 198 214 254 336
#     4   8  16  34  60  72 102 148 190 224 260 344
#     4  10  17  32  52  80 105 143 184 225 257 324
#     4  10  21  39  56  83 109 147 191 227 281 334
#     4  11  20  35  52  84 112 141 184 228 278 333
#
# _framework density 21.597726000000002
#
# number of rings (size 3 to 8) (size 9 to 14) (size 15 to 20)
#    0.000    2.000    4.286    3.000    0.000    0.000 
#    0.000    1.429    0.000    1.714    0.000    0.000 
#    0.000    0.000    0.000    0.000    0.000    0.000 
#
# Total GULP energy -156092.067947 kJ/mol
# GULP energy per Si atom -5574.716712 kJ/mol
# Density = 2.154857 g / cm^3
# Si number density = 21.597726 Si / 1000 Ang^3
#
#
#
# Elastic Constant Matrix: (Units=GPa)
#
#
# Indices 1 2 3 4 5 6 
#
# 1 74.6283 30.8768 29.0975 0.0000 27.2060 0.0000
# 2 30.8768 159.5094 -3.0695 0.0000 1.6665 0.0000
# 3 29.0975 -3.0695 58.5897 0.0000 30.0874 0.0000
# 4 0.0000 0.0000 0.0000 25.3891 0.0000 6.9221
# 5 27.2060 1.6665 30.0874 0.0000 33.6789 0.0000
# 6 0.0000 0.0000 0.0000 6.9221 0.0000 36.0183
#
#
#
# Elastic Compliance Matrix: (Units=1/GPa)
#
#
# Indices 1 2 3 4 5 6 
#
# 1 0.021657 -0.004122 -0.003866 0.000000 -0.013837 0.000000
# 2 -0.004122 0.007083 0.001641 0.000000 0.001513 0.000000
# 3 -0.003866 0.001641 0.032355 0.000000 -0.025863 0.000000
# 4 0.000000 0.000000 0.000000 0.041565 0.000000 -0.007988
# 5 -0.013837 0.001513 -0.025863 0.000000 0.063900 0.000000
# 6 0.000000 0.000000 0.000000 -0.007988 0.000000 0.029299
#
#
# Mechanical properties :
#
#
# Convention : Reuss Voigt Hill
#
# Bulk Modulus (GPa) = 20.66045 45.17076 32.91560
# Shear Modulus (GPa) = 22.25332 34.73877 28.49605
#
# Velocity S-wave (km/s) = 3.21340 4.01489 3.63630
# Velocity P-wave (km/s) = 4.83267 6.51556 5.73617
#
# Compressibility (1/GPa) = 0.04840166
#
# Stress axis : x y z
#
# Youngs Moduli (GPa) = 46.17501 141.18505 30.90698
#
# Poissons Ratio (x) = 0.58196 0.11948
# Poissons Ratio (y) = 0.19033 -0.05072
# Poissons Ratio (z) = 0.17850 -0.23171
#
# Static dielectric constant tensor:
#      x y z
#    x 1.545490 0.000000 -0.138700 
#    y 0.000000 1.863950 0.000000 
#    z -0.138700 0.000000 1.766190 
# 
# From -- ./inp_files/91687.got.cif
#   From: 2010.05.17/outbox.cif.g08.bks.cpg/sg12_46_cif.got.tgz:91687.got - 2010.06.03 13:09:07.
