data_PCOD9170409
_publ_section_title
;
Structure prediction by ZEFSAII (Michael W. Deem and Ramdas Pophale) SiO2 
 PCOD9170409
Probable space group: C 2/M
;
_chemical_formula_sum "Si O2"
_cell_formula_units_Z 56
_cell_length_a 20.015365
_cell_length_b 17.029085
_cell_length_c 17.983216
_cell_angle_alpha 90.000000
_cell_angle_beta 157.080083
_cell_angle_gamma 90.000000
_cell_volume 2387.082170
_symmetry_space_group_name_H-M "C 2/M"
_symmetry_group_IT_number 12
_symmetry_cell_setting 'monoclinic'
loop_
_space_group_symop_operation_xyz
x,y,z
-x,y,-z
-x,-y,-z
x,-y,z
1/2+x,1/2+y,z
1/2-x,1/2+y,-z
1/2-x,1/2-y,-z
1/2+x,1/2-y,z
loop_
_atom_site_type_symbol
_atom_site_label
_atom_site_fract_x
_atom_site_fract_y
_atom_site_fract_z
Si Si1 0.795536 0.750126 0.772749
Si Si2 0.044070 0.907958 0.240096
Si Si3 0.785095 0.810364 0.470529
Si Si4 0.318967 0.094934 0.169903
Si Si5 0.809679 0.414315 0.844212
Si Si6 0.954414 0.411443 0.151878
Si Si7 0.318951 0.908217 0.389696
O O1 0.720410 0.734008 0.612867
O O2 0.728283 0.670409 0.743267
O O3 0.746148 0.841202 0.732895
O O4 0.000000 0.748105 0.000000
O O5 0.065308 0.862674 0.339838
O O6 0.205545 0.902170 0.349422
O O7 0.024368 0.000000 0.236952
O O8 0.877193 0.877481 0.024312
O O9 0.750000 0.750000 0.500000
O O10 0.621930 0.866769 0.298282
O O11 0.372200 0.122774 0.141607
O O12 0.484583 0.110576 0.389409
O O13 0.308084 0.000000 0.160136
O O14 0.732842 0.500000 0.743232
O O15 0.832651 0.414418 0.956249
O O16 0.000000 0.414619 0.000000
O O17 0.006880 0.500000 0.225266
O O18 0.303126 0.000000 0.348428
#
# Coordination Sequence:
#
# PCOD9170409 Si02
#       7
#     8   8   8   8   8   8   8
#     4  11  21  35  57  86 122 158 203 247 294 365
#     4  10  20  35  60  90 120 156 198 249 304 358
#     4  12  20  32  54  86 117 151 193 244 294 351
#     4   9  18  34  59  91 121 152 198 249 300 358
#     4   9  17  29  51  84 114 155 202 236 290 355
#     4  10  17  31  54  81 113 149 191 239 289 349
#     4  10  20  37  60  86 119 158 200 252 303 351
#
# _framework density 23.459602
#
# number of rings (size 3 to 8) (size 9 to 14) (size 15 to 20)
#    0.000    1.857    5.714    0.429    0.000    0.857 
#    0.000    2.857    0.000    3.429    0.000    8.000 
#    0.000    0.000    0.000    0.000    0.000    0.000 
#
# Total GULP energy -156094.416804 kJ/mol
# GULP energy per Si atom -5574.800600 kJ/mol
# Density = 2.340621 g / cm^3
# Si number density = 23.459602 Si / 1000 Ang^3
#
#
#
# Elastic Constant Matrix: (Units=GPa)
#
#
# Indices 1 2 3 4 5 6 
#
# 1 28.7429 19.7717 20.3006 -0.0002 -6.3843 -0.0011
# 2 19.7717 147.5758 59.7679 -0.0055 -17.6503 -0.0074
# 3 20.3006 59.7679 118.0971 -0.0048 -7.4646 -0.0070
# 4 -0.0002 -0.0055 -0.0048 22.6206 -0.0037 -32.1219
# 5 -6.3843 -17.6503 -7.4646 -0.0037 31.5311 -0.0054
# 6 -0.0011 -0.0074 -0.0070 -32.1219 -0.0054 5.3970
#
#
#
# Elastic Compliance Matrix: (Units=1/GPa)
#
#
# Indices 1 2 3 4 5 6 
#
# 1 0.041760 -0.002713 -0.005449 -0.000001 0.005647 0.000000
# 2 -0.002713 0.009175 -0.003946 -0.000002 0.003652 -0.000003
# 3 -0.005449 -0.003946 0.011362 -0.000002 -0.000622 -0.000002
# 4 -0.000001 -0.000002 -0.000002 -0.005933 -0.000009 -0.035309
# 5 0.005647 0.003652 -0.000622 -0.000009 0.034755 -0.000011
# 6 0.000000 -0.000003 -0.000002 -0.035309 -0.000011 -0.024865
#
#
# Mechanical properties :
#
#
# Convention : Reuss Voigt Hill
#
# Bulk Modulus (GPa) = 26.25944 54.89959 40.57951
# Shear Modulus (GPa) = 48.46738 24.88147 36.67442
#
# Velocity S-wave (km/s) = 4.55025 3.26023 3.95815
# Velocity P-wave (km/s) = 6.23090 6.13390 6.18259
#
# Compressibility (1/GPa) = 0.03808154
#
# Stress axis : x y z
#
# Youngs Moduli (GPa) = 23.94651 108.99709 88.01347
#
# Poissons Ratio (x) = 0.29569 0.47955
# Poissons Ratio (y) = 0.06496 0.34730
# Poissons Ratio (z) = 0.13047 0.43010
#
# Static dielectric constant tensor:
#      x y z
#    x 1.928480 0.000000 0.015060 
#    y 0.000000 1.954380 0.000000 
#    z 0.015060 0.000000 1.902680 
# 
# From -- ./inp_files/326044.got.cif
#   From: 2010.05.17/outbox.cif.g08.bks.cpg/sg12_164_cif.got.tgz:326044.got - 2010.06.03 13:09:07.
