data_PCOD9170281
_publ_section_title
;
Structure prediction by ZEFSAII (Michael W. Deem and Ramdas Pophale) SiO2 
 PCOD9170281
Probable space group: C 2/M
;
_chemical_formula_sum "Si O2"
_cell_formula_units_Z 48
_cell_length_a 23.472852
_cell_length_b 14.021271
_cell_length_c 9.082448
_cell_angle_alpha 90.000000
_cell_angle_beta 53.772183
_cell_angle_gamma 90.000000
_cell_volume 2411.314972
_symmetry_space_group_name_H-M "C 2/M"
_symmetry_group_IT_number 12
_symmetry_cell_setting 'monoclinic'
loop_
_space_group_symop_operation_xyz
x,y,z
-x,y,-z
-x,-y,-z
x,-y,z
1/2+x,1/2+y,z
1/2-x,1/2+y,-z
1/2-x,1/2-y,-z
1/2+x,1/2-y,z
loop_
_atom_site_type_symbol
_atom_site_label
_atom_site_fract_x
_atom_site_fract_y
_atom_site_fract_z
Si Si1 0.324250 0.897335 0.204801
Si Si2 0.330371 0.108805 0.550159
Si Si3 0.533915 0.396075 0.110279
Si Si4 0.448366 0.260138 0.444691
Si Si5 0.162039 0.107872 0.487975
Si Si6 0.826336 0.815227 0.199989
O O1 0.330959 0.897494 0.371731
O O2 0.240463 0.895420 0.305063
O O3 0.348284 0.792373 0.122399
O O4 0.353149 0.000000 0.106165
O O5 0.399184 0.168940 0.488834
O O6 0.255672 0.159509 0.704870
O O7 0.330623 0.000000 0.606332
O O8 0.520171 0.500000 0.202047
O O9 0.497811 0.305975 0.243226
O O10 0.500000 0.398346 0.000000
O O11 0.617524 0.382394 0.964615
O O12 0.500000 0.243177 0.500000
O O13 0.390729 0.344900 0.546334
O O14 0.164040 0.168437 0.637463
O O15 0.142326 0.000000 0.559433
#
# Coordination Sequence:
#
# PCOD9170281 Si02
#       6
#     8   8   8   8   8   8
#     4   9  16  28  56  89 112 140 186 241 287 326
#     4  10  19  35  59  83 108 151 202 236 271 333
#     4  11  22  36  58  88 119 148 182 235 295 341
#     4  12  24  38  54  82 119 160 187 229 283 341
#     4  10  17  30  54  83 111 143 184 233 282 335
#     4  11  17  34  60  88 114 139 188 247 288 324
#
# _framework density 19.906151000000001
#
# number of rings (size 3 to 8) (size 9 to 14) (size 15 to 20)
#    0.000    1.500    5.000    4.000    0.000    1.667 
#    0.000    1.667    0.000    3.000    0.000    0.000 
#    0.000    0.000    0.000    0.000    0.000    0.000 
#
# Total GULP energy -133710.617198 kJ/mol
# GULP energy per Si atom -5571.275717 kJ/mol
# Density = 1.986084 g / cm^3
# Si number density = 19.906151 Si / 1000 Ang^3
#
#
#
# Elastic Constant Matrix: (Units=GPa)
#
#
# Indices 1 2 3 4 5 6 
#
# 1 133.8110 44.9198 21.4755 0.0000 -10.1786 0.0000
# 2 44.9198 168.6870 16.1080 0.0000 -9.1092 0.0000
# 3 21.4755 16.1080 17.0121 0.0000 -13.9015 0.0000
# 4 0.0000 0.0000 0.0000 7.8323 0.0000 -7.3560
# 5 -10.1786 -9.1092 -13.9015 0.0000 11.5714 0.0000
# 6 0.0000 0.0000 0.0000 -7.3560 0.0000 -15.8141
#
#
#
# Elastic Compliance Matrix: (Units=1/GPa)
#
#
# Indices 1 2 3 4 5 6 
#
# 1 -0.003043 -0.004672 0.167875 0.000000 0.195324 0.000000
# 2 -0.004672 0.006009 0.039107 0.000000 0.047602 0.000000
# 3 0.167875 0.039107 -2.422740 0.000000 -2.732135 0.000000
# 4 0.000000 0.000000 0.000000 0.088857 0.000000 -0.041333
# 5 0.195324 0.047602 -2.732135 0.000000 -2.986578 0.000000
# 6 0.000000 0.000000 0.000000 -0.041333 0.000000 -0.044009
#
#
# Mechanical properties :
#
#
# Convention : Reuss Voigt Hill
#
# Bulk Modulus (GPa) = -0.49624 53.83517 26.66946
# Shear Modulus (GPa) = -0.77666 16.51837 7.87086
#
# Velocity S-wave (km/s) = -0.62531 2.88377 1.99062
# Velocity P-wave (km/s) = 0.87816 6.17992 4.32552
#
# Compressibility (1/GPa) = -2.01515513
#
# Stress axis : x y z
#
# Youngs Moduli (GPa) = -328.62445 166.42949 -0.41276
#
# Poissons Ratio (x) = 0.77764 0.06929
# Poissons Ratio (y) = -1.53549 0.01614
# Poissons Ratio (z) = 55.16779 -6.50864
#
# Static dielectric constant tensor:
#      x y z
#    x 1.798590 0.000000 -0.050390 
#    y 0.000000 1.786540 0.000000 
#    z -0.050390 0.000000 1.705420 
# 
# From -- ./inp_files/85672.got.cif
#   From: 2010.05.17/outbox.cif.g08.bks.cpg/sg12_43_cif.got.tgz:85672.got - 2010.06.03 13:09:07.
