data_PCOD9170947
_publ_section_title
;
Structure prediction by ZEFSAII (Michael W. Deem and Ramdas Pophale) SiO2 
 PCOD9170947
Probable space group: C 2/M
;
_chemical_formula_sum "Si O2"
_cell_formula_units_Z 28
_cell_length_a 16.687020
_cell_length_b 16.738737
_cell_length_c 9.485609
_cell_angle_alpha 90.000000
_cell_angle_beta 31.568776
_cell_angle_gamma 90.000000
_cell_volume 1387.079502
_symmetry_space_group_name_H-M "C 2/M"
_symmetry_group_IT_number 12
_symmetry_cell_setting 'monoclinic'
loop_
_space_group_symop_operation_xyz
x,y,z
-x,y,-z
-x,-y,-z
x,-y,z
1/2+x,1/2+y,z
1/2-x,1/2+y,-z
1/2-x,1/2-y,-z
1/2+x,1/2-y,z
loop_
_atom_site_type_symbol
_atom_site_label
_atom_site_fract_x
_atom_site_fract_y
_atom_site_fract_z
Si Si1 0.785536 0.723436 0.179942
Si Si2 0.491298 0.839456 0.362335
Si Si3 0.000000 0.147439 0.000000
Si Si4 0.792195 0.410628 0.410365
O O1 0.618796 0.762955 0.441649
O O2 0.803105 0.655937 0.273379
O O3 0.903333 0.794143 0.043502
O O4 0.844887 0.686505 0.945027
O O5 0.500000 0.882304 0.500000
O O6 0.407605 0.888057 0.363870
O O7 0.877283 0.097218 0.270363
O O8 0.819873 0.500000 0.317046
#
# Coordination Sequence:
#
# PCOD9170947 Si02
#       4
#     8   8   4   8
#     4  11  19  39  61  85 112 151 200 235 272 340
#     4  11  22  36  59  87 117 152 192 235 285 341
#     4  10  17  38  61  84 110 148 204 230 269 338
#     4  11  22  36  61  88 118 149 188 242 289 335
#
# _framework density 20.186299000000002
#
# number of rings (size 3 to 8) (size 9 to 14) (size 15 to 20)
#    0.000    1.143    5.714    3.000    0.000    2.857 
#    0.000    0.000    0.000    0.857    0.000    0.000 
#    0.000    0.000    0.000    0.000    0.000    0.000 
#
# Total GULP energy -78214.250149 kJ/mol
# GULP energy per Si atom -5586.732153 kJ/mol
# Density = 2.014035 g / cm^3
# Si number density = 20.186299 Si / 1000 Ang^3
#
#
#
# Elastic Constant Matrix: (Units=GPa)
#
#
# Indices 1 2 3 4 5 6 
#
# 1 58.2695 10.8048 6.2547 0.0001 7.5551 -0.0001
# 2 10.8048 76.2247 2.8759 0.0001 -7.8156 -0.0001
# 3 6.2547 2.8759 106.2574 0.0001 -0.8933 -0.0001
# 4 0.0001 0.0001 0.0001 0.4920 -0.0001 1.8055
# 5 7.5551 -7.8156 -0.8933 -0.0001 27.7996 0.0001
# 6 -0.0001 -0.0001 -0.0001 1.8055 0.0001 6.4629
#
#
#
# Elastic Compliance Matrix: (Units=1/GPa)
#
#
# Indices 1 2 3 4 5 6 
#
# 1 0.018652 -0.003220 -0.001061 0.000147 -0.006008 -0.000041
# 2 -0.003220 0.014076 -0.000151 0.000015 0.004828 -0.000004
# 3 -0.001061 -0.000151 0.009482 0.000106 0.000551 -0.000029
# 4 0.000147 0.000015 0.000106-80.563685 -0.000452 22.506637
# 5 -0.006008 0.004828 0.000551 -0.000452 0.038980 0.000126
# 6 -0.000041 -0.000004 -0.000029 22.506637 0.000126 -6.132826
#
#
# Mechanical properties :
#
#
# Convention : Reuss Voigt Hill
#
# Bulk Modulus (GPa) = 29.98849 31.18028 30.58438
# Shear Modulus (GPa) = -0.05774 21.67196 10.80711
#
# Velocity S-wave (km/s) = -0.16931 3.28013 2.31631
# Velocity P-wave (km/s) = 3.85356 5.46127 4.72628
#
# Compressibility (1/GPa) = 0.03334613
#
# Stress axis : x y z
#
# Youngs Moduli (GPa) = 53.61458 71.04192 105.45971
#
# Poissons Ratio (x) = 0.22875 0.11192
# Poissons Ratio (y) = 0.17263 0.01591
# Poissons Ratio (z) = 0.05690 0.01072
#
# Static dielectric constant tensor:
#      x y z
#    x 1.731510 0.000000 -0.005060 
#    y 0.000000 1.684450 0.000000 
#    z -0.005060 0.000000 1.739590 
# 
# From -- ./inp_files/36658.got.cif
#   From: 2010.05.17/outbox.cif.g08.bks.cpg/sg12_19_cif.got.tgz:36658.got - 2010.06.03 13:09:07.
