data_PCOD9170530
_publ_section_title
;
Structure prediction by ZEFSAII (Michael W. Deem and Ramdas Pophale) SiO2 
 PCOD9170530
Probable space group: C 2/M
;
_chemical_formula_sum "Si O2"
_cell_formula_units_Z 40
_cell_length_a 12.042706
_cell_length_b 15.862281
_cell_length_c 14.358393
_cell_angle_alpha 90.000000
_cell_angle_beta 141.264151
_cell_angle_gamma 90.000000
_cell_volume 1716.260143
_symmetry_space_group_name_H-M "C 2/M"
_symmetry_group_IT_number 12
_symmetry_cell_setting 'monoclinic'
loop_
_space_group_symop_operation_xyz
x,y,z
-x,y,-z
-x,-y,-z
x,-y,z
1/2+x,1/2+y,z
1/2-x,1/2+y,-z
1/2-x,1/2-y,-z
1/2+x,1/2-y,z
loop_
_atom_site_type_symbol
_atom_site_label
_atom_site_fract_x
_atom_site_fract_y
_atom_site_fract_z
Si Si1 0.330967 0.679053 0.322568
Si Si2 0.787411 0.000000 0.863225
Si Si3 0.315049 0.500000 0.593773
Si Si4 0.763021 0.000000 0.064428
Si Si5 0.714343 0.500000 0.640163
Si Si6 0.309626 0.361884 0.732958
Si Si7 0.178156 0.171975 0.895665
O O1 0.500000 0.677002 0.500000
O O2 0.236484 0.588755 0.279622
O O3 0.230312 0.763850 0.286042
O O4 0.386054 0.692471 0.250677
O O5 0.739481 0.915913 0.774113
O O6 0.000000 0.000000 0.000000
O O7 0.734197 0.000000 0.934154
O O8 0.534757 0.500000 0.752583
O O9 0.248030 0.500000 0.445171
O O10 0.248633 0.416364 0.603712
O O11 0.693124 0.092939 0.040997
O O12 0.500000 0.500000 0.500000
O O13 0.522483 0.364293 0.859786
O O14 0.250000 0.250000 0.000000
#
# Coordination Sequence:
#
# PCOD9170530 Si02
#       7
#     8   4   4   4   4   8   8
#     4  11  23  37  58  84 116 152 191 234 288 339
#     4  11  16  32  62  83 107 152 188 230 289 335
#     4   9  18  32  57  79 102 147 188 226 281 331
#     4  10  17  32  53  79 111 139 189 233 269 338
#     4  10  19  35  55  78 108 152 194 225 270 344
#     4  10  21  36  57  86 115 142 192 240 278 341
#     4  11  22  35  58  86 111 148 190 235 283 335
#
# _framework density 23.30649
#
# number of rings (size 3 to 8) (size 9 to 14) (size 15 to 20)
#    0.000    1.600    4.000    6.600    0.000    3.200 
#    0.000    3.000    0.000    4.800    0.000    0.000 
#    0.000    0.000    0.000    0.000    0.000    0.000 
#
# Total GULP energy -111405.570912 kJ/mol
# GULP energy per Si atom -5570.278546 kJ/mol
# Density = 2.325344 g / cm^3
# Si number density = 23.306490 Si / 1000 Ang^3
#
#
#
# Elastic Constant Matrix: (Units=GPa)
#
#
# Indices 1 2 3 4 5 6 
#
# 1 40.8707 20.6771 39.4556 0.0000 -35.5349 0.0001
# 2 20.6771 227.5853 45.1875 0.0000 -20.9806 0.0001
# 3 39.4556 45.1875 99.9941 -0.0001 -44.9661 0.0000
# 4 0.0000 0.0000 -0.0001 27.8528 0.0000 -1.1573
# 5 -35.5349 -20.9806 -44.9661 0.0000 48.4685 0.0001
# 6 0.0001 0.0001 0.0000 -1.1573 0.0001 26.4371
#
#
#
# Elastic Compliance Matrix: (Units=1/GPa)
#
#
# Indices 1 2 3 4 5 6 
#
# 1 0.071088 -0.000834 -0.007546 0.000000 0.044756 0.000000
# 2 -0.000834 0.004837 -0.002042 0.000000 -0.000412 0.000000
# 3 -0.007546 -0.002042 0.018901 0.000000 0.011118 0.000000
# 4 0.000000 0.000000 0.000000 0.035968 0.000000 0.001575
# 5 0.044756 -0.000412 0.011118 0.000000 0.063582 0.000000
# 6 0.000000 0.000000 0.000000 0.001575 0.000000 0.037895
#
#
# Mechanical properties :
#
#
# Convention : Reuss Voigt Hill
#
# Bulk Modulus (GPa) = 13.51719 64.34336 38.93028
# Shear Modulus (GPa) = 18.00010 38.09368 28.04689
#
# Velocity S-wave (km/s) = 2.78208 4.04724 3.47276
# Velocity P-wave (km/s) = 4.01651 7.03617 5.72887
#
# Compressibility (1/GPa) = 0.07397988
#
# Stress axis : x y z
#
# Youngs Moduli (GPa) = 14.06714 206.73025 52.90746
#
# Poissons Ratio (x) = 0.17247 0.39926
# Poissons Ratio (y) = 0.01174 0.10805
# Poissons Ratio (z) = 0.10616 0.42219
#
# Static dielectric constant tensor:
#      x y z
#    x 1.972990 0.000000 0.040640 
#    y 0.000000 2.048230 0.000000 
#    z 0.040640 0.000000 2.194040 
# 
# From -- ./inp_files/215111.got.cif
#   From: 2010.05.17/outbox.cif.g08.bks.cpg/sg12_108_cif.got.tgz:215111.got - 2010.06.03 13:09:07.
