data_PCOD9170642
_publ_section_title
;
Structure prediction by ZEFSAII (Michael W. Deem and Ramdas Pophale) SiO2 
 PCOD9170642
Probable space group: C 2/M
;
_chemical_formula_sum "Si O2"
_cell_formula_units_Z 48
_cell_length_a 14.161723
_cell_length_b 30.900103
_cell_length_c 11.244697
_cell_angle_alpha 90.000000
_cell_angle_beta 33.477883
_cell_angle_gamma 90.000000
_cell_volume 2714.312761
_symmetry_space_group_name_H-M "C 2/M"
_symmetry_group_IT_number 12
_symmetry_cell_setting 'monoclinic'
loop_
_space_group_symop_operation_xyz
x,y,z
-x,y,-z
-x,-y,-z
x,-y,z
1/2+x,1/2+y,z
1/2-x,1/2+y,-z
1/2-x,1/2-y,-z
1/2+x,1/2-y,z
loop_
_atom_site_type_symbol
_atom_site_label
_atom_site_fract_x
_atom_site_fract_y
_atom_site_fract_z
Si Si1 0.642220 0.546564 0.453909
Si Si2 0.000000 0.577542 0.000000
Si Si3 0.991996 0.783256 0.804488
Si Si4 0.400895 0.206880 0.725892
Si Si5 0.384162 0.850196 0.952362
Si Si6 0.000000 0.276322 0.000000
Si Si7 0.492105 0.637670 0.364843
O O1 0.500000 0.545791 0.500000
O O2 0.631825 0.500000 0.529154
O O3 0.603008 0.592375 0.557286
O O4 0.828317 0.550945 0.199149
O O5 0.981582 0.610344 0.908939
O O6 0.946409 0.751412 0.744231
O O7 0.074664 0.824486 0.652369
O O8 0.806922 0.795023 0.058238
O O9 0.082785 0.754810 0.812116
O O10 0.500000 0.204265 0.500000
O O11 0.460164 0.169193 0.753029
O O12 0.381804 0.809629 0.048759
O O13 0.193124 0.865703 0.126771
O O14 0.500000 0.647084 0.500000
#
# Coordination Sequence:
#
# PCOD9170642 Si02
#       7
#     8   4   8   8   8   4   8
#     4  10  20  33  53  80 107 134 165 209 264 325
#     4  11  17  34  53  78 110 134 167 204 263 319
#     4   9  18  30  48  66  99 139 176 214 258 297
#     4   9  17  32  46  66  97 139 182 216 249 295
#     4   9  18  31  50  69 104 140 170 213 253 296
#     4   9  18  32  41  70 104 130 179 216 236 293
#     4  10  17  33  51  70 100 139 167 205 263 312
#
# _framework density 17.684035000000002
#
# number of rings (size 3 to 8) (size 9 to 14) (size 15 to 20)
#    0.000    2.500    3.333    1.750    0.000    0.000 
#    3.000    2.500    0.000    0.000    0.000    0.583 
#    0.000    6.000    0.000    0.000    0.000    0.000 
#
# Total GULP energy -133611.480249 kJ/mol
# GULP energy per Si atom -5567.145010 kJ/mol
# Density = 1.764379 g / cm^3
# Si number density = 17.684035 Si / 1000 Ang^3
#
#
#
# Elastic Constant Matrix: (Units=GPa)
#
#
# Indices 1 2 3 4 5 6 
#
# 1 46.7519 20.7670 32.0077 0.0000 6.3527 0.0000
# 2 20.7670 114.9839 42.8837 0.0000 4.4328 0.0000
# 3 32.0077 42.8837 84.4144 0.0000 11.2541 0.0000
# 4 0.0000 0.0000 0.0000 21.5006 0.0000 5.1892
# 5 6.3527 4.4328 11.2541 0.0000 29.5689 0.0000
# 6 0.0000 0.0000 0.0000 5.1892 0.0000 9.1794
#
#
#
# Elastic Compliance Matrix: (Units=1/GPa)
#
#
# Indices 1 2 3 4 5 6 
#
# 1 0.029212 -0.001443 -0.010045 0.000000 -0.002236 0.000000
# 2 -0.001443 0.010808 -0.005023 0.000000 0.000602 0.000000
# 3 -0.010045 -0.005023 0.018771 0.000000 -0.004233 0.000000
# 4 0.000000 0.000000 0.000000 0.053859 0.000000 -0.030447
# 5 -0.002236 0.000602 -0.004233 0.000000 0.035821 0.000000
# 6 0.000000 0.000000 0.000000 -0.030447 0.000000 0.126152
#
#
# Mechanical properties :
#
#
# Convention : Reuss Voigt Hill
#
# Bulk Modulus (GPa) = 38.80861 48.60745 43.70803
# Shear Modulus (GPa) = 15.81100 22.08256 18.94678
#
# Velocity S-wave (km/s) = 2.99337 3.53757 3.27678
# Velocity P-wave (km/s) = 5.82582 6.65073 6.25189
#
# Compressibility (1/GPa) = 0.02576748
#
# Stress axis : x y z
#
# Youngs Moduli (GPa) = 34.23302 92.52508 53.27238
#
# Poissons Ratio (x) = 0.13355 0.53511
# Poissons Ratio (y) = 0.04941 0.26761
# Poissons Ratio (z) = 0.34387 0.46480
#
# Static dielectric constant tensor:
#      x y z
#    x 1.635560 0.000000 -0.029900 
#    y 0.000000 1.658040 0.000000 
#    z -0.029900 0.000000 1.630770 
# 
# From -- ./inp_files/150231.got.cif
#   From: 2010.05.17/outbox.cif.g08.bks.cpg/sg12_76_cif.got.tgz:150231.got - 2010.06.03 13:09:07.
