data_PCOD9170744
_publ_section_title
;
Structure prediction by ZEFSAII (Michael W. Deem and Ramdas Pophale) SiO2 
 PCOD9170744
Probable space group: C 2/M
;
_chemical_formula_sum "Si O2"
_cell_formula_units_Z 60
_cell_length_a 18.117048
_cell_length_b 17.341435
_cell_length_c 18.367296
_cell_angle_alpha 90.000000
_cell_angle_beta 139.808445
_cell_angle_gamma 90.000000
_cell_volume 3724.000331
_symmetry_space_group_name_H-M "C 2/M"
_symmetry_group_IT_number 12
_symmetry_cell_setting 'monoclinic'
loop_
_space_group_symop_operation_xyz
x,y,z
-x,y,-z
-x,-y,-z
x,-y,z
1/2+x,1/2+y,z
1/2-x,1/2+y,-z
1/2-x,1/2-y,-z
1/2+x,1/2-y,z
loop_
_atom_site_type_symbol
_atom_site_label
_atom_site_fract_x
_atom_site_fract_y
_atom_site_fract_z
Si Si1 0.708997 0.309418 0.742622
Si Si2 0.290615 0.590086 0.997094
Si Si3 0.069956 0.313005 0.878463
Si Si4 0.500000 0.337440 0.500000
Si Si5 0.381176 0.701478 0.948258
Si Si6 0.057906 0.164113 0.770298
Si Si7 0.337446 0.907680 0.720700
Si Si8 0.872365 0.090244 0.537093
O O1 0.602824 0.287925 0.610561
O O2 0.794675 0.240992 0.826603
O O3 0.648697 0.336501 0.772004
O O4 0.776678 0.374538 0.747922
O O5 0.269087 0.500000 0.974716
O O6 0.392810 0.607585 0.130955
O O7 0.179700 0.635226 0.942995
O O8 0.325529 0.629709 0.947662
O O9 0.055885 0.248641 0.804911
O O10 0.957579 0.364907 0.801783
O O11 0.093589 0.265582 0.970318
O O12 0.549001 0.391800 0.473903
O O13 0.500000 0.681220 0.000000
O O14 0.934169 0.138782 0.646807
O O15 0.253844 0.890502 0.588660
O O16 0.349230 0.000000 0.734636
O O17 0.875851 0.000000 0.557904
#
# Coordination Sequence:
#
# PCOD9170744 Si02
#       8
#     8   8   8   4   8   8   8   8
#     4  10  17  34  51  76 104 132 168 205 249 298
#     4  11  22  35  53  77 102 133 173 209 253 302
#     4  11  20  35  52  75 106 136 168 205 252 307
#     4   8  17  26  50  74 101 132 168 198 247 300
#     4  11  20  36  56  72 102 134 168 215 252 297
#     4  10  19  33  54  74 102 137 171 208 249 298
#     4  10  21  33  50  78 109 135 165 205 253 304
#     4   9  17  30  47  73 106 135 167 206 247 293
#
# _framework density 16.111706999999999
#
# number of rings (size 3 to 8) (size 9 to 14) (size 15 to 20)
#    0.000    1.867    4.000    1.800    0.000    4.533 
#    0.000    0.667    0.000    0.000    0.000    0.467 
#    0.000    0.000    0.000    0.000    0.000    0.000 
#
# Total GULP energy -167212.176987 kJ/mol
# GULP energy per Si atom -5573.739233 kJ/mol
# Density = 1.607504 g / cm^3
# Si number density = 16.111707 Si / 1000 Ang^3
#
#
#
# Elastic Constant Matrix: (Units=GPa)
#
#
# Indices 1 2 3 4 5 6 
#
# 1 75.2046 32.7788 25.2778 0.0000 7.3566 0.0000
# 2 32.7788 77.1629 40.0136 0.0000 -7.1236 0.0000
# 3 25.2778 40.0136 73.8397 0.0000 -3.2558 0.0000
# 4 0.0000 0.0000 0.0000 20.1049 0.0000 2.7661
# 5 7.3566 -7.1236 -3.2558 0.0000 15.9955 0.0000
# 6 0.0000 0.0000 0.0000 2.7661 0.0000 14.1454
#
#
#
# Elastic Compliance Matrix: (Units=1/GPa)
#
#
# Indices 1 2 3 4 5 6 
#
# 1 0.018850 -0.007708 -0.002835 0.000000 -0.012679 0.000000
# 2 -0.007708 0.021785 -0.008660 0.000000 0.011484 0.000000
# 3 -0.002835 -0.008660 0.019267 0.000000 0.001369 0.000000
# 4 0.000000 0.000000 0.000000 0.051114 0.000000 -0.009995
# 5 -0.012679 0.011484 0.001369 0.000000 0.073742 0.000000
# 6 0.000000 0.000000 0.000000 -0.009995 0.000000 0.072649
#
#
# Mechanical properties :
#
#
# Convention : Reuss Voigt Hill
#
# Bulk Modulus (GPa) = 46.52201 46.92752 46.72476
# Shear Modulus (GPa) = 16.50286 18.59162 17.54724
#
# Velocity S-wave (km/s) = 3.20391 3.40063 3.30373
# Velocity P-wave (km/s) = 6.52871 6.67897 6.60426
#
# Compressibility (1/GPa) = 0.02149520
#
# Stress axis : x y z
#
# Youngs Moduli (GPa) = 53.05102 45.90341 51.90292
#
# Poissons Ratio (x) = 0.35381 0.14715
# Poissons Ratio (y) = 0.40890 0.44949
# Poissons Ratio (z) = 0.15041 0.39753
#
# Static dielectric constant tensor:
#      x y z
#    x 1.532880 0.000000 0.002270 
#    y 0.000000 1.507560 0.000000 
#    z 0.002270 0.000000 1.566650 
# 
# From -- ./inp_files/278588.got.cif
#   From: 2010.05.17/outbox.cif.g08.bks.cpg/sg12_140_cif.got.tgz:278588.got - 2010.06.03 13:09:07.
