data_PCOD9170372
_publ_section_title
;
Structure prediction by ZEFSAII (Michael W. Deem and Ramdas Pophale) SiO2 
 PCOD9170372
Probable space group: C 2/M
;
_chemical_formula_sum "Si O2"
_cell_formula_units_Z 40
_cell_length_a 27.027240
_cell_length_b 9.651959
_cell_length_c 20.688976
_cell_angle_alpha 90.000000
_cell_angle_beta 162.971130
_cell_angle_gamma 90.000000
_cell_volume 1580.544113
_symmetry_space_group_name_H-M "C 2/M"
_symmetry_group_IT_number 12
_symmetry_cell_setting 'monoclinic'
loop_
_space_group_symop_operation_xyz
x,y,z
-x,y,-z
-x,-y,-z
x,-y,z
1/2+x,1/2+y,z
1/2-x,1/2+y,-z
1/2-x,1/2-y,-z
1/2+x,1/2-y,z
loop_
_atom_site_type_symbol
_atom_site_label
_atom_site_fract_x
_atom_site_fract_y
_atom_site_fract_z
Si Si1 0.048864 0.500000 0.159194
Si Si2 0.740051 0.000000 0.624755
Si Si3 0.692077 0.500000 0.656469
Si Si4 0.300974 0.000000 0.971897
Si Si5 0.064855 0.000000 0.784086
Si Si6 0.176177 0.223139 0.478598
Si Si7 0.173473 0.249819 0.730203
Si Si8 0.123686 0.000000 0.060074
O O1 0.170443 0.631137 0.300527
O O2 0.893412 0.500000 0.916574
O O3 0.968568 0.500000 0.132999
O O4 0.650562 0.861773 0.487566
O O5 0.781584 0.000000 0.752154
O O6 0.924170 0.000000 0.821157
O O7 0.565047 0.500000 0.438857
O O8 0.655296 0.639749 0.649421
O O9 0.214060 0.855687 0.839300
O O10 0.252689 0.000000 0.988355
O O11 0.995590 0.133986 0.735597
O O12 0.250000 0.250000 0.500000
O O13 0.320189 0.360216 0.904917
O O14 0.000000 0.331455 0.500000
#
# Coordination Sequence:
#
# PCOD9170372 Si02
#       8
#     4   4   4   4   4   8   8   4
#     4   9  21  38  65  90 117 150 189 246 296 349
#     4  11  22  38  54  82 121 150 196 238 284 351
#     4  10  17  33  60  94 115 142 190 238 296 340
#     4  10  19  36  62  92 113 150 196 241 290 340
#     4  11  21  38  65  93 113 149 195 250 288 345
#     4  11  24  42  61  80 112 163 207 242 288 336
#     4  10  17  31  51  82 128 154 172 211 292 370
#     4  11  23  32  52  89 126 155 172 230 300 365
#
# _framework density 25.307741
#
# number of rings (size 3 to 8) (size 9 to 14) (size 15 to 20)
#    0.000    1.800    2.000    5.700    0.000    3.200 
#    0.000    1.000    0.000    1.200    0.000    0.000 
#    0.000    0.000    0.000    0.000    0.000    0.000 
#
# Total GULP energy -111674.230554 kJ/mol
# GULP energy per Si atom -5583.711528 kJ/mol
# Density = 2.525014 g / cm^3
# Si number density = 25.307741 Si / 1000 Ang^3
#
#
#
# Elastic Constant Matrix: (Units=GPa)
#
#
# Indices 1 2 3 4 5 6 
#
# 1 84.6286 32.8699 22.0485 0.0002 17.5390 -0.0002
# 2 32.8699 158.5879 29.3455 -0.0009 7.9963 0.0000
# 3 22.0485 29.3455 64.7532 -0.0001 12.4759 -0.0004
# 4 0.0002 -0.0009 -0.0001 35.5666 -0.0003 -9.9796
# 5 17.5390 7.9963 12.4759 -0.0003 53.4417 -0.0002
# 6 -0.0002 0.0000 -0.0004 -9.9796 -0.0002 32.7378
#
#
#
# Elastic Compliance Matrix: (Units=1/GPa)
#
#
# Indices 1 2 3 4 5 6 
#
# 1 0.014236 -0.002184 -0.003163 0.000000 -0.003607 0.000000
# 2 -0.002184 0.007223 -0.002576 0.000000 0.000237 0.000000
# 3 -0.003163 -0.002576 0.018233 0.000000 -0.002833 0.000000
# 4 0.000000 0.000000 0.000000 0.030746 0.000000 0.009372
# 5 -0.003607 0.000237 -0.002833 0.000000 0.020522 0.000000
# 6 0.000000 0.000000 0.000000 0.009372 0.000000 0.033403
#
#
# Mechanical properties :
#
#
# Convention : Reuss Voigt Hill
#
# Bulk Modulus (GPa) = 41.93164 52.94416 47.43790
# Shear Modulus (GPa) = 33.74825 39.26293 36.50559
#
# Velocity S-wave (km/s) = 3.65569 3.94308 3.80210
# Velocity P-wave (km/s) = 5.86715 6.45725 6.16926
#
# Compressibility (1/GPa) = 0.02384834
#
# Stress axis : x y z
#
# Youngs Moduli (GPa) = 70.24447 138.44971 54.84478
#
# Poissons Ratio (x) = 0.30231 0.17347
# Poissons Ratio (y) = 0.15338 0.14125
# Poissons Ratio (z) = 0.22217 0.35658
#
# Static dielectric constant tensor:
#      x y z
#    x 2.153170 0.000000 0.054100 
#    y 0.000000 2.026130 0.000000 
#    z 0.054100 0.000000 2.117590 
# 
# From -- ./inp_files/353158.got.cif
#   From: 2010.05.17/outbox.cif.g08.bks.cpg/sg12_177_cif.got.tgz:353158.got - 2010.06.03 13:09:07.
