data_PCOD9170678
_publ_section_title
;
Structure prediction by ZEFSAII (Michael W. Deem and Ramdas Pophale) SiO2 
 PCOD9170678
Probable space group: C 2/M
;
_chemical_formula_sum "Si O2"
_cell_formula_units_Z 52
_cell_length_a 17.524815
_cell_length_b 14.859534
_cell_length_c 21.766265
_cell_angle_alpha 90.000000
_cell_angle_beta 149.826684
_cell_angle_gamma 90.000000
_cell_volume 2848.918631
_symmetry_space_group_name_H-M "C 2/M"
_symmetry_group_IT_number 12
_symmetry_cell_setting 'monoclinic'
loop_
_space_group_symop_operation_xyz
x,y,z
-x,y,-z
-x,-y,-z
x,-y,z
1/2+x,1/2+y,z
1/2-x,1/2+y,-z
1/2-x,1/2-y,-z
1/2+x,1/2-y,z
loop_
_atom_site_type_symbol
_atom_site_label
_atom_site_fract_x
_atom_site_fract_y
_atom_site_fract_z
Si Si1 0.765155 0.397791 0.395594
Si Si2 0.500000 0.666627 0.000000
Si Si3 0.149951 0.241862 0.224711
Si Si4 0.801489 0.149676 0.516988
Si Si5 0.034406 0.738017 0.616384
Si Si6 0.679025 0.899331 0.812519
Si Si7 0.546961 0.899466 0.241406
O O1 0.803374 0.500000 0.404613
O O2 0.657921 0.348768 0.271501
O O3 0.690831 0.398380 0.412031
O O4 0.911103 0.331818 0.502801
O O5 0.561199 0.724262 0.099972
O O6 0.642054 0.610066 0.073297
O O7 0.324995 0.261778 0.328985
O O8 0.080472 0.321533 0.216567
O O9 0.750000 0.250000 0.500000
O O10 0.674156 0.108924 0.383869
O O11 0.952529 0.172097 0.583969
O O12 0.103459 0.679309 0.720143
O O13 0.613914 0.888866 0.835745
O O14 0.630385 0.000000 0.757999
O O15 0.555543 0.000000 0.221077
#
# Coordination Sequence:
#
# PCOD9170678 Si02
#       7
#     8   4   8   8   8   8   8
#     4  11  20  32  56  87 115 146 183 226 284 345
#     4  10  25  40  57  76 112 154 188 244 290 320
#     4  11  23  39  55  82 115 150 194 234 279 332
#     4  10  17  33  55  84 119 144 176 224 279 344
#     4  10  19  33  56  82 120 152 181 229 277 336
#     4  10  19  35  59  85 112 147 190 231 282 342
#     4  11  21  37  61  85 112 151 190 230 282 341
#
# _framework density 18.252538999999999
#
# number of rings (size 3 to 8) (size 9 to 14) (size 15 to 20)
#    0.000    1.538    6.154    1.615    0.000    4.923 
#    0.000    2.692    0.000    0.000    0.000    0.000 
#    0.000    0.000    0.000    0.000    0.000    0.000 
#
# Total GULP energy -144953.466252 kJ/mol
# GULP energy per Si atom -5575.133317 kJ/mol
# Density = 1.821100 g / cm^3
# Si number density = 18.252539 Si / 1000 Ang^3
#
#
#
# Elastic Constant Matrix: (Units=GPa)
#
#
# Indices 1 2 3 4 5 6 
#
# 1 120.4879 47.6211 40.9307 0.0001 6.0268 0.0003
# 2 47.6211 65.5417 28.7584 -0.0008 5.5734 -0.0004
# 3 40.9307 28.7584 77.4659 -0.0002 -8.0280 -0.0008
# 4 0.0001 -0.0008 -0.0002 8.4249 0.0002 6.6018
# 5 6.0268 5.5734 -8.0280 0.0002 30.9398 -0.0002
# 6 0.0003 -0.0004 -0.0008 6.6018 -0.0002 14.4333
#
#
#
# Elastic Compliance Matrix: (Units=1/GPa)
#
#
# Indices 1 2 3 4 5 6 
#
# 1 0.012698 -0.007146 -0.004295 -0.000001 -0.002301 0.000000
# 2 -0.007146 0.023093 -0.005225 0.000003 -0.004123 -0.000001
# 3 -0.004295 -0.005225 0.017780 -0.000001 0.006391 0.000002
# 4 -0.000001 0.000003 -0.000001 0.185005 -0.000003 -0.084621
# 5 -0.002301 -0.004123 0.006391 -0.000003 0.035170 0.000002
# 6 0.000000 -0.000001 0.000002 -0.084621 0.000002 0.107989
#
#
# Mechanical properties :
#
#
# Convention : Reuss Voigt Hill
#
# Bulk Modulus (GPa) = 49.40690 55.34623 52.37657
# Shear Modulus (GPa) = 11.85362 20.50529 16.17946
#
# Velocity S-wave (km/s) = 2.55114 3.35538 2.98051
# Velocity P-wave (km/s) = 5.98373 6.73794 6.37200
#
# Compressibility (1/GPa) = 0.02024009
#
# Stress axis : x y z
#
# Youngs Moduli (GPa) = 78.75279 43.30397 56.24290
#
# Poissons Ratio (x) = 0.30945 0.24155
# Poissons Ratio (y) = 0.56276 0.29384
# Poissons Ratio (z) = 0.33823 0.22624
#
# Static dielectric constant tensor:
#      x y z
#    x 1.691930 0.000000 0.010170 
#    y 0.000000 1.618340 0.000000 
#    z 0.010170 0.000000 1.641220 
# 
# From -- ./inp_files/316541.got.cif
#   From: 2010.05.17/outbox.cif.g08.bks.cpg/sg12_159_cif.got.tgz:316541.got - 2010.06.03 13:09:07.
