data_PCOD9170262
_publ_section_title
;
Structure prediction by ZEFSAII (Michael W. Deem and Ramdas Pophale) SiO2 
 PCOD9170262
Probable space group: C 2/M
;
_chemical_formula_sum "Si O2"
_cell_formula_units_Z 48
_cell_length_a 28.249831
_cell_length_b 8.680151
_cell_length_c 11.632371
_cell_angle_alpha 90.000000
_cell_angle_beta 44.138398
_cell_angle_gamma 90.000000
_cell_volume 1986.398336
_symmetry_space_group_name_H-M "C 2/M"
_symmetry_group_IT_number 12
_symmetry_cell_setting 'monoclinic'
loop_
_space_group_symop_operation_xyz
x,y,z
-x,y,-z
-x,-y,-z
x,-y,z
1/2+x,1/2+y,z
1/2-x,1/2+y,-z
1/2-x,1/2-y,-z
1/2+x,1/2-y,z
loop_
_atom_site_type_symbol
_atom_site_label
_atom_site_fract_x
_atom_site_fract_y
_atom_site_fract_z
Si Si1 0.167661 0.177190 0.106388
Si Si2 0.040028 0.683387 0.767490
Si Si3 0.686339 0.818669 0.544593
Si Si4 0.062595 0.816560 0.478227
Si Si5 0.260539 0.177332 0.219257
Si Si6 0.397105 0.324529 0.020428
O O1 0.129867 0.226242 0.287733
O O2 0.276945 0.221964 0.059044
O O3 0.108015 0.172849 0.111027
O O4 0.190349 0.000000 0.075745
O O5 0.033891 0.500000 0.795552
O O6 0.110460 0.741573 0.701343
O O7 0.050353 0.720986 0.614557
O O8 0.970491 0.763632 0.926143
O O9 0.750000 0.750000 0.500000
O O10 0.705429 0.779870 0.379259
O O11 0.685433 0.000000 0.563055
O O12 0.000000 0.797161 0.500000
O O13 0.067674 0.000000 0.497773
O O14 0.242726 0.000000 0.261874
O O15 0.333030 0.213710 0.155497
O O16 0.383955 0.500000 0.081699
#
# Coordination Sequence:
#
# PCOD9170262 Si02
#       6
#     8   8   8   8   8   8
#     4   8  16  30  52  81 115 155 190 225 273 330
#     4  11  23  36  56  89 122 151 193 247 290 338
#     4  11  25  45  64  84 113 150 194 244 299 350
#     4  10  17  30  53  83 120 160 195 230 279 339
#     4  10  19  35  61  88 115 151 192 237 291 347
#     4   9  17  33  57  83 117 155 190 230 281 336
#
# _framework density 24.164337
#
# number of rings (size 3 to 8) (size 9 to 14) (size 15 to 20)
#    1.000    1.167    1.667    2.500    0.000    3.667 
#    0.000    1.667    0.000    5.000    0.000    0.000 
#    0.000    0.000    0.000    0.000    0.000    0.000 
#
# Total GULP energy -134162.966154 kJ/mol
# GULP energy per Si atom -5590.123590 kJ/mol
# Density = 2.410934 g / cm^3
# Si number density = 24.164337 Si / 1000 Ang^3
#
#
#
# Elastic Constant Matrix: (Units=GPa)
#
#
# Indices 1 2 3 4 5 6 
#
# 1 101.2743 15.7770 22.4341 0.0000 -14.6282 0.0000
# 2 15.7770 57.6841 12.8911 0.0000 -12.7113 0.0000
# 3 22.4341 12.8911 120.6761 0.0000 -16.9436 0.0000
# 4 0.0000 0.0000 0.0000 33.4444 0.0000 -0.9965
# 5 -14.6282 -12.7113 -16.9436 0.0000 44.7841 0.0000
# 6 0.0000 0.0000 0.0000 -0.9965 0.0000 25.7825
#
#
#
# Elastic Compliance Matrix: (Units=1/GPa)
#
#
# Indices 1 2 3 4 5 6 
#
# 1 0.010874 -0.002120 -0.001458 0.000000 0.002398 0.000000
# 2 -0.002120 0.019103 -0.001038 0.000000 0.004337 0.000000
# 3 -0.001458 -0.001038 0.009041 0.000000 0.002650 0.000000
# 4 0.000000 0.000000 0.000000 0.029935 0.000000 0.001157
# 5 0.002398 0.004337 0.002650 0.000000 0.025346 0.000000
# 6 0.000000 0.000000 0.000000 0.001157 0.000000 0.038831
#
#
# Mechanical properties :
#
#
# Convention : Reuss Voigt Hill
#
# Bulk Modulus (GPa) = 33.57235 42.42656 37.99945
# Shear Modulus (GPa) = 32.83220 36.03769 34.43494
#
# Velocity S-wave (km/s) = 3.69006 3.86600 3.77905
# Velocity P-wave (km/s) = 5.66382 6.12565 5.89926
#
# Compressibility (1/GPa) = 0.02978642
#
# Stress axis : x y z
#
# Youngs Moduli (GPa) = 91.96370 52.34728 110.61196
#
# Poissons Ratio (x) = 0.11096 0.16131
# Poissons Ratio (y) = 0.19493 0.11478
# Poissons Ratio (z) = 0.13411 0.05432
#
# Static dielectric constant tensor:
#      x y z
#    x 2.112190 0.000000 -0.000140 
#    y 0.000000 1.818040 0.000000 
#    z -0.000140 0.000000 1.968310 
# 
# From -- ./inp_files/248820.got.cif
#   From: 2010.05.17/outbox.cif.g08.bks.cpg/sg12_125_cif.got.tgz:248820.got - 2010.06.03 13:09:07.
