data_PCOD9170738
_publ_section_title
;
Structure prediction by ZEFSAII (Michael W. Deem and Ramdas Pophale) SiO2 
 PCOD9170738
Probable space group: C 2/M
;
_chemical_formula_sum "Si O2"
_cell_formula_units_Z 44
_cell_length_a 14.338880
_cell_length_b 23.558058
_cell_length_c 9.206147
_cell_angle_alpha 90.000000
_cell_angle_beta 52.704276
_cell_angle_gamma 90.000000
_cell_volume 2473.904993
_symmetry_space_group_name_H-M "C 2/M"
_symmetry_group_IT_number 12
_symmetry_cell_setting 'monoclinic'
loop_
_space_group_symop_operation_xyz
x,y,z
-x,y,-z
-x,-y,-z
x,-y,z
1/2+x,1/2+y,z
1/2-x,1/2+y,-z
1/2-x,1/2-y,-z
1/2+x,1/2-y,z
loop_
_atom_site_type_symbol
_atom_site_label
_atom_site_fract_x
_atom_site_fract_y
_atom_site_fract_z
Si Si1 0.634544 0.158165 0.338576
Si Si2 0.020618 0.937171 0.652876
Si Si3 0.671214 0.672802 0.607779
Si Si4 0.136923 0.788395 0.332884
Si Si5 0.181971 0.124320 0.034796
Si Si6 0.500000 0.687314 0.000000
O O1 0.500000 0.146180 0.500000
O O2 0.714112 0.157909 0.408262
O O3 0.645591 0.223601 0.273540
O O4 0.693339 0.119172 0.159883
O O5 0.101941 0.885908 0.633670
O O6 0.000000 0.931755 0.500000
O O7 0.891950 0.929467 0.844330
O O8 0.067932 0.000000 0.639880
O O9 0.698729 0.702537 0.429412
O O10 0.578819 0.710653 0.791710
O O11 0.181397 0.832102 0.170595
O O12 0.000000 0.799005 0.500000
O O13 0.099598 0.152013 0.988716
#
# Coordination Sequence:
#
# PCOD9170738 Si02
#       6
#     8   8   8   8   8   4
#     4  10  23  33  48  71 108 153 187 202 243 319
#     4  10  18  32  61  90 103 124 165 228 295 319
#     4  10  17  34  50  76 111 136 169 225 264 310
#     4  11  17  31  54  77 106 142 175 216 271 313
#     4  10  17  34  50  76 111 136 169 225 264 310
#     4   8  16  26  49  72  96 140 158 212 275 300
#
# _framework density 17.785646
#
# number of rings (size 3 to 8) (size 9 to 14) (size 15 to 20)
#    0.000    2.000    5.455    1.091    0.000    0.000 
#    0.000   17.273    0.000    2.182    0.000    2.545 
#    0.000    0.000    0.000    0.000    0.000    0.000 
#
# Total GULP energy -122471.764876 kJ/mol
# GULP energy per Si atom -5566.898403 kJ/mol
# Density = 1.774516 g / cm^3
# Si number density = 17.785646 Si / 1000 Ang^3
#
#
#
# Elastic Constant Matrix: (Units=GPa)
#
#
# Indices 1 2 3 4 5 6 
#
# 1 78.8434 0.6803 39.8589 0.0000 -6.5112 0.0000
# 2 0.6803 45.3484 3.3991 0.0000 -6.5695 0.0000
# 3 39.8589 3.3991 86.8984 0.0000 -4.4666 0.0000
# 4 0.0000 0.0000 0.0000 4.6672 0.0000 -3.8757
# 5 -6.5112 -6.5695 -4.4666 0.0000 32.9321 0.0000
# 6 0.0000 0.0000 0.0000 -3.8757 0.0000 11.9331
#
#
#
# Elastic Compliance Matrix: (Units=1/GPa)
#
#
# Indices 1 2 3 4 5 6 
#
# 1 0.016699 0.000665 -0.007562 0.000000 0.002409 0.000000
# 2 0.000665 0.022772 -0.000962 0.000000 0.004544 0.000000
# 3 -0.007562 -0.000962 0.015032 0.000000 0.000352 0.000000
# 4 0.000000 0.000000 0.000000 0.293390 0.000000 0.095288
# 5 0.002409 0.004544 0.000352 0.000000 0.031796 0.000000
# 6 0.000000 0.000000 0.000000 0.095288 0.000000 0.114749
#
#
# Mechanical properties :
#
#
# Convention : Reuss Voigt Hill
#
# Bulk Modulus (GPa) = 25.78305 33.21855 29.50080
# Shear Modulus (GPa) = 9.55869 21.04994 15.30432
#
# Velocity S-wave (km/s) = 2.32079 3.44399 2.93659
# Velocity P-wave (km/s) = 4.65934 5.87643 5.30292
#
# Compressibility (1/GPa) = 0.03878517
#
# Stress axis : x y z
#
# Youngs Moduli (GPa) = 59.88207 43.91381 66.52480
#
# Poissons Ratio (x) = -0.02921 0.50306
# Poissons Ratio (y) = -0.03984 0.06402
# Poissons Ratio (z) = 0.45283 0.04226
#
# Static dielectric constant tensor:
#      x y z
#    x 1.633130 0.000000 0.003440 
#    y 0.000000 1.614240 0.000000 
#    z 0.003440 0.000000 1.674490 
# 
# From -- ./inp_files/66423.got.cif
#   From: 2010.05.17/outbox.cif.g08.bks.cpg/sg12_34_cif.got.tgz:66423.got - 2010.06.03 13:09:07.
