data_PCOD9170794
_publ_section_title
;
Structure prediction by ZEFSAII (Michael W. Deem and Ramdas Pophale) SiO2 
 PCOD9170794
Probable space group: C 2/M
;
_chemical_formula_sum "Si O2"
_cell_formula_units_Z 56
_cell_length_a 21.031536
_cell_length_b 17.036316
_cell_length_c 20.707137
_cell_angle_alpha 90.000000
_cell_angle_beta 20.455394
_cell_angle_gamma 90.000000
_cell_volume 2592.905247
_symmetry_space_group_name_H-M "C 2/M"
_symmetry_group_IT_number 12
_symmetry_cell_setting 'monoclinic'
loop_
_space_group_symop_operation_xyz
x,y,z
-x,y,-z
-x,-y,-z
x,-y,z
1/2+x,1/2+y,z
1/2-x,1/2+y,-z
1/2-x,1/2-y,-z
1/2+x,1/2-y,z
loop_
_atom_site_type_symbol
_atom_site_label
_atom_site_fract_x
_atom_site_fract_y
_atom_site_fract_z
Si Si1 0.046678 0.298068 0.558306
Si Si2 0.122324 0.589316 0.194603
Si Si3 0.724322 0.088124 0.844285
Si Si4 0.446583 0.636497 0.378124
Si Si5 0.460314 0.868322 0.210209
Si Si6 0.909178 0.200669 0.884602
Si Si7 0.288272 0.748235 0.211315
O O1 0.045866 0.228120 0.610292
O O2 0.209830 0.280538 0.354144
O O3 0.036827 0.377529 0.608117
O O4 0.859203 0.289024 0.696812
O O5 0.162458 0.500000 0.169903
O O6 0.063692 0.599478 0.175361
O O7 0.297977 0.644538 0.037716
O O8 0.730639 0.157779 0.785512
O O9 0.899884 0.096446 0.724200
O O10 0.715323 0.000000 0.826280
O O11 0.557920 0.104299 0.052031
O O12 0.247809 0.606564 0.584796
O O13 0.490437 0.642413 0.260691
O O14 0.474125 0.772946 0.199590
O O15 0.750000 0.250000 0.000000
O O16 0.500000 0.728806 0.000000
#
# Coordination Sequence:
#
# PCOD9170794 Si02
#       7
#     8   8   8   8   8   8   8
#     4  10  21  40  63  87 113 152 208 253 295 352
#     4  11  22  38  60  92 130 160 190 243 311 363
#     4  11  23  39  59  90 130 161 193 246 308 361
#     4  11  20  36  61  89 123 169 204 239 284 351
#     4  11  21  36  62  93 127 166 204 235 283 365
#     4  10  17  34  58  85 121 166 202 235 276 347
#     4  10  22  43  65  85 109 154 213 261 297 351
#
# _framework density 21.597394999999999
#
# number of rings (size 3 to 8) (size 9 to 14) (size 15 to 20)
#    0.000    1.429    5.714    2.571    0.000    1.429 
#    0.000    7.143    0.000    0.857    0.000    0.000 
#    0.000    0.000    0.000    0.000    0.000    0.000 
#
# Total GULP energy -156405.828885 kJ/mol
# GULP energy per Si atom -5585.922460 kJ/mol
# Density = 2.154824 g / cm^3
# Si number density = 21.597395 Si / 1000 Ang^3
#
#
#
# Elastic Constant Matrix: (Units=GPa)
#
#
# Indices 1 2 3 4 5 6 
#
# 1 21.0962 15.3937 19.4350 -0.0034 7.0545 0.0011
# 2 15.3937 91.7735 26.8046 -0.0031 22.4253 -0.0047
# 3 19.4350 26.8046 145.8053 -0.0275 6.7621 0.0046
# 4 -0.0034 -0.0031 -0.0275 -3.6540 0.0048 10.3186
# 5 7.0545 22.4253 6.7621 0.0048 44.8852 -0.0009
# 6 0.0011 -0.0047 0.0046 10.3186 -0.0009 5.5724
#
#
#
# Elastic Compliance Matrix: (Units=1/GPa)
#
#
# Indices 1 2 3 4 5 6 
#
# 1 0.060149 -0.006970 -0.006505 -0.000007 -0.004991 0.000000
# 2 -0.006970 0.013832 -0.001354 0.000006 -0.005611 0.000003
# 3 -0.006505 -0.001354 0.007951 -0.000011 0.000501 0.000014
# 4 -0.000007 0.000006 -0.000011 -0.043934 0.000006 0.081355
# 5 -0.004991 -0.005611 0.000501 0.000006 0.025792 -0.000012
# 6 0.000000 0.000003 0.000014 0.081355 -0.000012 0.028809
#
#
# Mechanical properties :
#
#
# Convention : Reuss Voigt Hill
#
# Bulk Modulus (GPa) = 19.12908 42.43794 30.78351
# Shear Modulus (GPa) = 35.79594 22.49684 29.14639
#
# Velocity S-wave (km/s) = 4.07556 3.23096 3.67758
# Velocity P-wave (km/s) = 5.56985 5.79750 5.68481
#
# Compressibility (1/GPa) = 0.05227643
#
# Stress axis : x y z
#
# Youngs Moduli (GPa) = 16.62527 72.29638 125.76830
#
# Poissons Ratio (x) = 0.50388 0.81810
# Poissons Ratio (y) = 0.11587 0.17024
# Poissons Ratio (z) = 0.10814 0.09786
#
# Static dielectric constant tensor:
#      x y z
#    x 1.862390 -0.000010 0.020940 
#    y -0.000010 1.771120 0.000010 
#    z 0.020940 0.000010 1.846760 
# 
# From -- ./inp_files/322641.got.cif
#   From: 2010.05.17/outbox.cif.g08.bks.cpg/sg12_162_cif.got.tgz:322641.got - 2010.06.03 13:09:07.
