data_PCOD9170266
_publ_section_title
;
Structure prediction by ZEFSAII (Michael W. Deem and Ramdas Pophale) SiO2 
 PCOD9170266
Probable space group: C 2/M
;
_chemical_formula_sum "Si O2"
_cell_formula_units_Z 58
_cell_length_a 24.348809
_cell_length_b 7.236868
_cell_length_c 12.799220
_cell_angle_alpha 90.000000
_cell_angle_beta 82.433561
_cell_angle_gamma 90.000000
_cell_volume 2235.701649
_symmetry_space_group_name_H-M "C 2/M"
_symmetry_group_IT_number 12
_symmetry_cell_setting 'monoclinic'
loop_
_space_group_symop_operation_xyz
x,y,z
-x,y,-z
-x,-y,-z
x,-y,z
1/2+x,1/2+y,z
1/2-x,1/2+y,-z
1/2-x,1/2-y,-z
1/2+x,1/2-y,z
loop_
_atom_site_type_symbol
_atom_site_label
_atom_site_fract_x
_atom_site_fract_y
_atom_site_fract_z
Si Si1 0.637193 0.725152 0.509404
Si Si2 0.500044 0.720868 0.162383
Si Si3 0.718029 0.276486 0.659985
Si Si4 0.000000 0.500000 0.000000
Si Si5 0.814350 0.779092 0.952833
Si Si6 0.480373 0.275983 0.392182
Si Si7 0.338367 0.708194 0.716382
Si Si8 0.873545 0.776288 0.145620
O O1 0.638382 0.500000 0.504808
O O2 0.692562 0.784267 0.555456
O O3 0.584416 0.773982 0.592706
O O4 0.630456 0.790659 0.392015
O O5 0.506740 0.500000 0.148267
O O6 0.511791 0.776242 0.278846
O O7 0.435600 0.779144 0.159457
O O8 0.528703 0.838005 0.066892
O O9 0.722741 0.500000 0.658258
O O10 0.776167 0.200609 0.684291
O O11 0.671696 0.225122 0.756837
O O12 0.831463 0.709052 0.833436
O O13 0.821152 0.000000 0.945356
O O14 0.750000 0.750000 0.000000
O O15 0.851011 0.711927 0.039943
O O16 0.500000 0.212337 0.500000
O O17 0.482994 0.500000 0.391597
O O18 0.360908 0.500000 0.724257
O O19 0.875127 0.000000 0.144420
#
# Coordination Sequence:
#
# PCOD9170266 Si02
#       8
#     8   8   8   2   8   8   8   8
#     4   9  17  31  51  79 112 146 189 243 295 359
#     4  10  21  43  69  94 127 164 207 260 321 383
#     4  10  17  30  54  75 108 150 191 234 285 352
#     4  12  26  44  66 102 128 160 210 270 316 378
#     4  10  19  32  49  74 109 153 197 240 289 348
#     4   9  17  34  64  94 116 154 210 256 314 388
#     4  10  20  31  46  78 115 146 187 245 297 344
#     4   9  17  33  57  79 107 155 202 240 291 366
#
# _framework density 25.942637000000001
#
# number of rings (size 3 to 8) (size 9 to 14) (size 15 to 20)
#    0.000    2.345    2.759    0.621    0.000    0.000 
#    4.966    0.345    1.517    0.000    0.000    0.000 
#    0.000    0.000    0.000    0.000    0.000    0.000 
#
# Total GULP energy -161940.905866 kJ/mol
# GULP energy per Si atom -5584.169168 kJ/mol
# Density = 2.588359 g / cm^3
# Si number density = 25.942637 Si / 1000 Ang^3
#
#
#
# Elastic Constant Matrix: (Units=GPa)
#
#
# Indices 1 2 3 4 5 6 
#
# 1 49.2825 -7.5856 8.6415 0.0000 7.0346 0.0000
# 2 -7.5856 138.4232 23.5859 0.0000 0.6645 0.0000
# 3 8.6415 23.5859 219.3869 0.0000 10.5399 0.0000
# 4 0.0000 0.0000 0.0000 -36.3110 0.0000 -3.8089
# 5 7.0346 0.6645 10.5399 0.0000 42.5563 0.0000
# 6 0.0000 0.0000 0.0000 -3.8089 0.0000 -10.4064
#
#
#
# Elastic Compliance Matrix: (Units=1/GPa)
#
#
# Indices 1 2 3 4 5 6 
#
# 1 0.021108 0.001311 -0.000813 0.000000 -0.003308 0.000000
# 2 0.001311 0.007441 -0.000846 0.000000 -0.000123 0.000000
# 3 -0.000813 -0.000846 0.004730 0.000000 -0.001024 0.000000
# 4 0.000000 0.000000 0.000000 -0.028639 0.000000 0.010482
# 5 -0.003308 -0.000123 -0.001024 0.000000 0.024301 0.000000
# 6 0.000000 0.000000 0.000000 0.010482 0.000000 -0.099931
#
#
# Mechanical properties :
#
#
# Convention : Reuss Voigt Hill
#
# Bulk Modulus (GPa) = 30.69075 50.70845 40.69960
# Shear Modulus (GPa) = -84.12644 24.66448 -29.73098
#
# Velocity S-wave (km/s) = -5.70073 3.08674 -3.38898
# Velocity P-wave (km/s) = 5.61027 5.68267 0.63939
#
# Compressibility (1/GPa) = 0.03258311
#
# Stress axis : x y z
#
# Youngs Moduli (GPa) = 47.37570 134.39482 211.40284
#
# Poissons Ratio (x) = -0.17622 0.17197
# Poissons Ratio (y) = -0.06212 0.17877
# Poissons Ratio (z) = 0.03854 0.11365
#
# Static dielectric constant tensor:
#      x y z
#    x 2.044710 0.000000 -0.057780 
#    y 0.000000 2.061950 0.000000 
#    z -0.057780 0.000000 2.084300 
# 
# From -- ./inp_files/186640.got.cif
#   From: 2010.05.17/outbox.cif.g08.bks.cpg/sg12_94_cif.got.tgz:186640.got - 2010.06.03 13:09:07.
