data_PCOD9170578
_publ_section_title
;
Structure prediction by ZEFSAII (Michael W. Deem and Ramdas Pophale) SiO2 
 PCOD9170578
Probable space group: C 2/M
;
_chemical_formula_sum "Si O2"
_cell_formula_units_Z 44
_cell_length_a 20.297689
_cell_length_b 15.459523
_cell_length_c 7.413528
_cell_angle_alpha 90.000000
_cell_angle_beta 132.847183
_cell_angle_gamma 90.000000
_cell_volume 1705.581039
_symmetry_space_group_name_H-M "C 2/M"
_symmetry_group_IT_number 12
_symmetry_cell_setting 'monoclinic'
loop_
_space_group_symop_operation_xyz
x,y,z
-x,y,-z
-x,-y,-z
x,-y,z
1/2+x,1/2+y,z
1/2-x,1/2+y,-z
1/2-x,1/2-y,-z
1/2+x,1/2-y,z
loop_
_atom_site_type_symbol
_atom_site_label
_atom_site_fract_x
_atom_site_fract_y
_atom_site_fract_z
Si Si1 0.000000 0.688159 0.500000
Si Si2 0.073117 0.188256 0.889424
Si Si3 0.851596 0.000000 0.517175
Si Si4 0.362857 0.692738 0.610649
Si Si5 0.892120 0.500000 0.830977
Si Si6 0.951408 0.000000 0.217418
Si Si7 0.709653 0.000000 0.968874
Si Si8 0.850519 0.369732 0.445762
O O1 0.077514 0.748483 0.729497
O O2 0.045301 0.634428 0.426847
O O3 0.965035 0.185382 0.723314
O O4 0.121536 0.221294 0.155527
O O5 0.099407 0.089128 0.907515
O O6 0.824984 0.904482 0.536990
O O7 0.959087 0.000000 0.740471
O O8 0.808852 0.000000 0.238481
O O9 0.318119 0.771999 0.422509
O O10 0.855200 0.500000 0.970658
O O11 0.853843 0.420259 0.640252
O O12 0.000000 0.500000 0.000000
O O13 0.000000 0.000000 0.500000
O O14 0.694404 0.080436 0.805025
#
# Coordination Sequence:
#
# PCOD9170578 Si02
#       8
#     4   8   4   8   4   4   4   8
#     4  10  18  32  60  94 124 152 196 261 322 365
#     4   9  17  29  55  92 129 154 200 253 307 364
#     4  10  22  41  61  87 128 177 205 241 312 372
#     4   9  19  35  60  89 125 164 201 255 306 372
#     4  11  24  41  69  91 117 160 212 275 325 359
#     4  10  17  32  56  95 128 163 205 250 296 368
#     4  11  25  45  63  84 130 166 211 266 303 378
#     4  10  23  39  61  96 121 158 211 257 319 374
#
# _framework density 25.79766
#
# number of rings (size 3 to 8) (size 9 to 14) (size 15 to 20)
#    0.000    2.182    0.909    1.636    7.636    4.364 
#    0.000    4.545    0.000    0.000    0.000    0.000 
#    0.000    0.000    0.000    0.000    0.000    0.000 
#
# Total GULP energy -122904.686788 kJ/mol
# GULP energy per Si atom -5586.576672 kJ/mol
# Density = 2.573894 g / cm^3
# Si number density = 25.797660 Si / 1000 Ang^3
#
#
#
# Elastic Constant Matrix: (Units=GPa)
#
#
# Indices 1 2 3 4 5 6 
#
# 1 133.2260 37.4189 43.0364 0.0000 2.3260 0.0000
# 2 37.4189 163.7139 63.7147 0.0000 -21.1270 0.0000
# 3 43.0364 63.7147 137.5848 0.0000 -45.4875 0.0000
# 4 0.0000 0.0000 0.0000 14.9106 0.0000 -9.9175
# 5 2.3260 -21.1270 -45.4875 0.0000 41.4670 0.0000
# 6 0.0000 0.0000 0.0000 -9.9175 0.0000 -16.5477
#
#
#
# Elastic Compliance Matrix: (Units=1/GPa)
#
#
# Indices 1 2 3 4 5 6 
#
# 1 0.009337 -0.001219 -0.004290 0.000000 -0.005851 0.000000
# 2 -0.001219 0.007610 -0.002884 0.000000 0.000782 0.000000
# 3 -0.004290 -0.002884 0.014968 0.000000 0.015191 0.000000
# 4 0.000000 0.000000 0.000000 0.047951 0.000000 -0.028739
# 5 -0.005851 0.000782 0.015191 0.000000 0.041505 0.000000
# 6 0.000000 0.000000 0.000000 -0.028739 0.000000 -0.043207
#
#
# Mechanical properties :
#
#
# Convention : Reuss Voigt Hill
#
# Bulk Modulus (GPa) = 66.10726 80.31829 73.21278
# Shear Modulus (GPa) = 50.00236 27.32295 38.66265
#
# Velocity S-wave (km/s) = 4.40733 3.25795 3.87549
# Velocity P-wave (km/s) = 7.18195 6.73453 6.96183
#
# Compressibility (1/GPa) = 0.01512693
#
# Stress axis : x y z
#
# Youngs Moduli (GPa) = 107.10550 131.39942 66.80811
#
# Poissons Ratio (x) = 0.16023 0.28663
# Poissons Ratio (y) = 0.13060 0.19271
# Poissons Ratio (z) = 0.45951 0.37902
#
# Static dielectric constant tensor:
#      x y z
#    x 2.140680 0.000000 -0.007390 
#    y 0.000000 2.079910 0.000000 
#    z -0.007390 0.000000 1.954380 
# 
# From -- ./inp_files/86068.got.cif
#   From: 2010.05.17/outbox.cif.g08.bks.cpg/sg12_44_cif.got.tgz:86068.got - 2010.06.03 13:09:07.
