data_PCOD9170111
_publ_section_title
;
Structure prediction by ZEFSAII (Michael W. Deem and Ramdas Pophale) SiO2 
 PCOD9170111
Probable space group: C 2/M
;
_chemical_formula_sum "Si O2"
_cell_formula_units_Z 44
_cell_length_a 19.733738
_cell_length_b 19.552593
_cell_length_c 17.663476
_cell_angle_alpha 90.000000
_cell_angle_beta 158.657127
_cell_angle_gamma 90.000000
_cell_volume 2480.444841
_symmetry_space_group_name_H-M "C 2/M"
_symmetry_group_IT_number 12
_symmetry_cell_setting 'monoclinic'
loop_
_space_group_symop_operation_xyz
x,y,z
-x,y,-z
-x,-y,-z
x,-y,z
1/2+x,1/2+y,z
1/2-x,1/2+y,-z
1/2-x,1/2-y,-z
1/2+x,1/2-y,z
loop_
_atom_site_type_symbol
_atom_site_label
_atom_site_fract_x
_atom_site_fract_y
_atom_site_fract_z
Si Si1 0.674698 0.000000 0.424457
Si Si2 0.205692 0.346301 0.135158
Si Si3 0.091534 0.000000 0.484824
Si Si4 0.645068 0.645903 0.559019
Si Si5 0.265924 0.350437 0.527184
Si Si6 0.440429 0.756895 0.151626
Si Si7 0.345492 0.000000 0.968453
O O1 0.720265 0.926672 0.508446
O O2 0.808546 0.000000 0.490901
O O3 0.469883 0.000000 0.173823
O O4 0.221840 0.321892 0.239275
O O5 0.424632 0.340109 0.337074
O O6 0.126552 0.424442 0.040733
O O7 0.099324 0.297460 0.966777
O O8 0.153172 0.066552 0.592248
O O9 0.873641 0.000000 0.243650
O O10 0.703412 0.649779 0.532650
O O11 0.451911 0.314253 0.751146
O O12 0.087999 0.301804 0.353749
O O13 0.250000 0.750000 0.000000
#
# Coordination Sequence:
#
# PCOD9170111 Si02
#       7
#     4   8   4   8   8   8   4
#     4  10  18  32  49  74  94 129 172 203 234 288
#     4  10  18  30  51  70 103 137 169 200 238 284
#     4   8  17  28  44  68 106 128 162 199 227 268
#     4   9  17  31  47  74  98 134 169 203 230 286
#     4  10  21  34  51  71 100 132 170 205 243 289
#     4  11  21  35  48  67  99 140 166 204 246 288
#     4  10  17  30  46  70 100 141 165 191 235 276
#
# _framework density 17.738752999999999
#
# number of rings (size 3 to 8) (size 9 to 14) (size 15 to 20)
#    0.000    2.182    3.636    0.545    0.000    2.909 
#    0.000    1.818    0.000    0.000    0.000    0.000 
#    0.000   16.000    0.000    1.818    0.000    0.000 
#
# Total GULP energy -122490.273400 kJ/mol
# GULP energy per Si atom -5567.739700 kJ/mol
# Density = 1.769838 g / cm^3
# Si number density = 17.738753 Si / 1000 Ang^3
#
#
#
# Elastic Constant Matrix: (Units=GPa)
#
#
# Indices 1 2 3 4 5 6 
#
# 1 40.4927 11.4919 13.3417 -0.0003 5.7180 0.0000
# 2 11.4919 77.4739 64.9467 0.0024 -3.8017 0.0000
# 3 13.3417 64.9467 91.4049 -0.0026 0.7964 -0.0002
# 4 -0.0003 0.0024 -0.0026 29.2182 -0.0004 2.8502
# 5 5.7180 -3.8017 0.7964 -0.0004 29.4298 0.0001
# 6 0.0000 0.0000 -0.0002 2.8502 0.0001 6.6133
#
#
#
# Elastic Compliance Matrix: (Units=1/GPa)
#
#
# Indices 1 2 3 4 5 6 
#
# 1 0.026871 -0.002491 -0.002105 0.000000 -0.005486 0.000000
# 2 -0.002491 0.032827 -0.023008 -0.000005 0.005347 0.000001
# 3 -0.002105 -0.023008 0.027624 0.000004 -0.003311 -0.000001
# 4 0.000000 -0.000005 0.000004 0.035727 0.000000 -0.015398
# 5 -0.005486 0.005347 -0.003311 0.000000 0.035825 0.000000
# 6 0.000000 0.000001 -0.000001 -0.015398 0.000000 0.157847
#
#
# Mechanical properties :
#
#
# Convention : Reuss Voigt Hill
#
# Bulk Modulus (GPa) = 31.13737 43.21467 37.17602
# Shear Modulus (GPa) = 13.06733 21.02502 17.04617
#
# Velocity S-wave (km/s) = 2.71708 3.44649 3.10329
# Velocity P-wave (km/s) = 5.23782 6.34448 5.81752
#
# Compressibility (1/GPa) = 0.03211575
#
# Stress axis : x y z
#
# Youngs Moduli (GPa) = 37.21522 30.46275 36.19996
#
# Poissons Ratio (x) = 0.07587 0.07619
# Poissons Ratio (y) = 0.09269 0.83288
# Poissons Ratio (z) = 0.07832 0.70088
#
# Static dielectric constant tensor:
#      x y z
#    x 3.165190 0.000070 -1.990280 
#    y 0.000070 1.688630 -0.000090 
#    z -1.990280 -0.000090 4.311450 
# 
# From -- ./inp_files/285737.got.cif
#   From: 2010.05.17/outbox.cif.g08.bks.cpg/sg12_143_cif.got.tgz:285737.got - 2010.06.03 13:09:07.
