data_PCOD9170673
_publ_section_title
;
Structure prediction by ZEFSAII (Michael W. Deem and Ramdas Pophale) SiO2 
 PCOD9170673
Probable space group: C 2/M
;
_chemical_formula_sum "Si O2"
_cell_formula_units_Z 48
_cell_length_a 18.319507
_cell_length_b 12.797369
_cell_length_c 14.083015
_cell_angle_alpha 90.000000
_cell_angle_beta 49.730262
_cell_angle_gamma 90.000000
_cell_volume 2519.186121
_symmetry_space_group_name_H-M "C 2/M"
_symmetry_group_IT_number 12
_symmetry_cell_setting 'monoclinic'
loop_
_space_group_symop_operation_xyz
x,y,z
-x,y,-z
-x,-y,-z
x,-y,z
1/2+x,1/2+y,z
1/2-x,1/2+y,-z
1/2-x,1/2-y,-z
1/2+x,1/2-y,z
loop_
_atom_site_type_symbol
_atom_site_label
_atom_site_fract_x
_atom_site_fract_y
_atom_site_fract_z
Si Si1 0.919911 0.000000 0.940998
Si Si2 0.542744 0.877395 0.153486
Si Si3 0.211841 0.676558 0.396779
Si Si4 0.142707 0.625371 0.269443
Si Si5 0.820302 0.620809 0.357843
Si Si6 0.679217 0.710878 0.979690
Si Si7 0.863149 0.000000 0.212869
O O1 0.873555 0.105975 0.942934
O O2 0.032493 0.000000 0.827804
O O3 0.892078 0.000000 0.076971
O O4 0.574306 0.851083 0.236831
O O5 0.430130 0.863343 0.234534
O O6 0.566580 0.000000 0.119629
O O7 0.601698 0.801945 0.033965
O O8 0.127075 0.658733 0.391440
O O9 0.181043 0.642713 0.528040
O O10 0.250530 0.794662 0.369444
O O11 0.299801 0.599148 0.296208
O O12 0.154158 0.500000 0.259019
O O13 0.245727 0.679517 0.163957
O O14 0.793833 0.500000 0.362803
O O15 0.750000 0.750000 0.000000
#
# Coordination Sequence:
#
# PCOD9170673 Si02
#       7
#     4   8   8   8   8   8   4
#     4  11  20  32  52  83 103 129 167 223 258 293
#     4   9  20  34  52  77 107 135 169 212 255 306
#     4  11  19  34  57  77 101 136 173 212 259 305
#     4  10  17  33  55  79 103 129 171 220 258 295
#     4  10  21  36  52  76 105 138 170 209 257 308
#     4  10  18  31  53  73 107 134 163 207 259 305
#     4  11  20  32  56  78 102 125 175 223 258 296
#
# _framework density 19.053771999999999
#
# number of rings (size 3 to 8) (size 9 to 14) (size 15 to 20)
#    0.000    1.833    4.167    1.000    1.167    0.667 
#    0.000    3.333    1.833    2.000    0.000    2.333 
#    0.000    0.000    0.000    0.000    0.000    0.000 
#
# Total GULP energy -133719.031206 kJ/mol
# GULP energy per Si atom -5571.626300 kJ/mol
# Density = 1.901040 g / cm^3
# Si number density = 19.053772 Si / 1000 Ang^3
#
#
#
# Elastic Constant Matrix: (Units=GPa)
#
#
# Indices 1 2 3 4 5 6 
#
# 1 31.3147 15.1073 -6.8428 0.0000 -1.6557 0.0000
# 2 15.1073 105.0200 9.4581 0.0000 -10.2475 0.0000
# 3 -6.8428 9.4581 17.2962 0.0000 -7.0909 0.0000
# 4 0.0000 0.0000 0.0000 20.0875 0.0000 -3.3360
# 5 -1.6557 -10.2475 -7.0909 0.0000 23.6242 0.0000
# 6 0.0000 0.0000 0.0000 -3.3360 0.0000 24.9152
#
#
#
# Elastic Compliance Matrix: (Units=1/GPa)
#
#
# Indices 1 2 3 4 5 6 
#
# 1 0.040772 -0.007280 0.022793 0.000000 0.006541 0.000000
# 2 -0.007280 0.011515 -0.008368 0.000000 0.001973 0.000000
# 3 0.022793 -0.008368 0.080480 0.000000 0.022124 0.000000
# 4 0.000000 0.000000 0.000000 0.050914 0.000000 0.006817
# 5 0.006541 0.001973 0.022124 0.000000 0.050284 0.000000
# 6 0.000000 0.000000 0.000000 0.006817 0.000000 0.041049
#
#
# Mechanical properties :
#
#
# Convention : Reuss Voigt Hill
#
# Bulk Modulus (GPa) = 6.80005 21.00845 13.90425
# Shear Modulus (GPa) = 16.14238 22.78592 19.46415
#
# Velocity S-wave (km/s) = 2.91383 3.46189 3.19962
# Velocity P-wave (km/s) = 3.85968 5.19898 4.57857
#
# Compressibility (1/GPa) = 0.14705772
#
# Stress axis : x y z
#
# Youngs Moduli (GPa) = 24.52643 86.84066 12.42552
#
# Poissons Ratio (x) = 0.63217 -0.28321
# Poissons Ratio (y) = 0.17854 0.10398
# Poissons Ratio (z) = -0.55903 0.72669
#
# Static dielectric constant tensor:
#      x y z
#    x 1.683710 0.000000 0.031660 
#    y 0.000000 1.651750 0.000000 
#    z 0.031660 0.000000 1.737220 
# 
# From -- ./inp_files/282511.got.cif
#   From: 2010.05.17/outbox.cif.g08.bks.cpg/sg12_142_cif.got.tgz:282511.got - 2010.06.03 13:09:07.
