data_PCOD9170447
_publ_section_title
;
Structure prediction by ZEFSAII (Michael W. Deem and Ramdas Pophale) SiO2 
 PCOD9170447
Probable space group: C 2/M
;
_chemical_formula_sum "Si O2"
_cell_formula_units_Z 44
_cell_length_a 28.813635
_cell_length_b 15.268784
_cell_length_c 10.987253
_cell_angle_alpha 90.000000
_cell_angle_beta 25.695430
_cell_angle_gamma 90.000000
_cell_volume 2095.888099
_symmetry_space_group_name_H-M "C 2/M"
_symmetry_group_IT_number 12
_symmetry_cell_setting 'monoclinic'
loop_
_space_group_symop_operation_xyz
x,y,z
-x,y,-z
-x,-y,-z
x,-y,z
1/2+x,1/2+y,z
1/2-x,1/2+y,-z
1/2-x,1/2-y,-z
1/2+x,1/2-y,z
loop_
_atom_site_type_symbol
_atom_site_label
_atom_site_fract_x
_atom_site_fract_y
_atom_site_fract_z
Si Si1 0.320121 0.000000 0.471002
Si Si2 0.582679 0.829160 0.051987
Si Si3 0.370191 0.159917 0.694253
Si Si4 0.346408 0.688790 0.931986
Si Si5 0.000000 0.354559 0.000000
Si Si6 0.772031 0.500000 0.320162
Si Si7 0.146481 0.000000 0.091511
Si Si8 0.257564 0.000000 0.084302
O O1 0.251208 0.000000 0.756092
O O2 0.401284 0.082298 0.271896
O O3 0.242491 0.000000 0.534366
O O4 0.481786 0.861853 0.369330
O O5 0.640699 0.750030 0.982308
O O6 0.657633 0.912319 0.855714
O O7 0.537348 0.801112 0.028314
O O8 0.385038 0.252205 0.727540
O O9 0.328846 0.086351 0.886439
O O10 0.276643 0.170710 0.815718
O O11 0.402553 0.595198 0.817517
O O12 0.712673 0.500000 0.328125
O O13 0.173735 0.000000 0.171104
#
# Coordination Sequence:
#
# PCOD9170447 Si02
#       8
#     4   8   8   8   4   4   4   4
#     4   9  18  36  52  79 113 143 168 219 279 343
#     4  11  20  35  55  82 115 140 174 221 277 328
#     4  10  20  34  53  84 111 139 172 225 278 321
#     4  10  21  34  55  78 107 143 188 220 261 322
#     4   9  18  32  56  83 110 136 170 217 284 349
#     4  10  20  31  58  89 112 134 168 215 297 351
#     4  10  21  38  54  71 110 153 189 224 257 299
#     4  10  17  31  57  83 111 131 166 225 287 331
#
# _framework density 20.993487999999999
#
# number of rings (size 3 to 8) (size 9 to 14) (size 15 to 20)
#    0.000    2.000    1.818    3.818    0.000    0.727 
#    0.000   10.000    0.000    0.545    0.000    0.000 
#    0.000    0.000    0.000    0.000    0.000    0.000 
#
# Total GULP energy -122694.009603 kJ/mol
# GULP energy per Si atom -5577.000436 kJ/mol
# Density = 2.094571 g / cm^3
# Si number density = 20.993488 Si / 1000 Ang^3
#
#
#
# Elastic Constant Matrix: (Units=GPa)
#
#
# Indices 1 2 3 4 5 6 
#
# 1 157.2661 34.8324 3.4001 0.0000 12.9241 0.0000
# 2 34.8324 125.6109 -9.0438 0.0000 2.4467 0.0000
# 3 3.4001 -9.0438 31.6291 0.0000 1.6350 0.0000
# 4 0.0000 0.0000 0.0000 -3.2471 0.0000 25.3771
# 5 12.9241 2.4467 1.6350 0.0000 17.2041 0.0000
# 6 0.0000 0.0000 0.0000 25.3771 0.0000 -15.1136
#
#
#
# Elastic Compliance Matrix: (Units=1/GPa)
#
#
# Indices 1 2 3 4 5 6 
#
# 1 0.007237 -0.001987 -0.001085 0.000000 -0.005051 0.000000
# 2 -0.001987 0.008707 0.002703 0.000000 -0.000003 0.000000
# 3 -0.001085 0.002703 0.032644 0.000000 -0.002672 0.000000
# 4 0.000000 0.000000 0.000000 0.025404 0.000000 0.042656
# 5 -0.005051 -0.000003 -0.002672 0.000000 0.062175 0.000000
# 6 0.000000 0.000000 0.000000 0.042656 0.000000 0.005458
#
#
# Mechanical properties :
#
#
# Convention : Reuss Voigt Hill
#
# Bulk Modulus (GPa) = 20.89806 41.43152 31.16479
# Shear Modulus (GPa) = 31.58317 18.78984 25.18650
#
# Velocity S-wave (km/s) = 3.88290 2.99495 3.46747
# Velocity P-wave (km/s) = 5.48441 5.63364 5.55953
#
# Compressibility (1/GPa) = 0.04785133
#
# Stress axis : x y z
#
# Youngs Moduli (GPa) = 138.17455 114.85444 30.63338
#
# Poissons Ratio (x) = 0.22817 0.03324
# Poissons Ratio (y) = 0.27450 -0.08281
# Poissons Ratio (z) = 0.14991 -0.31048
#
# Static dielectric constant tensor:
#      x y z
#    x 1.827020 0.000000 -0.004160 
#    y 0.000000 1.764520 0.000000 
#    z -0.004160 0.000000 1.760580 
# 
# From -- ./inp_files/189156.got.cif
#   From: 2010.05.17/outbox.cif.g08.bks.cpg/sg12_95_cif.got.tgz:189156.got - 2010.06.03 13:09:07.
