data_PCOD9170075
_publ_section_title
;
Structure prediction by ZEFSAII (Michael W. Deem and Ramdas Pophale) SiO2 
 PCOD9170075
Probable space group: C 2/M
;
_chemical_formula_sum "Si O2"
_cell_formula_units_Z 64
_cell_length_a 20.873348
_cell_length_b 15.074131
_cell_length_c 30.673241
_cell_angle_alpha 90.000000
_cell_angle_beta 21.474350
_cell_angle_gamma 90.000000
_cell_volume 3533.178679
_symmetry_space_group_name_H-M "C 2/M"
_symmetry_group_IT_number 12
_symmetry_cell_setting 'monoclinic'
loop_
_space_group_symop_operation_xyz
x,y,z
-x,y,-z
-x,-y,-z
x,-y,z
1/2+x,1/2+y,z
1/2-x,1/2+y,-z
1/2-x,1/2-y,-z
1/2+x,1/2-y,z
loop_
_atom_site_type_symbol
_atom_site_label
_atom_site_fract_x
_atom_site_fract_y
_atom_site_fract_z
Si Si1 0.737505 0.396221 0.744947
Si Si2 0.308394 0.256457 0.912750
Si Si3 0.038321 0.757192 0.924966
Si Si4 0.395690 0.402284 0.495580
Si Si5 0.072126 0.285880 0.503097
Si Si6 0.558373 0.098806 0.767836
Si Si7 0.194320 0.401087 0.775651
Si Si8 0.405264 0.603592 0.261538
O O1 0.767087 0.500000 0.734432
O O2 0.635611 0.345901 0.847441
O O3 0.625107 0.388180 0.771416
O O4 0.918028 0.345099 0.620801
O O5 0.441484 0.174564 0.820751
O O6 0.417963 0.346495 0.837811
O O7 0.250000 0.250000 0.000000
O O8 0.142933 0.250764 0.986450
O O9 0.158192 0.674711 0.833335
O O10 0.000000 0.755766 0.000000
O O11 0.360358 0.500000 0.495300
O O12 0.379935 0.296560 0.495561
O O13 0.254070 0.404185 0.624205
O O14 0.605407 0.403898 0.367820
O O15 0.241708 0.345334 0.386441
O O16 0.000000 0.256630 0.500000
O O17 0.578776 0.117887 0.806112
O O18 0.482677 0.000000 0.810200
O O19 0.152039 0.500000 0.818688
O O20 0.404470 0.500000 0.273121
#
# Coordination Sequence:
#
# PCOD9170075 Si02
#       8
#     8   8   8   8   8   8   8   8
#     4  10  20  36  58  84 114 151 192 237 283 332
#     4  12  22  37  58  82 112 153 192 232 283 331
#     4  12  26  41  56  80 114 156 197 232 278 334
#     4  10  18  28  53  91 122 145 177 230 295 344
#     4  10  17  29  54  86 121 144 178 232 293 341
#     4  10  19  32  56  90 118 142 179 235 291 338
#     4  10  19  34  57  85 116 149 184 230 286 341
#     4  10  20  34  57  89 118 145 184 238 289 336
#
# _framework density 18.114000000000001
#
# number of rings (size 3 to 8) (size 9 to 14) (size 15 to 20)
#    0.000    1.500    5.000    1.500    0.000    6.250 
#    0.000    0.000    0.000    3.000    0.000    3.500 
#    0.000    0.000    0.000    0.000    0.000    0.000 
#
# Total GULP energy -178195.083640 kJ/mol
# GULP energy per Si atom -5568.596364 kJ/mol
# Density = 1.807277 g / cm^3
# Si number density = 18.114000 Si / 1000 Ang^3
#
#
#
# Elastic Constant Matrix: (Units=GPa)
#
#
# Indices 1 2 3 4 5 6 
#
# 1 50.4646 26.0197 37.6813 -0.0029 3.6507 -0.0007
# 2 26.0197 139.1506 50.9396 -0.0107 2.9051 0.0035
# 3 37.6813 50.9396 95.7430 -0.0622 -0.2556 -0.0099
# 4 -0.0029 -0.0107 -0.0622 15.3669 0.0101 0.9534
# 5 3.6507 2.9051 -0.2556 0.0101 5.9622 -0.0143
# 6 -0.0007 0.0035 -0.0099 0.9534 -0.0143 7.1314
#
#
#
# Elastic Compliance Matrix: (Units=1/GPa)
#
#
# Indices 1 2 3 4 5 6 
#
# 1 0.030189 -0.001109 -0.011341 -0.000026 -0.018431 -0.000045
# 2 -0.001109 0.009091 -0.004411 -0.000008 -0.003940 -0.000018
# 3 -0.011341 -0.004411 0.017281 0.000056 0.009834 0.000037
# 4 -0.000026 -0.000008 0.000056 0.065619 -0.000109 -0.008773
# 5 -0.018431 -0.003940 0.009834 -0.000109 0.181350 0.000392
# 6 -0.000045 -0.000018 0.000037 -0.008773 0.000392 0.141399
#
#
# Mechanical properties :
#
#
# Convention : Reuss Voigt Hill
#
# Bulk Modulus (GPa) = 43.78260 57.18216 50.48238
# Shear Modulus (GPa) = 10.28251 17.07328 13.67790
#
# Velocity S-wave (km/s) = 2.38514 3.07342 2.75089
# Velocity P-wave (km/s) = 5.63988 6.65064 6.16601
#
# Compressibility (1/GPa) = 0.02284013
#
# Stress axis : x y z
#
# Youngs Moduli (GPa) = 33.12487 110.00209 57.86692
#
# Poissons Ratio (x) = 0.12195 0.65625
# Poissons Ratio (y) = 0.03672 0.25524
# Poissons Ratio (z) = 0.37566 0.48521
#
# Static dielectric constant tensor:
#      x y z
#    x 1.590400 0.000000 -0.006680 
#    y 0.000000 1.682420 0.000010 
#    z -0.006680 0.000010 1.623490 
# 
# From -- ./inp_files/381460.got.cif
#   From: 2010.05.17/outbox.cif.g08.bks.cpg/sg12_191_cif.got.tgz:381460.got - 2010.06.03 13:09:07.
