data_PCOD9170456
_publ_section_title
;
Structure prediction by ZEFSAII (Michael W. Deem and Ramdas Pophale) SiO2 
 PCOD9170456
Probable space group: C 2/M
;
_chemical_formula_sum "Si O2"
_cell_formula_units_Z 52
_cell_length_a 19.494574
_cell_length_b 10.960659
_cell_length_c 12.099708
_cell_angle_alpha 90.000000
_cell_angle_beta 65.784813
_cell_angle_gamma 90.000000
_cell_volume 2357.901106
_symmetry_space_group_name_H-M "C 2/M"
_symmetry_group_IT_number 12
_symmetry_cell_setting 'monoclinic'
loop_
_space_group_symop_operation_xyz
x,y,z
-x,y,-z
-x,-y,-z
x,-y,z
1/2+x,1/2+y,z
1/2-x,1/2+y,-z
1/2-x,1/2-y,-z
1/2+x,1/2-y,z
loop_
_atom_site_type_symbol
_atom_site_label
_atom_site_fract_x
_atom_site_fract_y
_atom_site_fract_z
Si Si1 0.578319 0.857598 0.005322
Si Si2 0.209775 0.000000 0.867141
Si Si3 0.114550 0.223478 0.641143
Si Si4 0.439191 0.500000 0.177007
Si Si5 0.450103 0.239895 0.740598
Si Si6 0.097978 0.000000 0.123487
Si Si7 0.217331 0.259611 0.777872
Si Si8 0.367678 0.640303 0.615797
O O1 0.578822 0.838804 0.136639
O O2 0.583579 0.000000 0.974574
O O3 0.500000 0.811251 0.000000
O O4 0.649434 0.791112 0.905142
O O5 0.245729 0.125167 0.798495
O O6 0.128930 0.000000 0.861281
O O7 0.180521 0.000000 0.013327
O O8 0.179727 0.266243 0.680627
O O9 0.142978 0.176874 0.505079
O O10 0.037890 0.299085 0.674968
O O11 0.076969 0.114235 0.734695
O O12 0.525982 0.500000 0.088336
O O13 0.420295 0.376229 0.798664
O O14 0.419005 0.254805 0.637469
O O15 0.287481 0.349483 0.729797
O O16 0.396436 0.500000 0.599098
#
# Coordination Sequence:
#
# PCOD9170456 Si02
#       8
#     8   4   8   4   8   4   8   8
#     4  11  23  43  69  94 126 167 217 265 318 387
#     4  10  19  34  58  88 125 155 207 264 317 364
#     4  10  20  39  64  91 125 166 217 261 305 370
#     4   8  17  27  58  91 115 151 192 258 315 350
#     4  11  22  39  66  98 126 164 209 265 327 377
#     4  10  17  31  58  93 125 150 191 258 323 378
#     4  11  23  41  64  94 128 173 215 263 320 375
#     4  12  25  41  62  95 138 172 209 260 323 386
#
# _framework density 22.053511
#
# number of rings (size 3 to 8) (size 9 to 14) (size 15 to 20)
#    0.000    1.385    4.615    1.615    0.000    1.231 
#    1.385    0.000    1.692    0.923    0.000    0.000 
#    0.000    0.000    0.000    0.000    0.000    0.000 
#
# Total GULP energy -144778.499611 kJ/mol
# GULP energy per Si atom -5568.403831 kJ/mol
# Density = 2.200332 g / cm^3
# Si number density = 22.053511 Si / 1000 Ang^3
#
#
#
# Elastic Constant Matrix: (Units=GPa)
#
#
# Indices 1 2 3 4 5 6 
#
# 1 50.1434 2.0307 8.4766 0.0000 1.6403 0.0000
# 2 2.0307 46.0667 5.5014 0.0000 -1.4921 0.0000
# 3 8.4766 5.5014 73.3982 0.0000 -6.3878 0.0000
# 4 0.0000 0.0000 0.0000 25.1079 0.0000 13.6380
# 5 1.6403 -1.4921 -6.3878 0.0000 26.3903 0.0000
# 6 0.0000 0.0000 0.0000 13.6380 0.0000 12.6990
#
#
#
# Elastic Compliance Matrix: (Units=1/GPa)
#
#
# Indices 1 2 3 4 5 6 
#
# 1 0.020451 -0.000667 -0.002478 0.000000 -0.001909 0.000000
# 2 -0.000667 0.021945 -0.001487 0.000000 0.000922 0.000000
# 3 -0.002478 -0.001487 0.014330 0.000000 0.003538 0.000000
# 4 0.000000 0.000000 0.000000 0.095588 0.000000 -0.102656
# 5 -0.001909 0.000922 0.003538 0.000000 0.038920 0.000000
# 6 0.000000 0.000000 0.000000 -0.102656 0.000000 0.188993
#
#
# Mechanical properties :
#
#
# Convention : Reuss Voigt Hill
#
# Bulk Modulus (GPa) = 21.07037 22.40284 21.73661
# Shear Modulus (GPa) = 12.33616 23.07942 17.70779
#
# Velocity S-wave (km/s) = 2.36767 3.23850 2.83671
# Velocity P-wave (km/s) = 4.12910 4.91572 4.53948
#
# Compressibility (1/GPa) = 0.04746002
#
# Stress axis : x y z
#
# Youngs Moduli (GPa) = 48.89693 45.56931 69.78406
#
# Poissons Ratio (x) = 0.03041 0.17292
# Poissons Ratio (y) = 0.03264 0.10380
# Poissons Ratio (z) = 0.12116 0.06778
#
# Static dielectric constant tensor:
#      x y z
#    x 1.939060 0.000000 0.106940 
#    y 0.000000 1.877800 0.000000 
#    z 0.106940 0.000000 1.851740 
# 
# From -- ./inp_files/164822.got.cif
#   From: 2010.05.17/outbox.cif.g08.bks.cpg/sg12_83_cif.got.tgz:164822.got - 2010.06.03 13:09:07.
