data_PCOD9170719
_publ_section_title
;
Structure prediction by ZEFSAII (Michael W. Deem and Ramdas Pophale) SiO2 
 PCOD9170719
Probable space group: C 2/M
;
_chemical_formula_sum "Si O2"
_cell_formula_units_Z 32
_cell_length_a 7.785050
_cell_length_b 14.556877
_cell_length_c 11.287586
_cell_angle_alpha 90.000000
_cell_angle_beta 79.732109
_cell_angle_gamma 90.000000
_cell_volume 1258.691231
_symmetry_space_group_name_H-M "C 2/M"
_symmetry_group_IT_number 12
_symmetry_cell_setting 'monoclinic'
loop_
_space_group_symop_operation_xyz
x,y,z
-x,y,-z
-x,-y,-z
x,-y,z
1/2+x,1/2+y,z
1/2-x,1/2+y,-z
1/2-x,1/2-y,-z
1/2+x,1/2-y,z
loop_
_atom_site_type_symbol
_atom_site_label
_atom_site_fract_x
_atom_site_fract_y
_atom_site_fract_z
Si Si1 0.116658 0.900903 0.800013
Si Si2 0.548684 0.274203 0.357594
Si Si3 0.104330 0.391219 0.743669
Si Si4 0.252046 0.858294 0.025996
O O1 0.101410 0.824533 0.701720
O O2 0.929657 0.888563 0.890193
O O3 0.127061 0.000000 0.740542
O O4 0.247060 0.899937 0.895729
O O5 0.500000 0.267795 0.500000
O O6 0.714792 0.341986 0.321863
O O7 0.541179 0.171778 0.302108
O O8 0.098512 0.500000 0.717718
O O9 0.111733 0.378619 0.885933
O O10 0.250000 0.750000 0.000000
#
# Coordination Sequence:
#
# PCOD9170719 Si02
#       4
#     8   8   8   8
#     4  10  20  35  59  87 118 160 204 251 311 371
#     4  11  23  42  66  94 127 166 213 259 308 372
#     4  11  24  43  67  93 127 168 208 260 319 370
#     4  10  17  33  59  85 118 157 200 254 313 364
#
# _framework density 25.423231999999999
#
# number of rings (size 3 to 8) (size 9 to 14) (size 15 to 20)
#    0.000    1.500    2.500    6.000    0.000    2.500 
#    0.000    2.500    0.000    6.000    0.000    0.000 
#    0.000    0.000    0.000    0.000    0.000    0.000 
#
# Total GULP energy -89476.773654 kJ/mol
# GULP energy per Si atom -5592.298353 kJ/mol
# Density = 2.536537 g / cm^3
# Si number density = 25.423232 Si / 1000 Ang^3
#
#
#
# Elastic Constant Matrix: (Units=GPa)
#
#
# Indices 1 2 3 4 5 6 
#
# 1 132.6943 18.5318 30.5944 0.0000 19.6408 0.0000
# 2 18.5318 258.6599 57.5307 0.0000 5.4730 0.0000
# 3 30.5944 57.5307 218.0090 0.0000 4.6152 0.0000
# 4 0.0000 0.0000 0.0000 89.1653 0.0000 2.0403
# 5 19.6408 5.4730 4.6152 0.0000 25.2631 0.0000
# 6 0.0000 0.0000 0.0000 2.0403 0.0000 31.5051
#
#
#
# Elastic Compliance Matrix: (Units=1/GPa)
#
#
# Indices 1 2 3 4 5 6 
#
# 1 0.008783 -0.000262 -0.001024 0.000000 -0.006585 0.000000
# 2 -0.000262 0.004127 -0.001042 0.000000 -0.000500 0.000000
# 3 -0.001024 -0.001042 0.005003 0.000000 0.000108 0.000000
# 4 0.000000 0.000000 0.000000 0.011232 0.000000 -0.000727
# 5 -0.006585 -0.000500 0.000108 0.000000 0.044791 0.000000
# 6 0.000000 0.000000 0.000000 -0.000727 0.000000 0.031788
#
#
# Mechanical properties :
#
#
# Convention : Reuss Voigt Hill
#
# Bulk Modulus (GPa) = 75.42632 91.40857 83.41744
# Shear Modulus (GPa) = 43.55383 62.70045 53.12714
#
# Velocity S-wave (km/s) = 4.14351 4.97154 4.57629
# Velocity P-wave (km/s) = 7.25426 8.30589 7.79782
#
# Compressibility (1/GPa) = 0.01325797
#
# Stress axis : x y z
#
# Youngs Moduli (GPa) = 113.84985 242.29821 199.86803
#
# Poissons Ratio (x) = 0.06353 0.20467
# Poissons Ratio (y) = 0.02985 0.20821
# Poissons Ratio (z) = 0.11659 0.25241
#
# Static dielectric constant tensor:
#      x y z
#    x 2.363640 0.000000 -0.026370 
#    y 0.000000 2.037990 0.000000 
#    z -0.026370 0.000000 1.904920 
# 
# From -- ./inp_files/117455.got.cif
#   From: 2010.05.17/outbox.cif.g08.bks.cpg/sg12_59_cif.got.tgz:117455.got - 2010.06.03 13:09:07.
