data_PCOD9170842
_publ_section_title
;
Structure prediction by ZEFSAII (Michael W. Deem and Ramdas Pophale) SiO2 
 PCOD9170842
Probable space group: C 2/M
;
_chemical_formula_sum "Si O2"
_cell_formula_units_Z 64
_cell_length_a 18.800270
_cell_length_b 21.330855
_cell_length_c 18.840633
_cell_angle_alpha 90.000000
_cell_angle_beta 30.527677
_cell_angle_gamma 90.000000
_cell_volume 3837.891275
_symmetry_space_group_name_H-M "C 2/M"
_symmetry_group_IT_number 12
_symmetry_cell_setting 'monoclinic'
loop_
_space_group_symop_operation_xyz
x,y,z
-x,y,-z
-x,-y,-z
x,-y,z
1/2+x,1/2+y,z
1/2-x,1/2+y,-z
1/2-x,1/2-y,-z
1/2+x,1/2-y,z
loop_
_atom_site_type_symbol
_atom_site_label
_atom_site_fract_x
_atom_site_fract_y
_atom_site_fract_z
Si Si1 0.457025 0.074452 0.823811
Si Si2 0.004504 0.210185 0.079852
Si Si3 0.819941 0.178095 0.362137
Si Si4 0.785725 0.305927 0.913118
Si Si5 0.056932 0.644938 0.872938
Si Si6 0.623272 0.362191 0.449275
Si Si7 0.773594 0.929159 0.503338
Si Si8 0.449774 0.750897 0.381147
O O1 0.351889 0.129516 0.887461
O O2 0.496189 0.094258 0.870474
O O3 0.606731 0.082383 0.655208
O O4 0.416815 0.000000 0.853129
O O5 0.877019 0.182607 0.234465
O O6 0.999719 0.285449 0.096680
O O7 0.142445 0.181378 0.995692
O O8 0.000000 0.200133 0.000000
O O9 0.838424 0.113751 0.387191
O O10 0.657922 0.195662 0.504159
O O11 0.899278 0.227372 0.346247
O O12 0.895816 0.276054 0.763136
O O13 0.750000 0.250000 0.000000
O O14 0.226396 0.648668 0.718655
O O15 0.000000 0.630700 0.000000
O O16 0.500000 0.377087 0.500000
O O17 0.657432 0.413552 0.479946
O O18 0.573749 0.303004 0.540020
O O19 0.796039 0.000000 0.465700
#
# Coordination Sequence:
#
# PCOD9170842 Si02
#       8
#     8   8   8   8   8   8   8   8
#     4  10  20  37  59  84 110 151 198 236 280 340
#     4  11  23  36  56  85 117 147 185 236 300 346
#     4  10  17  35  55  78 111 139 185 235 282 332
#     4  12  21  35  59  86 114 148 189 240 286 333
#     4  10  20  35  53  80 120 156 185 226 284 345
#     4  10  21  32  52  83 119 150 185 232 278 331
#     4   9  19  36  59  81 108 151 197 233 277 338
#     4  10  19  30  55  82 107 145 185 228 281 328
#
# _framework density 16.675823000000001
#
# number of rings (size 3 to 8) (size 9 to 14) (size 15 to 20)
#    0.000    1.750    5.000    0.000    3.500    0.500 
#    0.000    0.625    0.000    1.500    0.000    1.750 
#    0.000    0.000    0.000    0.000    0.000    0.000 
#
# Total GULP energy -178278.227392 kJ/mol
# GULP energy per Si atom -5571.194606 kJ/mol
# Density = 1.663787 g / cm^3
# Si number density = 16.675823 Si / 1000 Ang^3
#
#
#
# Elastic Constant Matrix: (Units=GPa)
#
#
# Indices 1 2 3 4 5 6 
#
# 1 65.1329 39.1871 31.2874 -0.0007 2.9769 0.0002
# 2 39.1871 67.7891 37.2355 -0.0016 5.7237 0.0002
# 3 31.2874 37.2355 99.8710 0.0007 17.0842 -0.0003
# 4 -0.0007 -0.0016 0.0007 14.7139 0.0008 -5.9522
# 5 2.9769 5.7237 17.0842 0.0008 33.5403 -0.0002
# 6 0.0002 0.0002 -0.0003 -5.9522 -0.0002 8.3728
#
#
#
# Elastic Compliance Matrix: (Units=1/GPa)
#
#
# Indices 1 2 3 4 5 6 
#
# 1 0.024305 -0.012390 -0.003273 0.000000 0.001624 -0.000001
# 2 -0.012390 0.024871 -0.005317 0.000003 -0.000436 0.000002
# 3 -0.003273 -0.005317 0.014039 -0.000001 -0.005953 0.000000
# 4 0.000000 0.000003 -0.000001 0.095397 -0.000002 0.067818
# 5 0.001624 -0.000436 -0.005953 -0.000002 0.032777 -0.000001
# 6 -0.000001 0.000002 0.000000 0.067818 -0.000001 0.167645
#
#
# Mechanical properties :
#
#
# Convention : Reuss Voigt Hill
#
# Bulk Modulus (GPa) = 47.04397 49.80143 48.42270
# Shear Modulus (GPa) = 12.25252 19.66429 15.95841
#
# Velocity S-wave (km/s) = 2.71356 3.43769 3.09686
# Velocity P-wave (km/s) = 6.17171 6.75916 6.47210
#
# Compressibility (1/GPa) = 0.02125671
#
# Stress axis : x y z
#
# Youngs Moduli (GPa) = 41.14316 40.20746 71.23096
#
# Poissons Ratio (x) = 0.49816 0.23313
# Poissons Ratio (y) = 0.50975 0.37871
# Poissons Ratio (z) = 0.13466 0.21377
#
# Static dielectric constant tensor:
#      x y z
#    x 1.560310 0.000000 -0.004690 
#    y 0.000000 1.559000 0.000000 
#    z -0.004690 0.000000 1.571890 
# 
# From -- ./inp_files/279108.got.cif
#   From: 2010.05.17/outbox.cif.g08.bks.cpg/sg12_140_cif.got.tgz:279108.got - 2010.06.03 13:09:07.
