data_PCOD9170800
_publ_section_title
;
Structure prediction by ZEFSAII (Michael W. Deem and Ramdas Pophale) SiO2 
 PCOD9170800
Probable space group: C 2/M
;
_chemical_formula_sum "Si O2"
_cell_formula_units_Z 50
_cell_length_a 28.993293
_cell_length_b 14.627425
_cell_length_c 8.922719
_cell_angle_alpha 90.000000
_cell_angle_beta 145.554382
_cell_angle_gamma 90.000000
_cell_volume 2140.377072
_symmetry_space_group_name_H-M "C 2/M"
_symmetry_group_IT_number 12
_symmetry_cell_setting 'monoclinic'
loop_
_space_group_symop_operation_xyz
x,y,z
-x,y,-z
-x,-y,-z
x,-y,z
1/2+x,1/2+y,z
1/2-x,1/2+y,-z
1/2-x,1/2-y,-z
1/2+x,1/2-y,z
loop_
_atom_site_type_symbol
_atom_site_label
_atom_site_fract_x
_atom_site_fract_y
_atom_site_fract_z
Si Si1 0.012754 0.669508 0.314484
Si Si2 0.865204 0.641703 0.098132
Si Si3 0.189518 0.903788 0.713892
Si Si4 0.067486 0.845323 0.955500
Si Si5 0.500000 0.500000 0.000000
Si Si6 0.197441 0.850447 0.077975
Si Si7 0.868605 0.723086 0.606672
O O1 0.078122 0.628879 0.605087
O O2 0.057211 0.670530 0.274158
O O3 0.925699 0.623735 0.120818
O O4 0.995008 0.778005 0.298901
O O5 0.779239 0.592842 0.881498
O O6 0.836585 0.747155 0.027908
O O7 0.198502 0.894702 0.916922
O O8 0.145664 0.000000 0.554828
O O9 0.149949 0.811652 0.547174
O O10 0.133417 0.890638 0.023371
O O11 0.111510 0.770494 0.182637
O O12 0.026504 0.919280 0.949762
O O13 0.288143 0.839176 0.387235
#
# Coordination Sequence:
#
# PCOD9170800 Si02
#       7
#     8   8   8   8   2   8   8
#     4  10  17  34  59  80 107 143 190 230 272 318
#     4   9  18  35  58  82 109 144 191 239 265 323
#     4  11  22  35  56  85 118 149 182 227 290 333
#     4  11  24  35  55  85 114 152 181 227 288 340
#     4  12  24  36  48  78 132 140 166 220 296 342
#     4  10  20  38  58  79 109 148 198 233 263 330
#     4  11  19  38  59  84 110 145 193 237 271 327
#
# _framework density 23.360368000000001
#
# number of rings (size 3 to 8) (size 9 to 14) (size 15 to 20)
#    0.000    1.600    4.800    1.440    2.240    0.000 
#    0.000    1.600    0.000    4.800    0.000    2.240 
#    0.000    0.000    0.000    0.000    0.000    0.000 
#
# Total GULP energy -139345.310322 kJ/mol
# GULP energy per Si atom -5573.812413 kJ/mol
# Density = 2.330720 g / cm^3
# Si number density = 23.360368 Si / 1000 Ang^3
#
#
#
# Elastic Constant Matrix: (Units=GPa)
#
#
# Indices 1 2 3 4 5 6 
#
# 1 137.7849 6.7805 23.9436 0.0000 33.3546 0.0000
# 2 6.7805 52.7219 -10.1854 0.0000 -2.7468 0.0000
# 3 23.9436 -10.1854 63.5515 0.0000 1.6579 0.0000
# 4 0.0000 0.0000 0.0000 2.5675 0.0000 20.4681
# 5 33.3546 -2.7468 1.6579 0.0000 35.4547 0.0000
# 6 0.0000 0.0000 0.0000 20.4681 0.0000 -34.1267
#
#
#
# Elastic Compliance Matrix: (Units=1/GPa)
#
#
# Indices 1 2 3 4 5 6 
#
# 1 0.010500 -0.002663 -0.004125 0.000000 -0.009891 0.000000
# 2 -0.002663 0.020316 0.004158 0.000000 0.003884 0.000000
# 3 -0.004125 0.004158 0.017868 0.000000 0.003367 0.000000
# 4 0.000000 0.000000 0.000000 0.067369 0.000000 0.040406
# 5 -0.009891 0.003884 0.003367 0.000000 0.037654 0.000000
# 6 0.000000 0.000000 0.000000 0.040406 0.000000 -0.005069
#
#
# Mechanical properties :
#
#
# Convention : Reuss Voigt Hill
#
# Bulk Modulus (GPa) = 23.02851 32.79284 27.91068
# Shear Modulus (GPa) = 29.69628 16.34709 23.02169
#
# Velocity S-wave (km/s) = 3.56929 2.64820 3.14268
# Velocity P-wave (km/s) = 5.18322 4.83931 5.01422
#
# Compressibility (1/GPa) = 0.04342442
#
# Stress axis : x y z
#
# Youngs Moduli (GPa) = 95.23862 49.22348 55.96668
#
# Poissons Ratio (x) = 0.13106 0.23084
# Poissons Ratio (y) = 0.25358 -0.23270
# Poissons Ratio (z) = 0.39282 -0.20466
#
# Static dielectric constant tensor:
#      x y z
#    x 1.898310 0.000000 0.064330 
#    y 0.000000 1.860020 0.000000 
#    z 0.064330 0.000000 1.423090 
# 
# From -- ./inp_files/112512.got.cif
#   From: 2010.05.17/outbox.cif.g08.bks.cpg/sg12_57_cif.got.tgz:112512.got - 2010.06.03 13:09:07.
