data_PCOD9170253
_publ_section_title
;
Structure prediction by ZEFSAII (Michael W. Deem and Ramdas Pophale) SiO2 
 PCOD9170253
Probable space group: C 2/M
;
_chemical_formula_sum "Si O2"
_cell_formula_units_Z 64
_cell_length_a 12.463544
_cell_length_b 13.644783
_cell_length_c 22.786124
_cell_angle_alpha 90.000000
_cell_angle_beta 38.068684
_cell_angle_gamma 90.000000
_cell_volume 2389.385121
_symmetry_space_group_name_H-M "C 2/M"
_symmetry_group_IT_number 12
_symmetry_cell_setting 'monoclinic'
loop_
_space_group_symop_operation_xyz
x,y,z
-x,y,-z
-x,-y,-z
x,-y,z
1/2+x,1/2+y,z
1/2-x,1/2+y,-z
1/2-x,1/2-y,-z
1/2+x,1/2-y,z
loop_
_atom_site_type_symbol
_atom_site_label
_atom_site_fract_x
_atom_site_fract_y
_atom_site_fract_z
Si Si1 0.900736 0.632657 0.412659
Si Si2 0.700027 0.677909 0.895777
Si Si3 0.748984 0.106002 0.833499
Si Si4 0.971369 0.323229 0.867368
Si Si5 0.539052 0.391518 0.854858
Si Si6 0.022734 0.862350 0.612364
Si Si7 0.721126 0.895884 0.357838
Si Si8 0.754544 0.674912 0.356000
O O1 0.948733 0.747057 0.393345
O O2 0.718585 0.603753 0.520345
O O3 0.858055 0.618764 0.362046
O O4 0.058253 0.596276 0.384054
O O5 0.760611 0.791056 0.862518
O O6 0.697926 0.627415 0.832760
O O7 0.815127 0.632311 0.897439
O O8 0.500000 0.673491 0.000000
O O9 0.562345 0.118152 0.880615
O O10 0.903570 0.105772 0.718290
O O11 0.752059 0.000000 0.862807
O O12 0.934990 0.211117 0.903696
O O13 0.123766 0.315809 0.753311
O O14 0.466120 0.500000 0.899081
O O15 0.613390 0.394343 0.756960
O O16 0.915666 0.875628 0.598018
O O17 0.713238 0.788891 0.391791
O O18 0.726877 0.000000 0.388170
#
# Coordination Sequence:
#
# PCOD9170253 Si02
#       8
#     8   8   8   8   8   8   8   8
#     4  10  17  30  53  78 109 150 188 227 274 317
#     4  11  23  39  61  88 113 140 184 239 291 350
#     4  10  22  40  59  82 116 153 190 234 285 345
#     4   9  19  37  58  81 113 150 185 225 283 342
#     4   9  19  36  57  83 116 152 188 228 278 341
#     4   9  19  32  51  77 109 148 190 227 268 325
#     4   9  18  32  52  81 113 142 180 228 271 317
#     4   9  16  31  54  75 102 143 187 220 262 324
#
# _framework density 26.785132999999998
#
# number of rings (size 3 to 8) (size 9 to 14) (size 15 to 20)
#    0.000    2.500    0.000    4.125    0.000    4.000 
#    0.000    8.125    0.000   13.500    0.000    0.000 
#    0.000    0.000    0.000    0.000    0.000    0.000 
#
# Total GULP energy -178843.553506 kJ/mol
# GULP energy per Si atom -5588.861047 kJ/mol
# Density = 2.672417 g / cm^3
# Si number density = 26.785133 Si / 1000 Ang^3
#
#
#
# Elastic Constant Matrix: (Units=GPa)
#
#
# Indices 1 2 3 4 5 6 
#
# 1 147.8082 3.6063 5.6506 0.0000 -13.4213 0.0000
# 2 3.6063 139.8882 8.8320 0.0000 -11.8371 0.0000
# 3 5.6506 8.8320 53.6173 -0.0004 -11.3142 0.0000
# 4 0.0000 0.0000 -0.0004 -13.5680 0.0001 14.4728
# 5 -13.4213 -11.8371 -11.3142 0.0001 28.7016 0.0000
# 6 0.0000 0.0000 0.0000 14.4728 0.0000 -3.1059
#
#
#
# Elastic Compliance Matrix: (Units=1/GPa)
#
#
# Indices 1 2 3 4 5 6 
#
# 1 0.007067 0.000103 -0.000060 0.000000 0.003323 0.000000
# 2 0.000103 0.007428 -0.000630 0.000000 0.002863 0.000000
# 3 -0.000060 -0.000630 0.020397 0.000000 0.007752 0.000001
# 4 0.000000 0.000000 0.000000 0.018562 0.000000 0.086497
# 5 0.003323 0.002863 0.007752 0.000000 0.040632 0.000000
# 6 0.000000 0.000000 0.000001 0.086497 0.000000 0.081089
#
#
# Mechanical properties :
#
#
# Convention : Reuss Voigt Hill
#
# Bulk Modulus (GPa) = 29.65944 41.94349 35.80146
# Shear Modulus (GPa) = 26.65402 23.95386 25.30394
#
# Velocity S-wave (km/s) = 3.15795 2.99372 3.07693
# Velocity P-wave (km/s) = 4.93903 5.25767 5.10084
#
# Compressibility (1/GPa) = 0.03371608
#
# Stress axis : x y z
#
# Youngs Moduli (GPa) = 141.50101 134.62619 49.02747
#
# Poissons Ratio (x) = -0.01384 0.00296
# Poissons Ratio (y) = -0.01455 0.03090
# Poissons Ratio (z) = 0.00855 0.08485
#
# Static dielectric constant tensor:
#      x y z
#    x 2.126300 0.000000 -0.001160 
#    y 0.000000 2.105090 0.000000 
#    z -0.001160 0.000000 2.111060 
# 
# From -- ./inp_files/358422.got.cif
#   From: 2010.05.17/outbox.cif.g08.bks.cpg/sg12_180_cif.got.tgz:358422.got - 2010.06.03 13:09:07.
