data_PCOD9170131
_publ_section_title
;
Structure prediction by ZEFSAII (Michael W. Deem and Ramdas Pophale) SiO2 
 PCOD9170131
Probable space group: C 2/M
;
_chemical_formula_sum "Si O2"
_cell_formula_units_Z 56
_cell_length_a 9.503325
_cell_length_b 20.960420
_cell_length_c 16.441703
_cell_angle_alpha 90.000000
_cell_angle_beta 76.936008
_cell_angle_gamma 90.000000
_cell_volume 3190.318381
_symmetry_space_group_name_H-M "C 2/M"
_symmetry_group_IT_number 12
_symmetry_cell_setting 'monoclinic'
loop_
_space_group_symop_operation_xyz
x,y,z
-x,y,-z
-x,-y,-z
x,-y,z
1/2+x,1/2+y,z
1/2-x,1/2+y,-z
1/2-x,1/2-y,-z
1/2+x,1/2-y,z
loop_
_atom_site_type_symbol
_atom_site_label
_atom_site_fract_x
_atom_site_fract_y
_atom_site_fract_z
Si Si1 0.615027 0.733966 0.680505
Si Si2 0.589069 0.189435 0.405842
Si Si3 0.912019 0.573309 0.717837
Si Si4 0.127604 0.351431 0.796772
Si Si5 0.834758 0.846558 0.917111
Si Si6 0.343275 0.195309 0.920044
Si Si7 0.635410 0.639718 0.822319
O O1 0.482880 0.758373 0.644446
O O2 0.745222 0.710046 0.607061
O O3 0.660948 0.795499 0.727972
O O4 0.583781 0.677376 0.748474
O O5 0.500000 0.186115 0.500000
O O6 0.583635 0.122828 0.357553
O O7 0.918333 0.500000 0.693273
O O8 0.758128 0.588362 0.782626
O O9 0.048537 0.591872 0.757410
O O10 0.258941 0.361878 0.841164
O O11 0.998364 0.326469 0.870424
O O12 0.861692 0.770832 0.931763
O O13 0.992822 0.878383 0.891928
O O14 0.717806 0.853933 0.004379
O O15 0.227880 0.190092 0.862553
#
# Coordination Sequence:
#
# PCOD9170131 Si02
#       7
#     8   8   8   8   8   8   8
#     4  10  17  30  47  74 104 128 158 190 253 312
#     4  10  20  32  53  79 104 127 152 203 258 314
#     4   9  21  38  53  68  93 138 180 210 246 290
#     4  10  18  30  49  70 102 136 167 208 243 298
#     4  11  17  26  45  76 106 133 161 202 254 301
#     4  10  18  26  43  74 113 134 155 197 256 307
#     4  10  18  30  49  70 102 136 167 208 243 298
#
# _framework density 17.553107000000001
#
# number of rings (size 3 to 8) (size 9 to 14) (size 15 to 20)
#    0.000    2.000    2.857    3.000    0.000    2.571 
#    0.000    0.714    0.000   13.714    0.000    0.000 
#    0.000   13.714    0.000    0.000    0.000    0.000 
#
# Total GULP energy -155885.612433 kJ/mol
# GULP energy per Si atom -5567.343301 kJ/mol
# Density = 1.751316 g / cm^3
# Si number density = 17.553107 Si / 1000 Ang^3
#
#
#
# Elastic Constant Matrix: (Units=GPa)
#
#
# Indices 1 2 3 4 5 6 
#
# 1 76.0707 14.6515 14.8294 0.0000 -11.6132 0.0000
# 2 14.6515 49.3721 3.1823 0.0000 -5.1453 0.0000
# 3 14.8294 3.1823 58.5056 0.0000 -20.9621 0.0000
# 4 0.0000 0.0000 0.0000 5.6045 0.0000 -0.0528
# 5 -11.6132 -5.1453 -20.9621 0.0000 29.7362 0.0000
# 6 0.0000 0.0000 0.0000 -0.0528 0.0000 8.6967
#
#
#
# Elastic Compliance Matrix: (Units=1/GPa)
#
#
# Indices 1 2 3 4 5 6 
#
# 1 0.014882 -0.003902 -0.002300 0.000000 0.003515 0.000000
# 2 -0.003902 0.021651 0.000813 0.000000 0.002796 0.000000
# 3 -0.002300 0.000813 0.023226 0.000000 0.015615 0.000000
# 4 0.000000 0.000000 0.000000 0.178439 0.000000 0.001084
# 5 0.003515 0.002796 0.015615 0.000000 0.046493 0.000000
# 6 0.000000 0.000000 0.000000 0.001084 0.000000 0.114993
#
#
# Mechanical properties :
#
#
# Convention : Reuss Voigt Hill
#
# Bulk Modulus (GPa) = 20.41610 27.69719 24.05664
# Shear Modulus (GPa) = 11.71536 18.89316 15.30426
#
# Velocity S-wave (km/s) = 2.58626 3.28433 2.95597
# Velocity P-wave (km/s) = 4.53592 5.49506 5.03837
#
# Compressibility (1/GPa) = 0.04898095
#
# Stress axis : x y z
#
# Youngs Moduli (GPa) = 67.19395 46.18683 43.05519
#
# Poissons Ratio (x) = 0.18021 0.09905
# Poissons Ratio (y) = 0.26218 -0.03500
# Poissons Ratio (z) = 0.15458 -0.03755
#
# Static dielectric constant tensor:
#      x y z
#    x 1.636580 0.000000 -0.002950 
#    y 0.000000 1.578510 0.000000 
#    z -0.002950 0.000000 1.674180 
# 
# From -- ./inp_files/257590.got.cif
#   From: 2010.05.17/outbox.cif.g08.bks.cpg/sg12_129_cif.got.tgz:257590.got - 2010.06.03 13:09:07.
