data_PCOD9170511
_publ_section_title
;
Structure prediction by ZEFSAII (Michael W. Deem and Ramdas Pophale) SiO2 
 PCOD9170511
Probable space group: C 2/M
;
_chemical_formula_sum "Si O2"
_cell_formula_units_Z 56
_cell_length_a 17.751705
_cell_length_b 16.806562
_cell_length_c 9.323537
_cell_angle_alpha 90.000000
_cell_angle_beta 80.447853
_cell_angle_gamma 90.000000
_cell_volume 2743.064475
_symmetry_space_group_name_H-M "C 2/M"
_symmetry_group_IT_number 12
_symmetry_cell_setting 'monoclinic'
loop_
_space_group_symop_operation_xyz
x,y,z
-x,y,-z
-x,-y,-z
x,-y,z
1/2+x,1/2+y,z
1/2-x,1/2+y,-z
1/2-x,1/2-y,-z
1/2+x,1/2-y,z
loop_
_atom_site_type_symbol
_atom_site_label
_atom_site_fract_x
_atom_site_fract_y
_atom_site_fract_z
Si Si1 0.059921 0.586322 0.289029
Si Si2 0.710750 0.912130 0.442581
Si Si3 0.654155 0.864323 0.006630
Si Si4 0.295514 0.358257 0.153960
Si Si5 0.014942 0.758159 0.656359
Si Si6 0.175984 0.298085 0.706574
Si Si7 0.074738 0.201004 0.060936
O O1 0.023440 0.500000 0.328537
O O2 0.132459 0.595726 0.373754
O O3 0.010476 0.665245 0.321935
O O4 0.092891 0.586866 0.116904
O O5 0.777618 0.907051 0.302939
O O6 0.712997 0.843564 0.561554
O O7 0.710550 0.000000 0.509024
O O8 0.652090 0.862572 0.835699
O O9 0.736039 0.882365 0.049108
O O10 0.632769 0.773835 0.056827
O O11 0.277423 0.268343 0.219071
O O12 0.378595 0.359902 0.052931
O O13 0.102910 0.752554 0.675362
O O14 0.000000 0.782488 0.500000
O O15 0.961890 0.813319 0.773379
O O16 0.000000 0.230958 0.000000
#
# Coordination Sequence:
#
# PCOD9170511 Si02
#       7
#     8   8   8   8   8   8   8
#     4   9  19  33  49  70 108 154 187 209 257 326
#     4  10  21  36  53  77 110 149 185 222 265 323
#     4   9  19  33  52  75 107 138 183 228 265 312
#     4  10  20  37  56  78 105 145 185 229 271 319
#     4  11  20  31  48  78 112 140 173 219 275 326
#     4  11  19  33  53  81 108 141 178 229 273 324
#     4  10  17  32  52  74 104 133 174 224 268 312
#
# _framework density 20.415123000000001
#
# number of rings (size 3 to 8) (size 9 to 14) (size 15 to 20)
#    0.000    2.000    4.286    2.143    0.000    1.429 
#    2.571    0.714    0.000    0.429    0.000    0.000 
#    0.000    5.714    0.000    0.000    0.000    0.000 
#
# Total GULP energy -155951.474008 kJ/mol
# GULP energy per Si atom -5569.695500 kJ/mol
# Density = 2.036866 g / cm^3
# Si number density = 20.415123 Si / 1000 Ang^3
#
#
#
# Elastic Constant Matrix: (Units=GPa)
#
#
# Indices 1 2 3 4 5 6 
#
# 1 54.0640 1.8122 23.7158 0.0000 -4.5311 0.0000
# 2 1.8122 15.8490 -2.4147 0.0000 -6.5370 0.0000
# 3 23.7158 -2.4147 147.9725 0.0000 -5.7360 0.0000
# 4 0.0000 0.0000 0.0000 14.8823 0.0000 -2.7829
# 5 -4.5311 -6.5370 -5.7360 0.0000 23.1171 0.0000
# 6 0.0000 0.0000 0.0000 -2.7829 0.0000 4.2560
#
#
#
# Elastic Compliance Matrix: (Units=1/GPa)
#
#
# Indices 1 2 3 4 5 6 
#
# 1 0.020162 -0.001674 -0.003154 0.000000 0.002696 0.000000
# 2 -0.001674 0.072137 0.002245 0.000000 0.020628 0.000000
# 3 -0.003154 0.002245 0.007372 0.000000 0.001846 0.000000
# 4 0.000000 0.000000 0.000000 0.076554 0.000000 0.050057
# 5 0.002696 0.020628 0.001846 0.000000 0.050077 0.000000
# 6 0.000000 0.000000 0.000000 0.050057 0.000000 0.267694
#
#
# Mechanical properties :
#
#
# Convention : Reuss Voigt Hill
#
# Bulk Modulus (GPa) = 10.58152 29.34580 19.96366
# Shear Modulus (GPa) = 9.42215 21.43591 15.42903
#
# Velocity S-wave (km/s) = 2.15065 3.24389 2.75210
# Velocity P-wave (km/s) = 3.37068 5.33256 4.46081
#
# Compressibility (1/GPa) = 0.09450440
#
# Stress axis : x y z
#
# Youngs Moduli (GPa) = 49.59752 13.86255 135.65332
#
# Poissons Ratio (x) = 0.02321 0.42789
# Poissons Ratio (y) = 0.08303 -0.30455
# Poissons Ratio (z) = 0.15644 -0.03112
#
# Static dielectric constant tensor:
#      x y z
#    x 1.731830 0.000000 -0.033040 
#    y 0.000000 1.762720 0.000000 
#    z -0.033040 0.000000 1.806810 
# 
# From -- ./inp_files/76813.got.cif
#   From: 2010.05.17/outbox.cif.g08.bks.cpg/sg12_39_cif.got.tgz:76813.got - 2010.06.03 13:09:07.
