data_PCOD9170494
_publ_section_title
;
Structure prediction by ZEFSAII (Michael W. Deem and Ramdas Pophale) SiO2 
 PCOD9170494
Probable space group: C 2/M
;
_chemical_formula_sum "Si O2"
_cell_formula_units_Z 44
_cell_length_a 14.263453
_cell_length_b 18.235685
_cell_length_c 26.887437
_cell_angle_alpha 90.000000
_cell_angle_beta 158.476304
_cell_angle_gamma 90.000000
_cell_volume 2565.826535
_symmetry_space_group_name_H-M "C 2/M"
_symmetry_group_IT_number 12
_symmetry_cell_setting 'monoclinic'
loop_
_space_group_symop_operation_xyz
x,y,z
-x,y,-z
-x,-y,-z
x,-y,z
1/2+x,1/2+y,z
1/2-x,1/2+y,-z
1/2-x,1/2-y,-z
1/2+x,1/2-y,z
loop_
_atom_site_type_symbol
_atom_site_label
_atom_site_fract_x
_atom_site_fract_y
_atom_site_fract_z
Si Si1 0.946877 0.920300 0.230854
Si Si2 0.308012 0.219609 0.946272
Si Si3 0.938545 0.685599 0.577443
Si Si4 0.500000 0.130788 0.500000
Si Si5 0.114864 0.711471 0.198355
Si Si6 0.002388 0.084001 0.377591
O O1 0.245863 0.915143 0.364064
O O2 0.805729 0.852854 0.135837
O O3 0.944006 0.914292 0.289340
O O4 0.843079 0.000000 0.165152
O O5 0.077955 0.271049 0.851819
O O6 0.500000 0.252885 0.000000
O O7 0.457307 0.197691 0.070207
O O8 0.750000 0.750000 0.500000
O O9 0.795427 0.613112 0.527011
O O10 0.943188 0.678389 0.520325
O O11 0.217620 0.714774 0.729412
O O12 0.306748 0.643867 0.303395
O O13 0.973938 0.000000 0.380441
#
# Coordination Sequence:
#
# PCOD9170494 Si02
#       6
#     8   8   8   4   8   8
#     4  10  19  31  51  79 109 137 164 206 269 327
#     4  11  21  34  50  73 108 145 182 210 248 303
#     4   9  18  31  51  78 104 133 172 208 258 313
#     4  10  17  32  50  76 109 136 162 210 267 310
#     4  10  20  34  51  75 107 143 178 210 251 308
#     4   9  18  33  55  80 109 134 162 214 270 321
#
# _framework density 17.148471000000001
#
# number of rings (size 3 to 8) (size 9 to 14) (size 15 to 20)
#    0.000    2.182    3.636    0.273    0.000    1.818 
#    0.000    0.000    0.000    0.545    0.000   21.636 
#    0.000    0.000    0.000    0.000    0.000    0.000 
#
# Total GULP energy -122486.486126 kJ/mol
# GULP energy per Si atom -5567.567551 kJ/mol
# Density = 1.710944 g / cm^3
# Si number density = 17.148471 Si / 1000 Ang^3
#
#
#
# Elastic Constant Matrix: (Units=GPa)
#
#
# Indices 1 2 3 4 5 6 
#
# 1 63.8740 32.4068 18.7925 -0.0135 32.4053 0.0069
# 2 32.4068 97.6258 35.9657 -0.0115 13.9909 0.0057
# 3 18.7925 35.9657 75.7154 -0.0216 20.2522 0.0126
# 4 -0.0135 -0.0115 -0.0216 11.5436 0.0080 -3.5118
# 5 32.4053 13.9909 20.2522 0.0080 33.4488 -0.0054
# 6 0.0069 0.0057 0.0126 -3.5118 -0.0054 16.6236
#
#
#
# Elastic Compliance Matrix: (Units=1/GPa)
#
#
# Indices 1 2 3 4 5 6 
#
# 1 0.035910 -0.008638 0.004212 0.000061 -0.033726 -0.000013
# 2 -0.008638 0.014600 -0.006439 -0.000011 0.006161 0.000003
# 3 0.004212 -0.006439 0.018605 0.000039 -0.012652 -0.000009
# 4 0.000061 -0.000011 0.000039 0.092578 -0.000097 0.019557
# 5 -0.033726 0.006161 -0.012652 -0.000097 0.067654 0.000023
# 6 -0.000013 0.000003 -0.000009 0.019557 0.000023 0.064287
#
#
# Mechanical properties :
#
#
# Convention : Reuss Voigt Hill
#
# Bulk Modulus (GPa) = 21.10461 45.72724 33.41593
# Shear Modulus (GPa) = 15.09846 22.32654 18.71250
#
# Velocity S-wave (km/s) = 2.97047 3.61218 3.30692
# Velocity P-wave (km/s) = 4.90903 6.64232 5.84034
#
# Compressibility (1/GPa) = 0.04738301
#
# Stress axis : x y z
#
# Youngs Moduli (GPa) = 27.84742 68.49336 53.75003
#
# Poissons Ratio (x) = 0.59168 -0.22638
# Poissons Ratio (y) = 0.24056 0.34609
# Poissons Ratio (z) = -0.11728 0.44103
#
# Static dielectric constant tensor:
#      x y z
#    x 1.572490 0.000000 0.030110 
#    y 0.000000 1.616170 0.000000 
#    z 0.030110 0.000000 1.646560 
# 
# From -- ./inp_files/144710.got.cif
#   From: 2010.05.17/outbox.cif.g08.bks.cpg/sg12_73_cif.got.tgz:144710.got - 2010.06.03 13:09:07.
