data_PCOD9170646
_publ_section_title
;
Structure prediction by ZEFSAII (Michael W. Deem and Ramdas Pophale) SiO2 
 PCOD9170646
Probable space group: C 2/M
;
_chemical_formula_sum "Si O2"
_cell_formula_units_Z 48
_cell_length_a 19.873730
_cell_length_b 18.120729
_cell_length_c 13.251763
_cell_angle_alpha 90.000000
_cell_angle_beta 34.733022
_cell_angle_gamma 90.000000
_cell_volume 2719.039608
_symmetry_space_group_name_H-M "C 2/M"
_symmetry_group_IT_number 12
_symmetry_cell_setting 'monoclinic'
loop_
_space_group_symop_operation_xyz
x,y,z
-x,y,-z
-x,-y,-z
x,-y,z
1/2+x,1/2+y,z
1/2-x,1/2+y,-z
1/2-x,1/2-y,-z
1/2+x,1/2-y,z
loop_
_atom_site_type_symbol
_atom_site_label
_atom_site_fract_x
_atom_site_fract_y
_atom_site_fract_z
Si Si1 0.992840 0.312538 0.891485
Si Si2 0.190432 0.084728 0.992242
Si Si3 0.259375 0.310800 0.898726
Si Si4 0.635675 0.187717 0.355435
Si Si5 0.710273 0.173343 0.496226
Si Si6 0.966448 0.134762 0.155322
O O1 0.097489 0.350780 0.699992
O O2 0.009869 0.223236 0.865569
O O3 0.866733 0.325933 0.996316
O O4 0.000000 0.332746 0.000000
O O5 0.196752 0.117599 0.096891
O O6 0.057639 0.095500 0.116181
O O7 0.225835 0.000000 0.944462
O O8 0.276088 0.133127 0.813885
O O9 0.340064 0.269970 0.717159
O O10 0.250000 0.250000 0.000000
O O11 0.500000 0.168124 0.500000
O O12 0.668402 0.185535 0.432885
O O13 0.750000 0.250000 0.500000
O O14 0.828180 0.124013 0.347807
O O15 0.000000 0.113349 0.000000
#
# Coordination Sequence:
#
# PCOD9170646 Si02
#       6
#     8   8   8   8   8   8
#     4  10  18  33  57  88 111 138 188 251 297 333
#     4  11  23  37  55  81 122 164 190 231 293 358
#     4  10  18  35  55  80 115 148 192 238 283 339
#     4  11  21  35  57  88 115 151 195 248 293 337
#     4  10  19  29  54  86 113 144 185 243 292 338
#     4  10  17  33  51  79 117 146 187 231 287 352
#
# _framework density 17.653292
#
# number of rings (size 3 to 8) (size 9 to 14) (size 15 to 20)
#    0.000    1.667    5.000    4.000    2.333    0.667 
#    0.000    0.000    0.000    2.000    0.000    0.000 
#    0.000    0.000    0.000    0.000    0.000    0.000 
#
# Total GULP energy -133818.209841 kJ/mol
# GULP energy per Si atom -5575.758743 kJ/mol
# Density = 1.761311 g / cm^3
# Si number density = 17.653292 Si / 1000 Ang^3
#
#
#
# Elastic Constant Matrix: (Units=GPa)
#
#
# Indices 1 2 3 4 5 6 
#
# 1 160.8235 34.3426 55.7265 0.0000 -3.5931 0.0000
# 2 34.3426 47.9111 30.7261 0.0000 7.3742 0.0000
# 3 55.7265 30.7261 98.3564 0.0000 0.8742 0.0000
# 4 0.0000 0.0000 0.0000 4.8579 0.0000 0.0793
# 5 -3.5931 7.3742 0.8742 0.0000 32.8938 0.0000
# 6 0.0000 0.0000 0.0000 0.0793 0.0000 7.0471
#
#
#
# Elastic Compliance Matrix: (Units=1/GPa)
#
#
# Indices 1 2 3 4 5 6 
#
# 1 0.008326 -0.004033 -0.003474 0.000000 0.001906 0.000000
# 2 -0.004033 0.029143 -0.006759 0.000000 -0.006794 0.000000
# 3 -0.003474 -0.006759 0.014240 0.000000 0.000757 0.000000
# 4 0.000000 0.000000 0.000000 0.205890 0.000000 -0.002316
# 5 0.001906 -0.006794 0.000757 0.000000 0.032112 0.000000
# 6 0.000000 0.000000 0.000000 -0.002316 0.000000 0.141927
#
#
# Mechanical properties :
#
#
# Convention : Reuss Voigt Hill
#
# Bulk Modulus (GPa) = 43.14629 60.96462 52.05545
# Shear Modulus (GPa) = 10.68613 21.37947 16.03280
#
# Velocity S-wave (km/s) = 2.46302 3.48383 3.01691
# Velocity P-wave (km/s) = 5.70812 7.12686 6.45658
#
# Compressibility (1/GPa) = 0.02317696
#
# Stress axis : x y z
#
# Youngs Moduli (GPa) = 120.11094 34.31337 70.22414
#
# Poissons Ratio (x) = 0.13839 0.24397
# Poissons Ratio (y) = 0.48443 0.47462
# Poissons Ratio (z) = 0.41728 0.23191
#
# Static dielectric constant tensor:
#      x y z
#    x 1.623350 0.000000 -0.016700 
#    y 0.000000 1.602340 0.000000 
#    z -0.016700 0.000000 1.631200 
# 
# From -- ./inp_files/159128.got.cif
#   From: 2010.05.17/outbox.cif.g08.bks.cpg/sg12_80_cif.got.tgz:159128.got - 2010.06.03 13:09:07.
