data_PCOD9170178
_publ_section_title
;
Structure prediction by ZEFSAII (Michael W. Deem and Ramdas Pophale) SiO2 
 PCOD9170178
Probable space group: C 2/M
;
_chemical_formula_sum "Si O2"
_cell_formula_units_Z 56
_cell_length_a 16.604257
_cell_length_b 20.680271
_cell_length_c 14.566179
_cell_angle_alpha 90.000000
_cell_angle_beta 26.460757
_cell_angle_gamma 90.000000
_cell_volume 2228.700108
_symmetry_space_group_name_H-M "C 2/M"
_symmetry_group_IT_number 12
_symmetry_cell_setting 'monoclinic'
loop_
_space_group_symop_operation_xyz
x,y,z
-x,y,-z
-x,-y,-z
x,-y,z
1/2+x,1/2+y,z
1/2-x,1/2+y,-z
1/2-x,1/2-y,-z
1/2+x,1/2-y,z
loop_
_atom_site_type_symbol
_atom_site_label
_atom_site_fract_x
_atom_site_fract_y
_atom_site_fract_z
Si Si1 0.697318 0.599683 0.826602
Si Si2 0.991041 0.286005 0.295435
Si Si3 0.186369 0.308196 0.697832
Si Si4 0.701860 0.759241 0.250001
Si Si5 0.929633 0.077774 0.469971
Si Si6 0.337164 0.927751 0.499041
Si Si7 0.582995 0.425686 0.136107
O O1 0.706053 0.676042 0.806007
O O2 0.832349 0.571243 0.614798
O O3 0.500000 0.574239 0.000000
O O4 0.711502 0.591360 0.920896
O O5 0.981560 0.286630 0.193967
O O6 0.842380 0.235444 0.488033
O O7 0.933419 0.360647 0.374647
O O8 0.163768 0.267722 0.180794
O O9 0.194952 0.294803 0.797546
O O10 0.249040 0.382785 0.629348
O O11 0.500000 0.758405 0.500000
O O12 0.000000 0.091979 0.500000
O O13 0.077083 0.102841 0.244332
O O14 0.903712 0.000000 0.489438
O O15 0.125573 0.919147 0.685022
O O16 0.394995 0.000000 0.407582
O O17 0.622266 0.500000 0.111411
#
# Coordination Sequence:
#
# PCOD9170178 Si02
#       7
#     8   8   8   8   8   8   8
#     4  10  19  32  53  79 115 160 186 222 286 344
#     4  10  19  31  53  80 108 152 191 232 286 333
#     4  10  19  33  56  75 110 150 182 240 291 329
#     4  10  19  35  54  81 114 150 198 238 272 344
#     4  10  19  32  55  87 111 141 194 249 291 336
#     4  10  17  30  50  80 115 150 187 227 274 340
#     4   9  18  31  50  79 117 149 186 230 287 345
#
# _framework density 25.126754999999999
#
# number of rings (size 3 to 8) (size 9 to 14) (size 15 to 20)
#    0.000    2.143    4.286    1.714    0.000    1.714 
#    0.000    2.143    0.000   13.714    0.000    0.000 
#    0.000    4.000    0.000    0.000    0.000    0.000 
#
# Total GULP energy -156086.166300 kJ/mol
# GULP energy per Si atom -5574.505939 kJ/mol
# Density = 2.506956 g / cm^3
# Si number density = 25.126755 Si / 1000 Ang^3
#
#
#
# Elastic Constant Matrix: (Units=GPa)
#
#
# Indices 1 2 3 4 5 6 
#
# 1 172.8892 21.9310 39.0055 0.0179 30.2637 -0.0158
# 2 21.9310 112.5002 9.4387 0.0276 -7.2849 0.0067
# 3 39.0055 9.4387 28.7243 0.0146 11.1578 0.0003
# 4 0.0179 0.0276 0.0146 8.6646 -0.0063 -5.2658
# 5 30.2637 -7.2849 11.1578 -0.0063 55.5257 0.0076
# 6 -0.0158 0.0067 0.0003 -5.2658 0.0076 20.8680
#
#
#
# Elastic Compliance Matrix: (Units=1/GPa)
#
#
# Indices 1 2 3 4 5 6 
#
# 1 0.008769 -0.001011 -0.010486 0.000007 -0.002805 0.000010
# 2 -0.001011 0.009458 -0.002636 -0.000029 0.002322 -0.000012
# 3 -0.010486 -0.002636 0.051883 -0.000077 -0.005057 -0.000025
# 4 0.000007 -0.000029 -0.000077 0.136317 0.000019 0.034398
# 5 -0.002805 0.002322 -0.005057 0.000019 0.020859 -0.000006
# 6 0.000010 -0.000012 -0.000025 0.034398 -0.000006 0.056600
#
#
# Mechanical properties :
#
#
# Convention : Reuss Voigt Hill
#
# Bulk Modulus (GPa) = 23.89886 50.54045 37.21965
# Shear Modulus (GPa) = 15.33267 33.26089 24.29678
#
# Velocity S-wave (km/s) = 2.47293 3.64225 3.11299
# Velocity P-wave (km/s) = 4.20545 6.15190 5.26933
#
# Compressibility (1/GPa) = 0.04184300
#
# Stress axis : x y z
#
# Youngs Moduli (GPa) = 114.03738 105.73546 19.27407
#
# Poissons Ratio (x) = 0.10694 0.20210
# Poissons Ratio (y) = 0.11533 0.05081
# Poissons Ratio (z) = 1.19577 0.27875
#
# Static dielectric constant tensor:
#      x y z
#    x 2.075850 -0.000020 0.015820 
#    y -0.000020 1.951110 0.000040 
#    z 0.015820 0.000040 2.094940 
# 
# From -- ./inp_files/227567.got.cif
#   From: 2010.05.17/outbox.cif.g08.bks.cpg/sg12_114_cif.got.tgz:227567.got - 2010.06.03 13:09:07.
