data_PCOD9170329
_publ_section_title
;
Structure prediction by ZEFSAII (Michael W. Deem and Ramdas Pophale) SiO2 
 PCOD9170329
Probable space group: C 2/M
;
_chemical_formula_sum "Si O2"
_cell_formula_units_Z 40
_cell_length_a 11.537638
_cell_length_b 17.483868
_cell_length_c 9.783412
_cell_angle_alpha 90.000000
_cell_angle_beta 94.795471
_cell_angle_gamma 90.000000
_cell_volume 1966.626300
_symmetry_space_group_name_H-M "C 2/M"
_symmetry_group_IT_number 12
_symmetry_cell_setting 'monoclinic'
loop_
_space_group_symop_operation_xyz
x,y,z
-x,y,-z
-x,-y,-z
x,-y,z
1/2+x,1/2+y,z
1/2-x,1/2+y,-z
1/2-x,1/2-y,-z
1/2+x,1/2-y,z
loop_
_atom_site_type_symbol
_atom_site_label
_atom_site_fract_x
_atom_site_fract_y
_atom_site_fract_z
Si Si1 0.236167 0.341160 0.795764
Si Si2 0.377532 0.409044 0.048526
Si Si3 0.741735 0.668587 0.724839
Si Si4 0.017774 0.338448 0.347509
Si Si5 0.105553 0.168263 0.434855
O O1 0.276671 0.380035 0.937928
O O2 0.254160 0.249703 0.801825
O O3 0.321294 0.368307 0.680533
O O4 0.101608 0.351282 0.743643
O O5 0.381324 0.500000 0.048760
O O6 0.500000 0.379436 0.000000
O O7 0.348731 0.379474 0.196248
O O8 0.867925 0.630801 0.716971
O O9 0.693826 0.684838 0.568062
O O10 0.048641 0.247387 0.371209
O O11 0.000000 0.368139 0.500000
O O12 0.000000 0.124987 0.500000
#
# Coordination Sequence:
#
# PCOD9170329 Si02
#       5
#     8   8   8   8   8
#     4  11  20  37  63  93 124 157 201 253 307 358
#     4  11  27  46  59  81 126 170 210 251 295 357
#     4  11  20  36  63  94 123 160 199 251 304 362
#     4  10  17  32  59  99 125 144 188 256 318 350
#     4  10  17  30  59  94 126 150 191 256 309 350
#
# _framework density 20.339400999999999
#
# number of rings (size 3 to 8) (size 9 to 14) (size 15 to 20)
#    0.000    1.400    6.000    3.000    2.800    0.800 
#    0.000    3.000    0.000    4.800    0.000    0.000 
#    0.000    0.000    0.000    0.000    0.000    0.000 
#
# Total GULP energy -111601.624568 kJ/mol
# GULP energy per Si atom -5580.081228 kJ/mol
# Density = 2.029311 g / cm^3
# Si number density = 20.339401 Si / 1000 Ang^3
#
#
#
# Elastic Constant Matrix: (Units=GPa)
#
#
# Indices 1 2 3 4 5 6 
#
# 1 137.7722 -5.8700 22.6528 0.0000 4.9872 0.0000
# 2 -5.8700 11.4164 6.2003 0.0000 3.2159 0.0000
# 3 22.6528 6.2003 82.8859 0.0000 8.4594 0.0000
# 4 0.0000 0.0000 0.0000 -6.6040 0.0000 -8.2119
# 5 4.9872 3.2159 8.4594 0.0000 29.2511 0.0000
# 6 0.0000 0.0000 0.0000 -8.2119 0.0000 8.1673
#
#
#
# Elastic Compliance Matrix: (Units=1/GPa)
#
#
# Indices 1 2 3 4 5 6 
#
# 1 0.007959 0.005799 -0.002479 0.000000 -0.001278 0.000000
# 2 0.005799 0.097530 -0.007919 0.000000 -0.009421 0.000000
# 3 -0.002479 -0.007919 0.013604 0.000000 -0.002641 0.000000
# 4 0.000000 0.000000 0.000000 -0.067292 0.000000 -0.067659
# 5 -0.001278 -0.009421 -0.002641 0.000000 0.036204 0.000000
# 6 0.000000 0.000000 0.000000 -0.067659 0.000000 0.054411
#
#
# Mechanical properties :
#
#
# Convention : Reuss Voigt Hill
#
# Bulk Modulus (GPa) = 9.09959 30.89338 19.99649
# Shear Modulus (GPa) = 26.56091 20.10230 23.33161
#
# Velocity S-wave (km/s) = 3.61762 3.14720 3.39058
# Velocity P-wave (km/s) = 4.68329 5.33183 5.01805
#
# Compressibility (1/GPa) = 0.10989504
#
# Stress axis : x y z
#
# Youngs Moduli (GPa) = 125.64070 10.25328 73.50718
#
# Poissons Ratio (x) = -0.05945 0.18220
# Poissons Ratio (y) = -0.72853 0.58210
# Poissons Ratio (z) = 0.31141 0.08119
#
# Static dielectric constant tensor:
#      x y z
#    x 1.802600 0.000000 -0.028360 
#    y 0.000000 1.716260 0.000000 
#    z -0.028360 0.000000 1.726800 
# 
# From -- ./inp_files/47081.got.cif
#   From: 2010.05.17/outbox.cif.g08.bks.cpg/sg12_24_cif.got.tgz:47081.got - 2010.06.03 13:09:07.
