data_PCOD9170117
_publ_section_title
;
Structure prediction by ZEFSAII (Michael W. Deem and Ramdas Pophale) SiO2 
 PCOD9170117
Probable space group: C 2/M
;
_chemical_formula_sum "Si O2"
_cell_formula_units_Z 52
_cell_length_a 20.197790
_cell_length_b 17.967869
_cell_length_c 17.460484
_cell_angle_alpha 90.000000
_cell_angle_beta 29.522435
_cell_angle_gamma 90.000000
_cell_volume 3122.453357
_symmetry_space_group_name_H-M "C 2/M"
_symmetry_group_IT_number 12
_symmetry_cell_setting 'monoclinic'
loop_
_space_group_symop_operation_xyz
x,y,z
-x,y,-z
-x,-y,-z
x,-y,z
1/2+x,1/2+y,z
1/2-x,1/2+y,-z
1/2-x,1/2-y,-z
1/2+x,1/2-y,z
loop_
_atom_site_type_symbol
_atom_site_label
_atom_site_fract_x
_atom_site_fract_y
_atom_site_fract_z
Si Si1 0.210755 0.334316 0.751729
Si Si2 0.619935 0.086939 0.698549
Si Si3 0.362519 0.826080 0.003652
Si Si4 0.128659 0.087952 0.654939
Si Si5 0.000000 0.134830 0.500000
Si Si6 0.529987 0.303882 0.884393
Si Si7 0.105949 0.084278 0.233195
O O1 0.189671 0.398523 0.710808
O O2 0.367537 0.320184 0.608891
O O3 0.136635 0.262471 0.792258
O O4 0.144904 0.353544 0.899986
O O5 0.483599 0.133998 0.837589
O O6 0.728825 0.110660 0.525595
O O7 0.591370 0.000000 0.717938
O O8 0.402312 0.739445 0.974838
O O9 0.221897 0.853339 0.110520
O O10 0.088176 0.135804 0.768710
O O11 0.013608 0.097380 0.706245
O O12 0.135605 0.000000 0.665366
O O13 0.953903 0.089228 0.620779
O O14 0.500000 0.333259 0.000000
O O15 0.159414 0.000000 0.167701
#
# Coordination Sequence:
#
# PCOD9170117 Si02
#       7
#     8   8   8   8   4   8   8
#     4   9  18  30  48  73 100 134 166 198 237 292
#     4  10  18  30  45  72 104 132 165 199 232 288
#     4   9  19  31  49  73 100 137 166 193 237 296
#     4  10  21  34  52  76  98 125 168 211 249 291
#     4  10  17  30  46  72 107 136 164 194 237 292
#     4   9  19  37  54  70  97 125 168 216 250 288
#     4  10  19  31  47  74 107 137 164 195 235 289
#
# _framework density 16.653572
#
# number of rings (size 3 to 8) (size 9 to 14) (size 15 to 20)
#    0.000    2.462    1.538    2.077    0.000    7.077 
#    0.000    0.000    0.000    0.000    0.000    0.538 
#    0.000    0.000    0.000    0.000    0.000    0.000 
#
# Total GULP energy -144809.662155 kJ/mol
# GULP energy per Si atom -5569.602391 kJ/mol
# Density = 1.661567 g / cm^3
# Si number density = 16.653572 Si / 1000 Ang^3
#
#
#
# Elastic Constant Matrix: (Units=GPa)
#
#
# Indices 1 2 3 4 5 6 
#
# 1 38.6160 22.5813 31.4715 0.0005 4.3369 -0.0002
# 2 22.5813 36.6818 44.6721 0.0002 13.7824 0.0000
# 3 31.4715 44.6721 120.0178 -0.0001 9.1586 0.0005
# 4 0.0005 0.0002 -0.0001 23.4789 -0.0001 11.6936
# 5 4.3369 13.7824 9.1586 -0.0001 31.3751 -0.0001
# 6 -0.0002 0.0000 0.0005 11.6936 -0.0001 1.8922
#
#
#
# Elastic Compliance Matrix: (Units=1/GPa)
#
#
# Indices 1 2 3 4 5 6 
#
# 1 0.041775 -0.025784 -0.001821 0.000002 0.006084 -0.000004
# 2 -0.025784 0.076350 -0.019811 0.000000 -0.024192 0.000000
# 3 -0.001821 -0.019811 0.015854 -0.000001 0.004327 0.000002
# 4 0.000002 0.000000 -0.000001 -0.020499 0.000001 0.126675
# 5 0.006084 -0.024192 0.004327 0.000001 0.040396 -0.000001
# 6 -0.000004 0.000000 0.000002 0.126675 -0.000001 -0.254345
#
#
# Mechanical properties :
#
#
# Convention : Reuss Voigt Hill
#
# Bulk Modulus (GPa) = 25.54594 43.64060 34.59327
# Shear Modulus (GPa) = 674.50716 17.78863 346.14790
#
# Velocity S-wave (km/s) = 20.14700 3.27181 14.43272
# Velocity P-wave (km/s) = 23.59185 6.36670 17.27875
#
# Compressibility (1/GPa) = 0.03914516
#
# Stress axis : x y z
#
# Youngs Moduli (GPa) = 23.93786 13.09750 63.07740
#
# Poissons Ratio (x) = 0.33771 0.11489
# Poissons Ratio (y) = 0.61722 1.24964
# Poissons Ratio (z) = 0.04360 0.25948
#
# Static dielectric constant tensor:
#      x y z
#    x 1.563080 0.000000 -0.017290 
#    y 0.000000 1.546030 0.000000 
#    z -0.017290 0.000000 1.584500 
# 
# From -- ./inp_files/284259.got.cif
#   From: 2010.05.17/outbox.cif.g08.bks.cpg/sg12_143_cif.got.tgz:284259.got - 2010.06.03 13:09:07.
