data_PCOD9170816
_publ_section_title
;
Structure prediction by ZEFSAII (Michael W. Deem and Ramdas Pophale) SiO2 
 PCOD9170816
Probable space group: C 2/M
;
_chemical_formula_sum "Si O2"
_cell_formula_units_Z 36
_cell_length_a 10.385283
_cell_length_b 21.845676
_cell_length_c 8.105422
_cell_angle_alpha 90.000000
_cell_angle_beta 108.642038
_cell_angle_gamma 90.000000
_cell_volume 1742.425903
_symmetry_space_group_name_H-M "C 2/M"
_symmetry_group_IT_number 12
_symmetry_cell_setting 'monoclinic'
loop_
_space_group_symop_operation_xyz
x,y,z
-x,y,-z
-x,-y,-z
x,-y,z
1/2+x,1/2+y,z
1/2-x,1/2+y,-z
1/2-x,1/2-y,-z
1/2+x,1/2-y,z
loop_
_atom_site_type_symbol
_atom_site_label
_atom_site_fract_x
_atom_site_fract_y
_atom_site_fract_z
Si Si1 0.163472 0.633004 0.584219
Si Si2 0.162995 0.500000 0.589398
Si Si3 0.643996 0.500000 0.648287
Si Si4 0.355513 0.243936 0.192373
Si Si5 0.727399 0.628976 0.743610
Si Si6 0.000000 0.672419 0.000000
O O1 0.198412 0.566585 0.679588
O O2 0.197929 0.693682 0.700523
O O3 0.228448 0.632883 0.429792
O O4 0.000000 0.634454 0.500000
O O5 0.236597 0.500000 0.441225
O O6 0.000000 0.500000 0.500000
O O7 0.500000 0.500000 0.500000
O O8 0.659502 0.563790 0.749180
O O9 0.367385 0.312084 0.265472
O O10 0.485342 0.214721 0.155828
O O11 0.250000 0.250000 0.000000
O O12 0.863630 0.634511 0.911085
#
# Coordination Sequence:
#
# PCOD9170816 Si02
#       6
#     8   4   4   8   8   4
#     4  10  17  34  60  88 117 150 207 251 306 363
#     4   8  18  34  60  91 120 151 201 264 302 360
#     4  10  22  41  58  91 130 159 205 256 313 379
#     4  10  21  36  55  87 125 153 197 253 311 362
#     4  10  21  38  62  87 122 161 205 257 316 364
#     4  10  20  39  58  91 122 154 208 268 302 365
#
# _framework density 20.66085
#
# number of rings (size 3 to 8) (size 9 to 14) (size 15 to 20)
#    0.000    2.222    2.222    0.667    0.000    1.333 
#   16.000    4.444    0.000    0.667    0.000    0.000 
#    0.000    0.000    0.000    0.000    0.000    0.000 
#
# Total GULP energy -100309.963662 kJ/mol
# GULP energy per Si atom -5572.775759 kJ/mol
# Density = 2.061382 g / cm^3
# Si number density = 20.660850 Si / 1000 Ang^3
#
#
#
# Elastic Constant Matrix: (Units=GPa)
#
#
# Indices 1 2 3 4 5 6 
#
# 1 30.6856 17.8235 7.1409 0.0000 -0.2043 0.0000
# 2 17.8235 232.5676 56.0877 0.0000 4.6219 0.0000
# 3 7.1409 56.0877 46.6457 0.0000 -0.5991 0.0000
# 4 0.0000 0.0000 0.0000 19.7037 0.0000 11.0394
# 5 -0.2043 4.6219 -0.5991 0.0000 28.8033 0.0000
# 6 0.0000 0.0000 0.0000 11.0394 0.0000 23.5582
#
#
#
# Elastic Compliance Matrix: (Units=1/GPa)
#
#
# Indices 1 2 3 4 5 6 
#
# 1 0.034400 -0.001940 -0.002927 0.000000 0.000495 0.000000
# 2 -0.001940 0.006202 -0.007175 0.000000 -0.001158 0.000000
# 3 -0.002927 -0.007175 0.030537 0.000000 0.001766 0.000000
# 4 0.000000 0.000000 0.000000 0.068820 0.000000 -0.032249
# 5 0.000495 -0.001158 0.001766 0.000000 0.034944 0.000000
# 6 0.000000 0.000000 0.000000 -0.032249 0.000000 0.057560
#
#
# Mechanical properties :
#
#
# Convention : Reuss Voigt Hill
#
# Bulk Modulus (GPa) = 21.25224 52.44480 36.84852
# Shear Modulus (GPa) = 18.36666 29.66950 24.01808
#
# Velocity S-wave (km/s) = 2.98478 3.79360 3.41323
# Velocity P-wave (km/s) = 4.71032 6.68037 5.77990
#
# Compressibility (1/GPa) = 0.04705386
#
# Stress axis : x y z
#
# Youngs Moduli (GPa) = 29.06981 161.23916 32.74769
#
# Poissons Ratio (x) = 0.31286 0.09584
# Poissons Ratio (y) = 0.05641 0.23497
# Poissons Ratio (z) = 0.08508 1.15692
#
# Static dielectric constant tensor:
#      x y z
#    x 1.772530 0.000000 -0.020670 
#    y 0.000000 1.830960 0.000000 
#    z -0.020670 0.000000 1.729480 
# 
# From -- ./inp_files/38048.got.cif
#   From: 2010.05.17/outbox.cif.g08.bks.cpg/sg12_20_cif.got.tgz:38048.got - 2010.06.03 13:09:07.
