data_PCOD9170396
_publ_section_title
;
Structure prediction by ZEFSAII (Michael W. Deem and Ramdas Pophale) SiO2 
 PCOD9170396
Probable space group: C 2/M
;
_chemical_formula_sum "Si O2"
_cell_formula_units_Z 44
_cell_length_a 12.765424
_cell_length_b 26.663876
_cell_length_c 6.828700
_cell_angle_alpha 90.000000
_cell_angle_beta 57.532000
_cell_angle_gamma 90.000000
_cell_volume 1961.011681
_symmetry_space_group_name_H-M "C 2/M"
_symmetry_group_IT_number 12
_symmetry_cell_setting 'monoclinic'
loop_
_space_group_symop_operation_xyz
x,y,z
-x,y,-z
-x,-y,-z
x,-y,z
1/2+x,1/2+y,z
1/2-x,1/2+y,-z
1/2-x,1/2-y,-z
1/2+x,1/2-y,z
loop_
_atom_site_type_symbol
_atom_site_label
_atom_site_fract_x
_atom_site_fract_y
_atom_site_fract_z
Si Si1 0.687320 0.711593 0.712193
Si Si2 0.249757 0.558846 0.452823
Si Si3 0.254519 0.620092 0.064299
Si Si4 0.000000 0.284737 0.000000
Si Si5 0.514101 0.874720 0.718689
Si Si6 0.975567 0.875144 0.257146
O O1 0.750000 0.750000 0.500000
O O2 0.751999 0.669443 0.784599
O O3 0.612161 0.747625 0.935185
O O4 0.593842 0.678093 0.672278
O O5 0.244128 0.500000 0.488454
O O6 0.257530 0.573537 0.213249
O O7 0.123637 0.586187 0.649350
O O8 0.375399 0.583032 0.414830
O O9 0.127644 0.615038 0.071455
O O10 0.382447 0.624383 0.813452
O O11 0.041860 0.320979 0.783688
O O12 0.500000 0.873284 0.500000
O O13 0.000000 0.882879 0.000000
#
# Coordination Sequence:
#
# PCOD9170396 Si02
#       6
#     8   8   8   4   8   8
#     4  10  17  31  53  78 109 152 186 223 278 331
#     4   9  17  32  55  79 109 147 181 226 288 334
#     4   9  18  33  47  78 115 136 185 245 263 325
#     4  12  20  36  61  76 113 162 180 222 298 322
#     4  10  22  36  54  86 113 143 190 236 269 338
#     4   8  15  30  47  74 110 140 180 237 264 326
#
# _framework density 22.437398999999999
#
# number of rings (size 3 to 8) (size 9 to 14) (size 15 to 20)
#    0.000    2.909    2.727    3.273    0.000    7.273 
#    0.000    0.455    0.000    3.273    0.000    1.273 
#    0.000    0.000    0.000    0.000    0.000    0.000 
#
# Total GULP energy -122518.185504 kJ/mol
# GULP energy per Si atom -5569.008432 kJ/mol
# Density = 2.238633 g / cm^3
# Si number density = 22.437399 Si / 1000 Ang^3
#
#
#
# Elastic Constant Matrix: (Units=GPa)
#
#
# Indices 1 2 3 4 5 6 
#
# 1 60.7884 47.2126 78.0402 0.0000 -47.1460 0.0000
# 2 47.2126 173.5603 91.5166 0.0000 -34.9751 0.0000
# 3 78.0402 91.5166 62.6595 0.0000 -26.8887 0.0000
# 4 0.0000 0.0000 0.0000 26.0675 0.0000 -10.0334
# 5 -47.1460 -34.9751 -26.8887 0.0000 67.9342 0.0000
# 6 0.0000 0.0000 0.0000 -10.0334 0.0000 11.0762
#
#
#
# Elastic Compliance Matrix: (Units=1/GPa)
#
#
# Indices 1 2 3 4 5 6 
#
# 1 -0.006716 -0.011156 0.024326 0.000000 -0.000776 0.000000
# 2 -0.011156 0.006741 0.002669 0.000000 -0.003215 0.000000
# 3 0.024326 0.002669 -0.012530 0.000000 0.013297 0.000000
# 4 0.000000 0.000000 0.000000 0.058898 0.000000 0.053353
# 5 -0.000776 -0.003215 0.013297 0.000000 0.017789 0.000000
# 6 0.000000 0.000000 0.000000 0.053353 0.000000 0.138614
#
#
# Mechanical properties :
#
#
# Convention : Reuss Voigt Hill
#
# Bulk Modulus (GPa) = 52.15886 81.17187 66.66537
# Shear Modulus (GPa) = 28.16770 26.36485 27.26627
#
# Velocity S-wave (km/s) = 3.54699 3.43160 3.48978
# Velocity P-wave (km/s) = 6.33022 7.20811 6.78338
#
# Compressibility (1/GPa) = 0.01917220
#
# Stress axis : x y z
#
# Youngs Moduli (GPa) = -148.89252 148.34679 -79.80741
#
# Poissons Ratio (x) = 1.65497 1.94136
# Poissons Ratio (y) = -1.66106 0.21304
# Poissons Ratio (z) = 3.62190 -0.39599
#
# Static dielectric constant tensor:
#      x y z
#    x 1.928330 0.000000 -0.094990 
#    y 0.000000 1.754770 0.000000 
#    z -0.094990 0.000000 1.958780 
# 
# From -- ./inp_files/65150.got.cif
#   From: 2010.05.17/outbox.cif.g08.bks.cpg/sg12_33_cif.got.tgz:65150.got - 2010.06.03 13:09:07.
