data_PCOD9170154
_publ_section_title
;
Structure prediction by ZEFSAII (Michael W. Deem and Ramdas Pophale) SiO2 
 PCOD9170154
Probable space group: C 2/M
;
_chemical_formula_sum "Si O2"
_cell_formula_units_Z 40
_cell_length_a 26.481186
_cell_length_b 19.328297
_cell_length_c 8.018202
_cell_angle_alpha 90.000000
_cell_angle_beta 145.395220
_cell_angle_gamma 90.000000
_cell_volume 2330.716109
_symmetry_space_group_name_H-M "C 2/M"
_symmetry_group_IT_number 12
_symmetry_cell_setting 'monoclinic'
loop_
_space_group_symop_operation_xyz
x,y,z
-x,y,-z
-x,-y,-z
x,-y,z
1/2+x,1/2+y,z
1/2-x,1/2+y,-z
1/2-x,1/2-y,-z
1/2+x,1/2-y,z
loop_
_atom_site_type_symbol
_atom_site_label
_atom_site_fract_x
_atom_site_fract_y
_atom_site_fract_z
Si Si1 0.835184 0.264267 0.617026
Si Si2 0.860889 0.000000 0.029564
Si Si3 0.291663 0.353736 0.918631
Si Si4 0.542656 0.500000 0.344106
Si Si5 0.954143 0.761538 0.215897
Si Si6 0.890453 0.853321 0.522769
O O1 0.750000 0.250000 0.500000
O O2 0.800620 0.318499 0.385801
O O3 0.862233 0.193148 0.600758
O O4 0.914731 0.283949 0.958690
O O5 0.911883 0.000000 0.347555
O O6 0.937787 0.000000 0.098882
O O7 0.804343 0.929880 0.876612
O O8 0.372327 0.307198 0.063825
O O9 0.311736 0.355937 0.170831
O O10 0.577013 0.430497 0.351129
O O11 0.000000 0.725860 0.500000
O O12 0.026685 0.813989 0.337977
#
# Coordination Sequence:
#
# PCOD9170154 Si02
#       6
#     8   4   8   4   8   8
#     4  10  20  31  42  65 101 134 167 206 238 282
#     4   9  14  28  49  76 103 135 155 187 247 303
#     4   9  17  29  49  72 101 131 161 195 244 297
#     4   9  16  26  50  77 105 128 160 191 235 308
#     4   9  17  30  48  67  92 127 164 202 246 289
#     4  10  17  30  49  73  99 132 162 195 241 299
#
# _framework density 17.162108
#
# number of rings (size 3 to 8) (size 9 to 14) (size 15 to 20)
#    0.000    2.600    2.000    1.200    0.000    0.000 
#    0.000    6.000    0.000    0.000    0.000    3.500 
#    0.000    3.200    0.000    5.600    0.000    0.400 
#
# Total GULP energy -111431.459819 kJ/mol
# GULP energy per Si atom -5571.572991 kJ/mol
# Density = 1.712305 g / cm^3
# Si number density = 17.162108 Si / 1000 Ang^3
#
#
#
# Elastic Constant Matrix: (Units=GPa)
#
#
# Indices 1 2 3 4 5 6 
#
# 1 58.2422 23.6841 20.5339 0.0000 -10.7988 0.0000
# 2 23.6841 60.9232 44.5254 0.0000 -5.8911 0.0000
# 3 20.5339 44.5254 118.6541 0.0000 -27.8996 0.0000
# 4 0.0000 0.0000 0.0000 1.3213 0.0000 5.6791
# 5 -10.7988 -5.8911 -27.8996 0.0000 17.8023 0.0000
# 6 0.0000 0.0000 0.0000 5.6791 0.0000 12.3651
#
#
#
# Elastic Compliance Matrix: (Units=1/GPa)
#
#
# Indices 1 2 3 4 5 6 
#
# 1 0.022981 -0.009990 0.003598 0.000000 0.016273 0.000000
# 2 -0.009990 0.027955 -0.012686 0.000000 -0.016690 0.000000
# 3 0.003598 -0.012686 0.019148 0.000000 0.027993 0.000000
# 4 0.000000 0.000000 0.000000 -0.776967 0.000000 0.356850
# 5 0.016273 -0.016690 0.027993 0.000000 0.104391 0.000000
# 6 0.000000 0.000000 0.000000 0.356850 0.000000 -0.083023
#
#
# Mechanical properties :
#
#
# Convention : Reuss Voigt Hill
#
# Bulk Modulus (GPa) = 31.32025 46.14514 38.73270
# Shear Modulus (GPa) = -7.85278 16.23615 4.19169
#
# Velocity S-wave (km/s) = -2.14140 3.07912 1.56452
# Velocity P-wave (km/s) = 3.48929 6.29186 5.08737
#
# Compressibility (1/GPa) = 0.03192822
#
# Stress axis : x y z
#
# Youngs Moduli (GPa) = 43.51461 35.77132 52.22563
#
# Poissons Ratio (x) = 0.35736 -0.18792
# Poissons Ratio (y) = 0.43471 0.66253
# Poissons Ratio (z) = -0.15658 0.45379
#
# Static dielectric constant tensor:
#      x y z
#    x 1.603950 0.000000 -0.057810 
#    y 0.000000 1.564430 0.000000 
#    z -0.057810 0.000000 1.642320 
# 
# From -- ./inp_files/62610.got.cif
#   From: 2010.05.17/outbox.cif.g08.bks.cpg/sg12_32_cif.got.tgz:62610.got - 2010.06.03 13:09:07.
