data_PCOD9170609
_publ_section_title
;
Structure prediction by ZEFSAII (Michael W. Deem and Ramdas Pophale) SiO2 
 PCOD9170609
Probable space group: C 2/M
;
_chemical_formula_sum "Si O2"
_cell_formula_units_Z 32
_cell_length_a 16.634624
_cell_length_b 12.271856
_cell_length_c 8.830644
_cell_angle_alpha 90.000000
_cell_angle_beta 128.106433
_cell_angle_gamma 90.000000
_cell_volume 1418.457251
_symmetry_space_group_name_H-M "C 2/M"
_symmetry_group_IT_number 12
_symmetry_cell_setting 'monoclinic'
loop_
_space_group_symop_operation_xyz
x,y,z
-x,y,-z
-x,-y,-z
x,-y,z
1/2+x,1/2+y,z
1/2-x,1/2+y,-z
1/2-x,1/2-y,-z
1/2+x,1/2-y,z
loop_
_atom_site_type_symbol
_atom_site_label
_atom_site_fract_x
_atom_site_fract_y
_atom_site_fract_z
Si Si1 0.958605 0.500000 0.718505
Si Si2 0.385522 0.500000 0.685993
Si Si3 0.290195 0.000000 0.770561
Si Si4 0.782109 0.500000 0.264004
Si Si5 0.050522 0.122870 0.722454
Si Si6 0.646576 0.843202 0.906166
O O1 0.895378 0.500000 0.798930
O O2 0.872607 0.500000 0.490879
O O3 0.033789 0.397720 0.787445
O O4 0.301863 0.500000 0.454534
O O5 0.325486 0.500000 0.773425
O O6 0.459600 0.602554 0.738663
O O7 0.294976 0.107566 0.880882
O O8 0.802102 0.396334 0.181496
O O9 0.000000 0.148665 0.500000
O O10 0.125968 0.216572 0.861983
O O11 0.095884 0.000000 0.760163
#
# Coordination Sequence:
#
# PCOD9170609 Si02
#       6
#     4   4   4   4   8   8
#     4   9  16  30  55  84 119 149 195 239 295 347
#     4   9  19  38  59  88 121 151 192 244 300 347
#     4   9  19  34  58  90 120 146 194 257 299 329
#     4   9  17  30  58  92 115 138 202 258 283 325
#     4   9  19  36  61  80 117 161 205 222 287 369
#     4  10  17  32  59  90 110 153 200 245 283 352
#
# _framework density 22.559719999999999
#
# number of rings (size 3 to 8) (size 9 to 14) (size 15 to 20)
#    0.750    2.250    0.000    4.500    0.000    0.000 
#    0.000   12.500    0.000   24.000    9.750    1.750 
#    0.000    0.000    0.000    0.000    0.000    0.000 
#
# Total GULP energy -89444.107108 kJ/mol
# GULP energy per Si atom -5590.256694 kJ/mol
# Density = 2.250837 g / cm^3
# Si number density = 22.559720 Si / 1000 Ang^3
#
#
#
# Elastic Constant Matrix: (Units=GPa)
#
#
# Indices 1 2 3 4 5 6 
#
# 1 167.2524 58.4112 44.9740 0.0000 -29.3695 0.0000
# 2 58.4112 158.8666 61.2040 0.0000 5.0707 0.0000
# 3 44.9740 61.2040 97.2996 0.0000 -7.3959 0.0000
# 4 0.0000 0.0000 0.0000 39.0349 0.0000 14.9395
# 5 -29.3695 5.0707 -7.3959 0.0000 40.2078 0.0000
# 6 0.0000 0.0000 0.0000 14.9395 0.0000 6.8469
#
#
#
# Elastic Compliance Matrix: (Units=1/GPa)
#
#
# Indices 1 2 3 4 5 6 
#
# 1 0.008461 -0.002616 -0.001795 0.000000 0.006180 0.000000
# 2 -0.002616 0.009285 -0.004934 0.000000 -0.003990 0.000000
# 3 -0.001795 -0.004934 0.014360 0.000000 0.001952 0.000000
# 4 0.000000 0.000000 0.000000 0.155332 0.000000 -0.338926
# 5 0.006180 -0.003990 0.001952 0.000000 0.030247 0.000000
# 6 0.000000 0.000000 0.000000 -0.338926 0.000000 0.885569
#
#
# Mechanical properties :
#
#
# Convention : Reuss Voigt Hill
#
# Bulk Modulus (GPa) = 74.55335 83.62189 79.08762
# Shear Modulus (GPa) = 4.43886 34.47319 19.45603
#
# Velocity S-wave (km/s) = 1.40423 3.91331 2.93989
# Velocity P-wave (km/s) = 5.97896 7.58723 6.83060
#
# Compressibility (1/GPa) = 0.01341321
#
# Stress axis : x y z
#
# Youngs Moduli (GPa) = 118.19460 107.70175 69.64012
#
# Poissons Ratio (x) = 0.28179 0.12502
# Poissons Ratio (y) = 0.30925 0.34363
# Poissons Ratio (z) = 0.21218 0.53144
#
# Static dielectric constant tensor:
#      x y z
#    x 1.865810 0.000000 0.012170 
#    y 0.000000 1.905130 0.000000 
#    z 0.012170 0.000000 1.832790 
# 
# From -- ./inp_files/70611.got.cif
#   From: 2010.05.17/outbox.cif.g08.bks.cpg/sg12_36_cif.got.tgz:70611.got - 2010.06.03 13:09:07.
