data_PCOD9170493
_publ_section_title
;
Structure prediction by ZEFSAII (Michael W. Deem and Ramdas Pophale) SiO2 
 PCOD9170493
Probable space group: C 2/M
;
_chemical_formula_sum "Si O2"
_cell_formula_units_Z 56
_cell_length_a 7.871980
_cell_length_b 23.509319
_cell_length_c 14.823790
_cell_angle_alpha 90.000000
_cell_angle_beta 106.914113
_cell_angle_gamma 90.000000
_cell_volume 2624.690514
_symmetry_space_group_name_H-M "C 2/M"
_symmetry_group_IT_number 12
_symmetry_cell_setting 'monoclinic'
loop_
_space_group_symop_operation_xyz
x,y,z
-x,y,-z
-x,-y,-z
x,-y,z
1/2+x,1/2+y,z
1/2-x,1/2+y,-z
1/2-x,1/2-y,-z
1/2+x,1/2-y,z
loop_
_atom_site_type_symbol
_atom_site_label
_atom_site_fract_x
_atom_site_fract_y
_atom_site_fract_z
Si Si1 0.309318 0.233696 0.110330
Si Si2 0.242500 0.814572 0.396204
Si Si3 0.068380 0.633552 0.196535
Si Si4 0.709086 0.568097 0.125550
Si Si5 0.650179 0.181556 0.396069
Si Si6 0.969722 0.163759 0.807937
Si Si7 0.290908 0.064220 0.938994
O O1 0.473249 0.189035 0.138310
O O2 0.163112 0.200236 0.146189
O O3 0.366941 0.292492 0.166020
O O4 0.250000 0.250000 0.000000
O O5 0.240723 0.837046 0.498447
O O6 0.442196 0.821264 0.390150
O O7 0.200582 0.747390 0.390549
O O8 0.108094 0.840463 0.304167
O O9 0.164089 0.649197 0.304292
O O10 0.198281 0.603229 0.146585
O O11 0.900789 0.591054 0.189201
O O12 0.700134 0.500000 0.129822
O O13 0.554440 0.601111 0.153821
O O14 0.704793 0.584576 0.019094
O O15 0.232118 0.000000 0.910439
O O16 0.500000 0.061126 0.000000
#
# Coordination Sequence:
#
# PCOD9170493 Si02
#       7
#     8   8   8   8   8   8   8
#     4  11  23  34  50  79 114 146 177 223 284 340
#     4  10  18  34  51  78 103 151 179 230 274 345
#     4  10  17  32  50  76 106 144 180 233 272 326
#     4   9  18  32  53  78 107 155 197 227 270 329
#     4  10  19  31  54  74 112 139 190 223 281 338
#     4  11  20  37  55  78 115 148 187 228 281 337
#     4   8  15  28  48  73 102 142 190 224 260 316
#
# _framework density 21.335847999999999
#
# number of rings (size 3 to 8) (size 9 to 14) (size 15 to 20)
#    0.000    2.143    4.286    1.714    0.000    5.714 
#    0.000    0.000    0.000   10.286    0.000    5.000 
#    0.000    0.000    0.000   22.286    0.000    0.143 
#
# Total GULP energy -156542.691753 kJ/mol
# GULP energy per Si atom -5590.810420 kJ/mol
# Density = 2.128729 g / cm^3
# Si number density = 21.335848 Si / 1000 Ang^3
#
#
#
# Elastic Constant Matrix: (Units=GPa)
#
#
# Indices 1 2 3 4 5 6 
#
# 1 65.5411 16.9333 7.7088 0.0000 -6.8822 0.0000
# 2 16.9333 95.4232 57.5309 0.0000 -8.1842 0.0000
# 3 7.7088 57.5309 199.8654 0.0000 -3.5324 0.0000
# 4 0.0000 0.0000 0.0000 30.9461 0.0000 -6.6370
# 5 -6.8822 -8.1842 -3.5324 0.0000 25.7358 0.0000
# 6 0.0000 0.0000 0.0000 -6.6370 0.0000 28.2675
#
#
#
# Elastic Compliance Matrix: (Units=1/GPa)
#
#
# Indices 1 2 3 4 5 6 
#
# 1 0.016305 -0.002722 0.000217 0.000000 0.003525 0.000000
# 2 -0.002722 0.013465 -0.003717 0.000000 0.003044 0.000000
# 3 0.000217 -0.003717 0.006060 0.000000 -0.000292 0.000000
# 4 0.000000 0.000000 0.000000 0.034028 0.000000 0.007989
# 5 0.003525 0.003044 -0.000292 0.000000 0.040727 0.000000
# 6 0.000000 0.000000 0.000000 0.007989 0.000000 0.037252
#
#
# Mechanical properties :
#
#
# Convention : Reuss Voigt Hill
#
# Bulk Modulus (GPa) = 42.76099 58.35284 50.55692
# Shear Modulus (GPa) = 29.74845 35.56700 32.65772
#
# Velocity S-wave (km/s) = 3.73808 4.08733 3.91660
# Velocity P-wave (km/s) = 6.22224 7.04869 6.64832
#
# Compressibility (1/GPa) = 0.02338580
#
# Stress axis : x y z
#
# Youngs Moduli (GPa) = 61.32924 74.26821 165.02278
#
# Poissons Ratio (x) = 0.20215 -0.03579
# Poissons Ratio (y) = 0.16694 0.61339
# Poissons Ratio (z) = -0.01330 0.27606
#
# Static dielectric constant tensor:
#      x y z
#    x 1.947250 0.000000 0.059470 
#    y 0.000000 1.778430 0.000000 
#    z 0.059470 0.000000 1.793390 
# 
# From -- ./inp_files/198524.got.cif
#   From: 2010.05.17/outbox.cif.g08.bks.cpg/sg12_100_cif.got.tgz:198524.got - 2010.06.03 13:09:07.
