data_PCOD9170647
_publ_section_title
;
Structure prediction by ZEFSAII (Michael W. Deem and Ramdas Pophale) SiO2 
 PCOD9170647
Probable space group: C 2/M
;
_chemical_formula_sum "Si O2"
_cell_formula_units_Z 56
_cell_length_a 8.505444
_cell_length_b 29.299236
_cell_length_c 16.430014
_cell_angle_alpha 90.000000
_cell_angle_beta 43.928189
_cell_angle_gamma 90.000000
_cell_volume 2840.521802
_symmetry_space_group_name_H-M "C 2/M"
_symmetry_group_IT_number 12
_symmetry_cell_setting 'monoclinic'
loop_
_space_group_symop_operation_xyz
x,y,z
-x,y,-z
-x,-y,-z
x,-y,z
1/2+x,1/2+y,z
1/2-x,1/2+y,-z
1/2-x,1/2-y,-z
1/2+x,1/2-y,z
loop_
_atom_site_type_symbol
_atom_site_label
_atom_site_fract_x
_atom_site_fract_y
_atom_site_fract_z
Si Si1 0.649021 0.449998 0.025729
Si Si2 0.020778 0.081797 0.745313
Si Si3 0.403753 0.236922 0.365773
Si Si4 0.924232 0.351840 0.621270
Si Si5 0.372600 0.596442 0.468568
Si Si6 0.466202 0.874872 0.100975
Si Si7 0.327390 0.685122 0.689903
O O1 0.763404 0.500000 0.983529
O O2 0.500142 0.447018 0.164181
O O3 0.500000 0.446924 0.000000
O O4 0.827951 0.408781 0.958411
O O5 0.181750 0.124246 0.709021
O O6 0.115734 0.067832 0.620278
O O7 0.762873 0.095540 0.822483
O O8 0.250000 0.250000 0.500000
O O9 0.557893 0.193977 0.333954
O O10 0.544650 0.282434 0.293652
O O11 0.240678 0.218536 0.356990
O O12 0.000000 0.341680 0.500000
O O13 0.115216 0.387889 0.581395
O O14 0.500000 0.576452 0.500000
O O15 0.507350 0.644179 0.399742
O O16 0.400640 0.837780 0.191771
O O17 0.500000 0.852874 0.000000
#
# Coordination Sequence:
#
# PCOD9170647 Si02
#       7
#     8   8   8   8   8   8   8
#     4  10  22  42  70  95 111 138 189 251 303 365
#     4   9  21  33  58  88 117 154 190 242 293 362
#     4  12  21  32  50  81 120 160 207 250 276 331
#     4  10  19  31  51  78 116 160 200 240 283 334
#     4  10  17  33  51  82 121 161 208 236 285 341
#     4   9  21  42  59  82 119 149 197 245 301 358
#     4  11  22  33  53  82 117 167 202 254 288 333
#
# _framework density 19.714689
#
# number of rings (size 3 to 8) (size 9 to 14) (size 15 to 20)
#    0.000    1.857    2.857    1.286    6.000    2.571 
#    0.000    0.714    0.000    4.286    0.000    0.000 
#    0.000    2.571    0.000    0.000    0.000    0.000 
#
# Total GULP energy -156101.730446 kJ/mol
# GULP energy per Si atom -5575.061802 kJ/mol
# Density = 1.966982 g / cm^3
# Si number density = 19.714689 Si / 1000 Ang^3
#
#
#
# Elastic Constant Matrix: (Units=GPa)
#
#
# Indices 1 2 3 4 5 6 
#
# 1 93.0657 29.0340 22.2917 0.0000 9.8989 0.0000
# 2 29.0340 51.1842 40.0063 0.0000 2.3025 0.0000
# 3 22.2917 40.0063 62.3207 0.0000 3.6983 0.0000
# 4 0.0000 0.0000 0.0000 13.1488 0.0000 -3.0697
# 5 9.8989 2.3025 3.6983 0.0000 28.6309 0.0000
# 6 0.0000 0.0000 0.0000 -3.0697 0.0000 -3.2062
#
#
#
# Elastic Compliance Matrix: (Units=1/GPa)
#
#
# Indices 1 2 3 4 5 6 
#
# 1 0.013518 -0.007816 0.000426 0.000000 -0.004100 0.000000
# 2 -0.007816 0.043732 -0.025424 0.000000 0.002470 0.000000
# 3 0.000426 -0.025424 0.032350 0.000000 -0.002281 0.000000
# 4 0.000000 0.000000 0.000000 0.062159 0.000000 -0.059513
# 5 -0.004100 0.002470 -0.002281 0.000000 0.036441 0.000000
# 6 0.000000 0.000000 0.000000 -0.059513 0.000000 -0.254918
#
#
# Mechanical properties :
#
#
# Convention : Reuss Voigt Hill
#
# Bulk Modulus (GPa) = 41.71834 43.24831 42.48332
# Shear Modulus (GPa) = 724.65399 15.39727 370.02563
#
# Velocity S-wave (km/s) = 19.19293 2.79768 13.71487
# Velocity P-wave (km/s) = 22.63548 5.69392 16.50433
#
# Compressibility (1/GPa) = 0.02397028
#
# Stress axis : x y z
#
# Youngs Moduli (GPa) = 73.97733 22.86680 30.91196
#
# Poissons Ratio (x) = 0.17873 -0.01316
# Poissons Ratio (y) = 0.57821 0.78590
# Poissons Ratio (z) = -0.03148 0.58136
#
# Static dielectric constant tensor:
#      x y z
#    x 1.763380 0.000000 0.028370 
#    y 0.000000 1.699910 0.000000 
#    z 0.028370 0.000000 1.724650 
# 
# From -- ./inp_files/125321.got.cif
#   From: 2010.05.17/outbox.cif.g08.bks.cpg/sg12_63_cif.got.tgz:125321.got - 2010.06.03 13:09:07.
