data_PCOD9170584
_publ_section_title
;
Structure prediction by ZEFSAII (Michael W. Deem and Ramdas Pophale) SiO2 
 PCOD9170584
Probable space group: C 2/M
;
_chemical_formula_sum "Si O2"
_cell_formula_units_Z 56
_cell_length_a 22.831284
_cell_length_b 13.583781
_cell_length_c 13.657724
_cell_angle_alpha 90.000000
_cell_angle_beta 143.439683
_cell_angle_gamma 90.000000
_cell_volume 2523.098009
_symmetry_space_group_name_H-M "C 2/M"
_symmetry_group_IT_number 12
_symmetry_cell_setting 'monoclinic'
loop_
_space_group_symop_operation_xyz
x,y,z
-x,y,-z
-x,-y,-z
x,-y,z
1/2+x,1/2+y,z
1/2-x,1/2+y,-z
1/2-x,1/2-y,-z
1/2+x,1/2-y,z
loop_
_atom_site_type_symbol
_atom_site_label
_atom_site_fract_x
_atom_site_fract_y
_atom_site_fract_z
Si Si1 0.251793 0.884735 0.663274
Si Si2 0.992634 0.886860 0.229200
Si Si3 0.890714 0.258549 0.737103
Si Si4 0.348641 0.610430 0.850164
Si Si5 0.144983 0.291497 0.619929
Si Si6 0.420932 0.112855 0.055616
Si Si7 0.928662 0.718430 0.263782
O O1 0.295395 0.828122 0.625748
O O2 0.173811 0.815858 0.615802
O O3 0.228400 0.000000 0.614625
O O4 0.341651 0.883760 0.862880
O O5 0.084031 0.820767 0.314017
O O6 0.945594 0.832162 0.258314
O O7 0.016693 0.000000 0.277899
O O8 0.911204 0.882304 0.033427
O O9 0.889313 0.189218 0.829496
O O10 0.981368 0.332748 0.849089
O O11 0.360103 0.500000 0.826659
O O12 0.234774 0.637345 0.713169
O O13 0.039211 0.321780 0.433967
O O14 0.133045 0.290805 0.720874
O O15 0.388046 0.165923 0.112051
O O16 0.442749 0.000000 0.107356
#
# Coordination Sequence:
#
# PCOD9170584 Si02
#       7
#     8   8   8   8   8   8   8
#     4  10  20  34  56  84 110 139 176 218 264 314
#     4  10  20  34  56  84 110 139 176 218 264 314
#     4  10  17  32  57  84 113 140 171 214 263 316
#     4  10  20  34  56  84 110 139 176 218 264 314
#     4  10  22  39  56  75 104 143 183 222 266 316
#     4  10  20  34  56  84 110 139 176 218 264 314
#     4  10  22  39  56  75 104 143 183 222 266 316
#
# _framework density 22.194935999999998
#
# number of rings (size 3 to 8) (size 9 to 14) (size 15 to 20)
#    0.000    2.000    0.000    6.000    0.000    6.857 
#    0.000   17.143    0.000   13.714    0.000    0.000 
#    0.000    0.000    0.000    0.000    0.000    0.000 
#
# Total GULP energy -156499.734413 kJ/mol
# GULP energy per Si atom -5589.276229 kJ/mol
# Density = 2.214442 g / cm^3
# Si number density = 22.194936 Si / 1000 Ang^3
#
#
#
# Elastic Constant Matrix: (Units=GPa)
#
#
# Indices 1 2 3 4 5 6 
#
# 1 71.3165 18.1566 0.4881 0.0000 -7.0399 0.0000
# 2 18.1566 139.7346 18.0144 0.0000 -2.4583 0.0000
# 3 0.4881 18.0144 40.8059 0.0000 2.4313 0.0000
# 4 0.0000 0.0000 0.0000 -4.0984 0.0000 -5.9677
# 5 -7.0399 -2.4583 2.4313 0.0000 26.9554 0.0000
# 6 0.0000 0.0000 0.0000 -5.9677 0.0000 12.1192
#
#
#
# Elastic Compliance Matrix: (Units=1/GPa)
#
#
# Indices 1 2 3 4 5 6 
#
# 1 0.014871 -0.001926 0.000454 0.000000 0.003667 0.000000
# 2 -0.001926 0.007865 -0.003480 0.000000 0.000528 0.000000
# 3 0.000454 -0.003480 0.026190 0.000000 -0.002561 0.000000
# 4 0.000000 0.000000 0.000000 -0.142105 0.000000 -0.069975
# 5 0.003667 0.000528 -0.002561 0.000000 0.038335 0.000000
# 6 0.000000 0.000000 0.000000 -0.069975 0.000000 0.048057
#
#
# Mechanical properties :
#
#
# Convention : Reuss Voigt Hill
#
# Bulk Modulus (GPa) = 25.62759 36.13061 30.87910
# Shear Modulus (GPa) = 310.06900 21.34176 165.70538
#
# Velocity S-wave (km/s) = 11.83241 3.10427 8.64992
# Velocity P-wave (km/s) = 14.07999 5.40025 10.66323
#
# Compressibility (1/GPa) = 0.03902044
#
# Stress axis : x y z
#
# Youngs Moduli (GPa) = 67.24348 127.15034 38.18265
#
# Poissons Ratio (x) = 0.24493 -0.01734
# Poissons Ratio (y) = 0.12953 0.13289
# Poissons Ratio (z) = -0.03053 0.44254
#
# Static dielectric constant tensor:
#      x y z
#    x 1.788660 0.000000 -0.009510 
#    y 0.000000 1.801550 0.000000 
#    z -0.009510 0.000000 1.888710 
# 
# From -- ./inp_files/233742.got.cif
#   From: 2010.05.17/outbox.cif.g08.bks.cpg/sg12_117_cif.got.tgz:233742.got - 2010.06.03 13:09:07.
