data_PCOD9170861
_publ_section_title
;
Structure prediction by ZEFSAII (Michael W. Deem and Ramdas Pophale) SiO2 
 PCOD9170861
Probable space group: C 2/M
;
_chemical_formula_sum "Si O2"
_cell_formula_units_Z 56
_cell_length_a 16.004671
_cell_length_b 18.362718
_cell_length_c 11.813673
_cell_angle_alpha 90.000000
_cell_angle_beta 128.328215
_cell_angle_gamma 90.000000
_cell_volume 2723.614217
_symmetry_space_group_name_H-M "C 2/M"
_symmetry_group_IT_number 12
_symmetry_cell_setting 'monoclinic'
loop_
_space_group_symop_operation_xyz
x,y,z
-x,y,-z
-x,-y,-z
x,-y,z
1/2+x,1/2+y,z
1/2-x,1/2+y,-z
1/2-x,1/2-y,-z
1/2+x,1/2-y,z
loop_
_atom_site_type_symbol
_atom_site_label
_atom_site_fract_x
_atom_site_fract_y
_atom_site_fract_z
Si Si1 0.412775 0.629323 0.574193
Si Si2 0.757216 0.918362 0.263364
Si Si3 0.089471 0.693198 0.167158
Si Si4 0.866794 0.280682 0.560987
Si Si5 0.742889 0.913107 0.627373
Si Si6 0.642262 0.321675 0.828735
Si Si7 0.231025 0.808085 0.151882
O O1 0.363052 0.583424 0.430254
O O2 0.400097 0.712177 0.515183
O O3 0.341486 0.607348 0.624726
O O4 0.534352 0.633823 0.713487
O O5 0.665134 0.875875 0.252872
O O6 0.771136 0.871879 0.162077
O O7 0.727000 0.000000 0.213705
O O8 0.057140 0.718185 0.265329
O O9 0.161098 0.757405 0.175958
O O10 0.000000 0.677006 0.000000
O O11 0.750000 0.250000 0.500000
O O12 0.851312 0.359486 0.495584
O O13 0.756838 0.882283 0.766699
O O14 0.726087 0.000000 0.608168
O O15 0.665511 0.240933 0.795388
O O16 0.667360 0.318227 0.982172
#
# Coordination Sequence:
#
# PCOD9170861 Si02
#       7
#     8   8   8   8   8   8   8
#     4  11  20  37  63  91 114 156 207 256 294 361
#     4  11  23  38  54  83 123 157 196 244 304 365
#     4  11  20  35  62  86 111 149 199 253 293 345
#     4  10  17  35  59  86 116 146 196 245 296 348
#     4  11  22  36  61  92 126 159 191 252 321 365
#     4  10  23  38  61  85 119 164 205 245 300 361
#     4  10  21  41  59  88 120 157 204 251 297 363
#
# _framework density 20.560914
#
# number of rings (size 3 to 8) (size 9 to 14) (size 15 to 20)
#    0.000    1.429    5.714    2.571    0.000    2.571 
#    0.000    0.714    0.000    1.714    0.000    0.000 
#    0.000    0.000    0.000    0.000    0.000    0.000 
#
# Total GULP energy -155946.495521 kJ/mol
# GULP energy per Si atom -5569.517697 kJ/mol
# Density = 2.051412 g / cm^3
# Si number density = 20.560914 Si / 1000 Ang^3
#
#
#
# Elastic Constant Matrix: (Units=GPa)
#
#
# Indices 1 2 3 4 5 6 
#
# 1 30.7758 12.3586 9.5027 0.0000 -14.9660 0.0000
# 2 12.3586 155.8478 19.8269 0.0000 -11.4751 0.0000
# 3 9.5027 19.8269 99.9911 0.0000 -9.1310 0.0000
# 4 0.0000 0.0000 0.0000 13.9745 0.0000 -7.6017
# 5 -14.9660 -11.4751 -9.1310 0.0000 27.2458 0.0000
# 6 0.0000 0.0000 0.0000 -7.6017 0.0000 9.6491
#
#
#
# Elastic Compliance Matrix: (Units=1/GPa)
#
#
# Indices 1 2 3 4 5 6 
#
# 1 0.045133 -0.001617 -0.001823 0.000000 0.023499 0.000000
# 2 -0.001617 0.006797 -0.001046 0.000000 0.001624 0.000000
# 3 -0.001823 -0.001046 0.010573 0.000000 0.002102 0.000000
# 4 0.000000 0.000000 0.000000 0.125223 0.000000 0.098652
# 5 0.023499 0.001624 0.002102 0.000000 0.050999 0.000000
# 6 0.000000 0.000000 0.000000 0.098652 0.000000 0.181355
#
#
# Mechanical properties :
#
#
# Convention : Reuss Voigt Hill
#
# Bulk Modulus (GPa) = 18.68019 41.11011 29.89515
# Shear Modulus (GPa) = 11.18830 26.50231 18.84531
#
# Velocity S-wave (km/s) = 2.33524 3.59411 3.03076
# Velocity P-wave (km/s) = 4.04675 6.10420 5.17868
#
# Compressibility (1/GPa) = 0.05353264
#
# Stress axis : x y z
#
# Youngs Moduli (GPa) = 22.15695 147.11561 94.57668
#
# Poissons Ratio (x) = 0.23786 0.17238
# Poissons Ratio (y) = 0.03582 0.09891
# Poissons Ratio (z) = 0.04039 0.15386
#
# Static dielectric constant tensor:
#      x y z
#    x 1.821260 0.000000 0.016380 
#    y 0.000000 1.722190 0.000000 
#    z 0.016380 0.000000 1.792940 
# 
# From -- ./inp_files/158341.got.cif
#   From: 2010.05.17/outbox.cif.g08.bks.cpg/sg12_80_cif.got.tgz:158341.got - 2010.06.03 13:09:07.
