data_PCOD9170931
_publ_section_title
;
Structure prediction by ZEFSAII (Michael W. Deem and Ramdas Pophale) SiO2 
 PCOD9170931
Probable space group: C 2/M
;
_chemical_formula_sum "Si O2"
_cell_formula_units_Z 64
_cell_length_a 25.011824
_cell_length_b 15.148030
_cell_length_c 17.036096
_cell_angle_alpha 90.000000
_cell_angle_beta 29.448043
_cell_angle_gamma 90.000000
_cell_volume 3173.318024
_symmetry_space_group_name_H-M "C 2/M"
_symmetry_group_IT_number 12
_symmetry_cell_setting 'monoclinic'
loop_
_space_group_symop_operation_xyz
x,y,z
-x,y,-z
-x,-y,-z
x,-y,z
1/2+x,1/2+y,z
1/2-x,1/2+y,-z
1/2-x,1/2-y,-z
1/2+x,1/2-y,z
loop_
_atom_site_type_symbol
_atom_site_label
_atom_site_fract_x
_atom_site_fract_y
_atom_site_fract_z
Si Si1 0.989293 0.599417 0.267411
Si Si2 0.029834 0.138443 0.871941
Si Si3 0.743968 0.186935 0.432305
Si Si4 0.628398 0.401245 0.337014
Si Si5 0.471457 0.844437 0.950888
Si Si6 0.767651 0.393224 0.004943
Si Si7 0.808953 0.101901 0.071135
Si Si8 0.747606 0.738799 0.258528
O O1 0.981475 0.500000 0.308716
O O2 0.876678 0.649165 0.427312
O O3 0.994014 0.599165 0.166838
O O4 0.106777 0.638358 0.144555
O O5 0.154891 0.118226 0.691616
O O6 0.020052 0.245326 0.881269
O O7 0.000000 0.112412 0.000000
O O8 0.936614 0.105245 0.932255
O O9 0.750000 0.250000 0.500000
O O10 0.767791 0.239182 0.322222
O O11 0.500000 0.410856 0.500000
O O12 0.672809 0.500000 0.299933
O O13 0.645460 0.322230 0.376116
O O14 0.686624 0.372015 0.180743
O O15 0.500000 0.879931 0.000000
O O16 0.344128 0.825545 0.107735
O O17 0.774579 0.500000 0.997245
O O18 0.717412 0.369442 0.984403
O O19 0.752766 0.171489 0.201844
O O20 0.772744 0.000000 0.127385
#
# Coordination Sequence:
#
# PCOD9170931 Si02
#       8
#     8   8   8   8   8   8   8   8
#     4  11  23  38  61  90 126 172 209 257 324 386
#     4  10  19  39  62  87 120 165 209 265 324 369
#     4  12  23  39  61  90 132 165 206 269 321 386
#     4  10  22  41  65  94 127 159 207 272 326 379
#     4  10  17  37  61  86 117 156 208 258 317 373
#     4   9  20  41  62  88 128 166 208 265 318 373
#     4  10  22  39  65  94 123 170 223 264 310 379
#     4  11  22  39  64  92 122 170 210 254 322 384
#
# _framework density 20.168164999999998
#
# number of rings (size 3 to 8) (size 9 to 14) (size 15 to 20)
#    0.000    1.625    6.250    0.000    0.000    4.000 
#    0.000    1.875    0.000    2.625    0.000    0.000 
#    0.000    0.000    0.000    0.000    0.000    0.000 
#
# Total GULP energy -178322.602797 kJ/mol
# GULP energy per Si atom -5572.581337 kJ/mol
# Density = 2.012226 g / cm^3
# Si number density = 20.168165 Si / 1000 Ang^3
#
#
#
# Elastic Constant Matrix: (Units=GPa)
#
#
# Indices 1 2 3 4 5 6 
#
# 1 112.3195 18.2787 15.6036 0.0000 -13.5964 0.0000
# 2 18.2787 56.0522 9.1740 0.0000 -7.1029 0.0000
# 3 15.6036 9.1740 85.4232 0.0000 -23.5849 0.0000
# 4 0.0000 0.0000 0.0000 19.1781 0.0000 -12.2393
# 5 -13.5964 -7.1029 -23.5849 0.0000 31.7627 0.0000
# 6 0.0000 0.0000 0.0000 -12.2393 0.0000 26.2172
#
#
#
# Elastic Compliance Matrix: (Units=1/GPa)
#
#
# Indices 1 2 3 4 5 6 
#
# 1 0.009809 -0.002699 -0.000641 0.000000 0.003120 0.000000
# 2 -0.002699 0.019179 -0.000883 0.000000 0.002478 0.000000
# 3 -0.000641 -0.000883 0.014828 0.000000 0.010539 0.000000
# 4 0.000000 0.000000 0.000000 0.074270 0.000000 0.034672
# 5 0.003120 0.002478 0.010539 0.000000 0.041199 0.000000
# 6 0.000000 0.000000 0.000000 0.034672 0.000000 0.054329
#
#
# Mechanical properties :
#
#
# Convention : Reuss Voigt Hill
#
# Bulk Modulus (GPa) = 28.27045 37.76750 33.01897
# Shear Modulus (GPa) = 21.38138 29.48084 25.43111
#
# Velocity S-wave (km/s) = 3.25953 3.82743 3.55484
# Velocity P-wave (km/s) = 5.31167 6.18864 5.76685
#
# Compressibility (1/GPa) = 0.03537262
#
# Stress axis : x y z
#
# Youngs Moduli (GPa) = 101.94756 52.14030 67.44052
#
# Poissons Ratio (x) = 0.14070 0.04320
# Poissons Ratio (y) = 0.27511 0.05952
# Poissons Ratio (z) = 0.06530 0.04601
#
# Static dielectric constant tensor:
#      x y z
#    x 1.743310 0.000000 -0.062510 
#    y 0.000000 1.747650 0.000000 
#    z -0.062510 0.000000 1.776810 
# 
# From -- ./inp_files/290093.got.cif
#   From: 2010.05.17/outbox.cif.g08.bks.cpg/sg12_146_cif.got.tgz:290093.got - 2010.06.03 13:09:07.
