data_PCOD9170263
_publ_section_title
;
Structure prediction by ZEFSAII (Michael W. Deem and Ramdas Pophale) SiO2 
 PCOD9170263
Probable space group: C 2/M
;
_chemical_formula_sum "Si O2"
_cell_formula_units_Z 56
_cell_length_a 20.991490
_cell_length_b 17.565841
_cell_length_c 6.780023
_cell_angle_alpha 90.000000
_cell_angle_beta 98.530738
_cell_angle_gamma 90.000000
_cell_volume 2472.360258
_symmetry_space_group_name_H-M "C 2/M"
_symmetry_group_IT_number 12
_symmetry_cell_setting 'monoclinic'
loop_
_space_group_symop_operation_xyz
x,y,z
-x,y,-z
-x,-y,-z
x,-y,z
1/2+x,1/2+y,z
1/2-x,1/2+y,-z
1/2-x,1/2-y,-z
1/2+x,1/2-y,z
loop_
_atom_site_type_symbol
_atom_site_label
_atom_site_fract_x
_atom_site_fract_y
_atom_site_fract_z
Si Si1 0.746463 0.584606 0.254991
Si Si2 0.060414 0.270644 0.419175
Si Si3 0.606293 0.179311 0.057270
Si Si4 0.902046 0.585455 0.312764
Si Si5 0.195141 0.184650 0.485525
Si Si6 0.693855 0.687386 0.976684
Si Si7 0.262178 0.907256 0.764077
O O1 0.717458 0.500000 0.244393
O O2 0.824274 0.587016 0.289140
O O3 0.693907 0.660046 0.228389
O O4 0.739228 0.601650 0.998994
O O5 0.054440 0.292582 0.189490
O O6 0.072548 0.350697 0.530992
O O7 0.123674 0.219191 0.456617
O O8 0.000000 0.233550 0.500000
O O9 0.669128 0.139367 0.193302
O O10 0.582267 0.115764 0.896932
O O11 0.631287 0.255837 0.957003
O O12 0.923794 0.500000 0.361673
O O13 0.250000 0.250000 0.500000
O O14 0.240441 0.102595 0.507042
O O15 0.695852 0.660775 0.734521
O O16 0.750000 0.750000 0.000000
O O17 0.269908 0.000000 0.766621
#
# Coordination Sequence:
#
# PCOD9170263 Si02
#       7
#     8   8   8   8   8   8   8
#     4  11  19  31  56  91 123 148 192 252 307 360
#     4  12  27  44  62  88 124 168 218 257 304 364
#     4  11  21  39  64  90 125 167 204 251 309 366
#     4  11  23  39  63  94 129 164 204 253 306 374
#     4  12  20  38  60  89 118 158 208 255 308 364
#     4  10  17  30  53  88 124 155 187 242 306 359
#     4  11  20  32  59  97 129 155 196 260 320 369
#
# _framework density 22.650417999999998
#
# number of rings (size 3 to 8) (size 9 to 14) (size 15 to 20)
#    0.000    0.857    7.143    3.000    0.000    3.143 
#    0.000    0.714    0.000    1.714    0.000    1.000 
#    0.000    0.000    0.000    0.000    0.000    0.000 
#
# Total GULP energy -156185.081995 kJ/mol
# GULP energy per Si atom -5578.038643 kJ/mol
# Density = 2.259887 g / cm^3
# Si number density = 22.650418 Si / 1000 Ang^3
#
#
#
# Elastic Constant Matrix: (Units=GPa)
#
#
# Indices 1 2 3 4 5 6 
#
# 1 103.0709 35.9657 42.2681 0.0000 -30.2649 0.0000
# 2 35.9657 134.9617 41.3600 0.0000 -6.3977 0.0000
# 3 42.2681 41.3600 171.3706 0.0000 -16.6376 0.0000
# 4 0.0000 0.0000 0.0000 70.8551 0.0000 3.7288
# 5 -30.2649 -6.3977 -16.6376 0.0000 38.4784 0.0000
# 6 0.0000 0.0000 0.0000 3.7288 0.0000 15.0060
#
#
#
# Elastic Compliance Matrix: (Units=1/GPa)
#
#
# Indices 1 2 3 4 5 6 
#
# 1 0.014402 -0.002777 -0.001907 0.000000 0.010041 0.000000
# 2 -0.002777 0.008547 -0.001515 0.000000 -0.001419 0.000000
# 3 -0.001907 -0.001515 0.006786 0.000000 0.001182 0.000000
# 4 0.000000 0.000000 0.000000 0.014300 0.000000 -0.003553
# 5 0.010041 -0.001419 0.001182 0.000000 0.034162 0.000000
# 6 0.000000 0.000000 0.000000 -0.003553 0.000000 0.067523
#
#
# Mechanical properties :
#
#
# Convention : Reuss Voigt Hill
#
# Bulk Modulus (GPa) = 57.68692 72.06565 64.87629
# Shear Modulus (GPa) = 30.50681 44.18852 37.34767
#
# Velocity S-wave (km/s) = 3.67393 4.42168 4.06504
# Velocity P-wave (km/s) = 6.59702 7.61275 7.12301
#
# Compressibility (1/GPa) = 0.01733495
#
# Stress axis : x y z
#
# Youngs Moduli (GPa) = 69.43634 117.00224 147.35798
#
# Poissons Ratio (x) = 0.32497 0.28100
# Poissons Ratio (y) = 0.19286 0.22331
# Poissons Ratio (z) = 0.13241 0.17731
#
# Static dielectric constant tensor:
#      x y z
#    x 1.811630 0.000000 0.020280 
#    y 0.000000 1.819710 0.000000 
#    z 0.020280 0.000000 2.192950 
# 
# From -- ./inp_files/87245.got.cif
#   From: 2010.05.17/outbox.cif.g08.bks.cpg/sg12_44_cif.got.tgz:87245.got - 2010.06.03 13:09:07.
