data_PCOD9170116
_publ_section_title
;
Structure prediction by ZEFSAII (Michael W. Deem and Ramdas Pophale) SiO2 
 PCOD9170116
Probable space group: C 2/M
;
_chemical_formula_sum "Si O2"
_cell_formula_units_Z 56
_cell_length_a 14.713142
_cell_length_b 22.878137
_cell_length_c 14.539654
_cell_angle_alpha 90.000000
_cell_angle_beta 139.298651
_cell_angle_gamma 90.000000
_cell_volume 3191.575917
_symmetry_space_group_name_H-M "C 2/M"
_symmetry_group_IT_number 12
_symmetry_cell_setting 'monoclinic'
loop_
_space_group_symop_operation_xyz
x,y,z
-x,y,-z
-x,-y,-z
x,-y,z
1/2+x,1/2+y,z
1/2-x,1/2+y,-z
1/2-x,1/2-y,-z
1/2+x,1/2-y,z
loop_
_atom_site_type_symbol
_atom_site_label
_atom_site_fract_x
_atom_site_fract_y
_atom_site_fract_z
Si Si1 0.242819 0.130195 0.437012
Si Si2 0.047942 0.149343 0.437749
Si Si3 0.726336 0.753342 0.331820
Si Si4 0.156668 0.567725 0.662638
Si Si5 0.944702 0.362668 0.245148
Si Si6 0.547461 0.823392 0.935022
Si Si7 0.322374 0.741030 0.206036
O O1 0.125712 0.110998 0.420492
O O2 0.216311 0.197798 0.389369
O O3 0.249122 0.095662 0.345484
O O4 0.395364 0.127680 0.601246
O O5 0.162659 0.199041 0.549370
O O6 0.000000 0.123847 0.500000
O O7 0.919311 0.184569 0.295374
O O8 0.581507 0.785045 0.201047
O O9 0.784144 0.734013 0.277249
O O10 0.191128 0.500000 0.703047
O O11 0.148212 0.601227 0.753525
O O12 0.000000 0.571300 0.500000
O O13 0.927341 0.372794 0.122797
O O14 0.902438 0.294507 0.221800
O O15 0.500000 0.844595 0.000000
O O16 0.681977 0.782083 0.051274
#
# Coordination Sequence:
#
# PCOD9170116 Si02
#       7
#     8   8   8   8   8   8   8
#     4  11  18  30  52  72  99 135 170 212 258 299
#     4  10  19  28  47  73 102 134 176 197 239 309
#     4  10  17  30  46  72 101 141 172 199 243 306
#     4   9  20  34  53  80 102 126 175 227 265 297
#     4  11  18  31  51  70 101 139 167 207 264 294
#     4  10  21  31  44  72 111 140 168 200 243 306
#     4  10  19  29  45  73 105 138 171 203 236 311
#
# _framework density 17.546189999999999
#
# number of rings (size 3 to 8) (size 9 to 14) (size 15 to 20)
#    0.000    1.857    4.286    1.714    0.000    0.000 
#    0.000    0.000    0.000    0.857    0.000    8.000 
#    0.000    0.000    0.000    0.000    0.000    0.000 
#
# Total GULP energy -156022.684375 kJ/mol
# GULP energy per Si atom -5572.238728 kJ/mol
# Density = 1.750625 g / cm^3
# Si number density = 17.546190 Si / 1000 Ang^3
#
#
#
# Elastic Constant Matrix: (Units=GPa)
#
#
# Indices 1 2 3 4 5 6 
#
# 1 163.7450 32.9951 17.3860 0.0000 -32.7695 0.0000
# 2 32.9951 30.5368 2.6795 0.0000 -17.2474 0.0000
# 3 17.3860 2.6795 47.1716 0.0000 -5.9594 0.0000
# 4 0.0000 0.0000 0.0000 7.8586 0.0000 -2.5940
# 5 -32.7695 -17.2474 -5.9594 0.0000 36.4770 0.0000
# 6 0.0000 0.0000 0.0000 -2.5940 0.0000 11.4016
#
#
#
# Elastic Compliance Matrix: (Units=1/GPa)
#
#
# Indices 1 2 3 4 5 6 
#
# 1 0.008516 -0.006672 -0.002238 0.000000 0.004130 0.000000
# 2 -0.006672 0.049908 0.001887 0.000000 0.017912 0.000000
# 3 -0.002238 0.001887 0.022234 0.000000 0.002514 0.000000
# 4 0.000000 0.000000 0.000000 0.137580 0.000000 0.031301
# 5 0.004130 0.017912 0.002514 0.000000 0.040005 0.000000
# 6 0.000000 0.000000 0.000000 0.031301 0.000000 0.094828
#
#
# Mechanical properties :
#
#
# Convention : Reuss Voigt Hill
#
# Bulk Modulus (GPa) = 15.01225 38.61942 26.81583
# Shear Modulus (GPa) = 12.84286 23.70697 18.27492
#
# Velocity S-wave (km/s) = 2.70838 3.67974 3.23078
# Velocity P-wave (km/s) = 4.28426 6.33340 5.40679
#
# Compressibility (1/GPa) = 0.06661225
#
# Stress axis : x y z
#
# Youngs Moduli (GPa) = 117.43156 20.03677 44.97522
#
# Poissons Ratio (x) = 0.13369 0.10065
# Poissons Ratio (y) = 0.78354 -0.08488
# Poissons Ratio (z) = 0.26280 -0.03781
#
# Static dielectric constant tensor:
#      x y z
#    x 1.725960 0.000000 -0.042760 
#    y 0.000000 1.556320 0.000000 
#    z -0.042760 0.000000 1.599560 
# 
# From -- ./inp_files/79071.got.cif
#   From: 2010.05.17/outbox.cif.g08.bks.cpg/sg12_40_cif.got.tgz:79071.got - 2010.06.03 13:09:07.
