data_PCOD9170279
_publ_section_title
;
Structure prediction by ZEFSAII (Michael W. Deem and Ramdas Pophale) SiO2 
 PCOD9170279
Probable space group: C 2/M
;
_chemical_formula_sum "Si O2"
_cell_formula_units_Z 48
_cell_length_a 22.164838
_cell_length_b 20.010284
_cell_length_c 7.690632
_cell_angle_alpha 90.000000
_cell_angle_beta 140.639597
_cell_angle_gamma 90.000000
_cell_volume 2163.234333
_symmetry_space_group_name_H-M "C 2/M"
_symmetry_group_IT_number 12
_symmetry_cell_setting 'monoclinic'
loop_
_space_group_symop_operation_xyz
x,y,z
-x,y,-z
-x,-y,-z
x,-y,z
1/2+x,1/2+y,z
1/2-x,1/2+y,-z
1/2-x,1/2-y,-z
1/2+x,1/2-y,z
loop_
_atom_site_type_symbol
_atom_site_label
_atom_site_fract_x
_atom_site_fract_y
_atom_site_fract_z
Si Si1 0.341508 0.217526 0.616402
Si Si2 0.255930 0.075311 0.816814
Si Si3 0.389767 0.924940 0.812323
Si Si4 0.892516 0.927599 0.833622
Si Si5 0.074966 0.201389 0.903535
Si Si6 0.860784 0.197642 0.321324
O O1 0.250000 0.250000 0.500000
O O2 0.344115 0.138269 0.617569
O O3 0.342750 0.247564 0.427739
O O4 0.420185 0.244401 0.931725
O O5 0.357362 0.084730 0.943094
O O6 0.180053 0.074850 0.488294
O O7 0.214983 0.137010 0.837155
O O8 0.254730 0.000000 0.892138
O O9 0.355361 0.000000 0.691652
O O10 0.500000 0.923068 0.000000
O O11 0.884761 0.000000 0.903125
O O12 0.875232 0.865255 0.916990
O O13 0.000000 0.921598 0.000000
O O14 0.126573 0.225523 0.844155
O O15 0.968589 0.177515 0.617313
#
# Coordination Sequence:
#
# PCOD9170279 Si02
#       6
#     8   8   8   8   8   8
#     4  12  22  41  65  89 122 161 204 261 319 370
#     4  10  19  35  57  87 122 161 210 252 303 369
#     4  10  21  38  64  90 115 159 212 259 310 367
#     4  10  17  30  54  82 122 172 211 248 301 370
#     4  11  22  35  57  89 128 162 206 246 312 386
#     4  11  22  36  57  91 124 163 200 253 315 379
#
# _framework density 22.188997000000001
#
# number of rings (size 3 to 8) (size 9 to 14) (size 15 to 20)
#    0.000    1.333    5.000    1.500    0.000    1.333 
#    0.000    1.667    0.000    1.000    0.000    4.667 
#    0.000    0.000    0.000    0.000    0.000    0.000 
#
# Total GULP energy -133897.617955 kJ/mol
# GULP energy per Si atom -5579.067415 kJ/mol
# Density = 2.213849 g / cm^3
# Si number density = 22.188997 Si / 1000 Ang^3
#
#
#
# Elastic Constant Matrix: (Units=GPa)
#
#
# Indices 1 2 3 4 5 6 
#
# 1 138.8301 57.7790 26.2677 0.0000 10.0805 0.0000
# 2 57.7790 158.9418 9.6636 0.0000 -6.8947 0.0000
# 3 26.2677 9.6636 50.6109 0.0000 13.7647 0.0000
# 4 0.0000 0.0000 0.0000 12.1864 0.0000 15.4967
# 5 10.0805 -6.8947 13.7647 0.0000 32.9673 0.0000
# 6 0.0000 0.0000 0.0000 15.4967 0.0000 20.0733
#
#
#
# Elastic Compliance Matrix: (Units=1/GPa)
#
#
# Indices 1 2 3 4 5 6 
#
# 1 0.009420 -0.003286 -0.003713 0.000000 -0.002017 0.000000
# 2 -0.003286 0.007640 -0.000520 0.000000 0.002820 0.000000
# 3 -0.003713 -0.000520 0.024261 0.000000 -0.009103 0.000000
# 4 0.000000 0.000000 0.000000 4.488122 0.000000 -3.464865
# 5 -0.002017 0.002820 -0.009103 0.000000 0.035340 0.000000
# 6 0.000000 0.000000 0.000000 -3.464865 0.000000 2.724720
#
#
# Mechanical properties :
#
#
# Convention : Reuss Voigt Hill
#
# Bulk Modulus (GPa) = 38.04848 59.53370 48.79109
# Shear Modulus (GPa) = 0.68369 30.02356 15.35362
#
# Velocity S-wave (km/s) = 0.55569 3.68242 2.63334
# Velocity P-wave (km/s) = 4.19481 6.70588 5.59308
#
# Compressibility (1/GPa) = 0.02628226
#
# Stress axis : x y z
#
# Youngs Moduli (GPa) = 106.16154 130.88825 41.21899
#
# Poissons Ratio (x) = 0.43010 0.15304
# Poissons Ratio (y) = 0.34885 0.02144
# Poissons Ratio (z) = 0.39416 0.06809
#
# Static dielectric constant tensor:
#      x y z
#    x 1.866520 0.000000 0.058180 
#    y 0.000000 1.819780 0.000000 
#    z 0.058180 0.000000 1.901280 
# 
# From -- ./inp_files/98943.got.cif
#   From: 2010.05.17/outbox.cif.g08.bks.cpg/sg12_50_cif.got.tgz:98943.got - 2010.06.03 13:09:07.
