data_PCOD9170169
_publ_section_title
;
Structure prediction by ZEFSAII (Michael W. Deem and Ramdas Pophale) SiO2 
 PCOD9170169
Probable space group: C 2/M
;
_chemical_formula_sum "Si O2"
_cell_formula_units_Z 64
_cell_length_a 13.665871
_cell_length_b 24.793585
_cell_length_c 11.590172
_cell_angle_alpha 90.000000
_cell_angle_beta 99.527361
_cell_angle_gamma 90.000000
_cell_volume 3872.883757
_symmetry_space_group_name_H-M "C 2/M"
_symmetry_group_IT_number 12
_symmetry_cell_setting 'monoclinic'
loop_
_space_group_symop_operation_xyz
x,y,z
-x,y,-z
-x,-y,-z
x,-y,z
1/2+x,1/2+y,z
1/2-x,1/2+y,-z
1/2-x,1/2-y,-z
1/2+x,1/2-y,z
loop_
_atom_site_type_symbol
_atom_site_label
_atom_site_fract_x
_atom_site_fract_y
_atom_site_fract_z
Si Si1 0.068438 0.732443 0.273556
Si Si2 0.666914 0.561611 0.810139
Si Si3 0.568814 0.440470 0.291265
Si Si4 0.651055 0.244419 0.822137
Si Si5 0.247116 0.162051 0.684360
Si Si6 0.390355 0.419506 0.948675
Si Si7 0.854700 0.204092 0.927187
Si Si8 0.898808 0.165367 0.554182
O O1 0.139058 0.681020 0.304422
O O2 0.091895 0.756924 0.152185
O O3 0.098011 0.780546 0.367634
O O4 0.950727 0.722492 0.250751
O O5 0.694324 0.500000 0.786580
O O6 0.548993 0.568001 0.758708
O O7 0.725901 0.606744 0.749658
O O8 0.675063 0.569172 0.950831
O O9 0.578497 0.500000 0.348244
O O10 0.629302 0.441065 0.182749
O O11 0.601078 0.388873 0.370072
O O12 0.693502 0.290670 0.747163
O O13 0.739673 0.202774 0.864395
O O14 0.635135 0.272479 0.942992
O O15 0.193118 0.162507 0.550820
O O16 0.395963 0.355511 0.933365
O O17 0.500000 0.440336 0.000000
O O18 0.000000 0.165139 0.500000
#
# Coordination Sequence:
#
# PCOD9170169 Si02
#       8
#     8   8   8   8   8   8   8   8
#     4  11  21  35  51  71 105 137 169 213 251 304
#     4  10  19  32  50  75 105 133 167 210 253 308
#     4  10  20  32  50  74 102 138 171 204 254 307
#     4  10  19  33  49  78 104 128 164 206 255 308
#     4  11  22  34  51  75 101 138 176 204 257 302
#     4  10  17  30  50  74 104 134 163 201 251 307
#     4  10  19  29  53  76 102 130 163 203 255 311
#     4  12  21  34  50  69 103 143 171 212 249 295
#
# _framework density 16.525153
#
# number of rings (size 3 to 8) (size 9 to 14) (size 15 to 20)
#    0.000    1.500    5.000    1.875    0.000    2.250 
#    0.000    0.000    0.000    0.000    0.000    2.625 
#    0.000    1.500    0.000    0.000    0.000    0.000 
#
# Total GULP energy -178421.773247 kJ/mol
# GULP energy per Si atom -5575.680414 kJ/mol
# Density = 1.648754 g / cm^3
# Si number density = 16.525153 Si / 1000 Ang^3
#
#
#
# Elastic Constant Matrix: (Units=GPa)
#
#
# Indices 1 2 3 4 5 6 
#
# 1 67.1287 30.2747 22.3215 0.0000 20.2894 0.0000
# 2 30.2747 89.7693 34.9100 0.0000 13.3142 0.0000
# 3 22.3215 34.9100 78.7878 0.0000 3.4211 0.0000
# 4 0.0000 0.0000 0.0000 5.9978 0.0000 4.3843
# 5 20.2894 13.3142 3.4211 0.0000 19.5345 0.0000
# 6 0.0000 0.0000 0.0000 4.3843 0.0000 17.7168
#
#
#
# Elastic Compliance Matrix: (Units=1/GPa)
#
#
# Indices 1 2 3 4 5 6 
#
# 1 0.024727 -0.003178 -0.004611 0.000000 -0.022709 0.000000
# 2 -0.003178 0.015307 -0.005615 0.000000 -0.006149 0.000000
# 3 -0.004611 -0.005615 0.016236 0.000000 0.005773 0.000000
# 4 0.000000 0.000000 0.000000 0.203550 0.000000 -0.050371
# 5 -0.022709 -0.006149 0.005773 0.000000 0.077958 0.000000
# 6 0.000000 0.000000 0.000000 -0.050371 0.000000 0.068909
#
#
# Mechanical properties :
#
#
# Convention : Reuss Voigt Hill
#
# Bulk Modulus (GPa) = 33.94237 45.63315 39.78776
# Shear Modulus (GPa) = 11.27865 18.52844 14.90355
#
# Velocity S-wave (km/s) = 2.61533 3.35211 3.00637
# Velocity P-wave (km/s) = 5.45017 6.53119 6.01501
#
# Compressibility (1/GPa) = 0.02946170
#
# Stress axis : x y z
#
# Youngs Moduli (GPa) = 40.44153 65.32973 61.59133
#
# Poissons Ratio (x) = 0.20760 0.28402
# Poissons Ratio (y) = 0.12851 0.34584
# Poissons Ratio (z) = 0.18649 0.36683
#
# Static dielectric constant tensor:
#      x y z
#    x 1.571880 0.000000 -0.008870 
#    y 0.000000 1.546750 0.000000 
#    z -0.008870 0.000000 1.585800 
# 
# From -- ./inp_files/148656.got.cif
#   From: 2010.05.17/outbox.cif.g08.bks.cpg/sg12_75_cif.got.tgz:148656.got - 2010.06.03 13:09:07.
