data_PCOD9170195
_publ_section_title
;
Structure prediction by ZEFSAII (Michael W. Deem and Ramdas Pophale) SiO2 
 PCOD9170195
Probable space group: C 2/M
;
_chemical_formula_sum "Si O2"
_cell_formula_units_Z 48
_cell_length_a 26.447132
_cell_length_b 8.803202
_cell_length_c 11.663016
_cell_angle_alpha 90.000000
_cell_angle_beta 92.463659
_cell_angle_gamma 90.000000
_cell_volume 2712.867058
_symmetry_space_group_name_H-M "C 2/M"
_symmetry_group_IT_number 12
_symmetry_cell_setting 'monoclinic'
loop_
_space_group_symop_operation_xyz
x,y,z
-x,y,-z
-x,-y,-z
x,-y,z
1/2+x,1/2+y,z
1/2-x,1/2+y,-z
1/2-x,1/2-y,-z
1/2+x,1/2-y,z
loop_
_atom_site_type_symbol
_atom_site_label
_atom_site_fract_x
_atom_site_fract_y
_atom_site_fract_z
Si Si1 0.698736 0.316162 0.637766
Si Si2 0.896692 0.824657 0.248403
Si Si3 0.559707 0.334384 0.492164
Si Si4 0.496965 0.319138 0.135786
Si Si5 0.908469 0.675591 0.721050
Si Si6 0.191318 0.818749 0.368990
O O1 0.698797 0.500000 0.642932
O O2 0.659122 0.259150 0.730709
O O3 0.754946 0.253364 0.658901
O O4 0.683043 0.277609 0.503994
O O5 0.918310 0.826375 0.379474
O O6 0.942578 0.758806 0.177109
O O7 0.889891 0.000000 0.208321
O O8 0.500000 0.335970 0.500000
O O9 0.575770 0.500000 0.443503
O O10 0.574327 0.201784 0.408580
O O11 0.498126 0.500000 0.163103
O O12 0.546012 0.246137 0.200067
O O13 0.500000 0.299850 0.000000
O O14 0.902403 0.500000 0.748519
O O15 0.854198 0.758631 0.714452
O O16 0.194635 0.000000 0.363261
#
# Coordination Sequence:
#
# PCOD9170195 Si02
#       6
#     8   8   8   8   8   8
#     4   9  17  30  49  75 108 141 169 206 258 312
#     4   9  16  30  53  78 105 137 170 210 261 312
#     4  10  17  30  51  74 105 140 174 209 256 316
#     4  10  21  38  59  79 100 136 184 223 260 313
#     4  12  23  33  50  77 111 142 174 216 264 314
#     4  10  19  32  50  74 106 143 177 209 252 312
#
# _framework density 17.693456999999999
#
# number of rings (size 3 to 8) (size 9 to 14) (size 15 to 20)
#    0.000    2.000    3.333    2.000    0.000    1.333 
#    0.000    0.833    0.000    1.000    0.000    0.000 
#    0.000    0.000    0.000    0.000    0.000    0.000 
#
# Total GULP energy -133677.949976 kJ/mol
# GULP energy per Si atom -5569.914582 kJ/mol
# Density = 1.765319 g / cm^3
# Si number density = 17.693457 Si / 1000 Ang^3
#
#
#
# Elastic Constant Matrix: (Units=GPa)
#
#
# Indices 1 2 3 4 5 6 
#
# 1 166.7976 35.7925 41.6179 0.0000 -7.8223 0.0000
# 2 35.7925 37.8947 19.3021 0.0000 0.1280 0.0000
# 3 41.6179 19.3021 42.0896 0.0000 -5.2499 0.0000
# 4 0.0000 0.0000 0.0000 9.1625 0.0000 -0.4669
# 5 -7.8223 0.1280 -5.2499 0.0000 10.3414 0.0000
# 6 0.0000 0.0000 0.0000 -0.4669 0.0000 23.6436
#
#
#
# Elastic Compliance Matrix: (Units=1/GPa)
#
#
# Indices 1 2 3 4 5 6 
#
# 1 0.008751 -0.005364 -0.005722 0.000000 0.003781 0.000000
# 2 -0.005364 0.038525 -0.013803 0.000000 -0.011542 0.000000
# 3 -0.005722 -0.013803 0.037609 0.000000 0.014936 0.000000
# 4 0.000000 0.000000 0.000000 0.109251 0.000000 0.002157
# 5 0.003781 -0.011542 0.014936 0.000000 0.107284 0.000000
# 6 0.000000 0.000000 0.000000 0.002157 0.000000 0.042337
#
#
# Mechanical properties :
#
#
# Convention : Reuss Voigt Hill
#
# Bulk Modulus (GPa) = 28.48338 48.91187 38.69763
# Shear Modulus (GPa) = 12.33843 18.63414 15.48628
#
# Velocity S-wave (km/s) = 2.64359 3.24877 2.96168
# Velocity P-wave (km/s) = 5.04493 6.46349 5.79776
#
# Compressibility (1/GPa) = 0.03510819
#
# Stress axis : x y z
#
# Youngs Moduli (GPa) = 114.26850 25.95697 26.58930
#
# Poissons Ratio (x) = 0.13924 0.15213
# Poissons Ratio (y) = 0.61297 0.36701
# Poissons Ratio (z) = 0.65379 0.35828
#
# Static dielectric constant tensor:
#      x y z
#    x 1.686210 0.000000 -0.009400 
#    y 0.000000 1.617700 0.000000 
#    z -0.009400 0.000000 1.580340 
# 
# From -- ./inp_files/179327.got.cif
#   From: 2010.05.17/outbox.cif.g08.bks.cpg/sg12_90_cif.got.tgz:179327.got - 2010.06.03 13:09:07.
