data_PCOD9170381
_publ_section_title
;
Structure prediction by ZEFSAII (Michael W. Deem and Ramdas Pophale) SiO2 
 PCOD9170381
Probable space group: C 2/M
;
_chemical_formula_sum "Si O2"
_cell_formula_units_Z 44
_cell_length_a 14.786965
_cell_length_b 16.739065
_cell_length_c 27.623001
_cell_angle_alpha 90.000000
_cell_angle_beta 161.415831
_cell_angle_gamma 90.000000
_cell_volume 2179.012168
_symmetry_space_group_name_H-M "C 2/M"
_symmetry_group_IT_number 12
_symmetry_cell_setting 'monoclinic'
loop_
_space_group_symop_operation_xyz
x,y,z
-x,y,-z
-x,-y,-z
x,-y,z
1/2+x,1/2+y,z
1/2-x,1/2+y,-z
1/2-x,1/2-y,-z
1/2+x,1/2-y,z
loop_
_atom_site_type_symbol
_atom_site_label
_atom_site_fract_x
_atom_site_fract_y
_atom_site_fract_z
Si Si1 0.073999 0.000000 0.934904
Si Si2 0.008951 0.286111 0.450655
Si Si3 0.391081 0.000000 0.733235
Si Si4 0.492719 0.410753 0.806012
Si Si5 0.062243 0.121620 0.633393
Si Si6 0.413566 0.000000 0.628973
Si Si7 0.963219 0.092822 0.277081
O O1 0.137202 0.924974 0.931111
O O2 0.743602 0.000000 0.782289
O O3 0.281677 0.000000 0.085085
O O4 0.739667 0.343171 0.307801
O O5 0.992117 0.213575 0.405281
O O6 0.000000 0.249369 0.500000
O O7 0.280453 0.344052 0.588641
O O8 0.241778 0.076175 0.683130
O O9 0.370998 0.000000 0.665414
O O10 0.354907 0.500000 0.729960
O O11 0.657287 0.397997 0.838791
O O12 0.758266 0.076058 0.478668
O O13 0.203483 0.108210 0.757746
O O14 0.053109 0.000000 0.325840
#
# Coordination Sequence:
#
# PCOD9170381 Si02
#       7
#     4   8   4   8   8   4   8
#     4  10  21  38  58  76 102 152 199 224 264 320
#     4  10  18  30  53  84 116 145 178 226 277 324
#     4  11  23  38  53  76 113 154 185 227 272 326
#     4   8  18  33  55  79 109 143 186 223 264 324
#     4  11  21  35  55  85 118 141 176 228 289 324
#     4  11  21  36  57  78 109 148 193 227 266 330
#     4  10  17  31  52  85 114 141 176 222 273 332
#
# _framework density 20.192636
#
# number of rings (size 3 to 8) (size 9 to 14) (size 15 to 20)
#    0.545    1.455    1.818    4.636    0.000    2.182 
#    0.000    2.727    0.000    0.000    0.000    0.000 
#    0.000    0.000    0.000    0.000    0.000    0.000 
#
# Total GULP energy -122496.765038 kJ/mol
# GULP energy per Si atom -5568.034774 kJ/mol
# Density = 2.014668 g / cm^3
# Si number density = 20.192636 Si / 1000 Ang^3
#
#
#
# Elastic Constant Matrix: (Units=GPa)
#
#
# Indices 1 2 3 4 5 6 
#
# 1 115.0274 4.7193 2.3133 0.0058 0.8986 -0.0378
# 2 4.7193 101.4914 1.6626 -0.0255 10.9252 0.0004
# 3 2.3133 1.6626 53.7861 0.0231 17.6376 -0.0955
# 4 0.0058 -0.0255 0.0231 -0.4168 -0.0299 2.2431
# 5 0.8986 10.9252 17.6376 -0.0299 26.3462 0.0134
# 6 -0.0378 0.0004 -0.0955 2.2431 0.0134 12.5783
#
#
#
# Elastic Compliance Matrix: (Units=1/GPa)
#
#
# Indices 1 2 3 4 5 6 
#
# 1 0.008718 -0.000415 -0.000411 0.000121 0.000150 0.000001
# 2 -0.000415 0.010415 0.001419 -0.000055 -0.005255 0.000025
# 3 -0.000411 0.001419 0.024027 0.001789 -0.016658 -0.000120
# 4 0.000121 -0.000055 0.001789 -1.224067 -0.002679 0.218303
# 5 0.000150 -0.005255 -0.016658 -0.002679 0.051278 0.000297
# 6 0.000001 0.000025 -0.000120 0.218303 0.000297 0.040571
#
#
# Mechanical properties :
#
#
# Convention : Reuss Voigt Hill
#
# Bulk Modulus (GPa) = 22.55013 31.96611 27.25812
# Shear Modulus (GPa) = -4.64917 25.14219 10.24651
#
# Velocity S-wave (km/s) = -1.51901 3.53245 2.25508
# Velocity P-wave (km/s) = 2.84872 5.70110 4.50654
#
# Compressibility (1/GPa) = 0.04434565
#
# Stress axis : x y z
#
# Youngs Moduli (GPa) = 114.70921 96.01779 41.61921
#
# Poissons Ratio (x) = 0.03982 0.01712
# Poissons Ratio (y) = 0.04758 -0.05906
# Poissons Ratio (z) = 0.04719 -0.13626
#
# Static dielectric constant tensor:
#      x y z
#    x 1.813350 0.000000 0.005080 
#    y 0.000000 1.673540 -0.000010 
#    z 0.005080 -0.000010 1.699740 
# 
# From -- ./inp_files/376842.got.cif
#   From: 2010.05.17/outbox.cif.g08.bks.cpg/sg12_189_cif.got.tgz:376842.got - 2010.06.03 13:09:07.
