data_PCOD9170407
_publ_section_title
;
Structure prediction by ZEFSAII (Michael W. Deem and Ramdas Pophale) SiO2 
 PCOD9170407
Probable space group: C 2/M
;
_chemical_formula_sum "Si O2"
_cell_formula_units_Z 64
_cell_length_a 26.146360
_cell_length_b 7.660970
_cell_length_c 30.099282
_cell_angle_alpha 90.000000
_cell_angle_beta 29.078847
_cell_angle_gamma 90.000000
_cell_volume 2930.210400
_symmetry_space_group_name_H-M "C 2/M"
_symmetry_group_IT_number 12
_symmetry_cell_setting 'monoclinic'
loop_
_space_group_symop_operation_xyz
x,y,z
-x,y,-z
-x,-y,-z
x,-y,z
1/2+x,1/2+y,z
1/2-x,1/2+y,-z
1/2-x,1/2-y,-z
1/2+x,1/2-y,z
loop_
_atom_site_type_symbol
_atom_site_label
_atom_site_fract_x
_atom_site_fract_y
_atom_site_fract_z
Si Si1 0.538942 0.785733 0.352669
Si Si2 0.084737 0.707713 0.471782
Si Si3 0.242548 0.199742 0.778117
Si Si4 0.679597 0.710394 0.985391
Si Si5 0.177979 0.703356 0.734668
Si Si6 0.988569 0.290806 0.818626
Si Si7 0.424067 0.297434 0.021443
Si Si8 0.415639 0.213742 0.781608
O O1 0.443311 0.731120 0.457020
O O2 0.642990 0.723724 0.300252
O O3 0.546945 0.727987 0.295508
O O4 0.542880 0.000000 0.348002
O O5 0.068558 0.500000 0.484836
O O6 0.204996 0.736294 0.367056
O O7 0.000000 0.777509 0.500000
O O8 0.171500 0.274714 0.792814
O O9 0.185753 0.198600 0.868659
O O10 0.258394 0.000000 0.752010
O O11 0.681752 0.500000 0.979843
O O12 0.599183 0.779680 0.008641
O O13 0.796605 0.770634 0.884388
O O14 0.625171 0.754225 0.073005
O O15 0.176393 0.500000 0.726587
O O16 0.082080 0.781907 0.778852
O O17 0.997562 0.500000 0.810545
O O18 0.987360 0.229498 0.768650
O O19 0.460802 0.500000 0.987159
O O20 0.500000 0.213239 0.000000
O O21 0.414345 0.000000 0.781786
#
# Coordination Sequence:
#
# PCOD9170407 Si02
#       8
#     8   8   8   8   8   8   8   8
#     4   9  16  30  55  83 103 124 166 220 268 309
#     4  10  19  34  58  84 105 128 167 220 270 313
#     4  10  17  31  54  77 103 132 169 218 263 306
#     4  10  18  31  55  82 103 132 179 225 261 300
#     4  11  23  36  50  74 110 147 176 205 255 319
#     4  10  22  37  51  72 108 149 180 210 253 307
#     4   9  16  25  43  75 107 131 161 210 265 306
#     4   9  17  33  56  79 104 137 179 220 257 304
#
# _framework density 21.841434
#
# number of rings (size 3 to 8) (size 9 to 14) (size 15 to 20)
#    0.000    2.250    2.500    1.500    0.000    2.250 
#    0.000    1.250    0.000    4.500    0.000    0.000 
#    0.000    0.000    0.000    0.000    0.000    0.000 
#
# Total GULP energy -178508.189487 kJ/mol
# GULP energy per Si atom -5578.380921 kJ/mol
# Density = 2.179172 g / cm^3
# Si number density = 21.841434 Si / 1000 Ang^3
#
#
#
# Elastic Constant Matrix: (Units=GPa)
#
#
# Indices 1 2 3 4 5 6 
#
# 1 148.0970 4.5266 49.7213 -0.0176 22.2063 0.0474
# 2 4.5266 34.5931 3.0419 -0.0353 2.8154 0.0597
# 3 49.7213 3.0419 72.4935 -0.0321 16.8859 0.0347
# 4 -0.0176 -0.0353 -0.0321 4.4212 0.0082 3.4764
# 5 22.2063 2.8154 16.8859 0.0082 31.5189 -0.0222
# 6 0.0474 0.0597 0.0347 3.4764 -0.0222 8.3395
#
#
#
# Elastic Compliance Matrix: (Units=1/GPa)
#
#
# Indices 1 2 3 4 5 6 
#
# 1 0.009105 -0.000432 -0.005418 0.000041 -0.003474 -0.000053
# 2 -0.000432 0.029173 -0.000447 0.000591 -0.002062 -0.000456
# 3 -0.005418 -0.000447 0.019002 0.000258 -0.006323 -0.000169
# 4 0.000041 0.000591 0.000258 0.336498 -0.000406 -0.140281
# 5 -0.003474 -0.002062 -0.006323 -0.000406 0.037747 0.000330
# 6 -0.000053 -0.000456 -0.000169 -0.140281 0.000330 0.178394
#
#
# Mechanical properties :
#
#
# Convention : Reuss Voigt Hill
#
# Bulk Modulus (GPa) = 22.37806 41.08478 31.73142
# Shear Modulus (GPa) = 7.84426 22.04884 14.94655
#
# Velocity S-wave (km/s) = 1.89717 3.18070 2.61879
# Velocity P-wave (km/s) = 3.88162 5.68687 4.86865
#
# Compressibility (1/GPa) = 0.04468662
#
# Stress axis : x y z
#
# Youngs Moduli (GPa) = 109.82483 34.27877 52.62577
#
# Poissons Ratio (x) = 0.01481 0.28511
# Poissons Ratio (y) = 0.04746 0.02351
# Poissons Ratio (z) = 0.59500 0.01532
#
# Static dielectric constant tensor:
#      x y z
#    x 1.839050 -0.000010 -0.023860 
#    y -0.000010 1.822140 0.000020 
#    z -0.023860 0.000020 1.796210 
# 
# From -- ./inp_files/382232.got.cif
#   From: 2010.05.17/outbox.cif.g08.bks.cpg/sg12_192_cif.got.tgz:382232.got - 2010.06.03 13:09:07.
