data_PCOD9170697
_publ_section_title
;
Structure prediction by ZEFSAII (Michael W. Deem and Ramdas Pophale) SiO2 
 PCOD9170697
Probable space group: C 2/M
;
_chemical_formula_sum "Si O2"
_cell_formula_units_Z 40
_cell_length_a 12.147015
_cell_length_b 20.919822
_cell_length_c 7.046962
_cell_angle_alpha 90.000000
_cell_angle_beta 53.748708
_cell_angle_gamma 90.000000
_cell_volume 1444.098584
_symmetry_space_group_name_H-M "C 2/M"
_symmetry_group_IT_number 12
_symmetry_cell_setting 'monoclinic'
loop_
_space_group_symop_operation_xyz
x,y,z
-x,y,-z
-x,-y,-z
x,-y,z
1/2+x,1/2+y,z
1/2-x,1/2+y,-z
1/2-x,1/2-y,-z
1/2+x,1/2-y,z
loop_
_atom_site_type_symbol
_atom_site_label
_atom_site_fract_x
_atom_site_fract_y
_atom_site_fract_z
Si Si1 0.810909 0.500000 0.607453
Si Si2 0.965396 0.140079 0.315999
Si Si3 0.662857 0.136258 0.477612
Si Si4 0.000000 0.745712 0.000000
Si Si5 0.373897 0.000000 0.983275
Si Si6 0.131049 0.350674 0.078168
Si Si7 0.014552 0.000000 0.715093
O O1 0.888200 0.562618 0.467146
O O2 0.815704 0.500000 0.827124
O O3 0.666760 0.500000 0.648241
O O4 0.804035 0.136528 0.442229
O O5 0.000000 0.145812 0.500000
O O6 0.032633 0.071712 0.181365
O O7 0.004237 0.203136 0.167058
O O8 0.527929 0.166146 0.701889
O O9 0.693868 0.152865 0.225352
O O10 0.137919 0.703901 0.911307
O O11 0.340648 0.078982 0.040311
O O12 0.500000 0.000000 0.000000
O O13 0.000000 0.000000 0.500000
#
# Coordination Sequence:
#
# PCOD9170697 Si02
#       7
#     4   8   8   4   4   8   4
#     4   8  15  30  60  93 109 148 201 245 308 356
#     4  10  23  44  65  90 120 157 204 256 304 358
#     4   9  19  39  65  86 119 159 198 255 302 358
#     4  12  26  40  56  94 126 162 210 238 300 368
#     4  10  17  33  56  87 130 157 191 252 299 362
#     4  10  21  38  61  92 121 161 203 242 305 366
#     4   8  16  38  68  85 109 151 204 252 305 351
#
# _framework density 27.69894
#
# number of rings (size 3 to 8) (size 9 to 14) (size 15 to 20)
#    0.000    2.400    1.000    0.600    2.800    4.400 
#    3.600    0.000    0.000    0.000    0.000    0.000 
#    0.000    0.000    0.000    0.000    0.000    0.000 
#
# Total GULP energy -111337.874974 kJ/mol
# GULP energy per Si atom -5566.893749 kJ/mol
# Density = 2.763590 g / cm^3
# Si number density = 27.698940 Si / 1000 Ang^3
#
#
#
# Elastic Constant Matrix: (Units=GPa)
#
#
# Indices 1 2 3 4 5 6 
#
# 1 196.6071 9.5158 55.6243 0.0000 47.4674 0.0000
# 2 9.5158 209.3585 38.5094 0.0000 4.4823 0.0000
# 3 55.6243 38.5094 88.2901 0.0000 50.4857 0.0000
# 4 0.0000 0.0000 0.0000 23.0302 0.0000 25.7611
# 5 47.4674 4.4823 50.4857 0.0000 62.0328 0.0000
# 6 0.0000 0.0000 0.0000 25.7611 0.0000 -20.8697
#
#
#
# Elastic Compliance Matrix: (Units=1/GPa)
#
#
# Indices 1 2 3 4 5 6 
#
# 1 0.006496 0.000229 -0.002508 0.000000 -0.002946 0.000000
# 2 0.000229 0.005464 -0.004118 0.000000 0.002781 0.000000
# 3 -0.002508 -0.004118 0.025130 0.000000 -0.018235 0.000000
# 4 0.000000 0.000000 0.000000 0.018238 0.000000 0.022513
# 5 -0.002946 0.002781 -0.018235 0.000000 0.033015 0.000000
# 6 0.000000 0.000000 0.000000 0.022513 0.000000 -0.020127
#
#
# Mechanical properties :
#
#
# Convention : Reuss Voigt Hill
#
# Bulk Modulus (GPa) = 41.15838 77.95053 59.55445
# Shear Modulus (GPa) = 56.11130 38.87907 47.49519
#
# Velocity S-wave (km/s) = 4.50572 3.75057 4.14538
# Velocity P-wave (km/s) = 6.47767 6.85265 6.66780
#
# Compressibility (1/GPa) = 0.02429639
#
# Stress axis : x y z
#
# Youngs Moduli (GPa) = 153.93980 183.01636 39.79370
#
# Poissons Ratio (x) = -0.04193 0.09979
# Poissons Ratio (y) = -0.03527 0.16387
# Poissons Ratio (z) = 0.38605 0.75365
#
# Static dielectric constant tensor:
#      x y z
#    x 2.143700 0.000000 -0.227800 
#    y 0.000000 2.299800 0.000000 
#    z -0.227800 0.000000 1.832620 
# 
# From -- ./inp_files/48771.got.cif
#   From: 2010.05.17/outbox.cif.g08.bks.cpg/sg12_25_cif.got.tgz:48771.got - 2010.06.03 13:09:07.
