data_PCOD9170045
_publ_section_title
;
Structure prediction by ZEFSAII (Michael W. Deem and Ramdas Pophale) SiO2 
 PCOD9170045
Probable space group: C 2/M
;
_chemical_formula_sum "Si O2"
_cell_formula_units_Z 44
_cell_length_a 8.132563
_cell_length_b 21.637888
_cell_length_c 16.961305
_cell_angle_alpha 90.000000
_cell_angle_beta 56.655610
_cell_angle_gamma 90.000000
_cell_volume 2493.368991
_symmetry_space_group_name_H-M "C 2/M"
_symmetry_group_IT_number 12
_symmetry_cell_setting 'monoclinic'
loop_
_space_group_symop_operation_xyz
x,y,z
-x,y,-z
-x,-y,-z
x,-y,z
1/2+x,1/2+y,z
1/2-x,1/2+y,-z
1/2-x,1/2-y,-z
1/2+x,1/2-y,z
loop_
_atom_site_type_symbol
_atom_site_label
_atom_site_fract_x
_atom_site_fract_y
_atom_site_fract_z
Si Si1 0.760556 0.929386 0.065868
Si Si2 0.095892 0.425306 0.280101
Si Si3 0.201381 0.158338 0.076288
Si Si4 0.500000 0.737900 0.000000
Si Si5 0.352278 0.424954 0.607027
Si Si6 0.512873 0.425495 0.739072
O O1 0.685678 0.908498 0.171037
O O2 0.694644 0.000000 0.071008
O O3 0.686569 0.885299 0.016254
O O4 0.000000 0.930336 0.000000
O O5 0.085943 0.500000 0.282909
O O6 0.257849 0.409863 0.303760
O O7 0.872117 0.402514 0.345952
O O8 0.048426 0.194146 0.060233
O O9 0.110432 0.114199 0.165721
O O10 0.330656 0.215153 0.071567
O O11 0.500000 0.403147 0.500000
O O12 0.346174 0.500000 0.603940
O O13 0.437718 0.411201 0.671204
O O14 0.488754 0.500000 0.759131
#
# Coordination Sequence:
#
# PCOD9170045 Si02
#       6
#     8   8   8   4   8   8
#     4  10  17  29  52  78 109 142 171 216 264 311
#     4   9  17  29  47  74 107 144 175 204 258 318
#     4  11  20  37  49  75 106 143 183 217 257 322
#     4  10  24  34  50  68 110 150 182 216 262 302
#     4   9  19  33  48  76 114 141 171 217 270 331
#     4  10  19  33  56  81 106 140 178 217 269 325
#
# _framework density 17.646805000000001
#
# number of rings (size 3 to 8) (size 9 to 14) (size 15 to 20)
#    0.000    2.182    2.727    0.545    2.545    0.727 
#    0.000    4.545    0.000    0.000    0.000    1.273 
#    0.000    0.000    0.000    0.000    0.000    0.000 
#
# Total GULP energy -122566.043022 kJ/mol
# GULP energy per Si atom -5571.183774 kJ/mol
# Density = 1.760664 g / cm^3
# Si number density = 17.646805 Si / 1000 Ang^3
#
#
#
# Elastic Constant Matrix: (Units=GPa)
#
#
# Indices 1 2 3 4 5 6 
#
# 1 96.1336 32.3698 49.0517 0.0000 2.3575 0.0000
# 2 32.3698 66.5970 23.5245 0.0000 8.1429 0.0000
# 3 49.0517 23.5245 81.6862 0.0000 -3.4398 0.0000
# 4 0.0000 0.0000 0.0000 6.3868 0.0000 4.6177
# 5 2.3575 8.1429 -3.4398 0.0000 21.1682 0.0000
# 6 0.0000 0.0000 0.0000 4.6177 0.0000 -1.7494
#
#
#
# Elastic Compliance Matrix: (Units=1/GPa)
#
#
# Indices 1 2 3 4 5 6 
#
# 1 0.016399 -0.004792 -0.008525 0.000000 -0.001368 0.000000
# 2 -0.004792 0.019304 -0.002992 0.000000 -0.007378 0.000000
# 3 -0.008525 -0.002992 0.018438 0.000000 0.005097 0.000000
# 4 0.000000 0.000000 0.000000 0.053834 0.000000 0.142100
# 5 -0.001368 -0.007378 0.005097 0.000000 0.051059 0.000000
# 6 0.000000 0.000000 0.000000 0.142100 0.000000 -0.196539
#
#
# Mechanical properties :
#
#
# Convention : Reuss Voigt Hill
#
# Bulk Modulus (GPa) = 46.46493 50.47874 48.47184
# Shear Modulus (GPa) = 2184.68573 14.45916 1099.57245
#
# Velocity S-wave (km/s) = 35.22349 2.86556 24.98905
# Velocity P-wave (km/s) = 40.99569 6.29410 29.32799
#
# Compressibility (1/GPa) = 0.02152161
#
# Stress axis : x y z
#
# Youngs Moduli (GPa) = 60.97829 51.80232 54.23706
#
# Poissons Ratio (x) = 0.24825 0.46238
# Poissons Ratio (y) = 0.29222 0.16230
# Poissons Ratio (z) = 0.51985 0.15501
#
# Static dielectric constant tensor:
#      x y z
#    x 1.680100 0.000000 -0.025950 
#    y 0.000000 1.579120 0.000000 
#    z -0.025950 0.000000 1.587640 
# 
# From -- ./inp_files/121377.got.cif
#   From: 2010.05.17/outbox.cif.g08.bks.cpg/sg12_61_cif.got.tgz:121377.got - 2010.06.03 13:09:07.
