data_PCOD9170126
_publ_section_title
;
Structure prediction by ZEFSAII (Michael W. Deem and Ramdas Pophale) SiO2 
 PCOD9170126
Probable space group: C 2/M
;
_chemical_formula_sum "Si O2"
_cell_formula_units_Z 64
_cell_length_a 11.569691
_cell_length_b 30.641994
_cell_length_c 11.327527
_cell_angle_alpha 90.000000
_cell_angle_beta 81.817154
_cell_angle_gamma 90.000000
_cell_volume 3974.931296
_symmetry_space_group_name_H-M "C 2/M"
_symmetry_group_IT_number 12
_symmetry_cell_setting 'monoclinic'
loop_
_space_group_symop_operation_xyz
x,y,z
-x,y,-z
-x,-y,-z
x,-y,z
1/2+x,1/2+y,z
1/2-x,1/2+y,-z
1/2-x,1/2-y,-z
1/2+x,1/2-y,z
loop_
_atom_site_type_symbol
_atom_site_label
_atom_site_fract_x
_atom_site_fract_y
_atom_site_fract_z
Si Si1 0.565864 0.294601 0.689847
Si Si2 0.261908 0.642902 0.457568
Si Si3 0.374489 0.805141 0.318868
Si Si4 0.319734 0.713227 0.834211
Si Si5 0.394808 0.860631 0.757720
Si Si6 0.801649 0.548329 0.494858
Si Si7 0.214718 0.192928 0.901375
Si Si8 0.026100 0.452242 0.302576
O O1 0.622334 0.330128 0.594314
O O2 0.606204 0.245638 0.649391
O O3 0.427660 0.293495 0.730518
O O4 0.620021 0.305095 0.811201
O O5 0.192120 0.668386 0.569570
O O6 0.178007 0.642551 0.354322
O O7 0.276123 0.591874 0.489358
O O8 0.294810 0.804713 0.213719
O O9 0.496937 0.827996 0.273054
O O10 0.293651 0.763953 0.866094
O O11 0.337876 0.693158 0.960809
O O12 0.303536 0.846465 0.869748
O O13 0.442204 0.909064 0.772061
O O14 0.745883 0.500000 0.494707
O O15 0.882898 0.547807 0.600532
O O16 0.896990 0.552529 0.376601
O O17 0.034905 0.500000 0.244009
#
# Coordination Sequence:
#
# PCOD9170126 Si02
#       8
#     8   8   8   8   8   8   8   8
#     4  10  20  33  46  64  91 124 157 187 222 270
#     4  10  19  30  45  68  98 127 147 180 228 277
#     4  11  20  30  44  68  94 125 152 180 229 273
#     4  10  20  33  46  65  88 118 162 198 217 258
#     4  10  17  30  47  69  97 122 152 182 229 279
#     4   8  13  23  41  66  92 118 149 183 222 266
#     4   9  19  33  50  64  84 120 157 196 232 253
#     4   8  13  22  41  67  94 118 143 184 228 272
#
# _framework density 16.100906999999999
#
# number of rings (size 3 to 8) (size 9 to 14) (size 15 to 20)
#    0.000    2.500    2.500    1.875    0.000    1.000 
#    2.250    0.000    0.000    0.000    0.000    6.125 
#    0.000    6.000    0.000    0.000    0.000    0.000 
#
# Total GULP energy -178210.236037 kJ/mol
# GULP energy per Si atom -5569.069876 kJ/mol
# Density = 1.606426 g / cm^3
# Si number density = 16.100907 Si / 1000 Ang^3
#
#
#
# Elastic Constant Matrix: (Units=GPa)
#
#
# Indices 1 2 3 4 5 6 
#
# 1 30.2397 21.4878 0.8701 0.0000 -12.0433 0.0000
# 2 21.4878 108.7009 11.1334 0.0000 -9.5598 0.0000
# 3 0.8701 11.1334 24.2557 0.0000 -5.2184 0.0000
# 4 0.0000 0.0000 0.0000 13.1647 0.0000 -4.5967
# 5 -12.0433 -9.5598 -5.2184 0.0000 13.6064 0.0000
# 6 0.0000 0.0000 0.0000 -4.5967 0.0000 19.4403
#
#
#
# Elastic Compliance Matrix: (Units=1/GPa)
#
#
# Indices 1 2 3 4 5 6 
#
# 1 0.059181 -0.008498 0.012820 0.000000 0.051329 0.000000
# 2 -0.008498 0.011273 -0.005214 0.000000 -0.001601 0.000000
# 3 0.012820 -0.005214 0.048844 0.000000 0.026417 0.000000
# 4 0.000000 0.000000 0.000000 0.082797 0.000000 0.019577
# 5 0.051329 -0.001601 0.026417 0.000000 0.127934 0.000000
# 6 0.000000 0.000000 0.000000 0.019577 0.000000 0.056069
#
#
# Mechanical properties :
#
#
# Convention : Reuss Voigt Hill
#
# Bulk Modulus (GPa) = 8.50951 25.57544 17.04248
# Shear Modulus (GPa) = 11.70821 17.88927 14.79874
#
# Velocity S-wave (km/s) = 2.69955 3.33689 3.03500
# Velocity P-wave (km/s) = 3.87470 5.54666 4.78428
#
# Compressibility (1/GPa) = 0.11751554
#
# Stress axis : x y z
#
# Youngs Moduli (GPa) = 16.89735 88.71086 20.47327
#
# Poissons Ratio (x) = 0.75384 -0.26248
# Poissons Ratio (y) = 0.14359 0.10674
# Poissons Ratio (z) = -0.21663 0.46252
#
# Static dielectric constant tensor:
#      x y z
#    x 1.536360 0.000000 0.010680 
#    y 0.000000 1.566170 0.000000 
#    z 0.010680 0.000000 1.530870 
# 
# From -- ./inp_files/137420.got.cif
#   From: 2010.05.17/outbox.cif.g08.bks.cpg/sg12_69_cif.got.tgz:137420.got - 2010.06.03 13:09:07.
