data_PCOD9170978
_publ_section_title
;
Structure prediction by ZEFSAII (Michael W. Deem and Ramdas Pophale) SiO2 
 PCOD9170978
Probable space group: C 2/M
;
_chemical_formula_sum "Si O2"
_cell_formula_units_Z 42
_cell_length_a 13.963798
_cell_length_b 14.210417
_cell_length_c 16.574367
_cell_angle_alpha 90.000000
_cell_angle_beta 27.256044
_cell_angle_gamma 90.000000
_cell_volume 1506.198369
_symmetry_space_group_name_H-M "C 2/M"
_symmetry_group_IT_number 12
_symmetry_cell_setting 'monoclinic'
loop_
_space_group_symop_operation_xyz
x,y,z
-x,y,-z
-x,-y,-z
x,-y,z
1/2+x,1/2+y,z
1/2-x,1/2+y,-z
1/2-x,1/2-y,-z
1/2+x,1/2-y,z
loop_
_atom_site_type_symbol
_atom_site_label
_atom_site_fract_x
_atom_site_fract_y
_atom_site_fract_z
Si Si1 0.648744 0.132813 0.773200
Si Si2 0.659339 0.641208 0.765046
Si Si3 0.789850 0.636821 0.849857
Si Si4 0.239479 0.362088 0.484918
Si Si5 0.212272 0.135375 0.149176
Si Si6 0.000000 0.000000 0.500000
O O1 0.658944 0.244832 0.759636
O O2 0.715572 0.108315 0.815190
O O3 0.835470 0.081336 0.588852
O O4 0.405771 0.105749 0.948010
O O5 0.738996 0.615123 0.793989
O O6 0.790528 0.616478 0.588149
O O7 0.415939 0.609206 0.945813
O O8 0.792032 0.750971 0.853917
O O9 0.027119 0.605512 0.687366
O O10 0.250000 0.250000 0.500000
O O11 0.476372 0.396952 0.316852
#
# Coordination Sequence:
#
# PCOD9170978 Si02
#       6
#     8   8   8   8   8   2
#     4   9  20  34  46  63  90 127 174 209 235 271
#     4   9  17  31  46  66 105 127 157 199 230 291
#     4   8  16  28  44  67  93 134 156 176 232 291
#     4  10  18  25  46  73  90 131 161 184 245 305
#     4   8  17  33  44  62  94 121 160 202 243 287
#     4  12  24  30  52  68  72 138 194 212 244 260
#
# _framework density 27.884771000000001
#
# number of rings (size 3 to 8) (size 9 to 14) (size 15 to 20)
#    0.000    3.048    0.000    2.857    8.000    8.381 
#    0.000    0.000    0.000    0.000    0.000    0.000 
#    0.000    0.000    0.000   20.571   14.476    1.905 
#
# Total GULP energy -117155.741562 kJ/mol
# GULP energy per Si atom -5578.844836 kJ/mol
# Density = 2.782130 g / cm^3
# Si number density = 27.884771 Si / 1000 Ang^3
#
#
#
# Elastic Constant Matrix: (Units=GPa)
#
#
# Indices 1 2 3 4 5 6 
#
# 1 86.3460 -3.2011 84.0070 -0.0062 -12.5109 0.0054
# 2 -3.2011 150.7555 18.8193 0.0694 -13.9045 -0.0271
# 3 84.0070 18.8193 289.3412 0.0188 -29.0046 -0.0005
# 4 -0.0062 0.0694 0.0188 18.6690 0.0016 -17.7178
# 5 -12.5109 -13.9045 -29.0046 0.0016 84.6392 0.0004
# 6 0.0054 -0.0271 -0.0005 -17.7178 0.0004 -23.8393
#
#
#
# Elastic Compliance Matrix: (Units=1/GPa)
#
#
# Indices 1 2 3 4 5 6 
#
# 1 0.016348 0.001025 -0.004716 0.000005 0.000969 -0.000001
# 2 0.001025 0.006832 -0.000636 -0.000019 0.001056 0.000006
# 3 -0.004716 -0.000636 0.004957 -0.000003 0.000897 0.000002
# 4 0.000005 -0.000019 -0.000003 0.031410 -0.000004 -0.023344
# 5 0.000969 0.001056 0.000897 -0.000004 0.012439 0.000002
# 6 -0.000001 0.000006 0.000002 -0.023344 0.000002 -0.024598
#
#
# Mechanical properties :
#
#
# Convention : Reuss Voigt Hill
#
# Bulk Modulus (GPa) = 51.32816 80.63257 65.98036
# Shear Modulus (GPa) = 79.95427 44.34826 62.15127
#
# Velocity S-wave (km/s) = 5.36054 3.99232 4.72620
# Velocity P-wave (km/s) = 7.53399 7.08736 7.31408
#
# Compressibility (1/GPa) = 0.01948248
#
# Stress axis : x y z
#
# Youngs Moduli (GPa) = 61.16970 146.37352 201.74853
#
# Poissons Ratio (x) = -0.15006 0.95145
# Poissons Ratio (y) = -0.06271 0.12835
# Poissons Ratio (z) = 0.28848 0.09312
#
# Static dielectric constant tensor:
#      x y z
#    x 2.267590 -0.000010 0.069610 
#    y -0.000010 2.155420 0.000020 
#    z 0.069610 0.000020 2.203760 
# 
# From -- ./inp_files/317295.got.cif
#   From: 2010.05.17/outbox.cif.g08.bks.cpg/sg12_159_cif.got.tgz:317295.got - 2010.06.03 13:09:07.
