data_PCOD9170926
_publ_section_title
;
Structure prediction by ZEFSAII (Michael W. Deem and Ramdas Pophale) SiO2 
 PCOD9170926
Probable space group: C 2/M
;
_chemical_formula_sum "Si O2"
_cell_formula_units_Z 64
_cell_length_a 8.848622
_cell_length_b 18.178696
_cell_length_c 21.776974
_cell_angle_alpha 90.000000
_cell_angle_beta 89.009747
_cell_angle_gamma 90.000000
_cell_volume 3502.442675
_symmetry_space_group_name_H-M "C 2/M"
_symmetry_group_IT_number 12
_symmetry_cell_setting 'monoclinic'
loop_
_space_group_symop_operation_xyz
x,y,z
-x,y,-z
-x,-y,-z
x,-y,z
1/2+x,1/2+y,z
1/2-x,1/2+y,-z
1/2-x,1/2-y,-z
1/2+x,1/2-y,z
loop_
_atom_site_type_symbol
_atom_site_label
_atom_site_fract_x
_atom_site_fract_y
_atom_site_fract_z
Si Si1 0.457267 0.318276 0.152361
Si Si2 0.208669 0.086630 0.380785
Si Si3 0.823064 0.329318 0.498707
Si Si4 0.410718 0.585456 0.434974
Si Si5 0.633709 0.849311 0.735944
Si Si6 0.674464 0.213057 0.232033
Si Si7 0.634548 0.790559 0.955758
Si Si8 0.236003 0.912585 0.137116
O O1 0.568452 0.263651 0.189260
O O2 0.420665 0.272426 0.091332
O O3 0.558341 0.390782 0.143430
O O4 0.300237 0.328618 0.190195
O O5 0.284682 0.128821 0.436239
O O6 0.297212 0.101924 0.318299
O O7 0.031546 0.110402 0.383131
O O8 0.207352 0.000000 0.394813
O O9 0.750000 0.250000 0.500000
O O10 0.743846 0.371799 0.555417
O O11 0.000000 0.323167 0.500000
O O12 0.500000 0.593699 0.500000
O O13 0.377667 0.500000 0.426639
O O14 0.453184 0.835667 0.733743
O O15 0.679149 0.885538 0.801095
O O16 0.724062 0.771269 0.730737
O O17 0.701816 0.858534 0.916648
O O18 0.500000 0.817420 0.000000
O O19 0.750000 0.750000 0.000000
O O20 0.256484 0.000000 0.127880
#
# Coordination Sequence:
#
# PCOD9170926 Si02
#       8
#     8   8   8   8   8   8   8   8
#     4  10  17  37  58  84 110 152 199 234 292 359
#     4  10  21  38  58  83 117 156 193 234 293 358
#     4  11  22  36  57  82 115 149 190 243 293 333
#     4   8  16  33  55  77 106 145 183 221 276 341
#     4  10  20  36  61  88 120 152 198 241 296 348
#     4   9  17  33  61  83 110 151 197 234 279 354
#     4  12  21  35  64  86 111 156 203 244 291 366
#     4  11  23  39  59  87 123 155 195 252 309 354
#
# _framework density 18.272962
#
# number of rings (size 3 to 8) (size 9 to 14) (size 15 to 20)
#    0.000    1.875    5.000    2.625    0.000    3.250 
#    0.000    5.000    0.000    0.000    0.000    0.000 
#    0.000    0.000    0.000    0.000    0.000    0.000 
#
# Total GULP energy -178354.626609 kJ/mol
# GULP energy per Si atom -5573.582082 kJ/mol
# Density = 1.823137 g / cm^3
# Si number density = 18.272962 Si / 1000 Ang^3
#
#
#
# Elastic Constant Matrix: (Units=GPa)
#
#
# Indices 1 2 3 4 5 6 
#
# 1 146.3282 48.7937 38.1414 0.0000 -41.7645 0.0000
# 2 48.7937 94.9946 35.8709 0.0000 -19.2081 0.0000
# 3 38.1414 35.8709 66.1757 0.0000 -30.0212 0.0000
# 4 0.0000 0.0000 0.0000 27.2595 0.0000 -9.6170
# 5 -41.7645 -19.2081 -30.0212 0.0000 30.0330 0.0000
# 6 0.0000 0.0000 0.0000 -9.6170 0.0000 22.0570
#
#
#
# Elastic Compliance Matrix: (Units=1/GPa)
#
#
# Indices 1 2 3 4 5 6 
#
# 1 0.012442 -0.003938 0.003056 0.000000 0.017838 0.000000
# 2 -0.003938 0.014575 -0.007111 0.000000 -0.003262 0.000000
# 3 0.003056 -0.007111 0.031232 0.000000 0.030922 0.000000
# 4 0.000000 0.000000 0.000000 0.043353 0.000000 0.018902
# 5 0.017838 -0.003262 0.030922 0.000000 0.086926 0.000000
# 6 0.000000 0.000000 0.000000 0.018902 0.000000 0.053579
#
#
# Mechanical properties :
#
#
# Convention : Reuss Voigt Hill
#
# Bulk Modulus (GPa) = 23.66098 61.45672 42.55885
# Shear Modulus (GPa) = 18.37019 28.18273 23.27646
#
# Velocity S-wave (km/s) = 3.17412 3.93150 3.57293
# Velocity P-wave (km/s) = 5.13908 7.36984 6.35313
#
# Compressibility (1/GPa) = 0.04226367
#
# Stress axis : x y z
#
# Youngs Moduli (GPa) = 80.37484 68.61072 32.01798
#
# Poissons Ratio (x) = 0.27017 -0.09784
# Poissons Ratio (y) = 0.31649 0.22767
# Poissons Ratio (z) = -0.24561 0.48788
#
# Static dielectric constant tensor:
#      x y z
#    x 1.673750 0.000000 -0.026690 
#    y 0.000000 1.628260 0.000000 
#    z -0.026690 0.000000 1.669270 
# 
# From -- ./inp_files/333182.got.cif
#   From: 2010.05.17/outbox.cif.g08.bks.cpg/sg12_167_cif.got.tgz:333182.got - 2010.06.03 13:09:07.
