data_PCOD9170801
_publ_section_title
;
Structure prediction by ZEFSAII (Michael W. Deem and Ramdas Pophale) SiO2 
 PCOD9170801
Probable space group: C 2/M
;
_chemical_formula_sum "Si O2"
_cell_formula_units_Z 44
_cell_length_a 13.700187
_cell_length_b 9.807520
_cell_length_c 19.710379
_cell_angle_alpha 90.000000
_cell_angle_beta 53.687032
_cell_angle_gamma 90.000000
_cell_volume 2134.051259
_symmetry_space_group_name_H-M "C 2/M"
_symmetry_group_IT_number 12
_symmetry_cell_setting 'monoclinic'
loop_
_space_group_symop_operation_xyz
x,y,z
-x,y,-z
-x,-y,-z
x,-y,z
1/2+x,1/2+y,z
1/2-x,1/2+y,-z
1/2-x,1/2-y,-z
1/2+x,1/2-y,z
loop_
_atom_site_type_symbol
_atom_site_label
_atom_site_fract_x
_atom_site_fract_y
_atom_site_fract_z
Si Si1 0.514307 0.155092 0.573026
Si Si2 0.756217 0.775184 0.280780
Si Si3 0.916234 0.000000 0.143968
Si Si4 0.782802 0.500000 0.877772
Si Si5 0.302757 0.500000 0.940113
Si Si6 0.613017 0.658640 0.645805
Si Si7 0.156312 0.201498 0.192884
O O1 0.500000 0.190595 0.500000
O O2 0.377046 0.158892 0.657963
O O3 0.592679 0.262428 0.583612
O O4 0.560805 0.000000 0.559540
O O5 0.857631 0.873240 0.207633
O O6 0.801281 0.754886 0.338868
O O7 0.732731 0.669086 0.229720
O O8 0.854283 0.000000 0.095738
O O9 0.059049 0.000000 0.090083
O O10 0.841353 0.362814 0.824015
O O11 0.781211 0.500000 0.959595
O O12 0.290540 0.628060 0.894899
O O13 0.653923 0.500000 0.623227
O O14 0.480006 0.656574 0.735173
#
# Coordination Sequence:
#
# PCOD9170801 Si02
#       7
#     8   8   4   4   4   8   8
#     4  10  22  38  58  87 119 147 179 227 286 334
#     4  10  18  36  58  79 111 150 190 223 273 333
#     4  10  17  34  59  82 100 154 196 226 253 348
#     4  10  23  34  57  83 116 149 184 231 298 334
#     4  12  19  38  57  83 112 145 194 243 274 324
#     4  11  20  37  62  82 107 152 194 231 264 331
#     4  10  21  35  58  83 111 148 189 234 279 333
#
# _framework density 20.618061000000001
#
# number of rings (size 3 to 8) (size 9 to 14) (size 15 to 20)
#    0.000    1.636    4.545    0.818    3.818    1.091 
#    1.636    0.000    0.000    1.091    0.000    0.000 
#    0.000    0.000    0.000    0.000    0.000    0.000 
#
# Total GULP energy -122653.394623 kJ/mol
# GULP energy per Si atom -5575.154301 kJ/mol
# Density = 2.057113 g / cm^3
# Si number density = 20.618061 Si / 1000 Ang^3
#
#
#
# Elastic Constant Matrix: (Units=GPa)
#
#
# Indices 1 2 3 4 5 6 
#
# 1 103.3943 28.2553 26.5949 0.0000 32.0416 0.0000
# 2 28.2553 85.4937 29.5083 0.0000 21.5612 0.0000
# 3 26.5949 29.5083 102.8580 0.0000 35.1958 0.0000
# 4 0.0000 0.0000 0.0000 62.8039 0.0000 51.3257
# 5 32.0416 21.5612 35.1958 0.0000 48.2963 0.0000
# 6 0.0000 0.0000 0.0000 51.3257 0.0000 55.0920
#
#
#
# Elastic Compliance Matrix: (Units=1/GPa)
#
#
# Indices 1 2 3 4 5 6 
#
# 1 0.012568 -0.002289 -0.000119 0.000000 -0.007229 0.000000
# 2 -0.002289 0.014040 -0.002413 0.000000 -0.002991 0.000000
# 3 -0.000119 -0.002413 0.013388 0.000000 -0.008600 0.000000
# 4 0.000000 0.000000 0.000000 0.066724 0.000000 -0.062163
# 5 -0.007229 -0.002991 -0.008600 0.000000 0.033105 0.000000
# 6 0.000000 0.000000 0.000000 -0.062163 0.000000 0.076065
#
#
# Mechanical properties :
#
#
# Convention : Reuss Voigt Hill
#
# Bulk Modulus (GPa) = 32.94391 51.16253 42.05322
# Shear Modulus (GPa) = 21.21784 47.06426 34.14105
#
# Velocity S-wave (km/s) = 3.21142 4.78291 4.07367
# Velocity P-wave (km/s) = 5.45563 7.44110 6.52433
#
# Compressibility (1/GPa) = 0.03035462
#
# Stress axis : x y z
#
# Youngs Moduli (GPa) = 79.56469 71.22278 74.69426
#
# Poissons Ratio (x) = 0.16306 0.00890
# Poissons Ratio (y) = 0.18216 0.18020
# Poissons Ratio (z) = 0.00948 0.17183
#
# Static dielectric constant tensor:
#      x y z
#    x 1.769150 0.000000 0.043210 
#    y 0.000000 1.770490 0.000000 
#    z 0.043210 0.000000 1.761430 
# 
# From -- ./inp_files/308251.got.cif
#   From: 2010.05.17/outbox.cif.g08.bks.cpg/sg12_155_cif.got.tgz:308251.got - 2010.06.03 13:09:07.
