data_PCOD9170144
_publ_section_title
;
Structure prediction by ZEFSAII (Michael W. Deem and Ramdas Pophale) SiO2 
 PCOD9170144
Probable space group: C 2/M
;
_chemical_formula_sum "Si O2"
_cell_formula_units_Z 64
_cell_length_a 30.571212
_cell_length_b 7.557018
_cell_length_c 15.627443
_cell_angle_alpha 90.000000
_cell_angle_beta 99.192746
_cell_angle_gamma 90.000000
_cell_volume 3563.994671
_symmetry_space_group_name_H-M "C 2/M"
_symmetry_group_IT_number 12
_symmetry_cell_setting 'monoclinic'
loop_
_space_group_symop_operation_xyz
x,y,z
-x,y,-z
-x,-y,-z
x,-y,z
1/2+x,1/2+y,z
1/2-x,1/2+y,-z
1/2-x,1/2-y,-z
1/2+x,1/2-y,z
loop_
_atom_site_type_symbol
_atom_site_label
_atom_site_fract_x
_atom_site_fract_y
_atom_site_fract_z
Si Si1 0.558466 0.713340 0.440048
Si Si2 0.818045 0.289910 0.368185
Si Si3 0.217803 0.286767 0.110272
Si Si4 0.685428 0.710847 0.919164
Si Si5 0.656236 0.792074 0.436415
Si Si6 0.382559 0.296336 0.235425
Si Si7 0.960636 0.216634 0.372133
Si Si8 0.284559 0.786307 0.700293
O O1 0.558631 0.500000 0.440410
O O2 0.603575 0.773862 0.410803
O O3 0.511991 0.770395 0.383755
O O4 0.557021 0.770683 0.539334
O O5 0.827021 0.500000 0.367985
O O6 0.830574 0.218944 0.466190
O O7 0.847676 0.206037 0.303099
O O8 0.766353 0.258819 0.335117
O O9 0.219958 0.500000 0.113224
O O10 0.267485 0.220408 0.102642
O O11 0.204606 0.223494 0.200278
O O12 0.186674 0.239494 0.020954
O O13 0.685884 0.500000 0.904006
O O14 0.643909 0.783654 0.853005
O O15 0.683878 0.718168 0.365453
O O16 0.667310 0.000000 0.444152
O O17 0.392998 0.500000 0.216660
O O18 0.427657 0.218217 0.288374
O O19 0.959592 0.000000 0.371451
O O20 0.288129 0.000000 0.702804
#
# Coordination Sequence:
#
# PCOD9170144 Si02
#       8
#     8   8   8   8   8   8   8   8
#     4   9  16  29  48  68  89 117 154 189 221 262
#     4  11  21  30  42  67  96 120 153 191 222 251
#     4   9  17  30  46  64  85 115 150 185 225 264
#     4   9  17  28  45  67  88 114 147 182 226 269
#     4  10  21  33  45  65  93 123 155 189 224 262
#     4  10  17  30  49  67  91 125 154 177 218 276
#     4   8  15  27  47  70  89 116 153 187 218 264
#     4  10  20  35  49  61  86 126 163 185 216 271
#
# _framework density 17.957377999999999
#
# number of rings (size 3 to 8) (size 9 to 14) (size 15 to 20)
#    0.000    2.500    2.500    1.500    0.000    2.000 
#    0.000    1.875    0.000    0.000    0.000    0.875 
#    0.000    7.000    0.000    0.000    0.000    0.000 
#
# Total GULP energy -178469.896956 kJ/mol
# GULP energy per Si atom -5577.184280 kJ/mol
# Density = 1.791651 g / cm^3
# Si number density = 17.957378 Si / 1000 Ang^3
#
#
#
# Elastic Constant Matrix: (Units=GPa)
#
#
# Indices 1 2 3 4 5 6 
#
# 1 69.3693 -13.4114 58.1350 0.0000 22.0066 0.0000
# 2 -13.4114 42.4740 0.9874 0.0000 1.0239 0.0000
# 3 58.1350 0.9874 122.0601 0.0000 30.7244 0.0000
# 4 0.0000 0.0000 0.0000 7.6620 0.0000 -0.0495
# 5 22.0066 1.0239 30.7244 0.0000 31.7973 0.0000
# 6 0.0000 0.0000 0.0000 -0.0495 0.0000 14.9693
#
#
#
# Elastic Compliance Matrix: (Units=1/GPa)
#
#
# Indices 1 2 3 4 5 6 
#
# 1 0.028798 0.009581 -0.011495 0.000000 -0.009133 0.000000
# 2 0.009581 0.026749 -0.003824 0.000000 -0.003797 0.000000
# 3 -0.011495 -0.003824 0.015414 0.000000 -0.006815 0.000000
# 4 0.000000 0.000000 0.000000 0.130517 0.000000 0.000432
# 5 -0.009133 -0.003797 -0.006815 0.000000 0.044477 0.000000
# 6 0.000000 0.000000 0.000000 0.000432 0.000000 0.066805
#
#
# Mechanical properties :
#
#
# Convention : Reuss Voigt Hill
#
# Bulk Modulus (GPa) = 16.81065 36.14725 26.47895
# Shear Modulus (GPa) = 14.53214 23.43189 18.98201
#
# Velocity S-wave (km/s) = 2.84783 3.61621 3.25477
# Velocity P-wave (km/s) = 4.49391 6.13263 5.37607
#
# Compressibility (1/GPa) = 0.05948608
#
# Stress axis : x y z
#
# Youngs Moduli (GPa) = 34.72434 37.38402 64.87680
#
# Poissons Ratio (x) = -0.35816 0.74574
# Poissons Ratio (y) = -0.33268 0.24806
# Poissons Ratio (z) = 0.39915 0.14294
#
# Static dielectric constant tensor:
#      x y z
#    x 1.600720 0.000000 0.023700 
#    y 0.000000 1.704290 0.000000 
#    z 0.023700 0.000000 1.634810 
# 
# From -- ./inp_files/248480.got.cif
#   From: 2010.05.17/outbox.cif.g08.bks.cpg/sg12_125_cif.got.tgz:248480.got - 2010.06.03 13:09:07.
