data_PCOD9170760
_publ_section_title
;
Structure prediction by ZEFSAII (Michael W. Deem and Ramdas Pophale) SiO2 
 PCOD9170760
Probable space group: C 2/M
;
_chemical_formula_sum "Si O2"
_cell_formula_units_Z 48
_cell_length_a 12.048539
_cell_length_b 24.587200
_cell_length_c 13.993948
_cell_angle_alpha 90.000000
_cell_angle_beta 148.832048
_cell_angle_gamma 90.000000
_cell_volume 2145.530833
_symmetry_space_group_name_H-M "C 2/M"
_symmetry_group_IT_number 12
_symmetry_cell_setting 'monoclinic'
loop_
_space_group_symop_operation_xyz
x,y,z
-x,y,-z
-x,-y,-z
x,-y,z
1/2+x,1/2+y,z
1/2-x,1/2+y,-z
1/2-x,1/2-y,-z
1/2+x,1/2-y,z
loop_
_atom_site_type_symbol
_atom_site_label
_atom_site_fract_x
_atom_site_fract_y
_atom_site_fract_z
Si Si1 0.559474 0.882037 0.811897
Si Si2 0.800800 0.381190 0.426236
Si Si3 0.707261 0.500000 0.721943
Si Si4 0.458728 0.311604 0.077059
Si Si5 0.000000 0.705861 0.000000
Si Si6 0.710506 0.618695 0.720283
Si Si7 0.443546 0.000000 0.185616
Si Si8 0.698264 0.000000 0.571156
O O1 0.402398 0.876498 0.605518
O O2 0.408288 0.883400 0.792237
O O3 0.669878 0.941885 0.888360
O O4 0.728557 0.834051 0.935382
O O5 0.632562 0.335245 0.276814
O O6 0.696074 0.441277 0.338075
O O7 0.000000 0.377578 0.500000
O O8 0.500000 0.500000 0.500000
O O9 0.698136 0.559614 0.763126
O O10 0.917484 0.500000 0.809470
O O11 0.487087 0.247601 0.079427
O O12 0.500000 0.335269 0.000000
O O13 0.214452 0.669166 0.161119
O O14 0.500000 0.626408 0.500000
O O15 0.609183 0.000000 0.397106
O O16 0.500000 0.000000 0.500000
#
# Coordination Sequence:
#
# PCOD9170760 Si02
#       8
#     8   8   4   8   4   8   4   4
#     4  10  20  37  61  88 117 155 192 237 297 347
#     4  10  17  34  54  79 115 154 193 236 286 340
#     4   8  16  35  62  89 112 141 180 238 302 348
#     4  10  22  37  54  79 120 161 191 242 277 329
#     4  10  24  41  56  83 124 150 204 244 278 336
#     4  10  22  41  65  89 116 149 191 242 297 351
#     4   8  16  31  53  86 121 142 186 239 281 354
#     4   8  16  25  47  78 109 149 193 231 276 339
#
# _framework density 22.372085999999999
#
# number of rings (size 3 to 8) (size 9 to 14) (size 15 to 20)
#    0.500    2.000    1.667    0.000    0.000    5.000 
#    0.000    2.500    0.000    6.000    0.000    0.000 
#    0.000    0.000    0.000    0.000    0.000    0.000 
#
# Total GULP energy -133886.627419 kJ/mol
# GULP energy per Si atom -5578.609476 kJ/mol
# Density = 2.232117 g / cm^3
# Si number density = 22.372086 Si / 1000 Ang^3
#
#
#
# Elastic Constant Matrix: (Units=GPa)
#
#
# Indices 1 2 3 4 5 6 
#
# 1 41.5872 8.5728 4.8430 0.0001 -2.0047 0.0000
# 2 8.5728 188.0035 73.1906 0.0000 2.5728 0.0000
# 3 4.8430 73.1906 108.7242 0.0001 1.1465 0.0000
# 4 0.0001 0.0000 0.0001 35.2328 0.0001 1.9317
# 5 -2.0047 2.5728 1.1465 0.0001 23.2834 0.0000
# 6 0.0000 0.0000 0.0000 1.9317 0.0000 11.2801
#
#
#
# Elastic Compliance Matrix: (Units=1/GPa)
#
#
# Indices 1 2 3 4 5 6 
#
# 1 0.024406 -0.000964 -0.000462 0.000000 0.002231 0.000000
# 2 -0.000964 0.007253 -0.004833 0.000000 -0.000646 0.000000
# 3 -0.000462 -0.004833 0.012473 0.000000 -0.000120 0.000000
# 4 0.000000 0.000000 0.000000 0.028652 0.000000 -0.004907
# 5 0.002231 -0.000646 -0.000120 0.000000 0.043218 0.000000
# 6 0.000000 0.000000 0.000000 -0.004907 0.000000 0.089492
#
#
# Mechanical properties :
#
#
# Convention : Reuss Voigt Hill
#
# Bulk Modulus (GPa) = 31.63070 56.83640 44.23355
# Shear Modulus (GPa) = 21.87707 30.73983 26.30845
#
# Velocity S-wave (km/s) = 3.13049 3.71081 3.43293
# Velocity P-wave (km/s) = 5.21879 6.61969 5.96054
#
# Compressibility (1/GPa) = 0.03161486
#
# Stress axis : x y z
#
# Youngs Moduli (GPa) = 40.97388 137.86702 80.17361
#
# Poissons Ratio (x) = 0.13284 0.03704
# Poissons Ratio (y) = 0.03948 0.38748
# Poissons Ratio (z) = 0.01893 0.66632
#
# Static dielectric constant tensor:
#      x y z
#    x 1.861000 0.000000 -0.009530 
#    y 0.000000 1.890990 0.000000 
#    z -0.009530 0.000000 1.789750 
# 
# From -- ./inp_files/209508.got.cif
#   From: 2010.05.17/outbox.cif.g08.bks.cpg/sg12_105_cif.got.tgz:209508.got - 2010.06.03 13:09:07.
