data_PCOD9170488
_publ_section_title
;
Structure prediction by ZEFSAII (Michael W. Deem and Ramdas Pophale) SiO2 
 PCOD9170488
Probable space group: C 2/M
;
_chemical_formula_sum "Si O2"
_cell_formula_units_Z 64
_cell_length_a 19.819582
_cell_length_b 21.136720
_cell_length_c 8.396098
_cell_angle_alpha 90.000000
_cell_angle_beta 53.960946
_cell_angle_gamma 90.000000
_cell_volume 2844.146746
_symmetry_space_group_name_H-M "C 2/M"
_symmetry_group_IT_number 12
_symmetry_cell_setting 'monoclinic'
loop_
_space_group_symop_operation_xyz
x,y,z
-x,y,-z
-x,-y,-z
x,-y,z
1/2+x,1/2+y,z
1/2-x,1/2+y,-z
1/2-x,1/2-y,-z
1/2+x,1/2-y,z
loop_
_atom_site_type_symbol
_atom_site_label
_atom_site_fract_x
_atom_site_fract_y
_atom_site_fract_z
Si Si1 0.229816 0.930599 0.239282
Si Si2 0.612854 0.932340 0.210781
Si Si3 0.051642 0.431687 0.762592
Si Si4 0.747129 0.796338 0.750298
Si Si5 0.520385 0.704228 0.287188
Si Si6 0.416026 0.793042 0.223716
Si Si7 0.435771 0.568926 0.739011
Si Si8 0.338777 0.799232 0.801033
O O1 0.221283 0.865295 0.348960
O O2 0.156880 0.927498 0.207788
O O3 0.219988 0.000000 0.331621
O O4 0.321469 0.930762 0.029091
O O5 0.520002 0.930451 0.271590
O O6 0.627888 0.868470 0.284393
O O7 0.626937 0.000000 0.272415
O O8 0.096744 0.500000 0.692345
O O9 0.097392 0.364578 0.694417
O O10 0.000000 0.432905 0.000000
O O11 0.665462 0.778066 0.766069
O O12 0.806295 0.736384 0.690543
O O13 0.729101 0.808638 0.964677
O O14 0.500000 0.694430 0.500000
O O15 0.444942 0.737057 0.300071
O O16 0.546777 0.634412 0.191864
O O17 0.593017 0.756531 0.202409
O O18 0.500000 0.798371 0.000000
O O19 0.500000 0.566695 0.500000
O O20 0.443817 0.500000 0.809907
#
# Coordination Sequence:
#
# PCOD9170488 Si02
#       8
#     8   8   8   8   8   8   8   8
#     4   9  15  25  44  73 102 125 162 214 261 299
#     4   9  16  25  43  70  99 132 167 205 248 299
#     4   9  15  24  42  70 104 133 161 202 252 298
#     4  10  19  28  50  76 103 129 166 210 259 301
#     4  11  21  35  55  76 104 137 172 210 254 309
#     4  11  19  32  50  78 105 136 170 211 258 303
#     4   9  18  32  51  72  96 132 174 212 254 307
#     4  10  17  32  49  73 101 134 168 208 253 302
#
# _framework density 22.502354
#
# number of rings (size 3 to 8) (size 9 to 14) (size 15 to 20)
#    0.000    2.250    3.750    2.250    0.000    1.500 
#    0.000    0.625    0.000    2.625    0.000    0.000 
#    0.000    0.000    0.000    0.000    0.000    0.000 
#
# Total GULP energy -178360.319187 kJ/mol
# GULP energy per Si atom -5573.759975 kJ/mol
# Density = 2.245114 g / cm^3
# Si number density = 22.502354 Si / 1000 Ang^3
#
#
#
# Elastic Constant Matrix: (Units=GPa)
#
#
# Indices 1 2 3 4 5 6 
#
# 1 127.5723 90.0150 -4.1982 0.0000 8.6652 0.0000
# 2 90.0150 261.9127 -1.6754 0.0000 10.5062 0.0000
# 3 -4.1982 -1.6754 23.0520 0.0000 0.4217 0.0000
# 4 0.0000 0.0000 0.0000 9.4707 0.0000 -2.9933
# 5 8.6652 10.5062 0.4217 0.0000 18.2488 0.0000
# 6 0.0000 0.0000 0.0000 -2.9933 0.0000 22.7485
#
#
#
# Elastic Compliance Matrix: (Units=1/GPa)
#
#
# Indices 1 2 3 4 5 6 
#
# 1 0.010572 -0.003500 0.001727 0.000000 -0.003045 0.000000
# 2 -0.003500 0.005070 -0.000246 0.000000 -0.001251 0.000000
# 3 0.001727 -0.000246 0.043708 0.000000 -0.001688 0.000000
# 4 0.000000 0.000000 0.000000 0.110171 0.000000 0.014497
# 5 -0.003045 -0.001251 -0.001688 0.000000 0.057003 0.000000
# 6 0.000000 0.000000 0.000000 0.014497 0.000000 0.045866
#
#
# Mechanical properties :
#
#
# Convention : Reuss Voigt Hill
#
# Bulk Modulus (GPa) = 18.07994 64.53555 41.30775
# Shear Modulus (GPa) = 16.95684 31.98662 24.47173
#
# Velocity S-wave (km/s) = 2.74808 3.77434 3.30133
# Velocity P-wave (km/s) = 4.25692 6.90912 5.73835
#
# Compressibility (1/GPa) = 0.05530991
#
# Stress axis : x y z
#
# Youngs Moduli (GPa) = 94.58835 197.25191 22.87932
#
# Poissons Ratio (x) = 0.69044 -0.03951
# Poissons Ratio (y) = 0.33109 0.00563
# Poissons Ratio (z) = -0.16332 0.04855
#
# Static dielectric constant tensor:
#      x y z
#    x 1.806080 0.000000 -0.018320 
#    y 0.000000 1.995530 0.000000 
#    z -0.018320 0.000000 2.030380 
# 
# From -- ./inp_files/89582.got.cif
#   From: 2010.05.17/outbox.cif.g08.bks.cpg/sg12_45_cif.got.tgz:89582.got - 2010.06.03 13:09:07.
