data_PCOD9170625
_publ_section_title
;
Structure prediction by ZEFSAII (Michael W. Deem and Ramdas Pophale) SiO2 
 PCOD9170625
Probable space group: C 2/M
;
_chemical_formula_sum "Si O2"
_cell_formula_units_Z 58
_cell_length_a 20.928966
_cell_length_b 22.802077
_cell_length_c 9.004295
_cell_angle_alpha 90.000000
_cell_angle_beta 42.194244
_cell_angle_gamma 90.000000
_cell_volume 2886.107038
_symmetry_space_group_name_H-M "C 2/M"
_symmetry_group_IT_number 12
_symmetry_cell_setting 'monoclinic'
loop_
_space_group_symop_operation_xyz
x,y,z
-x,y,-z
-x,-y,-z
x,-y,z
1/2+x,1/2+y,z
1/2-x,1/2+y,-z
1/2-x,1/2-y,-z
1/2+x,1/2-y,z
loop_
_atom_site_type_symbol
_atom_site_label
_atom_site_fract_x
_atom_site_fract_y
_atom_site_fract_z
Si Si1 0.369895 0.899357 0.085790
Si Si2 0.710024 0.625692 0.956659
Si Si3 0.849176 0.273513 0.688690
Si Si4 0.964544 0.284521 0.801505
Si Si5 0.000000 0.500000 0.000000
Si Si6 0.022199 0.851295 0.130625
Si Si7 0.832859 0.862137 0.635132
Si Si8 0.103005 0.433245 0.301539
O O1 0.420130 0.947193 0.102785
O O2 0.258222 0.884718 0.300240
O O3 0.423439 0.836393 0.974813
O O4 0.376928 0.926647 0.907239
O O5 0.751539 0.691301 0.868157
O O6 0.807326 0.590844 0.765014
O O7 0.620281 0.618493 0.008030
O O8 0.675467 0.613015 0.183723
O O9 0.901275 0.279773 0.759093
O O10 0.827875 0.207660 0.674424
O O11 0.927037 0.297017 0.436699
O O12 0.965385 0.219145 0.867831
O O13 0.934082 0.871645 0.384220
O O14 0.000000 0.863096 0.000000
O O15 0.093265 0.500000 0.365021
O O16 0.000000 0.404106 0.500000
#
# Coordination Sequence:
#
# PCOD9170625 Si02
#       8
#     8   8   8   8   2   8   8   8
#     4  11  22  40  60  84 123 160 207 247 302 367
#     4  11  19  34  64  84 119 157 205 251 306 360
#     4  10  17  32  62  96 118 153 202 247 319 362
#     4  10  19  34  60  92 127 157 193 254 304 378
#     4  12  28  44  58  84 124 180 206 244 320 376
#     4  11  24  39  53  89 127 163 200 244 309 385
#     4  10  20  37  61  85 119 160 207 251 298 365
#     4  10  20  37  62  92 115 142 200 267 306 348
#
# _framework density 20.096274000000001
#
# number of rings (size 3 to 8) (size 9 to 14) (size 15 to 20)
#    0.000    1.517    4.828    2.483    0.966    0.000 
#    4.966    2.069    1.517    2.069    0.000    0.000 
#    0.000    0.000    0.000    0.000    0.000    0.000 
#
# Total GULP energy -161523.782937 kJ/mol
# GULP energy per Si atom -5569.785619 kJ/mol
# Density = 2.005053 g / cm^3
# Si number density = 20.096274 Si / 1000 Ang^3
#
#
#
# Elastic Constant Matrix: (Units=GPa)
#
#
# Indices 1 2 3 4 5 6 
#
# 1 115.6783 34.8638 61.8899 0.0000 -43.1594 0.0000
# 2 34.8638 66.8745 18.9089 0.0000 -23.4168 0.0000
# 3 61.8899 18.9089 92.1564 0.0000 -40.7128 0.0000
# 4 0.0000 0.0000 0.0000 8.4665 0.0000 -9.1515
# 5 -43.1594 -23.4168 -40.7128 0.0000 32.4466 0.0000
# 6 0.0000 0.0000 0.0000 -9.1515 0.0000 33.7907
#
#
#
# Elastic Compliance Matrix: (Units=1/GPa)
#
#
# Indices 1 2 3 4 5 6 
#
# 1 0.017816 -0.002142 -0.003902 0.000000 0.017257 0.000000
# 2 -0.002142 0.021398 0.005860 0.000000 0.019946 0.000000
# 3 -0.003902 0.005860 0.026577 0.000000 0.032387 0.000000
# 4 0.000000 0.000000 0.000000 0.167000 0.000000 0.045228
# 5 0.017257 0.019946 0.032387 0.000000 0.108808 0.000000
# 6 0.000000 0.000000 0.000000 0.045228 0.000000 0.041843
#
#
# Mechanical properties :
#
#
# Convention : Reuss Voigt Hill
#
# Bulk Modulus (GPa) = 15.28503 56.22603 35.75553
# Shear Modulus (GPa) = 12.32687 25.54387 18.93537
#
# Velocity S-wave (km/s) = 2.47936 3.56908 3.07291
# Velocity P-wave (km/s) = 3.97728 6.70996 5.51553
#
# Compressibility (1/GPa) = 0.06542347
#
# Stress axis : x y z
#
# Youngs Moduli (GPa) = 56.12836 46.73408 37.62640
#
# Poissons Ratio (x) = 0.10012 0.14680
# Poissons Ratio (y) = 0.12024 -0.22050
# Poissons Ratio (z) = 0.21899 -0.27387
#
# Static dielectric constant tensor:
#      x y z
#    x 1.708890 0.000000 -0.012050 
#    y 0.000000 1.759360 0.000000 
#    z -0.012050 0.000000 1.741130 
# 
# From -- ./inp_files/90816.got.cif
#   From: 2010.05.17/outbox.cif.g08.bks.cpg/sg12_46_cif.got.tgz:90816.got - 2010.06.03 13:09:07.
