data_PCOD9170041
_publ_section_title
;
Structure prediction by ZEFSAII (Michael W. Deem and Ramdas Pophale) SiO2 
 PCOD9170041
Probable space group: C 2/M
;
_chemical_formula_sum "Si O2"
_cell_formula_units_Z 56
_cell_length_a 21.485481
_cell_length_b 14.167540
_cell_length_c 11.953006
_cell_angle_alpha 90.000000
_cell_angle_beta 121.839654
_cell_angle_gamma 90.000000
_cell_volume 3090.966189
_symmetry_space_group_name_H-M "C 2/M"
_symmetry_group_IT_number 12
_symmetry_cell_setting 'monoclinic'
loop_
_space_group_symop_operation_xyz
x,y,z
-x,y,-z
-x,-y,-z
x,-y,z
1/2+x,1/2+y,z
1/2-x,1/2+y,-z
1/2-x,1/2-y,-z
1/2+x,1/2-y,z
loop_
_atom_site_type_symbol
_atom_site_label
_atom_site_fract_x
_atom_site_fract_y
_atom_site_fract_z
Si Si1 0.663787 0.890197 0.619210
Si Si2 0.745776 0.229403 0.865335
Si Si3 0.147679 0.108223 0.713292
Si Si4 0.619618 0.608286 0.082105
Si Si5 0.905947 0.785544 0.543986
Si Si6 0.028470 0.891718 0.788114
Si Si7 0.815819 0.106620 0.625329
O O1 0.686451 0.846133 0.761094
O O2 0.604512 0.821568 0.505841
O O3 0.738360 0.882502 0.615145
O O4 0.644061 0.000000 0.607436
O O5 0.719169 0.326277 0.783432
O O6 0.822698 0.186514 0.901467
O O7 0.750000 0.250000 0.000000
O O8 0.095405 0.149924 0.567915
O O9 0.104377 0.115002 0.789668
O O10 0.164775 0.000000 0.707977
O O11 0.645954 0.500000 0.082570
O O12 0.622134 0.613229 0.218535
O O13 0.548811 0.619992 0.937564
O O14 0.835479 0.818490 0.549859
O O15 0.974847 0.815205 0.683713
O O16 0.001395 0.000000 0.744618
O O17 0.818009 0.000000 0.581054
#
# Coordination Sequence:
#
# PCOD9170041 Si02
#       7
#     8   8   8   8   8   8   8
#     4   9  20  35  51  71  99 131 164 204 250 291
#     4  10  17  29  52  73  90 124 164 200 235 291
#     4  10  20  31  46  72 102 129 159 201 251 294
#     4   9  18  32  50  74 103 131 161 199 252 298
#     4  11  20  31  50  73  99 130 169 196 239 294
#     4  10  19  31  48  71 102 134 161 200 250 300
#     4   9  17  31  51  75 100 124 158 206 248 291
#
# _framework density 18.117311999999998
#
# number of rings (size 3 to 8) (size 9 to 14) (size 15 to 20)
#    0.000    2.286    1.429    3.429    0.000    2.286 
#    0.000    2.143    0.000    8.571    0.000    1.000 
#    0.000    0.000    0.000    0.000    0.000    0.000 
#
# Total GULP energy -156060.041663 kJ/mol
# GULP energy per Si atom -5573.572917 kJ/mol
# Density = 1.807608 g / cm^3
# Si number density = 18.117312 Si / 1000 Ang^3
#
#
#
# Elastic Constant Matrix: (Units=GPa)
#
#
# Indices 1 2 3 4 5 6 
#
# 1 30.0551 22.2976 7.2613 0.0000 0.1301 0.0000
# 2 22.2976 147.5225 51.8494 0.0000 10.3882 0.0000
# 3 7.2613 51.8494 85.2919 0.0000 3.1084 0.0000
# 4 0.0000 0.0000 0.0000 25.8420 0.0000 1.7406
# 5 0.1301 10.3882 3.1084 0.0000 32.1640 0.0000
# 6 0.0000 0.0000 0.0000 1.7406 0.0000 19.2215
#
#
#
# Elastic Compliance Matrix: (Units=1/GPa)
#
#
# Indices 1 2 3 4 5 6 
#
# 1 0.037575 -0.005919 0.000336 0.000000 0.001727 0.000000
# 2 -0.005919 0.009724 -0.005312 0.000000 -0.002603 0.000000
# 3 0.000336 -0.005312 0.014915 0.000000 0.000273 0.000000
# 4 0.000000 0.000000 0.000000 0.038934 0.000000 -0.003526
# 5 0.001727 -0.002603 0.000273 0.000000 0.031898 0.000000
# 6 0.000000 0.000000 0.000000 -0.003526 0.000000 0.052344
#
#
# Mechanical properties :
#
#
# Convention : Reuss Voigt Hill
#
# Bulk Modulus (GPa) = 24.73800 47.29845 36.01822
# Shear Modulus (GPa) = 22.65981 27.54291 25.10136
#
# Velocity S-wave (km/s) = 3.54040 3.90327 3.72626
# Velocity P-wave (km/s) = 5.51331 6.81744 6.19976
#
# Compressibility (1/GPa) = 0.04042364
#
# Stress axis : x y z
#
# Youngs Moduli (GPa) = 26.61357 102.84144 67.04563
#
# Poissons Ratio (x) = 0.60874 -0.02256
# Poissons Ratio (y) = 0.15753 0.35617
# Poissons Ratio (z) = -0.00895 0.54632
#
# Static dielectric constant tensor:
#      x y z
#    x 1.668340 0.000000 0.005790 
#    y 0.000000 1.598290 0.000000 
#    z 0.005790 0.000000 1.656160 
# 
# From -- ./inp_files/174466.got.cif
#   From: 2010.05.17/outbox.cif.g08.bks.cpg/sg12_88_cif.got.tgz:174466.got - 2010.06.03 13:09:07.
