data_PCOD9170901
_publ_section_title
;
Structure prediction by ZEFSAII (Michael W. Deem and Ramdas Pophale) SiO2 
 PCOD9170901
Probable space group: C 2/M
;
_chemical_formula_sum "Si O2"
_cell_formula_units_Z 56
_cell_length_a 18.538930
_cell_length_b 21.660528
_cell_length_c 9.967834
_cell_angle_alpha 90.000000
_cell_angle_beta 46.184996
_cell_angle_gamma 90.000000
_cell_volume 2888.273776
_symmetry_space_group_name_H-M "C 2/M"
_symmetry_group_IT_number 12
_symmetry_cell_setting 'monoclinic'
loop_
_space_group_symop_operation_xyz
x,y,z
-x,y,-z
-x,-y,-z
x,-y,z
1/2+x,1/2+y,z
1/2-x,1/2+y,-z
1/2-x,1/2-y,-z
1/2+x,1/2-y,z
loop_
_atom_site_type_symbol
_atom_site_label
_atom_site_fract_x
_atom_site_fract_y
_atom_site_fract_z
Si Si1 0.457752 0.072198 0.905051
Si Si2 0.281843 0.153892 0.207190
Si Si3 0.039831 0.121956 0.815255
Si Si4 0.401038 0.569426 0.539570
Si Si5 0.955211 0.337706 0.409543
Si Si6 0.256005 0.179593 0.538759
Si Si7 0.561249 0.749496 0.059142
O O1 0.522426 0.100013 0.701671
O O2 0.447162 0.000000 0.904951
O O3 0.500000 0.085249 0.000000
O O4 0.352771 0.106998 0.037984
O O5 0.170464 0.127361 0.330114
O O6 0.294383 0.147197 0.352216
O O7 0.328016 0.220900 0.105545
O O8 0.063147 0.080172 0.658810
O O9 0.145743 0.155343 0.711171
O O10 0.960372 0.177246 0.887805
O O11 0.000000 0.089527 0.000000
O O12 0.500000 0.570972 0.500000
O O13 0.354967 0.500000 0.611171
O O14 0.836586 0.327173 0.551742
O O15 0.000000 0.337968 0.500000
O O16 0.008352 0.285466 0.249317
O O17 0.250000 0.250000 0.500000
O O18 0.500000 0.764015 0.000000
#
# Coordination Sequence:
#
# PCOD9170901 Si02
#       7
#     8   8   8   8   8   8   8
#     4  10  19  35  61  86 114 151 199 243 285 354
#     4  10  18  35  64  87 106 152 205 234 285 346
#     4  10  21  37  61  85 115 152 204 239 292 350
#     4  10  23  42  61  83 119 160 202 250 289 337
#     4  11  21  34  53  89 125 154 187 240 307 349
#     4  11  18  35  58  82 117 160 190 233 288 358
#     4  10  17  36  61  87 121 152 188 240 298 361
#
# _framework density 19.388743000000002
#
# number of rings (size 3 to 8) (size 9 to 14) (size 15 to 20)
#    0.000    1.714    4.286    2.143    0.000    1.143 
#    5.143    0.714    0.000    0.000    0.000    0.000 
#    0.000    0.000    0.000    0.000    0.000    0.000 
#
# Total GULP energy -156037.518891 kJ/mol
# GULP energy per Si atom -5572.768532 kJ/mol
# Density = 1.934461 g / cm^3
# Si number density = 19.388743 Si / 1000 Ang^3
#
#
#
# Elastic Constant Matrix: (Units=GPa)
#
#
# Indices 1 2 3 4 5 6 
#
# 1 96.3468 24.3426 29.1096 0.0000 3.0412 0.0000
# 2 24.3426 49.2005 10.1286 0.0000 -3.5624 0.0000
# 3 29.1096 10.1286 80.0166 0.0000 -7.7186 0.0000
# 4 0.0000 0.0000 0.0000 14.1789 0.0000 -0.1728
# 5 3.0412 -3.5624 -7.7186 0.0000 27.4040 0.0000
# 6 0.0000 0.0000 0.0000 -0.1728 0.0000 15.7062
#
#
#
# Elastic Compliance Matrix: (Units=1/GPa)
#
#
# Indices 1 2 3 4 5 6 
#
# 1 0.013329 -0.005935 -0.004435 0.000000 -0.003500 0.000000
# 2 -0.005935 0.023621 -0.000484 0.000000 0.003593 0.000000
# 3 -0.004435 -0.000484 0.014611 0.000000 0.004545 0.000000
# 4 0.000000 0.000000 0.000000 0.070537 0.000000 0.000776
# 5 -0.003500 0.003593 0.004545 0.000000 0.038627 0.000000
# 6 0.000000 0.000000 0.000000 0.000776 0.000000 0.063678
#
#
# Mechanical properties :
#
#
# Convention : Reuss Voigt Hill
#
# Bulk Modulus (GPa) = 33.49911 39.19172 36.34542
# Shear Modulus (GPa) = 19.52648 22.25670 20.89159
#
# Velocity S-wave (km/s) = 3.17693 3.39177 3.28611
# Velocity P-wave (km/s) = 5.54728 5.96627 5.76058
#
# Compressibility (1/GPa) = 0.02985154
#
# Stress axis : x y z
#
# Youngs Moduli (GPa) = 75.02265 42.33465 68.44307
#
# Poissons Ratio (x) = 0.25126 0.30358
# Poissons Ratio (y) = 0.44527 0.03314
# Poissons Ratio (z) = 0.33276 0.02050
#
# Static dielectric constant tensor:
#      x y z
#    x 1.683260 0.000000 -0.017600 
#    y 0.000000 1.717040 0.000000 
#    z -0.017600 0.000000 1.707090 
# 
# From -- ./inp_files/79044.got.cif
#   From: 2010.05.17/outbox.cif.g08.bks.cpg/sg12_40_cif.got.tgz:79044.got - 2010.06.03 13:09:07.
