data_PCOD9170370
_publ_section_title
;
Structure prediction by ZEFSAII (Michael W. Deem and Ramdas Pophale) SiO2 
 PCOD9170370
Probable space group: C 2/M
;
_chemical_formula_sum "Si O2"
_cell_formula_units_Z 52
_cell_length_a 23.169346
_cell_length_b 12.123733
_cell_length_c 17.517058
_cell_angle_alpha 90.000000
_cell_angle_beta 153.253917
_cell_angle_gamma 90.000000
_cell_volume 2214.419543
_symmetry_space_group_name_H-M "C 2/M"
_symmetry_group_IT_number 12
_symmetry_cell_setting 'monoclinic'
loop_
_space_group_symop_operation_xyz
x,y,z
-x,y,-z
-x,-y,-z
x,-y,z
1/2+x,1/2+y,z
1/2-x,1/2+y,-z
1/2-x,1/2-y,-z
1/2+x,1/2-y,z
loop_
_atom_site_type_symbol
_atom_site_label
_atom_site_fract_x
_atom_site_fract_y
_atom_site_fract_z
Si Si1 0.536003 0.500000 0.163992
Si Si2 0.441019 0.875362 0.014733
Si Si3 0.574361 0.716979 0.288858
Si Si4 0.647835 0.375353 0.865792
Si Si5 0.844235 0.377263 0.490472
Si Si6 0.877381 0.666581 0.244268
Si Si7 0.696338 0.342595 0.166092
O O1 0.434528 0.405399 0.009906
O O2 0.614901 0.600749 0.300194
O O3 0.326764 0.787483 0.870739
O O4 0.408779 0.000000 0.001942
O O5 0.500000 0.881448 0.000000
O O6 0.537804 0.813986 0.186891
O O7 0.443034 0.680277 0.177873
O O8 0.657658 0.775137 0.453367
O O9 0.606219 0.500000 0.805472
O O10 0.635298 0.298900 0.777846
O O11 0.789434 0.373684 0.069331
O O12 0.853821 0.500000 0.535269
O O13 0.733985 0.372777 0.296242
O O14 0.977039 0.363950 0.598764
O O15 0.808019 0.626011 0.238464
#
# Coordination Sequence:
#
# PCOD9170370 Si02
#       7
#     4   8   8   8   8   8   8
#     4  10  18  36  62  74 119 164 196 244 291 353
#     4  10  22  42  67  88 110 149 201 255 303 364
#     4  10  19  37  61  87 115 157 201 247 301 355
#     4  10  17  31  51  78 118 158 203 248 283 344
#     4  11  23  34  57  90 127 163 199 247 295 354
#     4  10  20  30  49  85 117 163 201 233 290 350
#     4  11  21  39  57  87 123 157 201 250 303 349
#
# _framework density 23.482451000000001
#
# number of rings (size 3 to 8) (size 9 to 14) (size 15 to 20)
#    0.000    1.692    4.615    1.385    1.077    1.231 
#    1.385    6.923    0.000    2.769    0.000    0.000 
#    0.000    0.000    0.000    0.000    0.000    0.000 
#
# Total GULP energy -144913.804637 kJ/mol
# GULP energy per Si atom -5573.607871 kJ/mol
# Density = 2.342900 g / cm^3
# Si number density = 23.482451 Si / 1000 Ang^3
#
#
#
# Elastic Constant Matrix: (Units=GPa)
#
#
# Indices 1 2 3 4 5 6 
#
# 1 87.3758 30.9716 6.0505 0.0000 -0.9590 0.0000
# 2 30.9716 234.0702 47.9950 0.0000 -13.0282 0.0000
# 3 6.0505 47.9950 89.3017 0.0000 -7.2941 0.0000
# 4 0.0000 0.0000 0.0000 28.8384 0.0000 -1.5095
# 5 -0.9590 -13.0282 -7.2941 0.0000 31.2212 0.0000
# 6 0.0000 0.0000 0.0000 -1.5095 0.0000 10.7537
#
#
#
# Elastic Compliance Matrix: (Units=1/GPa)
#
#
# Indices 1 2 3 4 5 6 
#
# 1 0.012011 -0.001612 0.000028 0.000000 -0.000297 0.000000
# 2 -0.001612 0.005081 -0.002500 0.000000 0.001487 0.000000
# 3 0.000028 -0.002500 0.012697 0.000000 0.001924 0.000000
# 4 0.000000 0.000000 0.000000 0.034933 0.000000 0.004904
# 5 -0.000297 0.001487 0.001924 0.000000 0.033090 0.000000
# 6 0.000000 0.000000 0.000000 0.004904 0.000000 0.093680
#
#
# Mechanical properties :
#
#
# Convention : Reuss Voigt Hill
#
# Bulk Modulus (GPa) = 46.25023 64.53134 55.39078
# Shear Modulus (GPa) = 24.17030 35.87802 30.02416
#
# Velocity S-wave (km/s) = 3.21174 3.91303 3.57960
# Velocity P-wave (km/s) = 5.78724 6.92503 6.38154
#
# Compressibility (1/GPa) = 0.02162151
#
# Stress axis : x y z
#
# Youngs Moduli (GPa) = 83.25812 196.81839 78.75938
#
# Poissons Ratio (x) = 0.31718 -0.00221
# Poissons Ratio (y) = 0.13417 0.19690
# Poissons Ratio (z) = -0.00234 0.49206
#
# Static dielectric constant tensor:
#      x y z
#    x 2.021260 0.000000 0.037570 
#    y 0.000000 1.917170 0.000000 
#    z 0.037570 0.000000 1.870330 
# 
# From -- ./inp_files/293170.got.cif
#   From: 2010.05.17/outbox.cif.g08.bks.cpg/sg12_147_cif.got.tgz:293170.got - 2010.06.03 13:09:07.
