data_PCOD9170128
_publ_section_title
;
Structure prediction by ZEFSAII (Michael W. Deem and Ramdas Pophale) SiO2 
 PCOD9170128
Probable space group: C 2/M
;
_chemical_formula_sum "Si O2"
_cell_formula_units_Z 64
_cell_length_a 20.657646
_cell_length_b 25.049537
_cell_length_c 8.098533
_cell_angle_alpha 90.000000
_cell_angle_beta 58.560915
_cell_angle_gamma 90.000000
_cell_volume 3575.487683
_symmetry_space_group_name_H-M "C 2/M"
_symmetry_group_IT_number 12
_symmetry_cell_setting 'monoclinic'
loop_
_space_group_symop_operation_xyz
x,y,z
-x,y,-z
-x,-y,-z
x,-y,z
1/2+x,1/2+y,z
1/2-x,1/2+y,-z
1/2-x,1/2-y,-z
1/2+x,1/2-y,z
loop_
_atom_site_type_symbol
_atom_site_label
_atom_site_fract_x
_atom_site_fract_y
_atom_site_fract_z
Si Si1 0.897534 0.064786 0.472510
Si Si2 0.696591 0.812257 0.431204
Si Si3 0.666040 0.378544 0.764710
Si Si4 0.085817 0.783390 0.028834
Si Si5 0.647660 0.341983 0.271046
Si Si6 0.445644 0.744351 0.414323
Si Si7 0.047758 0.939668 0.110416
Si Si8 0.784376 0.288411 0.209014
O O1 0.848935 0.089346 0.384702
O O2 0.870453 0.096676 0.668565
O O3 0.984740 0.081861 0.319535
O O4 0.893663 0.000000 0.481756
O O5 0.745711 0.864762 0.324350
O O6 0.608507 0.796036 0.533972
O O7 0.737188 0.766811 0.267001
O O8 0.715132 0.804659 0.600336
O O9 0.617034 0.322957 0.842923
O O10 0.626153 0.412825 0.959914
O O11 0.114223 0.815950 0.151974
O O12 0.999072 0.769286 0.186800
O O13 0.132206 0.728358 0.956153
O O14 0.607190 0.306519 0.469503
O O15 0.737028 0.330320 0.166749
O O16 0.500000 0.752534 0.500000
O O17 0.061906 0.000000 0.140705
O O18 0.000000 0.939070 0.000000
#
# Coordination Sequence:
#
# PCOD9170128 Si02
#       8
#     8   8   8   8   8   8   8   8
#     4  10  19  32  50  71  98 130 166 208 244 282
#     4   9  17  29  46  69  97 125 161 203 240 287
#     4  10  17  30  47  70  94 128 164 199 244 287
#     4  10  20  29  46  69  95 130 166 198 239 290
#     4  10  18  33  48  66  98 134 165 195 244 299
#     4   9  19  32  46  68 101 131 160 196 243 297
#     4   8  15  27  44  68  94 121 159 205 241 273
#     4   9  17  30  45  69  94 124 162 204 241 284
#
# _framework density 17.899656
#
# number of rings (size 3 to 8) (size 9 to 14) (size 15 to 20)
#    0.000    2.625    1.250    2.250    1.750    1.500 
#    0.000    1.250    0.000    4.875    0.000    0.000 
#    0.000    5.000    0.000    0.000    0.000    5.375 
#
# Total GULP energy -178304.572578 kJ/mol
# GULP energy per Si atom -5572.017893 kJ/mol
# Density = 1.785892 g / cm^3
# Si number density = 17.899656 Si / 1000 Ang^3
#
#
#
# Elastic Constant Matrix: (Units=GPa)
#
#
# Indices 1 2 3 4 5 6 
#
# 1 58.7352 27.8032 15.3322 0.0000 -8.4236 0.0000
# 2 27.8032 69.0748 24.5991 0.0000 -10.8770 0.0000
# 3 15.3322 24.5991 62.7721 0.0000 -3.9099 0.0000
# 4 0.0000 0.0000 0.0000 30.2547 0.0000 -8.5403
# 5 -8.4236 -10.8770 -3.9099 0.0000 27.2590 0.0000
# 6 0.0000 0.0000 0.0000 -8.5403 0.0000 17.9466
#
#
#
# Elastic Compliance Matrix: (Units=1/GPa)
#
#
# Indices 1 2 3 4 5 6 
#
# 1 0.021571 -0.007374 -0.002167 0.000000 0.003413 0.000000
# 2 -0.007374 0.020313 -0.005849 0.000000 0.004988 0.000000
# 3 -0.002167 -0.005849 0.018732 0.000000 -0.000316 0.000000
# 4 0.000000 0.000000 0.000000 0.038182 0.000000 0.018170
# 5 0.003413 0.004988 -0.000316 0.000000 0.039685 0.000000
# 6 0.000000 0.000000 0.000000 0.018170 0.000000 0.064367
#
#
# Mechanical properties :
#
#
# Convention : Reuss Voigt Hill
#
# Bulk Modulus (GPa) = 33.51351 36.22790 34.87071
# Shear Modulus (GPa) = 20.52764 23.28189 21.90476
#
# Velocity S-wave (km/s) = 3.39014 3.61042 3.50201
# Velocity P-wave (km/s) = 5.83847 6.13706 5.98963
#
# Compressibility (1/GPa) = 0.02983871
#
# Stress axis : x y z
#
# Youngs Moduli (GPa) = 46.35855 49.22893 53.38431
#
# Poissons Ratio (x) = 0.36299 0.11567
# Poissons Ratio (y) = 0.34183 0.31223
# Poissons Ratio (z) = 0.10044 0.28792
#
# Static dielectric constant tensor:
#      x y z
#    x 1.710810 0.000000 0.036420 
#    y 0.000000 1.634980 0.000000 
#    z 0.036420 0.000000 1.677760 
# 
# From -- ./inp_files/91080.got.cif
#   From: 2010.05.17/outbox.cif.g08.bks.cpg/sg12_46_cif.got.tgz:91080.got - 2010.06.03 13:09:07.
