data_PCOD9170069
_publ_section_title
;
Structure prediction by ZEFSAII (Michael W. Deem and Ramdas Pophale) SiO2 
 PCOD9170069
Probable space group: C 2/M
;
_chemical_formula_sum "Si O2"
_cell_formula_units_Z 52
_cell_length_a 22.201215
_cell_length_b 26.785181
_cell_length_c 13.642920
_cell_angle_alpha 90.000000
_cell_angle_beta 158.346779
_cell_angle_gamma 90.000000
_cell_volume 2993.580611
_symmetry_space_group_name_H-M "C 2/M"
_symmetry_group_IT_number 12
_symmetry_cell_setting 'monoclinic'
loop_
_space_group_symop_operation_xyz
x,y,z
-x,y,-z
-x,-y,-z
x,-y,z
1/2+x,1/2+y,z
1/2-x,1/2+y,-z
1/2-x,1/2-y,-z
1/2+x,1/2-y,z
loop_
_atom_site_type_symbol
_atom_site_label
_atom_site_fract_x
_atom_site_fract_y
_atom_site_fract_z
Si Si1 0.581755 0.057511 0.459349
Si Si2 0.625048 0.199091 0.095934
Si Si3 0.966067 0.943399 0.060837
Si Si4 0.000000 0.633579 0.500000
Si Si5 0.860239 0.355249 0.575576
Si Si6 0.619333 0.354730 0.391934
Si Si7 0.718604 0.306151 0.165710
O O1 0.487745 0.095122 0.390049
O O2 0.590580 0.087253 0.370025
O O3 0.524805 0.000000 0.370024
O O4 0.771233 0.056274 0.780498
O O5 0.763265 0.160588 0.342072
O O6 0.712489 0.248687 0.188508
O O7 0.500000 0.209341 0.000000
O O8 0.517102 0.175911 0.845921
O O9 0.048584 0.910082 0.268780
O O10 0.028036 0.000000 0.156764
O O11 0.000000 0.924720 0.000000
O O12 0.846857 0.670702 0.282620
O O13 0.732884 0.348280 0.469230
O O14 0.772350 0.335164 0.345571
O O15 0.462182 0.319670 0.143770
#
# Coordination Sequence:
#
# PCOD9170069 Si02
#       7
#     8   8   8   4   8   8   8
#     4  10  19  33  55  78 105 135 170 220 267 307
#     4  10  22  34  52  79 111 143 170 207 262 318
#     4  10  17  29  54  84 104 129 171 217 266 313
#     4  10  21  34  54  82 102 128 185 234 254 290
#     4  10  19  33  53  82 108 134 171 211 264 321
#     4  11  18  33  54  79 110 137 170 214 258 316
#     4  11  20  35  54  74 103 140 183 220 254 298
#
# _framework density 17.370502999999999
#
# number of rings (size 3 to 8) (size 9 to 14) (size 15 to 20)
#    0.000    1.692    4.615    2.538    0.000    2.462 
#    0.000    7.692    0.000    2.769    0.000    1.077 
#    0.000    0.000    0.000    0.000    0.000    0.000 
#
# Total GULP energy -144765.024902 kJ/mol
# GULP energy per Si atom -5567.885573 kJ/mol
# Density = 1.733097 g / cm^3
# Si number density = 17.370503 Si / 1000 Ang^3
#
#
#
# Elastic Constant Matrix: (Units=GPa)
#
#
# Indices 1 2 3 4 5 6 
#
# 1 29.6655 2.5732 16.1755 0.0000 25.6056 0.0000
# 2 2.5732 95.6301 33.2272 0.0000 23.7077 0.0000
# 3 16.1755 33.2272 43.8517 0.0000 -6.5387 0.0000
# 4 0.0000 0.0000 0.0000 11.4515 0.0000 13.1517
# 5 25.6056 23.7077 -6.5387 0.0000 0.5899 0.0000
# 6 0.0000 0.0000 0.0000 13.1517 0.0000 21.7808
#
#
#
# Elastic Compliance Matrix: (Units=1/GPa)
#
#
# Indices 1 2 3 4 5 6 
#
# 1 0.009333 -0.008790 0.006910 0.000000 0.024760 0.000000
# 2 -0.008790 0.008733 -0.001816 0.000000 0.010453 0.000000
# 3 0.006910 -0.001816 0.018703 0.000000 -0.019638 0.000000
# 4 0.000000 0.000000 0.000000 0.284884 0.000000 -0.172019
# 5 0.024760 0.010453 -0.019638 0.000000 -0.017330 0.000000
# 6 0.000000 0.000000 0.000000 -0.172019 0.000000 0.149780
#
#
# Mechanical properties :
#
#
# Convention : Reuss Voigt Hill
#
# Bulk Modulus (GPa) = 34.04119 30.34432 32.19275
# Shear Modulus (GPa) = 10.60924 14.57585 12.59254
#
# Velocity S-wave (km/s) = 2.47404 2.89989 2.69539
# Velocity P-wave (km/s) = 5.27265 5.35904 5.31602
#
# Compressibility (1/GPa) = 0.02937618
#
# Stress axis : x y z
#
# Youngs Moduli (GPa) = 107.14926 114.50932 53.46707
#
# Poissons Ratio (x) = 1.00656 -0.36945
# Poissons Ratio (y) = 0.94186 0.09709
# Poissons Ratio (z) = -0.74038 0.20794
#
# Static dielectric constant tensor:
#      x y z
#    x 1.632160 0.000000 0.022630 
#    y 0.000000 1.642310 0.000000 
#    z 0.022630 0.000000 1.585180 
# 
# From -- ./inp_files/242385.got.cif
#   From: 2010.05.17/outbox.cif.g08.bks.cpg/sg12_122_cif.got.tgz:242385.got - 2010.06.03 13:09:07.
