data_PCOD9170052
_publ_section_title
;
Structure prediction by ZEFSAII (Michael W. Deem and Ramdas Pophale) SiO2 
 PCOD9170052
Probable space group: C 2/M
;
_chemical_formula_sum "Si O2"
_cell_formula_units_Z 48
_cell_length_a 15.995334
_cell_length_b 25.949046
_cell_length_c 5.613757
_cell_angle_alpha 90.000000
_cell_angle_beta 122.614148
_cell_angle_gamma 90.000000
_cell_volume 1962.660072
_symmetry_space_group_name_H-M "C 2/M"
_symmetry_group_IT_number 12
_symmetry_cell_setting 'monoclinic'
loop_
_space_group_symop_operation_xyz
x,y,z
-x,y,-z
-x,-y,-z
x,-y,z
1/2+x,1/2+y,z
1/2-x,1/2+y,-z
1/2-x,1/2-y,-z
1/2+x,1/2-y,z
loop_
_atom_site_type_symbol
_atom_site_label
_atom_site_fract_x
_atom_site_fract_y
_atom_site_fract_z
Si Si1 0.146187 0.405946 0.642539
Si Si2 0.874912 0.940148 0.945209
Si Si3 0.873305 0.105512 0.439307
Si Si4 0.787277 0.707764 0.250156
Si Si5 0.350025 0.938767 0.856872
Si Si6 0.603161 0.708872 0.293516
O O1 0.160585 0.345735 0.734104
O O2 0.103354 0.414267 0.310631
O O3 0.255461 0.431545 0.772526
O O4 0.100528 0.431763 0.807287
O O5 0.909902 0.912470 0.238994
O O6 0.896431 0.000000 0.000069
O O7 0.909318 0.920251 0.740802
O O8 0.756182 0.090234 0.269683
O O9 0.893368 0.165773 0.498253
O O10 0.688406 0.691964 0.240267
O O11 0.861208 0.737744 0.540104
O O12 0.750000 0.750000 0.000000
O O13 0.335517 0.000000 0.795842
O O14 0.500000 0.711809 0.000000
#
# Coordination Sequence:
#
# PCOD9170052 Si02
#       6
#     8   8   8   8   8   8
#     4  10  18  30  52  83 115 158 198 255 304 363
#     4  10  17  29  53  82 115 157 206 255 300 357
#     4  10  18  33  51  80 113 161 202 254 297 365
#     4  11  23  41  65  90 123 165 215 268 317 377
#     4  10  17  29  52  84 119 157 203 252 299 364
#     4  11  25  42  63  90 124 168 214 264 321 378
#
# _framework density 24.456606000000001
#
# number of rings (size 3 to 8) (size 9 to 14) (size 15 to 20)
#    0.000    1.667    3.333    7.000    2.333    0.667 
#    0.000    0.000    0.000    5.500    0.000    0.000 
#    0.000    7.333    0.000    0.000    0.000    0.333 
#
# Total GULP energy -134254.782319 kJ/mol
# GULP energy per Si atom -5593.949263 kJ/mol
# Density = 2.440094 g / cm^3
# Si number density = 24.456606 Si / 1000 Ang^3
#
#
#
# Elastic Constant Matrix: (Units=GPa)
#
#
# Indices 1 2 3 4 5 6 
#
# 1 115.4496 29.4255 60.2146 0.0000 -26.5765 0.0000
# 2 29.4255 92.9658 32.5945 0.0000 4.4711 0.0000
# 3 60.2146 32.5945 159.4324 0.0000 -40.0708 0.0000
# 4 0.0000 0.0000 0.0000 25.1476 0.0000 -24.5207
# 5 -26.5765 4.4711 -40.0708 0.0000 44.5156 0.0000
# 6 0.0000 0.0000 0.0000 -24.5207 0.0000 3.3219
#
#
#
# Elastic Compliance Matrix: (Units=1/GPa)
#
#
# Indices 1 2 3 4 5 6 
#
# 1 0.011999 -0.003134 -0.002600 0.000000 0.005138 0.000000
# 2 -0.003134 0.013066 -0.002957 0.000000 -0.005845 0.000000
# 3 -0.002600 -0.002957 0.009749 0.000000 0.007520 0.000000
# 4 0.000000 0.000000 0.000000 -0.006416 0.000000 -0.047362
# 5 0.005138 -0.005845 0.007520 0.000000 0.032888 0.000000
# 6 0.000000 0.000000 0.000000 -0.047362 0.000000 -0.048573
#
#
# Mechanical properties :
#
#
# Convention : Reuss Voigt Hill
#
# Bulk Modulus (GPa) = 57.35969 68.03522 62.69745
# Shear Modulus (GPa) = 139.26011 30.97126 85.11568
#
# Velocity S-wave (km/s) = 7.55416 3.56248 5.90578
# Velocity P-wave (km/s) = 9.97956 6.69334 8.49684
#
# Compressibility (1/GPa) = 0.01743385
#
# Stress axis : x y z
#
# Youngs Moduli (GPa) = 83.33835 76.53322 102.57767
#
# Poissons Ratio (x) = 0.23982 0.26669
# Poissons Ratio (y) = 0.26115 0.30329
# Poissons Ratio (z) = 0.21667 0.22629
#
# Static dielectric constant tensor:
#      x y z
#    x 1.071840 0.000000 -0.279960 
#    y 0.000000 1.885010 0.000000 
#    z -0.279960 0.000000 1.936800 
# 
# From -- ./inp_files/21993.got.cif
#   From: 2010.05.17/outbox.cif.g08.bks.cpg/sg12_11_cif.got.tgz:21993.got - 2010.06.03 13:09:07.
