data_PCOD9170921
_publ_section_title
;
Structure prediction by ZEFSAII (Michael W. Deem and Ramdas Pophale) SiO2 
 PCOD9170921
Probable space group: C 2/M
;
_chemical_formula_sum "Si O2"
_cell_formula_units_Z 34
_cell_length_a 12.035502
_cell_length_b 13.387616
_cell_length_c 8.362185
_cell_angle_alpha 90.000000
_cell_angle_beta 64.041205
_cell_angle_gamma 90.000000
_cell_volume 1211.433582
_symmetry_space_group_name_H-M "C 2/M"
_symmetry_group_IT_number 12
_symmetry_cell_setting 'monoclinic'
loop_
_space_group_symop_operation_xyz
x,y,z
-x,y,-z
-x,-y,-z
x,-y,z
1/2+x,1/2+y,z
1/2-x,1/2+y,-z
1/2-x,1/2-y,-z
1/2+x,1/2-y,z
loop_
_atom_site_type_symbol
_atom_site_label
_atom_site_fract_x
_atom_site_fract_y
_atom_site_fract_z
Si Si1 0.338764 0.611516 0.175528
Si Si2 0.500000 0.000000 0.000000
Si Si3 0.102716 0.358433 0.554120
Si Si4 0.529681 0.354810 0.310022
Si Si5 0.821484 0.659278 0.137066
O O1 0.313245 0.500000 0.121901
O O2 0.227058 0.634431 0.371999
O O3 0.463916 0.600746 0.198481
O O4 0.347870 0.723296 0.093384
O O5 0.409239 0.911370 0.979203
O O6 0.146079 0.386527 0.705986
O O7 0.000000 0.403263 0.500000
O O8 0.040439 0.251571 0.630232
O O9 0.500000 0.401254 0.500000
O O10 0.676386 0.353439 0.205142
#
# Coordination Sequence:
#
# PCOD9170921 Si02
#       5
#     8   2   8   8   8
#     4  11  22  36  68 112 145 171 215 299 373 407
#     4  12  32  48  74  84 134 216 246 282 304 438
#     4  10  19  37  67 110 147 171 207 293 370 414
#     4  10  17  36  68 101 145 177 221 294 345 411
#     4  11  23  47  64 103 143 186 245 271 344 419
#
# _framework density 28.065920999999999
#
# number of rings (size 3 to 8) (size 9 to 14) (size 15 to 20)
#    0.000    1.412    7.059    1.412    3.294    0.941 
#    0.000    5.294    0.000    0.000    0.000    0.000 
#    0.000    0.000    0.000    0.000    0.000    0.000 
#
# Total GULP energy -94740.271736 kJ/mol
# GULP energy per Si atom -5572.957161 kJ/mol
# Density = 2.800204 g / cm^3
# Si number density = 28.065921 Si / 1000 Ang^3
#
#
#
# Elastic Constant Matrix: (Units=GPa)
#
#
# Indices 1 2 3 4 5 6 
#
# 1 245.4008 49.7117 63.4799 0.0000 -27.0675 0.0000
# 2 49.7117 295.6252 51.5673 0.0000 -31.2946 0.0000
# 3 63.4799 51.5673 97.2495 0.0000 -14.6443 0.0000
# 4 0.0000 0.0000 0.0000 167.0957 0.0000 -57.7334
# 5 -27.0675 -31.2946 -14.6443 0.0000 79.8187 0.0000
# 6 0.0000 0.0000 0.0000 -57.7334 0.0000 4.5531
#
#
#
# Elastic Compliance Matrix: (Units=1/GPa)
#
#
# Indices 1 2 3 4 5 6 
#
# 1 0.005011 -0.000206 -0.003001 0.000000 0.001068 0.000000
# 2 -0.000206 0.003838 -0.001732 0.000000 0.001117 0.000000
# 3 -0.003001 -0.001732 0.013271 0.000000 0.000738 0.000000
# 4 0.000000 0.000000 0.000000 -0.001770 0.000000 -0.022444
# 5 0.001068 0.001117 0.000738 0.000000 0.013464 0.000000
# 6 0.000000 0.000000 0.000000 -0.022444 0.000000 -0.064959
#
#
# Mechanical properties :
#
#
# Convention : Reuss Voigt Hill
#
# Bulk Modulus (GPa) = 81.68869 107.53259 94.61064
# Shear Modulus (GPa) = -290.92395 81.86128 -104.53134
#
# Velocity S-wave (km/s) = -10.19227 5.40655 -6.10948
# Velocity P-wave (km/s) = 10.45661 8.79613 3.99805
#
# Compressibility (1/GPa) = 0.01224160
#
# Stress axis : x y z
#
# Youngs Moduli (GPa) = 199.57255 260.57102 75.35113
#
# Poissons Ratio (x) = 0.05371 0.22610
# Poissons Ratio (y) = 0.04114 0.13053
# Poissons Ratio (z) = 0.59885 0.45137
#
# Static dielectric constant tensor:
#      x y z
#    x 2.172640 0.000000 0.070420 
#    y 0.000000 2.229240 0.000000 
#    z 0.070420 0.000000 2.502070 
# 
# From -- ./inp_files/128969.got.cif
#   From: 2010.05.17/outbox.cif.g08.bks.cpg/sg12_65_cif.got.tgz:128969.got - 2010.06.03 13:09:07.
