data_PCOD9170065
_publ_section_title
;
Structure prediction by ZEFSAII (Michael W. Deem and Ramdas Pophale) SiO2 
 PCOD9170065
Probable space group: C 2/M
;
_chemical_formula_sum "Si O2"
_cell_formula_units_Z 52
_cell_length_a 15.064905
_cell_length_b 9.594189
_cell_length_c 29.552787
_cell_angle_alpha 90.000000
_cell_angle_beta 144.875057
_cell_angle_gamma 90.000000
_cell_volume 2457.614776
_symmetry_space_group_name_H-M "C 2/M"
_symmetry_group_IT_number 12
_symmetry_cell_setting 'monoclinic'
loop_
_space_group_symop_operation_xyz
x,y,z
-x,y,-z
-x,-y,-z
x,-y,z
1/2+x,1/2+y,z
1/2-x,1/2+y,-z
1/2-x,1/2-y,-z
1/2+x,1/2-y,z
loop_
_atom_site_type_symbol
_atom_site_label
_atom_site_fract_x
_atom_site_fract_y
_atom_site_fract_z
Si Si1 0.391921 0.160222 0.307841
Si Si2 0.291500 0.336761 0.401612
Si Si3 0.571311 0.000000 0.886937
Si Si4 0.911586 0.745115 0.764950
Si Si5 0.929469 0.332620 0.529828
Si Si6 0.683691 0.500000 0.080928
Si Si7 0.063673 0.500000 0.076578
Si Si8 0.176663 0.775084 0.815208
O O1 0.230656 0.181526 0.268499
O O2 0.531836 0.182386 0.401270
O O3 0.393778 0.253819 0.264074
O O4 0.399676 0.000000 0.296183
O O5 0.320784 0.500000 0.423841
O O6 0.155317 0.329432 0.308236
O O7 0.427329 0.255189 0.431394
O O8 0.287655 0.244277 0.445776
O O9 0.482629 0.866848 0.829030
O O10 0.562836 0.000000 0.937070
O O11 0.741997 0.000000 0.937977
O O12 0.052792 0.828857 0.800712
O O13 0.931318 0.500000 0.520951
O O14 0.755087 0.631690 0.136645
O O15 0.500000 0.500000 0.000000
O O16 0.176110 0.370639 0.129396
O O17 0.000000 0.500000 0.000000
#
# Coordination Sequence:
#
# PCOD9170065 Si02
#       8
#     8   8   4   8   8   4   4   8
#     4  10  20  37  61  87 121 165 215 254 302 363
#     4  10  17  29  53  85 119 158 214 257 303 355
#     4  10  20  42  66  90 124 161 198 247 305 360
#     4  10  21  37  62  89 121 164 206 257 301 356
#     4   9  18  31  49  81 124 168 204 257 311 359
#     4  10  22  44  68  94 120 163 206 247 296 375
#     4  12  26  46  64  97 131 157 187 257 323 372
#     4  11  23  42  65  90 125 158 207 250 306 371
#
# _framework density 21.158725
#
# number of rings (size 3 to 8) (size 9 to 14) (size 15 to 20)
#    0.000    1.846    3.077    2.308    1.077    0.615 
#    4.154    3.077    0.000    0.000    0.000    0.000 
#    0.000    0.000    0.000    0.000    0.000    0.000 
#
# Total GULP energy -144898.599108 kJ/mol
# GULP energy per Si atom -5573.023043 kJ/mol
# Density = 2.111057 g / cm^3
# Si number density = 21.158725 Si / 1000 Ang^3
#
#
#
# Elastic Constant Matrix: (Units=GPa)
#
#
# Indices 1 2 3 4 5 6 
#
# 1 133.4290 27.5882 38.0687 0.0000 -13.3615 0.0000
# 2 27.5882 105.2071 13.2345 0.0000 -14.3365 0.0000
# 3 38.0687 13.2345 83.4199 0.0000 -34.7658 0.0000
# 4 0.0000 0.0000 0.0000 13.8452 0.0000 -8.0516
# 5 -13.3615 -14.3365 -34.7658 0.0000 33.6738 0.0000
# 6 0.0000 0.0000 0.0000 -8.0516 0.0000 13.0338
#
#
#
# Elastic Compliance Matrix: (Units=1/GPa)
#
#
# Indices 1 2 3 4 5 6 
#
# 1 0.009048 -0.002073 -0.004689 0.000000 -0.002134 0.000000
# 2 -0.002073 0.010571 0.001408 0.000000 0.005131 0.000000
# 3 -0.004689 0.001408 0.023482 0.000000 0.022982 0.000000
# 4 0.000000 0.000000 0.000000 0.112723 0.000000 0.069634
# 5 -0.002134 0.005131 0.022982 0.000000 0.054762 0.000000
# 6 0.000000 0.000000 0.000000 0.069634 0.000000 0.119740
#
#
# Mechanical properties :
#
#
# Convention : Reuss Voigt Hill
#
# Bulk Modulus (GPa) = 30.87351 53.31542 42.09447
# Shear Modulus (GPa) = 14.21129 28.32153 21.26641
#
# Velocity S-wave (km/s) = 2.59444 3.66256 3.17375
# Velocity P-wave (km/s) = 4.85776 6.56798 5.77651
#
# Compressibility (1/GPa) = 0.03239023
#
# Stress axis : x y z
#
# Youngs Moduli (GPa) = 110.52735 94.59927 42.58529
#
# Poissons Ratio (x) = 0.19615 0.19970
# Poissons Ratio (y) = 0.22917 -0.05994
# Poissons Ratio (z) = 0.51830 -0.13315
#
# Static dielectric constant tensor:
#      x y z
#    x 1.803690 0.000000 0.008050 
#    y 0.000000 1.717600 0.000000 
#    z 0.008050 0.000000 1.811210 
# 
# From -- ./inp_files/375739.got.cif
#   From: 2010.05.17/outbox.cif.g08.bks.cpg/sg12_188_cif.got.tgz:375739.got - 2010.06.03 13:09:07.
