data_PCOD9170743
_publ_section_title
;
Structure prediction by ZEFSAII (Michael W. Deem and Ramdas Pophale) SiO2 
 PCOD9170743
Probable space group: C 2/M
;
_chemical_formula_sum "Si O2"
_cell_formula_units_Z 44
_cell_length_a 7.952271
_cell_length_b 17.873600
_cell_length_c 13.549352
_cell_angle_alpha 90.000000
_cell_angle_beta 71.996123
_cell_angle_gamma 90.000000
_cell_volume 1831.548855
_symmetry_space_group_name_H-M "C 2/M"
_symmetry_group_IT_number 12
_symmetry_cell_setting 'monoclinic'
loop_
_space_group_symop_operation_xyz
x,y,z
-x,y,-z
-x,-y,-z
x,-y,z
1/2+x,1/2+y,z
1/2-x,1/2+y,-z
1/2-x,1/2-y,-z
1/2+x,1/2-y,z
loop_
_atom_site_type_symbol
_atom_site_label
_atom_site_fract_x
_atom_site_fract_y
_atom_site_fract_z
Si Si1 0.000000 0.127533 0.500000
Si Si2 0.064908 0.293508 0.824099
Si Si3 0.796597 0.082597 0.349638
Si Si4 0.722679 0.753715 0.388424
Si Si5 0.419493 0.640065 0.859433
Si Si6 0.345220 0.080445 0.944647
O O1 0.125131 0.082913 0.552128
O O2 0.092779 0.183294 0.404472
O O3 0.108458 0.269804 0.705389
O O4 0.244320 0.328416 0.835008
O O5 0.014775 0.214721 0.881639
O O6 0.906166 0.351833 0.864858
O O7 0.682826 0.159853 0.368579
O O8 0.950556 0.096273 0.238869
O O9 0.716783 0.000000 0.347337
O O10 0.750000 0.750000 0.500000
O O11 0.334817 0.593257 0.963528
O O12 0.344320 0.000000 0.893912
O O13 0.500000 0.079106 0.000000
#
# Coordination Sequence:
#
# PCOD9170743 Si02
#       6
#     4   8   8   8   8   8
#     4  10  17  34  51  72 100 140 178 226 271 324
#     4  10  19  34  52  79 102 144 178 222 263 334
#     4  10  19  31  51  78 105 134 180 229 269 313
#     4   9  19  33  51  75 105 140 179 223 276 323
#     4  10  19  33  55  78 108 139 182 215 273 323
#     4   9  18  32  52  80 110 136 173 226 276 316
#
# _framework density 24.023381000000001
#
# number of rings (size 3 to 8) (size 9 to 14) (size 15 to 20)
#    0.000    2.364    1.818    1.364    0.000    0.727 
#    0.000    1.364    0.000    6.545    0.000    0.000 
#    0.000    0.000    0.000    0.000    0.000    0.000 
#
# Total GULP energy -122745.501879 kJ/mol
# GULP energy per Si atom -5579.340994 kJ/mol
# Density = 2.396870 g / cm^3
# Si number density = 24.023381 Si / 1000 Ang^3
#
#
#
# Elastic Constant Matrix: (Units=GPa)
#
#
# Indices 1 2 3 4 5 6 
#
# 1 49.1650 4.3777 4.1485 0.0000 8.8029 0.0000
# 2 4.3777 184.3637 46.8043 0.0000 -7.4182 0.0000
# 3 4.1485 46.8043 117.1636 0.0000 -5.3899 0.0000
# 4 0.0000 0.0000 0.0000 23.5672 0.0000 1.4957
# 5 8.8029 -7.4182 -5.3899 0.0000 23.8260 0.0000
# 6 0.0000 0.0000 0.0000 1.4957 0.0000 16.0774
#
#
#
# Elastic Compliance Matrix: (Units=1/GPa)
#
#
# Indices 1 2 3 4 5 6 
#
# 1 0.022001 -0.000632 -0.000919 0.000000 -0.008534 0.000000
# 2 -0.000632 0.006098 -0.002340 0.000000 0.001603 0.000000
# 3 -0.000919 -0.002340 0.009584 0.000000 0.001779 0.000000
# 4 0.000000 0.000000 0.000000 0.042684 0.000000 -0.003971
# 5 -0.008534 0.001603 0.001779 0.000000 0.046025 0.000000
# 6 0.000000 0.000000 0.000000 -0.003971 0.000000 0.062569
#
#
# Mechanical properties :
#
#
# Convention : Reuss Voigt Hill
#
# Bulk Modulus (GPa) = 33.44384 51.26148 42.35266
# Shear Modulus (GPa) = 24.18843 32.38489 28.28666
#
# Velocity S-wave (km/s) = 3.17656 3.67557 3.43514
# Velocity P-wave (km/s) = 5.23504 6.27675 5.77941
#
# Compressibility (1/GPa) = 0.02990087
#
# Stress axis : x y z
#
# Youngs Moduli (GPa) = 45.45148 164.00022 104.33921
#
# Poissons Ratio (x) = 0.10373 0.09588
# Poissons Ratio (y) = 0.02875 0.24412
# Poissons Ratio (z) = 0.04177 0.38371
#
# Static dielectric constant tensor:
#      x y z
#    x 2.086630 0.000000 -0.032460 
#    y 0.000000 1.924570 0.000000 
#    z -0.032460 0.000000 1.913830 
# 
# From -- ./inp_files/247001.got.cif
#   From: 2010.05.17/outbox.cif.g08.bks.cpg/sg12_124_cif.got.tgz:247001.got - 2010.06.03 13:09:07.
