data_PCOD9170784
_publ_section_title
;
Structure prediction by ZEFSAII (Michael W. Deem and Ramdas Pophale) SiO2 
 PCOD9170784
Probable space group: C 2/M
;
_chemical_formula_sum "Si O2"
_cell_formula_units_Z 60
_cell_length_a 15.026750
_cell_length_b 15.437076
_cell_length_c 11.481001
_cell_angle_alpha 90.000000
_cell_angle_beta 101.592832
_cell_angle_gamma 90.000000
_cell_volume 2608.908279
_symmetry_space_group_name_H-M "C 2/M"
_symmetry_group_IT_number 12
_symmetry_cell_setting 'monoclinic'
loop_
_space_group_symop_operation_xyz
x,y,z
-x,y,-z
-x,-y,-z
x,-y,z
1/2+x,1/2+y,z
1/2-x,1/2+y,-z
1/2-x,1/2-y,-z
1/2+x,1/2-y,z
loop_
_atom_site_type_symbol
_atom_site_label
_atom_site_fract_x
_atom_site_fract_y
_atom_site_fract_z
Si Si1 0.656952 0.211908 0.884209
Si Si2 0.781824 0.406693 0.410318
Si Si3 0.000000 0.133277 0.000000
Si Si4 0.581640 0.404868 0.386671
Si Si5 0.657827 0.263588 0.145512
Si Si6 0.624937 0.784004 0.401228
Si Si7 0.603364 0.593229 0.810852
Si Si8 0.040986 0.400683 0.704773
O O1 0.751477 0.180121 0.853520
O O2 0.647814 0.310550 0.828532
O O3 0.571381 0.155768 0.823225
O O4 0.662084 0.208482 0.025606
O O5 0.791331 0.500000 0.473993
O O6 0.677206 0.405883 0.339333
O O7 0.797853 0.329530 0.503348
O O8 0.866413 0.401788 0.345943
O O9 0.068339 0.085985 0.933897
O O10 0.937386 0.188490 0.897154
O O11 0.583898 0.500000 0.448977
O O12 0.592726 0.309218 0.443867
O O13 0.486741 0.402945 0.293407
O O14 0.655928 0.224004 0.273781
O O15 0.539562 0.849302 0.378137
O O16 0.650446 0.500000 0.794425
O O17 0.015796 0.500000 0.722374
#
# Coordination Sequence:
#
# PCOD9170784 Si02
#       8
#     8   8   4   8   8   8   8   8
#     4  10  21  41  59  88 125 160 200 247 302 361
#     4  10  23  40  63  91 119 157 210 264 306 359
#     4  10  17  34  56  90 117 148 199 242 298 346
#     4  10  20  36  59  90 121 153 200 249 301 361
#     4  10  21  37  64  88 122 161 201 247 296 371
#     4  12  20  39  61  91 120 161 201 249 311 358
#     4  10  19  34  58  87 120 154 194 245 299 359
#     4  11  23  40  62  89 121 158 207 258 308 364
#
# _framework density 22.998125000000002
#
# number of rings (size 3 to 8) (size 9 to 14) (size 15 to 20)
#    0.000    1.600    2.667    3.000    0.000    1.067 
#    0.000    9.333    0.000    2.400    0.000    0.000 
#    0.000    0.000    0.000    0.000    0.000    0.000 
#
# Total GULP energy -167051.052509 kJ/mol
# GULP energy per Si atom -5568.368417 kJ/mol
# Density = 2.294578 g / cm^3
# Si number density = 22.998125 Si / 1000 Ang^3
#
#
#
# Elastic Constant Matrix: (Units=GPa)
#
#
# Indices 1 2 3 4 5 6 
#
# 1 72.7264 16.6270 5.8632 0.0000 -0.1983 0.0000
# 2 16.6270 167.6523 27.3808 0.0000 9.9374 0.0000
# 3 5.8632 27.3808 60.2880 0.0000 4.8065 0.0000
# 4 0.0000 0.0000 0.0000 16.2617 0.0000 1.0044
# 5 -0.1983 9.9374 4.8065 0.0000 34.3284 0.0000
# 6 0.0000 0.0000 0.0000 1.0044 0.0000 16.4161
#
#
#
# Elastic Compliance Matrix: (Units=1/GPa)
#
#
# Indices 1 2 3 4 5 6 
#
# 1 0.014115 -0.001299 -0.000829 0.000000 0.000573 0.000000
# 2 -0.001299 0.006636 -0.002765 0.000000 -0.001542 0.000000
# 3 -0.000829 -0.002765 0.018062 0.000000 -0.001733 0.000000
# 4 0.000000 0.000000 0.000000 0.061728 0.000000 -0.003777
# 5 0.000573 -0.001542 -0.001733 0.000000 0.029823 0.000000
# 6 0.000000 0.000000 0.000000 -0.003777 0.000000 0.061147
#
#
# Mechanical properties :
#
#
# Convention : Reuss Voigt Hill
#
# Bulk Modulus (GPa) = 34.44816 44.48983 39.46900
# Shear Modulus (GPa) = 23.69991 30.12094 26.91042
#
# Velocity S-wave (km/s) = 3.21365 3.62292 3.42440
# Velocity P-wave (km/s) = 5.36481 6.07353 5.73014
#
# Compressibility (1/GPa) = 0.02902912
#
# Stress axis : x y z
#
# Youngs Moduli (GPa) = 70.84453 150.68336 55.36626
#
# Poissons Ratio (x) = 0.19567 0.04588
# Poissons Ratio (y) = 0.09199 0.15308
# Poissons Ratio (z) = 0.05871 0.41662
#
# Static dielectric constant tensor:
#      x y z
#    x 1.876970 0.000000 -0.017950 
#    y 0.000000 1.987140 0.000000 
#    z -0.017950 0.000000 1.922020 
# 
# From -- ./inp_files/156692.got.cif
#   From: 2010.05.17/outbox.cif.g08.bks.cpg/sg12_79_cif.got.tgz:156692.got - 2010.06.03 13:09:07.
