data_PCOD9170681
_publ_section_title
;
Structure prediction by ZEFSAII (Michael W. Deem and Ramdas Pophale) SiO2 
 PCOD9170681
Probable space group: C 2/M
;
_chemical_formula_sum "Si O2"
_cell_formula_units_Z 56
_cell_length_a 18.687210
_cell_length_b 14.339708
_cell_length_c 18.893820
_cell_angle_alpha 90.000000
_cell_angle_beta 38.239283
_cell_angle_gamma 90.000000
_cell_volume 3133.704513
_symmetry_space_group_name_H-M "C 2/M"
_symmetry_group_IT_number 12
_symmetry_cell_setting 'monoclinic'
loop_
_space_group_symop_operation_xyz
x,y,z
-x,y,-z
-x,-y,-z
x,-y,z
1/2+x,1/2+y,z
1/2-x,1/2+y,-z
1/2-x,1/2-y,-z
1/2+x,1/2-y,z
loop_
_atom_site_type_symbol
_atom_site_label
_atom_site_fract_x
_atom_site_fract_y
_atom_site_fract_z
Si Si1 0.333695 0.393100 0.011595
Si Si2 0.243929 0.107553 0.533931
Si Si3 0.982936 0.719091 0.928849
Si Si4 0.476843 0.100883 0.435843
Si Si5 0.615825 0.780277 0.229826
Si Si6 0.249277 0.106802 0.086716
Si Si7 0.395524 0.218371 0.304869
O O1 0.355959 0.500000 0.013387
O O2 0.223280 0.349479 0.136583
O O3 0.438280 0.323707 0.946877
O O4 0.298719 0.388667 0.956150
O O5 0.344230 0.109524 0.515687
O O6 0.307762 0.148079 0.413769
O O7 0.147475 0.179427 0.636240
O O8 0.206759 0.000000 0.553420
O O9 0.088935 0.704278 0.791466
O O10 0.877813 0.649519 0.990408
O O11 0.000000 0.709784 0.000000
O O12 0.500000 0.097443 0.500000
O O13 0.545145 0.187233 0.351895
O O14 0.515851 0.000000 0.374229
O O15 0.666843 0.677064 0.193083
O O16 0.524215 0.792841 0.237289
O O17 0.248068 0.000000 0.111153
#
# Coordination Sequence:
#
# PCOD9170681 Si02
#       7
#     8   8   8   8   8   8   8
#     4  10  19  34  56  83 108 136 178 222 267 327
#     4   9  20  34  53  76 101 137 178 226 267 309
#     4  11  22  36  54  81 118 148 175 221 279 330
#     4   9  18  32  52  79 106 134 171 216 275 331
#     4  10  17  33  56  76 102 137 180 223 266 315
#     4  10  20  35  55  79 106 140 187 224 255 316
#     4  10  19  35  52  76 105 136 184 219 265 329
#
# _framework density 17.870224
#
# number of rings (size 3 to 8) (size 9 to 14) (size 15 to 20)
#    0.000    2.143    2.857    1.286    0.000    5.143 
#    0.000    1.429    0.000    0.429    0.000    0.000 
#    0.000    0.000    0.000    0.000    0.000    0.000 
#
# Total GULP energy -156012.229150 kJ/mol
# GULP energy per Si atom -5571.865327 kJ/mol
# Density = 1.782955 g / cm^3
# Si number density = 17.870224 Si / 1000 Ang^3
#
#
#
# Elastic Constant Matrix: (Units=GPa)
#
#
# Indices 1 2 3 4 5 6 
#
# 1 47.0557 3.8983 20.4111 0.0000 22.0842 0.0000
# 2 3.8983 64.5753 -15.7465 0.0000 11.3725 0.0000
# 3 20.4111 -15.7465 33.9890 0.0000 13.0226 0.0000
# 4 0.0000 0.0000 0.0000 6.1494 0.0000 1.2454
# 5 22.0842 11.3725 13.0226 0.0000 18.8862 0.0000
# 6 0.0000 0.0000 0.0000 1.2454 0.0000 14.1959
#
#
#
# Elastic Compliance Matrix: (Units=1/GPa)
#
#
# Indices 1 2 3 4 5 6 
#
# 1 0.051062 0.006492 -0.004460 0.000000 -0.060543 0.000000
# 2 0.006492 0.029011 0.026016 0.000000 -0.042999 0.000000
# 3 -0.004460 0.026016 0.065446 0.000000 -0.055578 0.000000
# 4 0.000000 0.000000 0.000000 0.165558 0.000001 -0.014524
# 5 -0.060543 -0.042999 -0.055578 0.000001 0.187958 0.000000
# 6 0.000000 0.000000 0.000000 -0.014524 0.000000 0.071717
#
#
# Mechanical properties :
#
#
# Convention : Reuss Voigt Hill
#
# Bulk Modulus (GPa) = 4.95992 18.08287 11.52140
# Shear Modulus (GPa) = 8.59314 16.98345 12.78830
#
# Velocity S-wave (km/s) = 2.19524 3.08616 2.67801
# Velocity P-wave (km/s) = 3.03430 4.77914 4.00295
#
# Compressibility (1/GPa) = 0.20161596
#
# Stress axis : x y z
#
# Youngs Moduli (GPa) = 19.58407 34.47027 15.27975
#
# Poissons Ratio (x) = -0.22379 0.06814
# Poissons Ratio (y) = -0.12715 -0.39752
# Poissons Ratio (z) = 0.08734 -0.89678
#
# Static dielectric constant tensor:
#      x y z
#    x 1.619990 0.000000 0.007870 
#    y 0.000000 1.630140 0.000000 
#    z 0.007870 0.000000 1.624670 
# 
# From -- ./inp_files/277803.got.cif
#   From: 2010.05.17/outbox.cif.g08.bks.cpg/sg12_139_cif.got.tgz:277803.got - 2010.06.03 13:09:07.
