data_PCOD9170927
_publ_section_title
;
Structure prediction by ZEFSAII (Michael W. Deem and Ramdas Pophale) SiO2 
 PCOD9170927
Probable space group: C 2/M
;
_chemical_formula_sum "Si O2"
_cell_formula_units_Z 56
_cell_length_a 12.345667
_cell_length_b 30.032747
_cell_length_c 8.291693
_cell_angle_alpha 90.000000
_cell_angle_beta 111.531670
_cell_angle_gamma 90.000000
_cell_volume 2859.802856
_symmetry_space_group_name_H-M "C 2/M"
_symmetry_group_IT_number 12
_symmetry_cell_setting 'monoclinic'
loop_
_space_group_symop_operation_xyz
x,y,z
-x,y,-z
-x,-y,-z
x,-y,z
1/2+x,1/2+y,z
1/2-x,1/2+y,-z
1/2-x,1/2-y,-z
1/2+x,1/2-y,z
loop_
_atom_site_type_symbol
_atom_site_label
_atom_site_fract_x
_atom_site_fract_y
_atom_site_fract_z
Si Si1 0.060444 0.622728 0.371668
Si Si2 0.694295 0.750474 0.785631
Si Si3 0.760190 0.158076 0.661721
Si Si4 0.016194 0.818466 0.813354
Si Si5 0.230903 0.122999 0.980839
Si Si6 0.611011 0.190499 0.133141
Si Si7 0.416261 0.050603 0.109067
O O1 0.195363 0.627526 0.495105
O O2 0.050907 0.657442 0.223926
O O3 0.000000 0.638842 0.500000
O O4 0.991446 0.578719 0.280467
O O5 0.693365 0.797859 0.695959
O O6 0.577623 0.722501 0.753265
O O7 0.791568 0.722343 0.741511
O O8 0.750000 0.750000 0.000000
O O9 0.775205 0.129047 0.831011
O O10 0.888050 0.172748 0.676718
O O11 0.105073 0.860748 0.847499
O O12 0.000000 0.811678 0.000000
O O13 0.297556 0.076345 0.994821
O O14 0.318439 0.159354 0.951972
O O15 0.500000 0.215587 0.000000
O O16 0.393867 0.000000 0.148699
O O17 0.500000 0.050129 0.000000
#
# Coordination Sequence:
#
# PCOD9170927 Si02
#       7
#     8   8   8   8   8   8   8
#     4  12  23  38  56  88 126 155 185 245 319 365
#     4  11  21  33  57  84 111 160 212 262 282 325
#     4  11  22  36  55  86 120 164 204 248 300 353
#     4   9  19  33  57  82 115 158 214 245 289 348
#     4  10  17  37  58  84 112 153 200 241 291 356
#     4  11  20  34  60  78 112 158 204 239 294 354
#     4  11  22  40  69  96 114 145 201 252 307 382
#
# _framework density 19.581769999999999
#
# number of rings (size 3 to 8) (size 9 to 14) (size 15 to 20)
#    0.000    1.286    8.571    0.000    2.000    0.857 
#    0.000    2.857    0.000    4.714    0.000    2.000 
#    0.000    0.000    0.000    0.000    0.000    0.000 
#
# Total GULP energy -156020.930468 kJ/mol
# GULP energy per Si atom -5572.176088 kJ/mol
# Density = 1.953720 g / cm^3
# Si number density = 19.581770 Si / 1000 Ang^3
#
#
#
# Elastic Constant Matrix: (Units=GPa)
#
#
# Indices 1 2 3 4 5 6 
#
# 1 121.8673 44.7516 19.6723 0.0000 15.0790 0.0000
# 2 44.7516 111.2868 14.0563 0.0000 10.1521 0.0000
# 3 19.6723 14.0563 34.2391 0.0000 18.4053 0.0000
# 4 0.0000 0.0000 0.0000 16.1258 0.0000 0.9519
# 5 15.0790 10.1521 18.4053 0.0000 23.9354 0.0000
# 6 0.0000 0.0000 0.0000 0.9519 0.0000 18.7164
#
#
#
# Elastic Compliance Matrix: (Units=1/GPa)
#
#
# Indices 1 2 3 4 5 6 
#
# 1 0.010321 -0.003522 -0.003055 0.000000 -0.002660 0.000000
# 2 -0.003522 0.010722 -0.001920 0.000000 -0.000853 0.000000
# 3 -0.003055 -0.001920 0.051611 0.000000 -0.036948 0.000000
# 4 0.000000 0.000000 0.000000 0.062199 0.000000 -0.003163
# 5 -0.002660 -0.000853 -0.036948 0.000000 0.072228 0.000000
# 6 0.000000 0.000000 0.000000 -0.003163 0.000000 0.053590
#
#
# Mechanical properties :
#
#
# Convention : Reuss Voigt Hill
#
# Bulk Modulus (GPa) = 17.96574 47.15039 32.55806
# Shear Modulus (GPa) = 16.87946 24.34972 20.61459
#
# Velocity S-wave (km/s) = 2.93917 3.53014 3.24812
# Velocity P-wave (km/s) = 4.55114 6.38332 5.54345
#
# Compressibility (1/GPa) = 0.05566151
#
# Stress axis : x y z
#
# Youngs Moduli (GPa) = 96.88871 93.26289 19.37573
#
# Poissons Ratio (x) = 0.32847 0.05918
# Poissons Ratio (y) = 0.34124 0.03720
# Poissons Ratio (z) = 0.29595 0.17906
#
# Static dielectric constant tensor:
#      x y z
#    x 1.779100 0.000000 0.037370 
#    y 0.000000 1.705710 0.000000 
#    z 0.037370 0.000000 1.770130 
# 
# From -- ./inp_files/54343.got.cif
#   From: 2010.05.17/outbox.cif.g08.bks.cpg/sg12_28_cif.got.tgz:54343.got - 2010.06.03 13:09:07.
