data_PCOD9170082
_publ_section_title
;
Structure prediction by ZEFSAII (Michael W. Deem and Ramdas Pophale) SiO2 
 PCOD9170082
Probable space group: C 2/M
;
_chemical_formula_sum "Si O2"
_cell_formula_units_Z 64
_cell_length_a 20.236763
_cell_length_b 20.183802
_cell_length_c 19.837580
_cell_angle_alpha 90.000000
_cell_angle_beta 149.850154
_cell_angle_gamma 90.000000
_cell_volume 4069.715787
_symmetry_space_group_name_H-M "C 2/M"
_symmetry_group_IT_number 12
_symmetry_cell_setting 'monoclinic'
loop_
_space_group_symop_operation_xyz
x,y,z
-x,y,-z
-x,-y,-z
x,-y,z
1/2+x,1/2+y,z
1/2-x,1/2+y,-z
1/2-x,1/2-y,-z
1/2+x,1/2-y,z
loop_
_atom_site_type_symbol
_atom_site_label
_atom_site_fract_x
_atom_site_fract_y
_atom_site_fract_z
Si Si1 0.619932 0.790418 0.155737
Si Si2 0.362705 0.287515 0.690731
Si Si3 0.406081 0.288920 0.353743
Si Si4 0.409530 0.073103 0.647710
Si Si5 0.440218 0.212101 0.623671
Si Si6 0.680958 0.924213 0.280165
Si Si7 0.983881 0.924335 0.593452
Si Si8 0.603843 0.573239 0.331492
O O1 0.606777 0.748765 0.212931
O O2 0.757725 0.772860 0.242052
O O3 0.631804 0.867456 0.187768
O O4 0.500000 0.779611 0.000000
O O5 0.423449 0.249311 0.680137
O O6 0.204664 0.285658 0.538771
O O7 0.412093 0.363243 0.729583
O O8 0.500000 0.273672 0.500000
O O9 0.459870 0.249066 0.337065
O O10 0.424441 0.367145 0.354215
O O11 0.475224 0.136025 0.670851
O O12 0.394987 0.082067 0.715318
O O13 0.258190 0.072883 0.488358
O O14 0.465591 0.000000 0.683399
O O15 0.835829 0.913480 0.434199
O O16 0.666332 0.000000 0.243699
O O17 0.970920 0.918283 0.663065
O O18 0.022657 0.000000 0.611213
O O19 0.571857 0.500000 0.276018
#
# Coordination Sequence:
#
# PCOD9170082 Si02
#       8
#     8   8   8   8   8   8   8   8
#     4  12  25  37  48  73 111 144 172 209 259 311
#     4  10  17  31  54  77 102 137 172 214 257 297
#     4  12  21  33  51  79 105 136 174 214 260 299
#     4   8  14  25  48  79 105 127 164 215 260 297
#     4  10  17  29  56  80  99 131 178 216 252 301
#     4   9  16  30  51  75 103 140 175 200 242 307
#     4   9  16  28  50  81 107 129 164 213 259 297
#     4   8  14  25  48  80 105 124 164 219 262 297
#
# _framework density 15.725914
#
# number of rings (size 3 to 8) (size 9 to 14) (size 15 to 20)
#    0.000    2.250    5.000    1.500    0.000    1.000 
#    0.000    0.625    0.000    1.500    0.000    0.000 
#    0.000    0.000    0.000    0.000    0.000    0.000 
#
# Total GULP energy -178379.318654 kJ/mol
# GULP energy per Si atom -5574.353708 kJ/mol
# Density = 1.569012 g / cm^3
# Si number density = 15.725914 Si / 1000 Ang^3
#
#
#
# Elastic Constant Matrix: (Units=GPa)
#
#
# Indices 1 2 3 4 5 6 
#
# 1 96.3108 58.7053 43.0225 0.0008 -6.2726 0.0004
# 2 58.7053 108.8353 35.2995 0.0019 -9.0487 0.0007
# 3 43.0225 35.2995 61.3925 0.0029 -4.6924 0.0016
# 4 0.0008 0.0019 0.0029 7.7832 0.0015 -5.9742
# 5 -6.2726 -9.0487 -4.6924 0.0015 12.2935 0.0005
# 6 0.0004 0.0007 0.0016 -5.9742 0.0005 27.7301
#
#
#
# Elastic Compliance Matrix: (Units=1/GPa)
#
#
# Indices 1 2 3 4 5 6 
#
# 1 0.018831 -0.007160 -0.009011 0.000004 0.000899 0.000001
# 2 -0.007160 0.014465 -0.002848 -0.000003 0.005907 -0.000001
# 3 -0.009011 -0.002848 0.024442 -0.000011 0.002635 -0.000004
# 4 0.000004 -0.000003 -0.000011 0.153939 -0.000024 0.033165
# 5 0.000899 0.005907 0.002635 -0.000024 0.087156 -0.000007
# 6 0.000001 -0.000001 -0.000004 0.033165 -0.000007 0.043207
#
#
# Mechanical properties :
#
#
# Convention : Reuss Voigt Hill
#
# Bulk Modulus (GPa) = 50.76016 60.06593 55.41305
# Shear Modulus (GPa) = 12.93175 18.19544 15.56359
#
# Velocity S-wave (km/s) = 2.87072 3.40521 3.14933
# Velocity P-wave (km/s) = 6.58302 7.33069 6.96690
#
# Compressibility (1/GPa) = 0.01970049
#
# Stress axis : x y z
#
# Youngs Moduli (GPa) = 53.10348 69.13156 40.91282
#
# Poissons Ratio (x) = 0.49499 0.36866
# Poissons Ratio (y) = 0.38023 0.11652
# Poissons Ratio (z) = 0.47851 0.19689
#
# Static dielectric constant tensor:
#      x y z
#    x 1.518640 0.000000 -0.000300 
#    y 0.000000 1.562610 0.000000 
#    z -0.000300 0.000000 1.493380 
# 
# From -- ./inp_files/279118.got.cif
#   From: 2010.05.17/outbox.cif.g08.bks.cpg/sg12_140_cif.got.tgz:279118.got - 2010.06.03 13:09:07.
