data_PCOD9170897
_publ_section_title
;
Structure prediction by ZEFSAII (Michael W. Deem and Ramdas Pophale) SiO2 
 PCOD9170897
Probable space group: C 2/M
;
_chemical_formula_sum "Si O2"
_cell_formula_units_Z 48
_cell_length_a 18.414041
_cell_length_b 16.196689
_cell_length_c 18.156835
_cell_angle_alpha 90.000000
_cell_angle_beta 29.955595
_cell_angle_gamma 90.000000
_cell_volume 2703.970800
_symmetry_space_group_name_H-M "C 2/M"
_symmetry_group_IT_number 12
_symmetry_cell_setting 'monoclinic'
loop_
_space_group_symop_operation_xyz
x,y,z
-x,y,-z
-x,-y,-z
x,-y,z
1/2+x,1/2+y,z
1/2-x,1/2+y,-z
1/2-x,1/2-y,-z
1/2+x,1/2-y,z
loop_
_atom_site_type_symbol
_atom_site_label
_atom_site_fract_x
_atom_site_fract_y
_atom_site_fract_z
Si Si1 0.369697 0.752093 0.457428
Si Si2 0.859062 0.907936 0.572003
Si Si3 0.669110 0.169405 0.365996
Si Si4 0.153968 0.907326 0.903927
Si Si5 0.710060 0.239948 0.120639
Si Si6 0.172113 0.674778 0.847946
O O1 0.250000 0.750000 0.500000
O O2 0.363059 0.665998 0.509398
O O3 0.320681 0.825286 0.555865
O O4 0.535575 0.766034 0.285239
O O5 0.728687 0.897327 0.745342
O O6 0.000000 0.898798 0.500000
O O7 0.857639 0.000000 0.540593
O O8 0.500000 0.183860 0.500000
O O9 0.729399 0.094874 0.265291
O O10 0.760798 0.245171 0.251890
O O11 0.208238 0.840419 0.916078
O O12 0.142730 0.000000 0.944317
O O13 0.000000 0.886468 0.000000
O O14 0.765144 0.315615 0.124466
O O15 0.750000 0.250000 0.000000
O O16 0.000000 0.677321 0.000000
#
# Coordination Sequence:
#
# PCOD9170897 Si02
#       6
#     8   8   8   8   8   8
#     4  11  22  36  58  89 116 150 197 239 287 355
#     4  10  20  40  63  83 113 151 196 250 289 331
#     4  10  17  36  59  80 110 152 203 239 274 335
#     4  10  22  40  61  88 118 152 195 246 295 346
#     4  11  22  37  57  86 117 157 192 230 294 353
#     4  10  19  34  59  84 113 151 198 238 276 343
#
# _framework density 17.751671000000002
#
# number of rings (size 3 to 8) (size 9 to 14) (size 15 to 20)
#    0.000    1.667    5.000    3.000    7.000    0.667 
#    0.000    3.333    0.000    0.000    0.000    0.000 
#    0.000    0.000    0.000    0.000    0.000    0.000 
#
# Total GULP energy -133643.954831 kJ/mol
# GULP energy per Si atom -5568.498118 kJ/mol
# Density = 1.771127 g / cm^3
# Si number density = 17.751671 Si / 1000 Ang^3
#
#
#
# Elastic Constant Matrix: (Units=GPa)
#
#
# Indices 1 2 3 4 5 6 
#
# 1 130.9763 32.0467 59.5661 0.0004 2.9832 -0.0006
# 2 32.0467 89.1421 20.9927 0.0008 1.4060 -0.0014
# 3 59.5661 20.9927 141.9168 0.0019 -7.3677 -0.0030
# 4 0.0004 0.0008 0.0019 17.3618 -0.0008 -6.1390
# 5 2.9832 1.4060 -7.3677 -0.0008 40.8359 0.0012
# 6 -0.0006 -0.0014 -0.0030 -6.1390 0.0012 33.8102
#
#
#
# Elastic Compliance Matrix: (Units=1/GPa)
#
#
# Indices 1 2 3 4 5 6 
#
# 1 0.010103 -0.002689 -0.003913 0.000000 -0.001351 0.000000
# 2 -0.002689 0.012360 -0.000718 0.000000 -0.000359 0.000000
# 3 -0.003913 -0.000718 0.008894 -0.000001 0.001915 0.000001
# 4 0.000000 0.000000 -0.000001 0.061549 0.000001 0.011176
# 5 -0.001351 -0.000359 0.001915 0.000001 0.024945 -0.000001
# 6 0.000000 0.000000 0.000001 0.011176 -0.000001 0.031606
#
#
# Mechanical properties :
#
#
# Convention : Reuss Voigt Hill
#
# Bulk Modulus (GPa) = 59.82101 65.24957 62.53529
# Shear Modulus (GPa) = 29.46884 35.03023 32.24954
#
# Velocity S-wave (km/s) = 4.07880 4.44706 4.26691
# Velocity P-wave (km/s) = 7.48025 7.95016 7.71878
#
# Compressibility (1/GPa) = 0.01671654
#
# Stress axis : x y z
#
# Youngs Moduli (GPa) = 98.97727 80.90859 112.43007
#
# Poissons Ratio (x) = 0.21759 0.43994
# Poissons Ratio (y) = 0.26618 0.08074
# Poissons Ratio (z) = 0.38730 0.05810
#
# Static dielectric constant tensor:
#      x y z
#    x 1.630870 0.000000 0.035350 
#    y 0.000000 1.657660 0.000000 
#    z 0.035350 0.000000 1.696040 
# 
# From -- ./inp_files/278526.got.cif
#   From: 2010.05.17/outbox.cif.g08.bks.cpg/sg12_140_cif.got.tgz:278526.got - 2010.06.03 13:09:07.
