data_PCOD9170312
_publ_section_title
;
Structure prediction by ZEFSAII (Michael W. Deem and Ramdas Pophale) SiO2 
 PCOD9170312
Probable space group: C 2/M
;
_chemical_formula_sum "Si O2"
_cell_formula_units_Z 56
_cell_length_a 27.479208
_cell_length_b 14.745336
_cell_length_c 18.723244
_cell_angle_alpha 90.000000
_cell_angle_beta 20.027915
_cell_angle_gamma 90.000000
_cell_volume 2598.199952
_symmetry_space_group_name_H-M "C 2/M"
_symmetry_group_IT_number 12
_symmetry_cell_setting 'monoclinic'
loop_
_space_group_symop_operation_xyz
x,y,z
-x,y,-z
-x,-y,-z
x,-y,z
1/2+x,1/2+y,z
1/2-x,1/2+y,-z
1/2-x,1/2-y,-z
1/2+x,1/2-y,z
loop_
_atom_site_type_symbol
_atom_site_label
_atom_site_fract_x
_atom_site_fract_y
_atom_site_fract_z
Si Si1 0.711270 0.639481 0.988220
Si Si2 0.386621 0.630336 0.454570
Si Si3 0.177339 0.655759 0.470203
Si Si4 0.416853 0.602829 0.251879
Si Si5 0.640932 0.142908 0.073328
Si Si6 0.266212 0.657975 0.193645
Si Si7 0.349620 0.638925 0.665514
O O1 0.554028 0.608369 0.224639
O O2 0.684134 0.749038 0.017742
O O3 0.813591 0.613219 0.910689
O O4 0.764113 0.607282 0.838550
O O5 0.347156 0.736531 0.505447
O O6 0.350229 0.600972 0.423704
O O7 0.338595 0.600611 0.600109
O O8 0.300627 0.635662 0.356103
O O9 0.219963 0.618949 0.333369
O O10 0.024247 0.624066 0.708330
O O11 0.461802 0.500000 0.172824
O O12 0.560151 0.663778 0.048906
O O13 0.732320 0.104780 0.882662
O O14 0.184943 0.753996 0.298083
O O15 0.500000 0.628761 0.500000
#
# Coordination Sequence:
#
# PCOD9170312 Si02
#       7
#     8   8   8   8   8   8   8
#     4   8  14  26  45  78 116 138 171 216 286 335
#     4   9  18  33  55  87 110 142 190 242 282 331
#     4  10  20  33  54  82 115 146 190 241 283 328
#     4  11  23  41  58  75 112 162 204 234 277 336
#     4   9  16  26  48  82 115 144 171 223 286 343
#     4   9  20  30  51  85 110 146 185 228 276 342
#     4  10  17  30  56  92 121 141 174 231 304 349
#
# _framework density 21.553383
#
# number of rings (size 3 to 8) (size 9 to 14) (size 15 to 20)
#    0.000    2.571    1.429    1.714    6.000    1.143 
#    0.000    2.143    0.000    6.000    0.000    0.000 
#    0.000    0.000    0.000    0.000    0.000    0.000 
#
# Total GULP energy -155960.029585 kJ/mol
# GULP energy per Si atom -5570.001057 kJ/mol
# Density = 2.150433 g / cm^3
# Si number density = 21.553383 Si / 1000 Ang^3
#
#
#
# Elastic Constant Matrix: (Units=GPa)
#
#
# Indices 1 2 3 4 5 6 
#
# 1 123.6093 8.9226 66.4008 0.0000 22.4626 -0.0001
# 2 8.9226 64.2225 6.3163 0.0000 5.4930 0.0004
# 3 66.4008 6.3163 102.7455 0.0000 33.8233 0.0001
# 4 0.0000 0.0000 0.0000 -16.8136 0.0001 7.9289
# 5 22.4626 5.4930 33.8233 0.0001 40.4462 0.0000
# 6 -0.0001 0.0004 0.0001 7.9289 0.0000 68.4671
#
#
#
# Elastic Compliance Matrix: (Units=1/GPa)
#
#
# Indices 1 2 3 4 5 6 
#
# 1 0.012449 -0.000936 -0.007939 0.000000 -0.000147 0.000000
# 2 -0.000936 0.015834 0.000232 0.000000 -0.001825 0.000000
# 3 -0.007939 0.000232 0.018502 0.000000 -0.011094 0.000000
# 4 0.000000 0.000000 0.000000 -0.056396 0.000000 0.006531
# 5 -0.000147 -0.001825 -0.011094 0.000000 0.034332 0.000000
# 6 0.000000 0.000000 0.000000 0.006531 0.000000 0.013849
#
#
# Mechanical properties :
#
#
# Convention : Reuss Voigt Hill
#
# Bulk Modulus (GPa) = 33.89998 50.42852 42.16425
# Shear Modulus (GPa) = 76.11575 32.34912 54.23243
#
# Velocity S-wave (km/s) = 5.94909 3.87833 5.02161
# Velocity P-wave (km/s) = 7.93419 6.59568 7.29570
#
# Compressibility (1/GPa) = 0.02949854
#
# Stress axis : x y z
#
# Youngs Moduli (GPa) = 80.32570 63.15456 54.04918
#
# Poissons Ratio (x) = 0.05912 0.42912
# Poissons Ratio (y) = 0.07520 -0.01256
# Poissons Ratio (z) = 0.63774 -0.01467
#
# Static dielectric constant tensor:
#      x y z
#    x 1.791450 0.000000 0.043340 
#    y 0.000000 1.849750 0.000000 
#    z 0.043340 0.000000 1.761450 
# 
# From -- ./inp_files/293869.got.cif
#   From: 2010.05.17/outbox.cif.g08.bks.cpg/sg12_147_cif.got.tgz:293869.got - 2010.06.03 13:09:07.
