data_PCOD9170394
_publ_section_title
;
Structure prediction by ZEFSAII (Michael W. Deem and Ramdas Pophale) SiO2 
 PCOD9170394
Probable space group: C 2/M
;
_chemical_formula_sum "Si O2"
_cell_formula_units_Z 56
_cell_length_a 13.078751
_cell_length_b 26.298153
_cell_length_c 8.248081
_cell_angle_alpha 90.000000
_cell_angle_beta 76.829622
_cell_angle_gamma 90.000000
_cell_volume 2762.283141
_symmetry_space_group_name_H-M "C 2/M"
_symmetry_group_IT_number 12
_symmetry_cell_setting 'monoclinic'
loop_
_space_group_symop_operation_xyz
x,y,z
-x,y,-z
-x,-y,-z
x,-y,z
1/2+x,1/2+y,z
1/2-x,1/2+y,-z
1/2-x,1/2-y,-z
1/2+x,1/2-y,z
loop_
_atom_site_type_symbol
_atom_site_label
_atom_site_fract_x
_atom_site_fract_y
_atom_site_fract_z
Si Si1 0.231993 0.055973 0.114939
Si Si2 0.836421 0.669243 0.624104
Si Si3 0.351531 0.942629 0.722455
Si Si4 0.558667 0.923942 0.819475
Si Si5 0.114369 0.203349 0.804979
Si Si6 0.933739 0.863162 0.883974
Si Si7 0.037200 0.688492 0.748871
O O1 0.323331 0.057153 0.216385
O O2 0.148117 0.100363 0.169177
O O3 0.183171 0.000000 0.130269
O O4 0.290817 0.063212 0.918565
O O5 0.822259 0.607867 0.633666
O O6 0.725287 0.696258 0.681074
O O7 0.896431 0.685117 0.440983
O O8 0.914927 0.684516 0.742582
O O9 0.477455 0.937796 0.707704
O O10 0.329161 0.000000 0.671219
O O11 0.564935 0.863141 0.830360
O O12 0.500000 0.943997 0.000000
O O13 0.072473 0.260269 0.821626
O O14 0.023419 0.167805 0.756813
O O15 0.122533 0.179485 0.982991
O O16 0.000000 0.893399 0.000000
#
# Coordination Sequence:
#
# PCOD9170394 Si02
#       7
#     8   8   8   8   8   8   8
#     4  10  17  31  53  77 106 138 166 212 261 301
#     4  10  19  36  53  76 103 136 177 213 245 316
#     4   9  16  31  52  77 106 137 166 211 262 300
#     4   9  19  30  47  77 107 132 172 211 256 314
#     4   9  19  36  50  73 107 133 169 220 255 299
#     4   8  19  33  49  79 103 128 178 205 255 307
#     4  10  21  33  53  76 101 138 176 206 262 303
#
# _framework density 20.273085999999999
#
# number of rings (size 3 to 8) (size 9 to 14) (size 15 to 20)
#    0.857    1.714    1.429    0.857    2.000    3.143 
#    0.000   10.714    0.000    0.000    0.000    1.000 
#    0.000    0.000    0.000    0.000    0.000    0.000 
#
# Total GULP energy -155961.440851 kJ/mol
# GULP energy per Si atom -5570.051459 kJ/mol
# Density = 2.022694 g / cm^3
# Si number density = 20.273086 Si / 1000 Ang^3
#
#
#
# Elastic Constant Matrix: (Units=GPa)
#
#
# Indices 1 2 3 4 5 6 
#
# 1 69.3143 51.0022 11.9827 0.0000 -25.6559 0.0000
# 2 51.0022 155.2479 7.8807 0.0000 -6.1169 0.0000
# 3 11.9827 7.8807 28.8489 0.0000 -9.2159 0.0000
# 4 0.0000 0.0000 0.0000 5.8258 0.0000 14.3252
# 5 -25.6559 -6.1169 -9.2159 0.0000 20.2126 0.0000
# 6 0.0000 0.0000 0.0000 14.3252 0.0000 20.4067
#
#
#
# Elastic Compliance Matrix: (Units=1/GPa)
#
#
# Indices 1 2 3 4 5 6 
#
# 1 0.040804 -0.011565 0.001918 0.000000 0.049167 0.000000
# 2 -0.011565 0.009842 -0.001900 0.000000 -0.012567 0.000000
# 3 0.001918 -0.001900 0.040943 0.000000 0.020527 0.000000
# 4 0.000000 0.000000 0.000000 -0.236389 0.000000 0.165942
# 5 0.049167 -0.012567 0.020527 0.000000 0.117439 0.000000
# 6 0.000000 0.000000 0.000000 0.165942 0.000000 -0.067485
#
#
# Mechanical properties :
#
#
# Convention : Reuss Voigt Hill
#
# Bulk Modulus (GPa) = 14.59956 43.90470 29.25213
# Shear Modulus (GPa) = -102.20679 21.45870 -40.37405
#
# Velocity S-wave (km/s) = -7.10806 3.25696 -4.46747
# Velocity P-wave (km/s) = 7.75557 5.98727 3.48579
#
# Compressibility (1/GPa) = 0.06849522
#
# Stress axis : x y z
#
# Youngs Moduli (GPa) = 24.50740 101.60584 24.42398
#
# Poissons Ratio (x) = 1.17508 -0.04683
# Poissons Ratio (y) = 0.28343 0.04639
# Poissons Ratio (z) = -0.04699 0.19300
#
# Static dielectric constant tensor:
#      x y z
#    x 1.729460 0.000000 0.017630 
#    y 0.000000 1.717080 0.000000 
#    z 0.017630 0.000000 1.779210 
# 
# From -- ./inp_files/66497.got.cif
#   From: 2010.05.17/outbox.cif.g08.bks.cpg/sg12_34_cif.got.tgz:66497.got - 2010.06.03 13:09:07.
