data_PCOD9170767
_publ_section_title
;
Structure prediction by ZEFSAII (Michael W. Deem and Ramdas Pophale) SiO2 
 PCOD9170767
Probable space group: C 2/M
;
_chemical_formula_sum "Si O2"
_cell_formula_units_Z 52
_cell_length_a 13.017190
_cell_length_b 19.852429
_cell_length_c 9.641178
_cell_angle_alpha 90.000000
_cell_angle_beta 81.711474
_cell_angle_gamma 90.000000
_cell_volume 2465.476076
_symmetry_space_group_name_H-M "C 2/M"
_symmetry_group_IT_number 12
_symmetry_cell_setting 'monoclinic'
loop_
_space_group_symop_operation_xyz
x,y,z
-x,y,-z
-x,-y,-z
x,-y,z
1/2+x,1/2+y,z
1/2-x,1/2+y,-z
1/2-x,1/2-y,-z
1/2+x,1/2-y,z
loop_
_atom_site_type_symbol
_atom_site_label
_atom_site_fract_x
_atom_site_fract_y
_atom_site_fract_z
Si Si1 0.675133 0.356439 0.434511
Si Si2 0.400214 0.150720 0.244119
Si Si3 0.075968 0.258169 0.285534
Si Si4 0.717043 0.500000 0.433357
Si Si5 0.804261 0.500000 0.722549
Si Si6 0.547003 0.000000 0.730871
Si Si7 0.725003 0.644200 0.748809
Si Si8 0.867017 0.239379 0.026824
O O1 0.789364 0.346144 0.343129
O O2 0.597669 0.303096 0.383681
O O3 0.655442 0.434053 0.401275
O O4 0.683092 0.353527 0.599254
O O5 0.478231 0.193423 0.325492
O O6 0.391775 0.192280 0.104266
O O7 0.443940 0.075509 0.206727
O O8 0.175773 0.306617 0.274366
O O9 0.070546 0.231299 0.127575
O O10 0.739979 0.500000 0.591981
O O11 0.838436 0.500000 0.362818
O O12 0.766960 0.571385 0.791388
O O13 0.930957 0.500000 0.683796
O O14 0.641544 0.676258 0.868599
O O15 0.750000 0.250000 0.000000
#
# Coordination Sequence:
#
# PCOD9170767 Si02
#       8
#     8   8   8   4   4   4   8   8
#     4  10  20  37  57  89 116 151 196 235 285 348
#     4  11  21  36  60  87 119 156 190 236 292 346
#     4  11  21  36  59  80 118 157 193 239 285 341
#     4   8  19  32  55  79 122 157 180 236 293 337
#     4  10  17  34  54  84 119 154 184 233 300 350
#     4  10  19  32  50  90 124 147 186 226 292 367
#     4  10  20  36  57  82 120 152 191 236 281 347
#     4  10  21  39  55  74 117 156 196 238 283 333
#
# _framework density 21.091262
#
# number of rings (size 3 to 8) (size 9 to 14) (size 15 to 20)
#    0.000    1.846    4.615    1.154    0.000    0.615 
#    0.000    5.385    0.000    0.923    0.000    5.385 
#    0.000    0.000    0.000    0.000    0.000    0.000 
#
# Total GULP energy -144906.850008 kJ/mol
# GULP energy per Si atom -5573.340385 kJ/mol
# Density = 2.104326 g / cm^3
# Si number density = 21.091262 Si / 1000 Ang^3
#
#
#
# Elastic Constant Matrix: (Units=GPa)
#
#
# Indices 1 2 3 4 5 6 
#
# 1 60.5700 58.3868 16.6718 0.0000 5.0923 0.0000
# 2 58.3868 196.8276 52.5810 0.0000 16.5242 0.0000
# 3 16.6718 52.5810 79.4396 0.0000 5.7239 0.0000
# 4 0.0000 0.0000 0.0000 9.1505 0.0000 -10.6899
# 5 5.0923 16.5242 5.7239 0.0000 21.0369 0.0000
# 6 0.0000 0.0000 0.0000 -10.6899 0.0000 18.5831
#
#
#
# Elastic Compliance Matrix: (Units=1/GPa)
#
#
# Indices 1 2 3 4 5 6 
#
# 1 0.023131 -0.006745 -0.000376 0.000000 -0.000199 0.000000
# 2 -0.006745 0.008453 -0.003895 0.000000 -0.003947 0.000000
# 3 -0.000376 -0.003895 0.015319 0.000000 -0.001017 0.000000
# 4 0.000000 0.000000 0.000000 0.333208 0.000000 0.191678
# 5 -0.000199 -0.003947 -0.001017 0.000000 0.050961 0.000000
# 6 0.000000 0.000000 0.000000 0.191678 0.000000 0.164074
#
#
# Mechanical properties :
#
#
# Convention : Reuss Voigt Hill
#
# Bulk Modulus (GPa) = 40.20622 65.79069 52.99845
# Shear Modulus (GPa) = 7.99399 23.70062 15.84731
#
# Velocity S-wave (km/s) = 1.94895 3.35583 2.74408
# Velocity P-wave (km/s) = 4.91619 6.80268 5.93487
#
# Compressibility (1/GPa) = 0.02487178
#
# Stress axis : x y z
#
# Youngs Moduli (GPa) = 43.23111 118.29717 65.27964
#
# Poissons Ratio (x) = 0.79786 0.02454
# Poissons Ratio (y) = 0.29157 0.25429
# Poissons Ratio (z) = 0.01625 0.46081
#
# Static dielectric constant tensor:
#      x y z
#    x 1.799030 0.000000 -0.009920 
#    y 0.000000 1.834290 0.000000 
#    z -0.009920 0.000000 1.797040 
# 
# From -- ./inp_files/63526.got.cif
#   From: 2010.05.17/outbox.cif.g08.bks.cpg/sg12_32_cif.got.tgz:63526.got - 2010.06.03 13:09:07.
