data_PCOD9170054
_publ_section_title
;
Structure prediction by ZEFSAII (Michael W. Deem and Ramdas Pophale) SiO2 
 PCOD9170054
Probable space group: C 2/M
;
_chemical_formula_sum "Si O2"
_cell_formula_units_Z 56
_cell_length_a 12.155625
_cell_length_b 21.816951
_cell_length_c 22.390916
_cell_angle_alpha 90.000000
_cell_angle_beta 151.415972
_cell_angle_gamma 90.000000
_cell_volume 2841.038555
_symmetry_space_group_name_H-M "C 2/M"
_symmetry_group_IT_number 12
_symmetry_cell_setting 'monoclinic'
loop_
_space_group_symop_operation_xyz
x,y,z
-x,y,-z
-x,-y,-z
x,-y,z
1/2+x,1/2+y,z
1/2-x,1/2+y,-z
1/2-x,1/2-y,-z
1/2+x,1/2-y,z
loop_
_atom_site_type_symbol
_atom_site_label
_atom_site_fract_x
_atom_site_fract_y
_atom_site_fract_z
Si Si1 0.772567 0.250170 0.126407
Si Si2 0.007874 0.429627 0.240065
Si Si3 0.348218 0.124279 0.977259
Si Si4 0.881691 0.674098 0.788212
Si Si5 0.432284 0.430809 0.052174
Si Si6 0.634973 0.155211 0.731009
Si Si7 0.027396 0.263060 0.439061
O O1 0.805427 0.178614 0.125433
O O2 0.868318 0.281918 0.231959
O O3 0.902717 0.289467 0.138044
O O4 0.500000 0.261395 0.000000
O O5 0.069781 0.500000 0.274301
O O6 0.146224 0.390867 0.257701
O O7 0.023770 0.392804 0.309270
O O8 0.745557 0.426014 0.088085
O O9 0.218204 0.080046 0.960082
O O10 0.500000 0.091371 0.000000
O O11 0.535759 0.161667 0.105996
O O12 0.658057 0.712645 0.669039
O O13 0.530682 0.500000 0.098404
O O14 0.618096 0.377149 0.145275
O O15 0.563834 0.172193 0.630595
O O16 0.250000 0.250000 0.500000
O O17 0.000000 0.263014 0.500000
#
# Coordination Sequence:
#
# PCOD9170054 Si02
#       7
#     8   8   8   8   8   8   8
#     4  10  17  29  52  86 120 146 179 229 295 371
#     4   9  18  34  58  90 123 152 187 231 286 366
#     4  10  19  29  47  77 115 151 183 222 280 363
#     4  10  20  34  54  81 116 157 196 240 301 356
#     4  10  20  33  53  84 119 153 186 222 277 360
#     4  11  20  33  57  84 112 147 187 241 305 355
#     4  12  26  43  62  85 117 158 211 270 314 349
#
# _framework density 19.711100999999999
#
# number of rings (size 3 to 8) (size 9 to 14) (size 15 to 20)
#    0.000    1.714    0.000    8.143    0.000    2.571 
#    0.000    0.000    0.000    6.429    0.000    0.000 
#    0.000    0.000    0.000    0.000    0.000    0.000 
#
# Total GULP energy -155937.436462 kJ/mol
# GULP energy per Si atom -5569.194159 kJ/mol
# Density = 1.966624 g / cm^3
# Si number density = 19.711101 Si / 1000 Ang^3
#
#
#
# Elastic Constant Matrix: (Units=GPa)
#
#
# Indices 1 2 3 4 5 6 
#
# 1 118.5556 25.9355 36.9099 0.0002 -15.1395 0.0010
# 2 25.9355 106.9588 28.4539 -0.0012 -8.4613 0.0001
# 3 36.9099 28.4539 39.4899 -0.0120 -2.2033 0.0014
# 4 0.0002 -0.0012 -0.0120 16.6865 -0.0006 2.9822
# 5 -15.1395 -8.4613 -2.2033 -0.0006 24.6891 0.0005
# 6 0.0010 0.0001 0.0014 2.9822 0.0005 19.9947
#
#
#
# Elastic Compliance Matrix: (Units=1/GPa)
#
#
# Indices 1 2 3 4 5 6 
#
# 1 0.013009 0.000665 -0.012241 -0.000009 0.007112 0.000001
# 2 0.000665 0.011864 -0.008964 -0.000006 0.003673 0.000001
# 3 -0.012241 -0.008964 0.042846 0.000031 -0.006755 -0.000007
# 4 -0.000009 -0.000006 0.000031 0.061570 -0.000003 -0.009183
# 5 0.007112 0.003673 -0.006755 -0.000003 0.045521 -0.000001
# 6 0.000001 0.000001 -0.000007 -0.009183 -0.000001 0.051383
#
#
# Mechanical properties :
#
#
# Convention : Reuss Voigt Hill
#
# Bulk Modulus (GPa) = 37.54120 49.73366 43.63743
# Shear Modulus (GPa) = 18.10590 23.85439 20.98015
#
# Velocity S-wave (km/s) = 3.03407 3.48257 3.26603
# Velocity P-wave (km/s) = 5.60010 6.43872 6.03400
#
# Compressibility (1/GPa) = 0.02663740
#
# Stress axis : x y z
#
# Youngs Moduli (GPa) = 76.87198 84.29137 23.33918
#
# Poissons Ratio (x) = -0.05603 0.28569
# Poissons Ratio (y) = -0.05110 0.20922
# Poissons Ratio (z) = 0.94098 0.75563
#
# Static dielectric constant tensor:
#      x y z
#    x 1.952950 -0.000010 0.008630 
#    y -0.000010 1.695690 0.000000 
#    z 0.008630 0.000000 1.725050 
# 
# From -- ./inp_files/190395.got.cif
#   From: 2010.05.17/outbox.cif.g08.bks.cpg/sg12_96_cif.got.tgz:190395.got - 2010.06.03 13:09:07.
