data_PCOD9170636
_publ_section_title
;
Structure prediction by ZEFSAII (Michael W. Deem and Ramdas Pophale) SiO2 
 PCOD9170636
Probable space group: C 2/M
;
_chemical_formula_sum "Si O2"
_cell_formula_units_Z 48
_cell_length_a 15.946499
_cell_length_b 15.969295
_cell_length_c 9.034713
_cell_angle_alpha 90.000000
_cell_angle_beta 104.886049
_cell_angle_gamma 90.000000
_cell_volume 2223.513391
_symmetry_space_group_name_H-M "C 2/M"
_symmetry_group_IT_number 12
_symmetry_cell_setting 'monoclinic'
loop_
_space_group_symop_operation_xyz
x,y,z
-x,y,-z
-x,-y,-z
x,-y,z
1/2+x,1/2+y,z
1/2-x,1/2+y,-z
1/2-x,1/2-y,-z
1/2+x,1/2-y,z
loop_
_atom_site_type_symbol
_atom_site_label
_atom_site_fract_x
_atom_site_fract_y
_atom_site_fract_z
Si Si1 0.764604 0.901972 0.477284
Si Si2 0.490347 0.316464 0.749626
Si Si3 0.677479 0.666977 0.175152
Si Si4 0.915218 0.662960 0.522763
Si Si5 0.173434 0.217132 0.750551
Si Si6 0.492269 0.500000 0.747968
Si Si7 0.145002 0.000000 0.040683
O O1 0.798606 0.857314 0.642696
O O2 0.660296 0.886983 0.428275
O O3 0.806338 0.857637 0.354290
O O4 0.784502 0.000000 0.493469
O O5 0.425388 0.318196 0.858868
O O6 0.453544 0.240156 0.635649
O O7 0.593256 0.304855 0.820202
O O8 0.482225 0.409035 0.670282
O O9 0.734877 0.745981 0.155851
O O10 0.697616 0.585314 0.086173
O O11 0.866673 0.707024 0.364347
O O12 0.000000 0.615374 0.500000
O O13 0.421804 0.500000 0.849751
O O14 0.586189 0.500000 0.869269
#
# Coordination Sequence:
#
# PCOD9170636 Si02
#       7
#     8   8   8   8   8   4   4
#     4  11  19  28  45  73 101 131 168 186 231 299
#     4  10  18  31  49  69 100 130 156 199 243 281
#     4  10  17  33  50  67 100 133 159 199 243 278
#     4   9  17  31  45  64 101 136 162 195 229 282
#     4  10  19  29  47  73 100 131 163 186 236 305
#     4   9  20  32  50  77  97 114 170 207 243 293
#     4   9  18  34  53  72  93 127 159 213 246 271
#
# _framework density 21.587456
#
# number of rings (size 3 to 8) (size 9 to 14) (size 15 to 20)
#    0.000    2.167    4.167    1.000    1.167    0.333 
#    0.000    2.917    0.000    0.000    0.000    0.000 
#    0.000    2.667    0.000    0.000    0.000    0.000 
#
# Total GULP energy -133862.689793 kJ/mol
# GULP energy per Si atom -5577.612075 kJ/mol
# Density = 2.153832 g / cm^3
# Si number density = 21.587456 Si / 1000 Ang^3
#
#
#
# Elastic Constant Matrix: (Units=GPa)
#
#
# Indices 1 2 3 4 5 6 
#
# 1 174.9101 41.6721 28.5745 0.0000 4.8562 0.0000
# 2 41.6721 69.9780 20.1747 0.0000 1.4536 0.0000
# 3 28.5745 20.1747 54.4953 0.0000 -5.9488 0.0000
# 4 0.0000 0.0000 0.0000 18.5355 0.0000 7.9513
# 5 4.8562 1.4536 -5.9488 0.0000 22.3767 0.0000
# 6 0.0000 0.0000 0.0000 7.9513 0.0000 12.7119
#
#
#
# Elastic Compliance Matrix: (Units=1/GPa)
#
#
# Indices 1 2 3 4 5 6 
#
# 1 0.007008 -0.003369 -0.002646 0.000000 -0.002006 0.000000
# 2 -0.003369 0.017776 -0.005006 0.000000 -0.001755 0.000000
# 3 -0.002646 -0.005006 0.022338 0.000000 0.006838 0.000000
# 4 0.000000 0.000000 0.000000 0.073736 0.000000 -0.046122
# 5 -0.002006 -0.001755 0.006838 0.000000 0.047056 0.000000
# 6 0.000000 0.000000 0.000000 -0.046122 0.000000 0.107516
#
#
# Mechanical properties :
#
#
# Convention : Reuss Voigt Hill
#
# Bulk Modulus (GPa) = 39.87356 53.35845 46.61600
# Shear Modulus (GPa) = 16.34892 24.65561 20.50226
#
# Velocity S-wave (km/s) = 2.75496 3.38320 3.08511
# Velocity P-wave (km/s) = 5.35075 6.32712 5.85931
#
# Compressibility (1/GPa) = 0.02507928
#
# Stress axis : x y z
#
# Youngs Moduli (GPa) = 142.69838 56.25599 44.76761
#
# Poissons Ratio (x) = 0.18950 0.11847
# Poissons Ratio (y) = 0.48069 0.22411
# Poissons Ratio (z) = 0.37763 0.28162
#
# Static dielectric constant tensor:
#      x y z
#    x 1.871970 0.000000 0.019160 
#    y 0.000000 1.804380 0.000000 
#    z 0.019160 0.000000 1.825090 
# 
# From -- ./inp_files/155517.got.cif
#   From: 2010.05.17/outbox.cif.g08.bks.cpg/sg12_78_cif.got.tgz:155517.got - 2010.06.03 13:09:07.
