data_PCOD9170987
_publ_section_title
;
Structure prediction by ZEFSAII (Michael W. Deem and Ramdas Pophale) SiO2 
 PCOD9170987
Probable space group: C 2/M
;
_chemical_formula_sum "Si O2"
_cell_formula_units_Z 56
_cell_length_a 30.376317
_cell_length_b 7.411811
_cell_length_c 14.172813
_cell_angle_alpha 90.000000
_cell_angle_beta 104.190317
_cell_angle_gamma 90.000000
_cell_volume 3093.551903
_symmetry_space_group_name_H-M "C 2/M"
_symmetry_group_IT_number 12
_symmetry_cell_setting 'monoclinic'
loop_
_space_group_symop_operation_xyz
x,y,z
-x,y,-z
-x,-y,-z
x,-y,z
1/2+x,1/2+y,z
1/2-x,1/2+y,-z
1/2-x,1/2-y,-z
1/2+x,1/2-y,z
loop_
_atom_site_type_symbol
_atom_site_label
_atom_site_fract_x
_atom_site_fract_y
_atom_site_fract_z
Si Si1 0.965605 0.780406 0.271911
Si Si2 0.445393 0.280616 0.576713
Si Si3 0.517177 0.720489 0.110758
Si Si4 0.701467 0.707371 0.598305
Si Si5 0.699195 0.788796 0.383590
Si Si6 0.390262 0.721111 0.364532
Si Si7 0.105566 0.216660 0.260533
O O1 0.916325 0.723940 0.283141
O O2 0.003665 0.726360 0.369118
O O3 0.984340 0.722909 0.179823
O O4 0.965728 0.000000 0.270117
O O5 0.445826 0.500000 0.574342
O O6 0.422413 0.221856 0.468381
O O7 0.414790 0.224167 0.649418
O O8 0.516929 0.500000 0.110468
O O9 0.568645 0.776927 0.164087
O O10 0.500000 0.780624 0.000000
O O11 0.706083 0.500000 0.631478
O O12 0.687360 0.708036 0.480045
O O13 0.752318 0.786143 0.625630
O O14 0.660468 0.785404 0.638411
O O15 0.658043 0.769477 0.289145
O O16 0.705907 0.000000 0.406385
O O17 0.388943 0.500000 0.365218
O O18 0.104694 0.000000 0.259121
#
# Coordination Sequence:
#
# PCOD9170987 Si02
#       7
#     8   8   8   8   8   8   8
#     4   8  13  18  29  53  78  98 121 152 192 230
#     4   8  12  18  30  50  74  97 122 151 179 215
#     4   8  14  24  38  59  83 100 120 158 202 237
#     4   9  17  27  38  53  77 107 135 164 193 219
#     4  10  18  26  37  55  78 104 135 166 192 222
#     4   9  13  19  32  50  74 100 126 155 186 222
#     4   9  15  25  41  57  77 106 131 154 192 233
#
# _framework density 18.102170999999998
#
# number of rings (size 3 to 8) (size 9 to 14) (size 15 to 20)
#    0.000    3.286    1.429    2.571    0.000    2.286 
#    0.000    0.000    0.000    0.429    0.000    9.000 
#    0.000    0.000    0.000    0.000    0.000    0.000 
#
# Total GULP energy -155964.975249 kJ/mol
# GULP energy per Si atom -5570.177687 kJ/mol
# Density = 1.806097 g / cm^3
# Si number density = 18.102171 Si / 1000 Ang^3
#
#
#
# Elastic Constant Matrix: (Units=GPa)
#
#
# Indices 1 2 3 4 5 6 
#
# 1 168.0058 2.2990 61.4922 0.0000 2.0016 0.0000
# 2 2.2990 58.1161 0.0100 0.0000 -0.9767 0.0000
# 3 61.4922 0.0100 82.0258 0.0000 10.6299 0.0000
# 4 0.0000 0.0000 0.0000 -0.6771 0.0000 3.8167
# 5 2.0016 -0.9767 10.6299 0.0000 17.5066 0.0000
# 6 0.0000 0.0000 0.0000 3.8167 0.0000 2.4307
#
#
#
# Elastic Compliance Matrix: (Units=1/GPa)
#
#
# Indices 1 2 3 4 5 6 
#
# 1 0.008359 -0.000278 -0.006665 0.000000 0.003076 0.000000
# 2 -0.000278 0.017234 0.000084 0.000000 0.000942 0.000000
# 3 -0.006665 0.000084 0.018548 0.000000 -0.010495 0.000000
# 4 0.000000 0.000000 0.000000 -0.149922 0.000000 0.235409
# 5 0.003076 0.000942 -0.010495 0.000000 0.063195 0.000000
# 6 0.000000 0.000000 0.000000 0.235409 0.000000 0.041761
#
#
# Mechanical properties :
#
#
# Convention : Reuss Voigt Hill
#
# Bulk Modulus (GPa) = 32.86972 48.41667 40.64319
# Shear Modulus (GPa) = 217.08645 20.14182 118.61413
#
# Velocity S-wave (km/s) = 10.96281 3.33930 8.10352
# Velocity P-wave (km/s) = 13.35820 6.45541 10.49080
#
# Compressibility (1/GPa) = 0.03042313
#
# Stress axis : x y z
#
# Youngs Moduli (GPa) = 119.63517 58.02567 53.91473
#
# Poissons Ratio (x) = 0.01612 0.35933
# Poissons Ratio (y) = 0.03324 -0.00453
# Poissons Ratio (z) = 0.79735 -0.00488
#
# Static dielectric constant tensor:
#      x y z
#    x 1.677860 0.000000 -0.000010 
#    y 0.000000 1.714490 0.000000 
#    z -0.000010 0.000000 1.581470 
# 
# From -- ./inp_files/247766.got.cif
#   From: 2010.05.17/outbox.cif.g08.bks.cpg/sg12_124_cif.got.tgz:247766.got - 2010.06.03 13:09:07.
