data_PCOD9170166
_publ_section_title
;
Structure prediction by ZEFSAII (Michael W. Deem and Ramdas Pophale) SiO2 
 PCOD9170166
Probable space group: C 2/M
;
_chemical_formula_sum "Si O2"
_cell_formula_units_Z 64
_cell_length_a 23.442785
_cell_length_b 13.936233
_cell_length_c 12.570938
_cell_angle_alpha 90.000000
_cell_angle_beta 60.664436
_cell_angle_gamma 90.000000
_cell_volume 3580.320342
_symmetry_space_group_name_H-M "C 2/M"
_symmetry_group_IT_number 12
_symmetry_cell_setting 'monoclinic'
loop_
_space_group_symop_operation_xyz
x,y,z
-x,y,-z
-x,-y,-z
x,-y,z
1/2+x,1/2+y,z
1/2-x,1/2+y,-z
1/2-x,1/2-y,-z
1/2+x,1/2-y,z
loop_
_atom_site_type_symbol
_atom_site_label
_atom_site_fract_x
_atom_site_fract_y
_atom_site_fract_z
Si Si1 0.529577 0.725857 0.862143
Si Si2 0.654754 0.388922 0.753471
Si Si3 0.663034 0.114102 0.247488
Si Si4 0.727058 0.888297 0.619487
Si Si5 0.612737 0.888449 0.889957
Si Si6 0.811190 0.889995 0.033107
Si Si7 0.295894 0.799797 0.573255
Si Si8 0.102243 0.275730 0.119669
O O1 0.590035 0.661551 0.770398
O O2 0.560409 0.827770 0.869824
O O3 0.470818 0.737535 0.833886
O O4 0.500000 0.684642 0.000000
O O5 0.658546 0.500000 0.720819
O O6 0.654165 0.382676 0.882780
O O7 0.721317 0.337353 0.659021
O O8 0.734737 0.128855 0.127239
O O9 0.664827 0.163231 0.361318
O O10 0.611388 0.161503 0.215929
O O11 0.654855 0.000000 0.266980
O O12 0.681410 0.880249 0.764952
O O13 0.686240 0.849078 0.554756
O O14 0.787639 0.814811 0.574307
O O15 0.743820 0.000000 0.588844
O O16 0.595290 0.000000 0.913600
O O17 0.617355 0.840348 0.001405
O O18 0.817315 0.000000 0.989809
O O19 0.846311 0.812091 0.928171
#
# Coordination Sequence:
#
# PCOD9170166 Si02
#       8
#     8   8   8   8   8   8   8   8
#     4  10  19  31  45  70 102 136 175 214 251 298
#     4  10  17  30  50  73 103 134 168 213 264 309
#     4  10  20  33  50  72 102 140 172 203 254 314
#     4  10  19  32  56  82 104 131 165 216 268 303
#     4  10  19  32  48  71 102 133 172 214 258 298
#     4   9  17  29  46  68  97 132 165 207 257 302
#     4  10  19  35  55  80 109 130 167 215 259 309
#     4  11  20  32  48  70 105 141 173 204 248 309
#
# _framework density 17.875495999999998
#
# number of rings (size 3 to 8) (size 9 to 14) (size 15 to 20)
#    0.000    2.000    3.750    3.375    0.000    3.500 
#    0.000    1.875    0.000    0.750    0.000    2.625 
#    0.000    3.250    0.000    0.000    0.000    0.000 
#
# Total GULP energy -178530.016909 kJ/mol
# GULP energy per Si atom -5579.063028 kJ/mol
# Density = 1.783481 g / cm^3
# Si number density = 17.875496 Si / 1000 Ang^3
#
#
#
# Elastic Constant Matrix: (Units=GPa)
#
#
# Indices 1 2 3 4 5 6 
#
# 1 73.6197 10.5369 10.8301 0.0000 18.9855 0.0000
# 2 10.5369 89.4866 9.1823 0.0000 7.7698 0.0000
# 3 10.8301 9.1823 36.2272 0.0000 11.0831 0.0000
# 4 0.0000 0.0000 0.0000 17.4391 0.0000 2.3443
# 5 18.9855 7.7698 11.0831 0.0000 20.9985 0.0000
# 6 0.0000 0.0000 0.0000 2.3443 0.0000 17.1175
#
#
#
# Elastic Compliance Matrix: (Units=1/GPa)
#
#
# Indices 1 2 3 4 5 6 
#
# 1 0.017762 -0.000699 -0.000356 0.000000 -0.015613 0.000000
# 2 -0.000699 0.011688 -0.001936 0.000000 -0.002670 0.000000
# 3 -0.000356 -0.001936 0.033253 0.000000 -0.016512 0.000000
# 4 0.000000 0.000000 0.000000 0.058418 0.000000 -0.008001
# 5 -0.015613 -0.002670 -0.016512 0.000000 0.071442 0.000000
# 6 0.000000 0.000000 0.000000 -0.008001 0.000000 0.059515
#
#
# Mechanical properties :
#
#
# Convention : Reuss Voigt Hill
#
# Bulk Modulus (GPa) = 17.63098 28.93691 23.28394
# Shear Modulus (GPa) = 18.05263 22.36328 20.20796
#
# Velocity S-wave (km/s) = 3.18135 3.54087 3.36591
# Velocity P-wave (km/s) = 4.83522 5.73935 5.30657
#
# Compressibility (1/GPa) = 0.05671835
#
# Stress axis : x y z
#
# Youngs Moduli (GPa) = 56.29969 85.55961 30.07285
#
# Poissons Ratio (x) = 0.05983 0.01071
# Poissons Ratio (y) = 0.03937 0.05823
# Poissons Ratio (z) = 0.02006 0.16568
#
# Static dielectric constant tensor:
#      x y z
#    x 1.607250 0.000000 -0.007360 
#    y 0.000000 1.633610 0.000000 
#    z -0.007360 0.000000 1.634600 
# 
# From -- ./inp_files/233133.got.cif
#   From: 2010.05.17/outbox.cif.g08.bks.cpg/sg12_117_cif.got.tgz:233133.got - 2010.06.03 13:09:07.
