data_PCOD9170398
_publ_section_title
;
Structure prediction by ZEFSAII (Michael W. Deem and Ramdas Pophale) SiO2 
 PCOD9170398
Probable space group: C 2/M
;
_chemical_formula_sum "Si O2"
_cell_formula_units_Z 44
_cell_length_a 17.328516
_cell_length_b 14.839418
_cell_length_c 17.739854
_cell_angle_alpha 90.000000
_cell_angle_beta 154.438588
_cell_angle_gamma 90.000000
_cell_volume 1968.281533
_symmetry_space_group_name_H-M "C 2/M"
_symmetry_group_IT_number 12
_symmetry_cell_setting 'monoclinic'
loop_
_space_group_symop_operation_xyz
x,y,z
-x,y,-z
-x,-y,-z
x,-y,z
1/2+x,1/2+y,z
1/2-x,1/2+y,-z
1/2-x,1/2-y,-z
1/2+x,1/2-y,z
loop_
_atom_site_type_symbol
_atom_site_label
_atom_site_fract_x
_atom_site_fract_y
_atom_site_fract_z
Si Si1 0.500000 0.835157 0.000000
Si Si2 0.434390 0.306961 0.651198
Si Si3 0.486509 0.500000 0.077536
Si Si4 0.524281 0.302188 0.892206
Si Si5 0.448142 0.500000 0.594369
Si Si6 0.897877 0.500000 0.490501
Si Si7 0.091357 0.309065 0.500538
Si Si8 0.245186 0.500000 0.255299
O O1 0.424515 0.770391 0.999631
O O2 0.639237 0.905741 0.158502
O O3 0.250000 0.250000 0.500000
O O4 0.552640 0.286798 0.828375
O O5 0.414563 0.412812 0.617218
O O6 0.496045 0.267231 0.626536
O O7 0.406783 0.403129 0.029482
O O8 0.687045 0.500000 0.287755
O O9 0.500000 0.500000 0.000000
O O10 0.304540 0.301648 0.702260
O O11 0.333527 0.500000 0.416042
O O12 0.641290 0.500000 0.723047
O O13 0.941773 0.406003 0.567544
O O14 0.000000 0.500000 0.500000
O O15 0.000000 0.308507 0.500000
#
# Coordination Sequence:
#
# PCOD9170398 Si02
#       8
#     4   8   4   8   4   4   8   4
#     4  11  22  41  60  90 128 163 208 247 310 376
#     4  10  21  35  58  93 120 152 200 255 305 353
#     4  10  17  31  53  82 104 150 193 230 289 354
#     4  10  20  35  58  86 121 159 197 250 304 365
#     4  11  23  42  67  90 121 157 217 260 302 364
#     4   8  16  31  49  81 112 138 183 244 287 334
#     4   9  18  32  58  86 118 153 203 249 300 351
#     4  10  24  40  65  90 119 168 208 254 304 362
#
# _framework density 22.354526
#
# number of rings (size 3 to 8) (size 9 to 14) (size 15 to 20)
#    0.000    2.182    0.909    2.727    5.091    2.182 
#    0.000    2.727    0.000    2.182    0.000    0.000 
#    0.000    0.000    0.000    0.000    0.000    0.000 
#
# Total GULP energy -122674.710045 kJ/mol
# GULP energy per Si atom -5576.123184 kJ/mol
# Density = 2.230365 g / cm^3
# Si number density = 22.354526 Si / 1000 Ang^3
#
#
#
# Elastic Constant Matrix: (Units=GPa)
#
#
# Indices 1 2 3 4 5 6 
#
# 1 62.4659 28.7876 19.9264 -0.0031 -16.9125 -0.0036
# 2 28.7876 187.9287 30.9012 -0.0133 -20.5692 -0.0115
# 3 19.9264 30.9012 36.9678 -0.0082 -8.4471 -0.0100
# 4 -0.0031 -0.0133 -0.0082 1.4183 0.0005 -7.1563
# 5 -16.9125 -20.5692 -8.4471 0.0005 40.1563 -0.0009
# 6 -0.0036 -0.0115 -0.0100 -7.1563 -0.0009 28.6667
#
#
#
# Elastic Compliance Matrix: (Units=1/GPa)
#
#
# Indices 1 2 3 4 5 6 
#
# 1 0.021121 -0.001042 -0.009037 0.000086 0.006461 0.000021
# 2 -0.001042 0.006408 -0.004354 -0.000142 0.001927 -0.000034
# 3 -0.009037 -0.004354 0.035908 -0.000753 0.001517 -0.000178
# 4 0.000086 -0.000142 -0.000753 -2.715806 -0.000173 -0.677972
# 5 0.006461 0.001927 0.001517 -0.000173 0.028930 -0.000040
# 6 0.000021 -0.000034 -0.000178 -0.677972 -0.000040 -0.134365
#
#
# Mechanical properties :
#
#
# Convention : Reuss Voigt Hill
#
# Bulk Modulus (GPa) = 28.92724 49.62142 39.27433
# Shear Modulus (GPa) = -1.83998 27.89808 13.02905
#
# Velocity S-wave (km/s) = -0.90823 3.53651 2.41682
# Velocity P-wave (km/s) = 3.44506 6.23872 5.03935
#
# Compressibility (1/GPa) = 0.03456950
#
# Stress axis : x y z
#
# Youngs Moduli (GPa) = 47.34598 156.06239 27.84921
#
# Poissons Ratio (x) = 0.16266 0.25168
# Poissons Ratio (y) = 0.04935 0.12125
# Poissons Ratio (z) = 0.42788 0.67949
#
# Static dielectric constant tensor:
#      x y z
#    x 1.890800 0.000000 0.039360 
#    y 0.000000 1.888140 0.000000 
#    z 0.039360 0.000000 1.868280 
# 
# From -- ./inp_files/85643.got.cif
#   From: 2010.05.17/outbox.cif.g08.bks.cpg/sg12_43_cif.got.tgz:85643.got - 2010.06.03 13:09:07.
