data_PCOD9170047
_publ_section_title
;
Structure prediction by ZEFSAII (Michael W. Deem and Ramdas Pophale) SiO2 
 PCOD9170047
Probable space group: C 2/M
;
_chemical_formula_sum "Si O2"
_cell_formula_units_Z 56
_cell_length_a 15.050079
_cell_length_b 24.780001
_cell_length_c 10.293736
_cell_angle_alpha 90.000000
_cell_angle_beta 126.456213
_cell_angle_gamma 90.000000
_cell_volume 3087.715261
_symmetry_space_group_name_H-M "C 2/M"
_symmetry_group_IT_number 12
_symmetry_cell_setting 'monoclinic'
loop_
_space_group_symop_operation_xyz
x,y,z
-x,y,-z
-x,-y,-z
x,-y,z
1/2+x,1/2+y,z
1/2-x,1/2+y,-z
1/2-x,1/2-y,-z
1/2+x,1/2-y,z
loop_
_atom_site_type_symbol
_atom_site_label
_atom_site_fract_x
_atom_site_fract_y
_atom_site_fract_z
Si Si1 0.658254 0.333640 0.362583
Si Si2 0.116502 0.062101 0.174470
Si Si3 0.094944 0.830026 0.799029
Si Si4 0.128902 0.771149 0.086452
Si Si5 0.705053 0.561085 0.980469
Si Si6 0.869698 0.561924 0.902393
Si Si7 0.260064 0.168855 0.718810
O O1 0.646446 0.396373 0.312397
O O2 0.534732 0.318758 0.303779
O O3 0.687650 0.303591 0.254033
O O4 0.740217 0.320679 0.550474
O O5 0.108009 0.000000 0.209274
O O6 0.205821 0.066315 0.136095
O O7 0.000000 0.076113 0.000000
O O8 0.124743 0.892241 0.858564
O O9 0.148794 0.821562 0.705631
O O10 0.151504 0.794367 0.962892
O O11 0.155051 0.709018 0.136452
O O12 0.000000 0.781676 0.000000
O O13 0.663736 0.500000 0.917430
O O14 0.821379 0.566575 0.007270
O O15 0.847799 0.500000 0.841590
O O16 0.801933 0.607676 0.768973
O O17 0.000000 0.571369 0.000000
#
# Coordination Sequence:
#
# PCOD9170047 Si02
#       7
#     8   8   8   8   8   8   8
#     4  11  20  33  50  78 112 136 160 213 271 308
#     4  10  17  29  52  79 108 142 175 203 243 314
#     4  10  19  34  52  76 105 139 173 204 252 320
#     4  10  20  36  55  72  97 137 181 213 249 308
#     4   9  16  29  53  81 101 130 177 212 243 296
#     4   9  19  36  55  74 100 136 179 220 254 299
#     4  11  22  33  52  78 105 133 171 218 267 306
#
# _framework density 18.136388
#
# number of rings (size 3 to 8) (size 9 to 14) (size 15 to 20)
#    0.000    2.000    2.857    2.143    0.000    0.571 
#    0.000    0.000    0.000    5.143    0.000    4.000 
#    0.000    0.000    0.000    0.000    0.000    0.000 
#
# Total GULP energy -155957.898692 kJ/mol
# GULP energy per Si atom -5569.924953 kJ/mol
# Density = 1.809511 g / cm^3
# Si number density = 18.136388 Si / 1000 Ang^3
#
#
#
# Elastic Constant Matrix: (Units=GPa)
#
#
# Indices 1 2 3 4 5 6 
#
# 1 53.4202 -2.5735 4.9501 0.0000 -6.4863 0.0000
# 2 -2.5735 57.7639 18.4498 0.0000 -0.8577 0.0000
# 3 4.9501 18.4498 63.0067 0.0000 -12.8272 0.0000
# 4 0.0000 0.0000 0.0000 13.9561 0.0000 -2.3175
# 5 -6.4863 -0.8577 -12.8272 0.0000 14.6649 0.0000
# 6 0.0000 0.0000 0.0000 -2.3175 0.0000 19.1571
#
#
#
# Elastic Compliance Matrix: (Units=1/GPa)
#
#
# Indices 1 2 3 4 5 6 
#
# 1 0.019841 0.001039 -0.000078 0.000000 0.008769 0.000000
# 2 0.001039 0.019410 -0.006619 0.000000 -0.004195 0.000000
# 3 -0.000078 -0.006619 0.021571 0.000000 0.018447 0.000000
# 4 0.000000 0.000000 0.000000 0.073122 0.000000 0.008846
# 5 0.008769 -0.004195 0.018447 0.000000 0.087958 0.000000
# 6 0.000000 0.000000 0.000000 0.008846 0.000000 0.053270
#
#
# Mechanical properties :
#
#
# Convention : Reuss Voigt Hill
#
# Bulk Modulus (GPa) = 20.19951 23.98263 22.09107
# Shear Modulus (GPa) = 16.50210 19.77992 18.14101
#
# Velocity S-wave (km/s) = 3.01971 3.30604 3.16611
# Velocity P-wave (km/s) = 4.82907 5.27498 5.05694
#
# Compressibility (1/GPa) = 0.04950616
#
# Stress axis : x y z
#
# Youngs Moduli (GPa) = 50.39951 51.51955 46.35807
#
# Poissons Ratio (x) = -0.05353 0.00361
# Poissons Ratio (y) = -0.05237 0.30686
# Poissons Ratio (z) = 0.00393 0.34103
#
# Static dielectric constant tensor:
#      x y z
#    x 1.652870 0.000000 -0.012020 
#    y 0.000000 1.663670 0.000000 
#    z -0.012020 0.000000 1.603080 
# 
# From -- ./inp_files/67060.got.cif
#   From: 2010.05.17/outbox.cif.g08.bks.cpg/sg12_34_cif.got.tgz:67060.got - 2010.06.03 13:09:07.
