data_PCOD9170967
_publ_section_title
;
Structure prediction by ZEFSAII (Michael W. Deem and Ramdas Pophale) SiO2 
 PCOD9170967
Probable space group: C 2/M
;
_chemical_formula_sum "Si O2"
_cell_formula_units_Z 56
_cell_length_a 14.262688
_cell_length_b 13.953345
_cell_length_c 13.113870
_cell_angle_alpha 90.000000
_cell_angle_beta 73.838717
_cell_angle_gamma 90.000000
_cell_volume 2506.685305
_symmetry_space_group_name_H-M "C 2/M"
_symmetry_group_IT_number 12
_symmetry_cell_setting 'monoclinic'
loop_
_space_group_symop_operation_xyz
x,y,z
-x,y,-z
-x,-y,-z
x,-y,z
1/2+x,1/2+y,z
1/2-x,1/2+y,-z
1/2-x,1/2-y,-z
1/2+x,1/2-y,z
loop_
_atom_site_type_symbol
_atom_site_label
_atom_site_fract_x
_atom_site_fract_y
_atom_site_fract_z
Si Si1 0.564452 0.616524 0.740041
Si Si2 0.158459 0.116361 0.147336
Si Si3 0.237276 0.291496 0.702555
Si Si4 0.391826 0.614677 0.501204
Si Si5 0.578440 0.888341 0.628646
Si Si6 0.640825 0.889247 0.375600
Si Si7 0.884458 0.108568 0.059954
O O1 0.565016 0.500000 0.749315
O O2 0.449355 0.642204 0.775779
O O3 0.614372 0.636025 0.616731
O O4 0.612439 0.655259 0.829818
O O5 0.238512 0.160392 0.196728
O O6 0.162788 0.149848 0.028167
O O7 0.163652 0.000000 0.146418
O O8 0.191575 0.157738 0.403838
O O9 0.130815 0.320876 0.693799
O O10 0.282550 0.185784 0.687712
O O11 0.500000 0.648813 0.500000
O O12 0.389304 0.500000 0.515444
O O13 0.621836 0.873188 0.501876
O O14 0.462677 0.875735 0.649875
O O15 0.596865 0.000000 0.649191
O O16 0.671439 0.000000 0.354177
O O17 0.845178 0.000000 0.081830
O O18 0.000000 0.101084 0.000000
#
# Coordination Sequence:
#
# PCOD9170967 Si02
#       7
#     8   8   8   8   8   8   8
#     4   8  13  22  33  52  95 149 176 193 253 331
#     4   9  15  23  38  68 102 130 167 219 265 309
#     4  12  20  29  53  77 102 136 180 219 272 319
#     4  10  18  25  36  67 113 145 164 208 274 328
#     4   9  19  36  54  72 100 143 185 219 258 319
#     4   9  21  39  53  68 103 149 189 222 255 314
#     4   7  11  20  34  51  86 140 180 200 242 317
#
# _framework density 22.340260000000001
#
# number of rings (size 3 to 8) (size 9 to 14) (size 15 to 20)
#    0.000    2.857    1.429    4.286    2.000    0.000 
#    0.000    0.000    0.000    1.714    0.000    0.000 
#    0.000   37.143    0.000   37.429    0.000   53.571 
#
# Total GULP energy -156552.335906 kJ/mol
# GULP energy per Si atom -5591.154854 kJ/mol
# Density = 2.228941 g / cm^3
# Si number density = 22.340260 Si / 1000 Ang^3
#
#
#
# Elastic Constant Matrix: (Units=GPa)
#
#
# Indices 1 2 3 4 5 6 
#
# 1 72.2054 36.2226 29.4023 0.0000 26.6203 0.0000
# 2 36.2226 86.1180 33.6579 0.0000 24.7450 0.0000
# 3 29.4023 33.6579 120.8839 0.0000 36.7246 0.0000
# 4 0.0000 0.0000 0.0000 23.0871 0.0000 8.6976
# 5 26.6203 24.7450 36.7246 0.0000 40.3149 0.0000
# 6 0.0000 0.0000 0.0000 8.6976 0.0000 20.2329
#
#
#
# Elastic Compliance Matrix: (Units=1/GPa)
#
#
# Indices 1 2 3 4 5 6 
#
# 1 0.020406 -0.005644 -0.000485 0.000000 -0.009568 0.000000
# 2 -0.005644 0.015946 -0.001695 0.000000 -0.004517 0.000000
# 3 -0.000485 -0.001695 0.011682 0.000000 -0.009281 0.000000
# 4 0.000000 0.000000 0.000000 0.051684 0.000000 -0.022218
# 5 -0.009568 -0.004517 -0.009281 0.000000 0.042349 0.000000
# 6 0.000000 0.000000 0.000000 -0.022218 0.000000 0.058975
#
#
# Mechanical properties :
#
#
# Convention : Reuss Voigt Hill
#
# Bulk Modulus (GPa) = 30.87780 53.08589 41.98184
# Shear Modulus (GPa) = 21.97934 28.72194 25.35064
#
# Velocity S-wave (km/s) = 3.14003 3.58950 3.37226
# Velocity P-wave (km/s) = 5.19596 6.40260 5.83058
#
# Compressibility (1/GPa) = 0.03238572
#
# Stress axis : x y z
#
# Youngs Moduli (GPa) = 49.00570 62.71041 85.60305
#
# Poissons Ratio (x) = 0.35395 0.04152
# Poissons Ratio (y) = 0.27660 0.14509
# Poissons Ratio (z) = 0.02377 0.10629
#
# Static dielectric constant tensor:
#      x y z
#    x 1.849530 0.000000 0.020340 
#    y 0.000000 1.886750 0.000000 
#    z 0.020340 0.000000 1.829930 
# 
# From -- ./inp_files/214330.got.cif
#   From: 2010.05.17/outbox.cif.g08.bks.cpg/sg12_108_cif.got.tgz:214330.got - 2010.06.03 13:09:07.
