data_PCOD9170757
_publ_section_title
;
Structure prediction by ZEFSAII (Michael W. Deem and Ramdas Pophale) SiO2 
 PCOD9170757
Probable space group: C 2/M
;
_chemical_formula_sum "Si O2"
_cell_formula_units_Z 48
_cell_length_a 15.822869
_cell_length_b 16.386270
_cell_length_c 14.133668
_cell_angle_alpha 90.000000
_cell_angle_beta 36.803839
_cell_angle_gamma 90.000000
_cell_volume 2195.346373
_symmetry_space_group_name_H-M "C 2/M"
_symmetry_group_IT_number 12
_symmetry_cell_setting 'monoclinic'
loop_
_space_group_symop_operation_xyz
x,y,z
-x,y,-z
-x,-y,-z
x,-y,z
1/2+x,1/2+y,z
1/2-x,1/2+y,-z
1/2-x,1/2-y,-z
1/2+x,1/2-y,z
loop_
_atom_site_type_symbol
_atom_site_label
_atom_site_fract_x
_atom_site_fract_y
_atom_site_fract_z
Si Si1 0.402689 0.129350 0.216186
Si Si2 0.575336 0.408946 0.152521
Si Si3 0.278386 0.128931 0.141284
Si Si4 0.780905 0.700405 0.872855
Si Si5 0.434122 0.905393 0.401692
Si Si6 0.813894 0.800009 0.355911
O O1 0.295882 0.097389 0.232153
O O2 0.381543 0.094252 0.339380
O O3 0.382710 0.227576 0.233749
O O4 0.565560 0.115009 0.042249
O O5 0.533935 0.500000 0.167532
O O6 0.667552 0.406934 0.166187
O O7 0.439054 0.354122 0.284077
O O8 0.667266 0.370958 0.984926
O O9 0.241712 0.225532 0.178147
O O10 0.929400 0.654381 0.725995
O O11 0.750000 0.750000 0.000000
O O12 0.310564 0.858807 0.570410
O O13 0.460863 0.000000 0.405764
O O14 0.750000 0.750000 0.500000
#
# Coordination Sequence:
#
# PCOD9170757 Si02
#       6
#     8   8   8   8   8   8
#     4  10  19  34  56  81 109 141 181 219 269 318
#     4  11  20  33  55  83 111 139 177 224 269 315
#     4  10  19  33  56  83 109 139 179 224 266 319
#     4  10  17  34  54  77 107 142 187 216 249 320
#     4  11  21  35  56  83 111 141 175 222 275 319
#     4  10  20  37  56  76 106 148 188 217 251 321
#
# _framework density 21.864431
#
# number of rings (size 3 to 8) (size 9 to 14) (size 15 to 20)
#    0.000    1.667    5.000    4.000    0.000    0.667 
#    0.000    9.167    0.000   11.000    0.000    0.000 
#    0.000    0.000    0.000    0.000    0.000    0.000 
#
# Total GULP energy -133818.339521 kJ/mol
# GULP energy per Si atom -5575.764147 kJ/mol
# Density = 2.181467 g / cm^3
# Si number density = 21.864431 Si / 1000 Ang^3
#
#
#
# Elastic Constant Matrix: (Units=GPa)
#
#
# Indices 1 2 3 4 5 6 
#
# 1 27.4943 15.4115 9.0988 -0.0001 -11.1066 0.0000
# 2 15.4115 132.5064 20.4232 0.0000 -17.1732 0.0000
# 3 9.0988 20.4232 73.9287 -0.0001 -35.7127 0.0001
# 4 -0.0001 0.0000 -0.0001 7.5550 0.0001 -0.8809
# 5 -11.1066 -17.1732 -35.7127 0.0001 23.1468 0.0000
# 6 0.0000 0.0000 0.0001 -0.8809 0.0000 2.5950
#
#
#
# Elastic Compliance Matrix: (Units=1/GPa)
#
#
# Indices 1 2 3 4 5 6 
#
# 1 0.053890 -0.002095 0.022328 0.000000 0.058754 0.000000
# 2 -0.002095 0.008570 0.001870 0.000000 0.008238 0.000000
# 3 0.022328 0.001870 0.063246 0.000000 0.109681 0.000000
# 4 0.000000 0.000000 0.000000 0.137818 0.000000 0.046782
# 5 0.058754 0.008238 0.109681 0.000000 0.246732 0.000000
# 6 0.000000 0.000000 0.000000 0.046782 0.000000 0.401243
#
#
# Mechanical properties :
#
#
# Convention : Reuss Voigt Hill
#
# Bulk Modulus (GPa) = 5.88534 35.97738 20.93136
# Shear Modulus (GPa) = 5.41168 19.25907 12.33537
#
# Velocity S-wave (km/s) = 1.57495 2.97111 2.37781
# Velocity P-wave (km/s) = 2.45049 5.31606 4.13917
#
# Compressibility (1/GPa) = 0.16991363
#
# Stress axis : x y z
#
# Youngs Moduli (GPa) = 18.55618 116.68714 15.81139
#
# Poissons Ratio (x) = 0.24441 -0.35304
# Poissons Ratio (y) = 0.03887 -0.02957
# Poissons Ratio (z) = -0.41433 -0.21821
#
# Static dielectric constant tensor:
#      x y z
#    x 1.859780 0.000000 0.032280 
#    y 0.000000 1.808590 0.000000 
#    z 0.032280 0.000000 1.819480 
# 
# From -- ./inp_files/278523.got.cif
#   From: 2010.05.17/outbox.cif.g08.bks.cpg/sg12_140_cif.got.tgz:278523.got - 2010.06.03 13:09:07.
