data_PCOD9170371
_publ_section_title
;
Structure prediction by ZEFSAII (Michael W. Deem and Ramdas Pophale) SiO2 
 PCOD9170371
Probable space group: C 2/M
;
_chemical_formula_sum "Si O2"
_cell_formula_units_Z 56
_cell_length_a 19.153536
_cell_length_b 21.429869
_cell_length_c 14.873328
_cell_angle_alpha 90.000000
_cell_angle_beta 152.392224
_cell_angle_gamma 90.000000
_cell_volume 2829.097681
_symmetry_space_group_name_H-M "C 2/M"
_symmetry_group_IT_number 12
_symmetry_cell_setting 'monoclinic'
loop_
_space_group_symop_operation_xyz
x,y,z
-x,y,-z
-x,-y,-z
x,-y,z
1/2+x,1/2+y,z
1/2-x,1/2+y,-z
1/2-x,1/2-y,-z
1/2+x,1/2-y,z
loop_
_atom_site_type_symbol
_atom_site_label
_atom_site_fract_x
_atom_site_fract_y
_atom_site_fract_z
Si Si1 0.020003 0.331818 0.376261
Si Si2 0.665284 0.616665 0.690615
Si Si3 0.956724 0.753204 0.753279
Si Si4 0.151956 0.164027 0.218677
Si Si5 0.727437 0.757936 0.804589
Si Si6 0.585292 0.069567 0.887058
Si Si7 0.380226 0.132860 0.782359
O O1 0.069779 0.268713 0.378551
O O2 0.179067 0.364505 0.584129
O O3 0.900471 0.306503 0.311912
O O4 0.932000 0.378216 0.209119
O O5 0.500000 0.589526 0.500000
O O6 0.663397 0.689056 0.719302
O O7 0.729655 0.617492 0.662997
O O8 0.776306 0.583361 0.887613
O O9 0.892534 0.813414 0.731603
O O10 0.891279 0.695409 0.736582
O O11 0.136919 0.755878 0.969481
O O12 0.188506 0.220731 0.190936
O O13 0.000000 0.134480 0.000000
O O14 0.439561 0.079111 0.784514
O O15 0.594657 0.000000 0.861396
O O16 0.500000 0.140627 0.000000
#
# Coordination Sequence:
#
# PCOD9170371 Si02
#       7
#     8   8   8   8   8   8   8
#     4  11  21  34  54  82 113 145 185 226 284 335
#     4  11  20  32  55  86 119 148 179 223 280 338
#     4  10  17  31  51  80 116 146 172 214 267 342
#     4  10  20  33  53  78 114 145 174 218 278 349
#     4  11  19  33  53  84 120 148 174 220 282 348
#     4  10  23  40  57  74 106 155 203 236 262 315
#     4   9  15  32  53  77 109 149 182 215 262 332
#
# _framework density 19.794297
#
# number of rings (size 3 to 8) (size 9 to 14) (size 15 to 20)
#    0.000    1.714    5.714    2.571    0.000    2.857 
#    0.000    0.000    0.000    2.143    0.000    0.000 
#    0.000    0.000    0.000    0.000    0.000    0.000 
#
# Total GULP energy -156019.134864 kJ/mol
# GULP energy per Si atom -5572.111959 kJ/mol
# Density = 1.974924 g / cm^3
# Si number density = 19.794297 Si / 1000 Ang^3
#
#
#
# Elastic Constant Matrix: (Units=GPa)
#
#
# Indices 1 2 3 4 5 6 
#
# 1 79.0207 13.1577 27.2665 0.0000 20.9009 0.0000
# 2 13.1577 48.9502 7.9045 0.0000 3.9581 0.0000
# 3 27.2665 7.9045 116.7811 0.0000 23.9867 0.0000
# 4 0.0000 0.0000 0.0000 0.2167 0.0000 1.8336
# 5 20.9009 3.9581 23.9867 0.0000 28.3697 0.0000
# 6 0.0000 0.0000 0.0000 1.8336 0.0000 9.3648
#
#
#
# Elastic Compliance Matrix: (Units=1/GPa)
#
#
# Indices 1 2 3 4 5 6 
#
# 1 0.016480 -0.003348 -0.001480 0.000000 -0.010423 0.000000
# 2 -0.003348 0.021434 -0.000680 0.000000 0.000051 0.000000
# 3 -0.001480 -0.000680 0.010542 0.000000 -0.007728 0.000000
# 4 0.000000 0.000000 0.000000 -7.025271 0.000000 1.375541
# 5 -0.010423 0.000051 -0.007728 0.000000 0.049454 0.000000
# 6 0.000000 0.000000 0.000000 1.375541 0.000000 -0.162547
#
#
# Mechanical properties :
#
#
# Convention : Reuss Voigt Hill
#
# Bulk Modulus (GPa) = 26.70898 37.93438 32.32168
# Shear Modulus (GPa) = -0.70757 20.68512 9.98877
#
# Velocity S-wave (km/s) = -0.59853 3.23616 2.24883
# Velocity P-wave (km/s) = 3.61177 5.75930 4.80700
#
# Compressibility (1/GPa) = 0.03744059
#
# Stress axis : x y z
#
# Youngs Moduli (GPa) = 60.67979 46.65378 94.85897
#
# Poissons Ratio (x) = 0.15620 0.14043
# Poissons Ratio (y) = 0.20315 0.06446
# Poissons Ratio (z) = 0.08983 0.03170
#
# Static dielectric constant tensor:
#      x y z
#    x 1.732930 0.000000 -0.000380 
#    y 0.000000 1.664760 0.000000 
#    z -0.000380 0.000000 1.801390 
# 
# From -- ./inp_files/227632.got.cif
#   From: 2010.05.17/outbox.cif.g08.bks.cpg/sg12_114_cif.got.tgz:227632.got - 2010.06.03 13:09:07.
