data_PCOD9170077
_publ_section_title
;
Structure prediction by ZEFSAII (Michael W. Deem and Ramdas Pophale) SiO2 
 PCOD9170077
Probable space group: C 2/M
;
_chemical_formula_sum "Si O2"
_cell_formula_units_Z 48
_cell_length_a 17.054341
_cell_length_b 26.855471
_cell_length_c 10.626827
_cell_angle_alpha 90.000000
_cell_angle_beta 146.846547
_cell_angle_gamma 90.000000
_cell_volume 2661.741978
_symmetry_space_group_name_H-M "C 2/M"
_symmetry_group_IT_number 12
_symmetry_cell_setting 'monoclinic'
loop_
_space_group_symop_operation_xyz
x,y,z
-x,y,-z
-x,-y,-z
x,-y,z
1/2+x,1/2+y,z
1/2-x,1/2+y,-z
1/2-x,1/2-y,-z
1/2+x,1/2-y,z
loop_
_atom_site_type_symbol
_atom_site_label
_atom_site_fract_x
_atom_site_fract_y
_atom_site_fract_z
Si Si1 0.675779 0.334443 0.865840
Si Si2 0.670916 0.053166 0.242234
Si Si3 0.153859 0.944521 0.775621
Si Si4 0.507387 0.815980 0.644760
Si Si5 0.127681 0.343204 0.275165
Si Si6 0.379666 0.292470 0.487995
O O1 0.681134 0.394218 0.889133
O O2 0.531624 0.314818 0.737678
O O3 0.657922 0.320743 0.693371
O O4 0.823189 0.309087 0.104956
O O5 0.733293 0.056538 0.186456
O O6 0.704837 0.103523 0.360349
O O7 0.720061 0.000000 0.362907
O O8 0.500000 0.052099 0.000000
O O9 0.000000 0.939830 0.500000
O O10 0.159455 0.000000 0.842716
O O11 0.500000 0.842923 0.500000
O O12 0.442757 0.840923 0.682451
O O13 0.417582 0.764771 0.511932
O O14 0.248037 0.302285 0.404448
O O15 0.000000 0.338563 0.000000
#
# Coordination Sequence:
#
# PCOD9170077 Si02
#       6
#     8   8   8   8   8   8
#     4  11  19  37  58  79 118 147 183 231 286 328
#     4   9  16  27  48  77 106 136 172 222 278 325
#     4  10  17  29  54  88 113 136 175 231 287 330
#     4  12  25  37  55  80 114 154 191 230 278 334
#     4  11  20  37  57  81 111 144 189 234 278 329
#     4  11  21  36  58  81 109 153 185 229 278 334
#
# _framework density 18.033301999999999
#
# number of rings (size 3 to 8) (size 9 to 14) (size 15 to 20)
#    0.000    1.333    6.667    2.000    0.000    0.000 
#    0.000    0.833    0.000    2.000    0.000    0.000 
#    0.000    6.667    0.000    0.000    0.000    0.000 
#
# Total GULP energy -133709.753838 kJ/mol
# GULP energy per Si atom -5571.239743 kJ/mol
# Density = 1.799226 g / cm^3
# Si number density = 18.033302 Si / 1000 Ang^3
#
#
#
# Elastic Constant Matrix: (Units=GPa)
#
#
# Indices 1 2 3 4 5 6 
#
# 1 69.2402 -14.4308 15.4082 0.0000 2.3901 0.0000
# 2 -14.4308 71.2868 -11.7402 0.0000 -12.8624 0.0000
# 3 15.4082 -11.7402 49.4439 0.0000 10.3425 0.0000
# 4 0.0000 0.0000 0.0000 13.4370 0.0000 12.6705
# 5 2.3901 -12.8624 10.3425 0.0000 27.9708 0.0000
# 6 0.0000 0.0000 0.0000 12.6705 0.0000 11.3661
#
#
#
# Elastic Compliance Matrix: (Units=1/GPa)
#
#
# Indices 1 2 3 4 5 6 
#
# 1 0.016002 0.002764 -0.004672 0.000000 0.001631 0.000000
# 2 0.002764 0.016029 0.001574 0.000000 0.006553 0.000000
# 3 -0.004672 0.001574 0.023649 0.000000 -0.007621 0.000000
# 4 0.000000 0.000000 0.000000 -1.454083 0.000000 1.620968
# 5 0.001631 0.006553 -0.007621 0.000000 0.041444 0.000000
# 6 0.000000 0.000000 0.000000 1.620968 0.000000 -1.719025
#
#
# Mechanical properties :
#
#
# Convention : Reuss Voigt Hill
#
# Bulk Modulus (GPa) = 18.17760 18.71614 18.44687
# Shear Modulus (GPa) = -1.63560 23.93702 11.15071
#
# Velocity S-wave (km/s) = -0.95339 3.64727 2.48934
# Velocity P-wave (km/s) = 2.98160 5.30453 4.30279
#
# Compressibility (1/GPa) = 0.05501275
#
# Stress axis : x y z
#
# Youngs Moduli (GPa) = 62.49273 62.38707 42.28571
#
# Poissons Ratio (x) = -0.17245 0.19754
# Poissons Ratio (y) = -0.17275 -0.06655
# Poissons Ratio (z) = 0.29193 -0.09819
#
# Static dielectric constant tensor:
#      x y z
#    x 1.623150 0.000000 0.011490 
#    y 0.000000 1.708410 0.000000 
#    z 0.011490 0.000000 1.609210 
# 
# From -- ./inp_files/160738.got.cif
#   From: 2010.05.17/outbox.cif.g08.bks.cpg/sg12_81_cif.got.tgz:160738.got - 2010.06.03 13:09:07.
