data_PCOD9170811
_publ_section_title
;
Structure prediction by ZEFSAII (Michael W. Deem and Ramdas Pophale) SiO2 
 PCOD9170811
Probable space group: C 2/M
;
_chemical_formula_sum "Si O2"
_cell_formula_units_Z 28
_cell_length_a 7.374256
_cell_length_b 25.737767
_cell_length_c 12.741730
_cell_angle_alpha 90.000000
_cell_angle_beta 26.918904
_cell_angle_gamma 90.000000
_cell_volume 1094.852748
_symmetry_space_group_name_H-M "C 2/M"
_symmetry_group_IT_number 12
_symmetry_cell_setting 'monoclinic'
loop_
_space_group_symop_operation_xyz
x,y,z
-x,y,-z
-x,-y,-z
x,-y,z
1/2+x,1/2+y,z
1/2-x,1/2+y,-z
1/2-x,1/2-y,-z
1/2+x,1/2-y,z
loop_
_atom_site_type_symbol
_atom_site_label
_atom_site_fract_x
_atom_site_fract_y
_atom_site_fract_z
Si Si1 0.038356 0.837414 0.363194
Si Si2 0.839205 0.440949 0.202372
Si Si3 0.000000 0.114969 0.000000
Si Si4 0.432309 0.305774 0.873231
O O1 0.973777 0.899355 0.395398
O O2 0.903676 0.806175 0.329786
O O3 0.000000 0.815348 0.500000
O O4 0.518210 0.836932 0.095481
O O5 0.718990 0.500000 0.285701
O O6 0.188847 0.422638 0.101964
O O7 0.000000 0.439934 0.000000
O O8 0.806494 0.158523 0.181843
O O9 0.250000 0.250000 0.000000
#
# Coordination Sequence:
#
# PCOD9170811 Si02
#       4
#     8   8   4   8
#     4  10  20  37  57  82 115 152 191 235 292 346
#     4  10  19  35  58  84 115 155 195 237 293 347
#     4  10  17  34  60  82 112 152 197 238 286 342
#     4  10  20  37  57  84 115 154 191 240 293 342
#
# _framework density 25.574217999999998
#
# number of rings (size 3 to 8) (size 9 to 14) (size 15 to 20)
#    0.000    2.000    5.714    2.143    0.000    1.714 
#    0.000    5.714    0.000    1.714    0.000    0.000 
#    0.000    0.000    0.000    0.000    0.000    0.000 
#
# Total GULP energy -77971.951401 kJ/mol
# GULP energy per Si atom -5569.425100 kJ/mol
# Density = 2.551601 g / cm^3
# Si number density = 25.574218 Si / 1000 Ang^3
#
#
#
# Elastic Constant Matrix: (Units=GPa)
#
#
# Indices 1 2 3 4 5 6 
#
# 1 131.8630 54.2707 51.8621 0.0000 39.6697 0.0000
# 2 54.2707 215.4314 30.1784 0.0000 26.9357 0.0000
# 3 51.8621 30.1784 159.0454 0.0000 70.7638 0.0000
# 4 0.0000 0.0000 0.0000 19.8133 0.0000 -0.0958
# 5 39.6697 26.9357 70.7638 0.0000 54.9466 0.0000
# 6 0.0000 0.0000 0.0000 -0.0958 0.0000 27.9771
#
#
#
# Elastic Compliance Matrix: (Units=1/GPa)
#
#
# Indices 1 2 3 4 5 6 
#
# 1 0.010289 -0.001777 -0.000235 0.000000 -0.006254 0.000000
# 2 -0.001777 0.005259 0.000370 0.000000 -0.001771 0.000000
# 3 -0.000235 0.000370 0.014752 0.000000 -0.019010 0.000000
# 4 0.000000 0.000000 0.000000 0.050472 0.000000 0.000173
# 5 -0.006254 -0.001771 -0.019010 0.000000 0.048066 0.000000
# 6 0.000000 0.000000 0.000000 0.000173 0.000000 0.035744
#
#
# Mechanical properties :
#
#
# Convention : Reuss Voigt Hill
#
# Bulk Modulus (GPa) = 37.01590 86.55135 61.78362
# Shear Modulus (GPa) = 28.26883 45.21595 36.74239
#
# Velocity S-wave (km/s) = 3.32831 4.20936 3.79449
# Velocity P-wave (km/s) = 5.41069 7.58562 6.58852
#
# Compressibility (1/GPa) = 0.02701542
#
# Stress axis : x y z
#
# Youngs Moduli (GPa) = 97.19051 190.14324 67.78580
#
# Poissons Ratio (x) = 0.33789 0.01594
# Poissons Ratio (y) = 0.17271 -0.02505
# Poissons Ratio (z) = 0.02285 -0.07027
#
# Static dielectric constant tensor:
#      x y z
#    x 2.437320 0.000000 -0.038070 
#    y 0.000000 2.228710 0.000000 
#    z -0.038070 0.000000 2.163500 
# 
# From -- ./inp_files/122894.got.cif
#   From: 2010.05.17/outbox.cif.g08.bks.cpg/sg12_62_cif.got.tgz:122894.got - 2010.06.03 13:09:07.
