data_PCOD9170151
_publ_section_title
;
Structure prediction by ZEFSAII (Michael W. Deem and Ramdas Pophale) SiO2 
 PCOD9170151
Probable space group: C 2/M
;
_chemical_formula_sum "Si O2"
_cell_formula_units_Z 64
_cell_length_a 30.937195
_cell_length_b 8.655583
_cell_length_c 15.518140
_cell_angle_alpha 90.000000
_cell_angle_beta 79.235400
_cell_angle_gamma 90.000000
_cell_volume 4082.315192
_symmetry_space_group_name_H-M "C 2/M"
_symmetry_group_IT_number 12
_symmetry_cell_setting 'monoclinic'
loop_
_space_group_symop_operation_xyz
x,y,z
-x,y,-z
-x,-y,-z
x,-y,z
1/2+x,1/2+y,z
1/2-x,1/2+y,-z
1/2-x,1/2-y,-z
1/2+x,1/2-y,z
loop_
_atom_site_type_symbol
_atom_site_label
_atom_site_fract_x
_atom_site_fract_y
_atom_site_fract_z
Si Si1 0.782009 0.315271 0.612890
Si Si2 0.557501 0.313327 0.062765
Si Si3 0.959228 0.185747 0.128976
Si Si4 0.190311 0.687952 0.879613
Si Si5 0.210709 0.814891 0.204401
Si Si6 0.123559 0.313914 0.753072
Si Si7 0.189089 0.686563 0.584246
Si Si8 0.849941 0.314905 0.922577
O O1 0.782156 0.500000 0.620284
O O2 0.797959 0.241937 0.695626
O O3 0.809526 0.271288 0.516995
O O4 0.732441 0.257804 0.612008
O O5 0.560434 0.500000 0.064830
O O6 0.510183 0.267080 0.119449
O O7 0.599853 0.240999 0.091100
O O8 0.555830 0.267629 0.962172
O O9 0.924594 0.250617 0.209439
O O10 0.958220 0.000000 0.131528
O O11 0.190320 0.500000 0.878661
O O12 0.239912 0.738339 0.840390
O O13 0.156367 0.737868 0.817948
O O14 0.173698 0.737954 0.979690
O O15 0.176149 0.751028 0.148794
O O16 0.210306 0.000000 0.202670
O O17 0.121859 0.500000 0.756199
O O18 0.146496 0.267474 0.654974
O O19 0.193326 0.500000 0.588432
O O20 0.848602 0.500000 0.920974
#
# Coordination Sequence:
#
# PCOD9170151 Si02
#       8
#     8   8   8   8   8   8   8   8
#     4  10  19  31  48  71  94 123 163 203 236 276
#     4   9  18  33  48  66  95 129 159 193 241 285
#     4   9  18  31  48  70  96 124 159 198 235 283
#     4   9  18  31  46  66  96 130 163 196 229 274
#     4  11  21  35  50  65  94 134 166 197 242 284
#     4  10  17  30  49  71  97 128 160 192 236 286
#     4   9  18  32  49  68  97 129 156 193 243 289
#     4  11  21  33  48  70  95 124 168 208 232 271
#
# _framework density 15.677379
#
# number of rings (size 3 to 8) (size 9 to 14) (size 15 to 20)
#    0.000    2.250    2.500    2.250    0.000    1.500 
#    0.000    3.125    0.000    0.000    0.000    0.875 
#    0.000    7.000    0.000    0.000    0.000    0.000 
#
# Total GULP energy -178480.639301 kJ/mol
# GULP energy per Si atom -5577.519978 kJ/mol
# Density = 1.564170 g / cm^3
# Si number density = 15.677379 Si / 1000 Ang^3
#
#
#
# Elastic Constant Matrix: (Units=GPa)
#
#
# Indices 1 2 3 4 5 6 
#
# 1 104.8439 26.4292 76.4201 0.0000 -12.9945 0.0000
# 2 26.4292 21.9692 31.9669 0.0000 -3.4589 0.0000
# 3 76.4201 31.9669 128.4919 0.0000 -14.9754 0.0000
# 4 0.0000 0.0000 0.0000 20.6485 0.0000 -0.7308
# 5 -12.9945 -3.4589 -14.9754 0.0000 26.8163 0.0000
# 6 0.0000 0.0000 0.0000 -0.7308 0.0000 23.9229
#
#
#
# Elastic Compliance Matrix: (Units=1/GPa)
#
#
# Indices 1 2 3 4 5 6 
#
# 1 0.018263 -0.009723 -0.008084 0.000000 0.003081 0.000000
# 2 -0.009723 0.076536 -0.013538 0.000000 -0.002400 0.000000
# 3 -0.008084 -0.013538 0.016364 0.000000 0.003475 0.000000
# 4 0.000000 0.000000 0.000000 0.048482 0.000000 0.001481
# 5 0.003081 -0.002400 0.003475 0.000000 0.040415 0.000000
# 6 0.000000 0.000000 0.000000 0.001481 0.000000 0.041846
#
#
# Mechanical properties :
#
#
# Convention : Reuss Voigt Hill
#
# Bulk Modulus (GPa) = 20.62996 58.32637 39.47817
# Shear Modulus (GPa) = 15.58827 22.31011 18.94919
#
# Velocity S-wave (km/s) = 3.15670 3.77646 3.48040
# Velocity P-wave (km/s) = 5.14529 7.50336 6.43329
#
# Compressibility (1/GPa) = 0.04847318
#
# Stress axis : x y z
#
# Youngs Moduli (GPa) = 54.75490 13.06567 61.11156
#
# Poissons Ratio (x) = 0.12704 0.49402
# Poissons Ratio (y) = 0.53238 0.82734
# Poissons Ratio (z) = 0.44263 0.17688
#
# Static dielectric constant tensor:
#      x y z
#    x 1.501400 0.000000 -0.018800 
#    y 0.000000 1.530180 0.000000 
#    z -0.018800 0.000000 1.526660 
# 
# From -- ./inp_files/243969.got.cif
#   From: 2010.05.17/outbox.cif.g08.bks.cpg/sg12_122_cif.got.tgz:243969.got - 2010.06.03 13:09:07.
