data_PCOD9170783
_publ_section_title
;
Structure prediction by ZEFSAII (Michael W. Deem and Ramdas Pophale) SiO2 
 PCOD9170783
Probable space group: C 2/M
;
_chemical_formula_sum "Si O2"
_cell_formula_units_Z 56
_cell_length_a 18.546527
_cell_length_b 15.643847
_cell_length_c 22.059055
_cell_angle_alpha 90.000000
_cell_angle_beta 26.231814
_cell_angle_gamma 90.000000
_cell_volume 2828.910806
_symmetry_space_group_name_H-M "C 2/M"
_symmetry_group_IT_number 12
_symmetry_cell_setting 'monoclinic'
loop_
_space_group_symop_operation_xyz
x,y,z
-x,y,-z
-x,-y,-z
x,-y,z
1/2+x,1/2+y,z
1/2-x,1/2+y,-z
1/2-x,1/2-y,-z
1/2+x,1/2-y,z
loop_
_atom_site_type_symbol
_atom_site_label
_atom_site_fract_x
_atom_site_fract_y
_atom_site_fract_z
Si Si1 0.453521 0.825654 0.301356
Si Si2 0.911863 0.693300 0.128862
Si Si3 0.680406 0.158516 0.028517
Si Si4 0.485152 0.371925 0.734357
Si Si5 0.176057 0.767552 0.416159
Si Si6 0.091395 0.905136 0.344338
Si Si7 0.654713 0.904697 0.492958
O O1 0.576557 0.872995 0.163554
O O2 0.515986 0.731552 0.273535
O O3 0.297685 0.800994 0.377709
O O4 0.418071 0.880660 0.386679
O O5 0.788190 0.740136 0.270747
O O6 0.781940 0.621545 0.205312
O O7 0.059876 0.668042 0.061979
O O8 0.000000 0.727478 0.000000
O O9 0.750000 0.250000 0.000000
O O10 0.834823 0.106128 0.890675
O O11 0.460219 0.407545 0.686760
O O12 0.651396 0.398846 0.640721
O O13 0.113288 0.673371 0.480010
O O14 0.028690 0.835072 0.535279
O O15 0.071261 0.000000 0.385026
O O16 0.609458 0.000000 0.507802
#
# Coordination Sequence:
#
# PCOD9170783 Si02
#       7
#     8   8   8   8   8   8   8
#     4   9  17  33  59  86 116 154 206 253 297 351
#     4  11  23  39  59  86 118 161 205 250 298 361
#     4   9  19  36  60  84 117 160 206 248 296 357
#     4  10  17  34  56  86 122 159 198 241 298 362
#     4  10  21  39  59  84 120 165 206 248 302 360
#     4  12  23  37  58  86 122 163 199 236 302 375
#     4  11  20  35  61  92 121 155 208 261 301 350
#
# _framework density 19.795604000000001
#
# number of rings (size 3 to 8) (size 9 to 14) (size 15 to 20)
#    0.000    1.714    4.286    2.571    0.000    1.429 
#    0.000    3.571    0.000    2.143    0.000    0.000 
#    0.000    0.000    0.000    0.000    0.000    0.000 
#
# Total GULP energy -155930.938784 kJ/mol
# GULP energy per Si atom -5568.962099 kJ/mol
# Density = 1.975055 g / cm^3
# Si number density = 19.795604 Si / 1000 Ang^3
#
#
#
# Elastic Constant Matrix: (Units=GPa)
#
#
# Indices 1 2 3 4 5 6 
#
# 1 68.5753 19.6956 30.5393 0.0014 5.4120 -0.0012
# 2 19.6956 111.3699 41.8275 0.0074 8.1228 -0.0026
# 3 30.5393 41.8275 137.4344 0.0088 22.4311 -0.0049
# 4 0.0014 0.0074 0.0088 0.2666 -0.0025 0.6244
# 5 5.4120 8.1228 22.4311 -0.0025 41.9362 -0.0005
# 6 -0.0012 -0.0026 -0.0049 0.6244 -0.0005 19.4704
#
#
#
# Elastic Compliance Matrix: (Units=1/GPa)
#
#
# Indices 1 2 3 4 5 6 
#
# 1 0.016477 -0.001736 -0.003113 0.000070 -0.000125 -0.000002
# 2 -0.001736 0.010325 -0.002703 -0.000210 -0.000330 0.000007
# 3 -0.003113 -0.002703 0.009466 -0.000286 -0.004138 0.000011
# 4 0.000070 -0.000210 -0.000286 4.055930 0.000426 -0.130072
# 5 -0.000125 -0.000330 -0.004138 0.000426 0.026139 -0.000014
# 6 -0.000002 0.000007 0.000011 -0.130072 -0.000014 0.055531
#
#
# Mechanical properties :
#
#
# Convention : Reuss Voigt Hill
#
# Bulk Modulus (GPa) = 47.24629 55.72273 51.48451
# Shear Modulus (GPa) = 1.19160 27.35579 14.27369
#
# Velocity S-wave (km/s) = 0.77670 3.72144 2.68816
# Velocity P-wave (km/s) = 4.97225 6.83196 5.97490
#
# Compressibility (1/GPa) = 0.02116568
#
# Stress axis : x y z
#
# Youngs Moduli (GPa) = 60.69021 96.84980 105.64298
#
# Poissons Ratio (x) = 0.16811 0.32883
# Poissons Ratio (y) = 0.10535 0.28553
# Poissons Ratio (z) = 0.18891 0.26177
#
# Static dielectric constant tensor:
#      x y z
#    x 1.730560 0.000010 0.008370 
#    y 0.000010 1.987490 0.000010 
#    z 0.008370 0.000010 1.751640 
# 
# From -- ./inp_files/316721.got.cif
#   From: 2010.05.17/outbox.cif.g08.bks.cpg/sg12_159_cif.got.tgz:316721.got - 2010.06.03 13:09:07.
