data_PCOD9170062
_publ_section_title
;
Structure prediction by ZEFSAII (Michael W. Deem and Ramdas Pophale) SiO2 
 PCOD9170062
Probable space group: C 2/M
;
_chemical_formula_sum "Si O2"
_cell_formula_units_Z 64
_cell_length_a 24.508221
_cell_length_b 8.774844
_cell_length_c 19.866105
_cell_angle_alpha 90.000000
_cell_angle_beta 126.241791
_cell_angle_gamma 90.000000
_cell_volume 3445.752471
_symmetry_space_group_name_H-M "C 2/M"
_symmetry_group_IT_number 12
_symmetry_cell_setting 'monoclinic'
loop_
_space_group_symop_operation_xyz
x,y,z
-x,y,-z
-x,-y,-z
x,-y,z
1/2+x,1/2+y,z
1/2-x,1/2+y,-z
1/2-x,1/2-y,-z
1/2+x,1/2-y,z
loop_
_atom_site_type_symbol
_atom_site_label
_atom_site_fract_x
_atom_site_fract_y
_atom_site_fract_z
Si Si1 0.895258 0.314711 0.955146
Si Si2 0.974927 0.685112 0.877397
Si Si3 0.897274 0.677756 0.455615
Si Si4 0.532670 0.678658 0.372747
Si Si5 0.257849 0.681078 0.663957
Si Si6 0.748747 0.183048 0.191411
Si Si7 0.885401 0.317270 0.686386
Si Si8 0.607122 0.180040 0.708401
O O1 0.894794 0.500000 0.956058
O O2 0.928799 0.271088 0.907890
O O3 0.817362 0.266380 0.898795
O O4 0.948543 0.263577 0.050773
O O5 0.975843 0.500000 0.877175
O O6 0.939283 0.733915 0.783010
O O7 0.914360 0.500000 0.480746
O O8 0.945448 0.780725 0.535302
O O9 0.818802 0.704777 0.417186
O O10 0.900443 0.702750 0.377921
O O11 0.535592 0.500000 0.363364
O O12 0.585526 0.763387 0.363108
O O13 0.457229 0.740629 0.305365
O O14 0.266436 0.500000 0.680389
O O15 0.263541 0.763178 0.740539
O O16 0.313971 0.745396 0.654939
O O17 0.819758 0.252928 0.219857
O O18 0.753065 0.000000 0.193780
O O19 0.879885 0.500000 0.684170
O O20 0.605696 0.000000 0.720225
#
# Coordination Sequence:
#
# PCOD9170062 Si02
#       8
#     8   8   8   8   8   8   8   8
#     4   8  13  24  47  80 111 134 169 213 254 302
#     4   8  14  26  47  77 108 139 172 210 253 302
#     4   9  20  38  58  78 102 134 171 216 265 310
#     4  12  25  38  54  77 103 136 176 220 265 313
#     4  10  20  34  52  77 110 142 173 213 261 310
#     4  10  17  29  53  83 110 138 172 215 262 309
#     4  11  21  35  55  76 105 145 181 214 257 314
#     4  10  21  38  58  79 105 136 172 219 264 308
#
# _framework density 18.573592999999999
#
# number of rings (size 3 to 8) (size 9 to 14) (size 15 to 20)
#    0.000    2.250    1.250    4.500    0.000    5.000 
#    0.000    0.000    0.000    4.500    0.000    0.000 
#    0.000    0.000    0.000    0.000    0.000    0.000 
#
# Total GULP energy -178552.399222 kJ/mol
# GULP energy per Si atom -5579.762476 kJ/mol
# Density = 1.853132 g / cm^3
# Si number density = 18.573593 Si / 1000 Ang^3
#
#
#
# Elastic Constant Matrix: (Units=GPa)
#
#
# Indices 1 2 3 4 5 6 
#
# 1 64.0155 19.5128 4.5953 0.0000 25.9594 0.0000
# 2 19.5128 41.6209 21.9651 0.0000 13.2165 0.0000
# 3 4.5953 21.9651 40.6342 0.0000 21.2613 0.0000
# 4 0.0000 0.0000 0.0000 2.6344 0.0000 -1.2698
# 5 25.9594 13.2165 21.2613 0.0000 26.1671 0.0000
# 6 0.0000 0.0000 0.0000 -1.2698 0.0000 20.1962
#
#
#
# Elastic Compliance Matrix: (Units=1/GPa)
#
#
# Indices 1 2 3 4 5 6 
#
# 1 0.050860 -0.024664 0.047773 0.000000 -0.076815 0.000000
# 2 -0.024664 0.045801 -0.039431 0.000000 0.033373 0.000000
# 3 0.047773 -0.039431 0.095500 0.000000 -0.105074 0.000000
# 4 0.000000 0.000000 0.000000 0.391451 0.000000 0.024612
# 5 -0.076815 0.033373 -0.105074 0.000000 0.182940 0.000000
# 6 0.000000 0.000000 0.000000 0.024612 0.000000 0.051062
#
#
# Mechanical properties :
#
#
# Convention : Reuss Voigt Hill
#
# Bulk Modulus (GPa) = 6.26888 26.49077 16.37982
# Shear Modulus (GPa) = 5.53447 16.47938 11.00692
#
# Velocity S-wave (km/s) = 1.72807 2.98190 2.43700
# Velocity P-wave (km/s) = 2.71369 5.11363 4.09349
#
# Compressibility (1/GPa) = 0.15951824
#
# Stress axis : x y z
#
# Youngs Moduli (GPa) = 19.66200 21.83352 10.47117
#
# Poissons Ratio (x) = 0.53849 -0.50024
# Poissons Ratio (y) = 0.48493 0.41289
# Poissons Ratio (z) = -0.93931 0.86091
#
# Static dielectric constant tensor:
#      x y z
#    x 1.637590 0.000000 0.020540 
#    y 0.000000 1.621180 0.000000 
#    z 0.020540 0.000000 1.659640 
# 
# From -- ./inp_files/324246.got.cif
#   From: 2010.05.17/outbox.cif.g08.bks.cpg/sg12_163_cif.got.tgz:324246.got - 2010.06.03 13:09:07.
