data_PCOD9170226
_publ_section_title
;
Structure prediction by ZEFSAII (Michael W. Deem and Ramdas Pophale) SiO2 
 PCOD9170226
Probable space group: C 2/M
;
_chemical_formula_sum "Si O2"
_cell_formula_units_Z 64
_cell_length_a 25.683829
_cell_length_b 8.533141
_cell_length_c 15.424445
_cell_angle_alpha 90.000000
_cell_angle_beta 100.365284
_cell_angle_gamma 90.000000
_cell_volume 3325.311808
_symmetry_space_group_name_H-M "C 2/M"
_symmetry_group_IT_number 12
_symmetry_cell_setting 'monoclinic'
loop_
_space_group_symop_operation_xyz
x,y,z
-x,y,-z
-x,-y,-z
x,-y,z
1/2+x,1/2+y,z
1/2-x,1/2+y,-z
1/2-x,1/2-y,-z
1/2+x,1/2-y,z
loop_
_atom_site_type_symbol
_atom_site_label
_atom_site_fract_x
_atom_site_fract_y
_atom_site_fract_z
Si Si1 0.947950 0.673236 0.926683
Si Si2 0.385439 0.188540 0.669399
Si Si3 0.386349 0.811342 0.178756
Si Si4 0.191281 0.814117 0.501655
Si Si5 0.693405 0.810837 0.691144
Si Si6 0.808893 0.189871 0.795220
Si Si7 0.352918 0.679614 0.983520
Si Si8 0.995598 0.317693 0.749615
O O1 0.922506 0.500000 0.930730
O O2 0.968935 0.684943 0.836303
O O3 0.908059 0.803262 0.947682
O O4 0.000000 0.677192 0.000000
O O5 0.349786 0.241463 0.578484
O O6 0.355544 0.246880 0.747544
O O7 0.446342 0.248218 0.679402
O O8 0.387352 0.000000 0.674181
O O9 0.346291 0.769095 0.243389
O O10 0.363641 0.759027 0.078931
O O11 0.445479 0.749983 0.220221
O O12 0.390349 0.000000 0.175400
O O13 0.250000 0.750000 0.500000
O O14 0.178351 0.766951 0.596090
O O15 0.191656 0.000000 0.490647
O O16 0.752983 0.765439 0.736288
O O17 0.692551 0.000000 0.680420
O O18 0.812222 0.000000 0.796840
O O19 0.813173 0.242958 0.897135
O O20 0.339163 0.500000 0.996382
O O21 0.003113 0.500000 0.725129
#
# Coordination Sequence:
#
# PCOD9170226 Si02
#       8
#     8   8   8   8   8   8   8   8
#     4  10  17  30  52  76 107 145 193 243 283 331
#     4  11  21  35  60  92 118 147 188 240 298 348
#     4  10  21  40  61  81 112 160 206 244 282 335
#     4  12  24  40  64  92 121 148 184 236 293 351
#     4  10  22  41  64  85 111 152 201 244 290 344
#     4  10  21  36  54  83 121 153 188 242 295 344
#     4  11  22  33  50  82 122 157 194 240 294 347
#     4   9  18  33  56  85 115 148 196 245 286 337
#
# _framework density 19.246314999999999
#
# number of rings (size 3 to 8) (size 9 to 14) (size 15 to 20)
#    0.000    1.625    3.750    1.875    0.000    1.750 
#    0.000    1.875    0.000    3.750    0.000    0.000 
#    0.000    0.000    0.000    0.000    0.000    0.000 
#
# Total GULP energy -178479.182025 kJ/mol
# GULP energy per Si atom -5577.474438 kJ/mol
# Density = 1.920251 g / cm^3
# Si number density = 19.246315 Si / 1000 Ang^3
#
#
#
# Elastic Constant Matrix: (Units=GPa)
#
#
# Indices 1 2 3 4 5 6 
#
# 1 67.9986 18.4074 55.7279 0.0000 11.8254 0.0000
# 2 18.4074 27.3581 25.7212 0.0000 2.5217 0.0000
# 3 55.7279 25.7212 128.2005 0.0000 21.2874 0.0000
# 4 0.0000 0.0000 0.0000 24.4401 0.0000 -4.2498
# 5 11.8254 2.5217 21.2874 0.0000 33.0600 0.0000
# 6 0.0000 0.0000 0.0000 -4.2498 0.0000 10.9664
#
#
#
# Elastic Compliance Matrix: (Units=1/GPa)
#
#
# Indices 1 2 3 4 5 6 
#
# 1 0.024339 -0.008129 -0.008517 0.000000 -0.002602 0.000000
# 2 -0.008129 0.047976 -0.006682 0.000000 0.003550 0.000000
# 3 -0.008517 -0.006682 0.013720 0.000000 -0.005278 0.000000
# 4 0.000000 0.000000 0.000000 0.043873 0.000000 0.017002
# 5 -0.002602 0.003550 -0.005278 0.000000 0.034306 0.000000
# 6 0.000000 0.000000 0.000000 0.017002 0.000000 0.097776
#
#
# Mechanical properties :
#
#
# Convention : Reuss Voigt Hill
#
# Bulk Modulus (GPa) = 25.39372 47.03001 36.21186
# Shear Modulus (GPa) = 15.53896 21.94003 18.73950
#
# Velocity S-wave (km/s) = 2.84451 3.37999 3.12375
# Velocity P-wave (km/s) = 4.90011 6.30249 5.64502
#
# Compressibility (1/GPa) = 0.03937981
#
# Stress axis : x y z
#
# Youngs Moduli (GPa) = 41.08565 20.84369 72.88855
#
# Poissons Ratio (x) = 0.16944 0.62081
# Poissons Ratio (y) = 0.33398 0.48701
# Poissons Ratio (z) = 0.34994 0.13927
#
# Static dielectric constant tensor:
#      x y z
#    x 1.686890 0.000000 0.044210 
#    y 0.000000 1.699820 0.000000 
#    z 0.044210 0.000000 1.690390 
# 
# From -- ./inp_files/244076.got.cif
#   From: 2010.05.17/outbox.cif.g08.bks.cpg/sg12_123_cif.got.tgz:244076.got - 2010.06.03 13:09:07.
