data_PCOD9170143
_publ_section_title
;
Structure prediction by ZEFSAII (Michael W. Deem and Ramdas Pophale) SiO2 
 PCOD9170143
Probable space group: C 2/M
;
_chemical_formula_sum "Si O2"
_cell_formula_units_Z 56
_cell_length_a 26.052109
_cell_length_b 7.418794
_cell_length_c 22.776640
_cell_angle_alpha 90.000000
_cell_angle_beta 138.745354
_cell_angle_gamma 90.000000
_cell_volume 2902.814362
_symmetry_space_group_name_H-M "C 2/M"
_symmetry_group_IT_number 12
_symmetry_cell_setting 'monoclinic'
loop_
_space_group_symop_operation_xyz
x,y,z
-x,y,-z
-x,-y,-z
x,-y,z
1/2+x,1/2+y,z
1/2-x,1/2+y,-z
1/2-x,1/2-y,-z
1/2+x,1/2-y,z
loop_
_atom_site_type_symbol
_atom_site_label
_atom_site_fract_x
_atom_site_fract_y
_atom_site_fract_z
Si Si1 0.755551 0.293342 0.375623
Si Si2 0.375665 0.719199 0.905412
Si Si3 0.094340 0.220622 0.291062
Si Si4 0.290307 0.779324 0.274605
Si Si5 0.963974 0.282444 0.406830
Si Si6 0.093364 0.789212 0.422306
Si Si7 0.012302 0.780731 0.104777
O O1 0.733560 0.500000 0.343823
O O2 0.679987 0.218492 0.343282
O O3 0.777836 0.217352 0.331215
O O4 0.831044 0.292337 0.481445
O O5 0.375602 0.500000 0.905949
O O6 0.286308 0.777321 0.826834
O O7 0.419981 0.771468 0.883260
O O8 0.430730 0.778417 0.006235
O O9 0.079510 0.280921 0.344701
O O10 0.034249 0.278335 0.188859
O O11 0.092508 0.000000 0.290421
O O12 0.374819 0.720427 0.325274
O O13 0.292163 0.000000 0.276001
O O14 0.963580 0.500000 0.408655
O O15 0.000000 0.220482 0.500000
O O16 0.019627 0.231569 0.401262
O O17 0.111707 0.000000 0.433203
O O18 0.011547 0.000000 0.104256
#
# Coordination Sequence:
#
# PCOD9170143 Si02
#       7
#     8   8   8   8   8   8   8
#     4  10  17  30  49  67  91 123 152 182 221 268
#     4   8  12  19  37  66  92 113 139 181 228 267
#     4   9  17  28  43  64  94 127 150 176 223 277
#     4   9  15  25  44  67  89 112 147 188 227 263
#     4  10  19  33  50  65  83 119 161 193 225 262
#     4  11  22  32  43  65  95 125 155 185 222 268
#     4   8  12  20  37  63  94 118 138 172 227 276
#
# _framework density 19.291623999999999
#
# number of rings (size 3 to 8) (size 9 to 14) (size 15 to 20)
#    0.000    2.714    2.857    1.714    0.000    0.286 
#    0.000    0.714    0.000    0.857    0.000    0.000 
#    0.000    6.857    0.000    0.000    0.000    0.143 
#
# Total GULP energy -156206.798210 kJ/mol
# GULP energy per Si atom -5578.814222 kJ/mol
# Density = 1.924772 g / cm^3
# Si number density = 19.291624 Si / 1000 Ang^3
#
#
#
# Elastic Constant Matrix: (Units=GPa)
#
#
# Indices 1 2 3 4 5 6 
#
# 1 114.1822 -6.2006 75.9661 0.0000 -11.4094 0.0000
# 2 -6.2006 57.7208 -8.9611 0.0000 0.7960 0.0000
# 3 75.9661 -8.9611 165.2189 0.0000 0.6318 0.0000
# 4 0.0000 0.0000 0.0000 -7.9065 0.0000 -9.8468
# 5 -11.4094 0.7960 0.6318 0.0000 24.9223 0.0000
# 6 0.0000 0.0000 0.0000 -9.8468 0.0000 -8.3494
#
#
#
# Elastic Compliance Matrix: (Units=1/GPa)
#
#
# Indices 1 2 3 4 5 6 
#
# 1 0.013567 0.000401 -0.006240 0.000000 0.006356 0.000000
# 2 0.000401 0.017492 0.000766 0.000000 -0.000395 0.000000
# 3 -0.006240 0.000766 0.008975 0.000000 -0.003109 0.000000
# 4 0.000000 0.000000 0.000000 0.269813 0.000000 -0.318201
# 5 0.006356 -0.000395 -0.003109 0.000000 0.043126 0.000000
# 6 0.000000 0.000000 0.000000 -0.318201 0.000000 0.255500
#
#
# Mechanical properties :
#
#
# Convention : Reuss Voigt Hill
#
# Bulk Modulus (GPa) = 33.45938 50.97006 42.21472
# Shear Modulus (GPa) = 7.95442 20.15443 14.05443
#
# Velocity S-wave (km/s) = 2.03278 3.23573 2.70205
# Velocity P-wave (km/s) = 4.78448 6.35909 5.62714
#
# Compressibility (1/GPa) = 0.02988699
#
# Stress axis : x y z
#
# Youngs Moduli (GPa) = 73.71060 57.16838 111.41742
#
# Poissons Ratio (x) = -0.02292 0.69528
# Poissons Ratio (y) = -0.02955 -0.08533
# Poissons Ratio (z) = 0.45998 -0.04379
#
# Static dielectric constant tensor:
#      x y z
#    x 1.637740 0.000000 -0.003790 
#    y 0.000000 1.774590 0.000000 
#    z -0.003790 0.000000 1.675420 
# 
# From -- ./inp_files/291682.got.cif
#   From: 2010.05.17/outbox.cif.g08.bks.cpg/sg12_146_cif.got.tgz:291682.got - 2010.06.03 13:09:07.
