data_PCOD9170973
_publ_section_title
;
Structure prediction by ZEFSAII (Michael W. Deem and Ramdas Pophale) SiO2 
 PCOD9170973
Probable space group: C 2/M
;
_chemical_formula_sum "Si O2"
_cell_formula_units_Z 64
_cell_length_a 15.230731
_cell_length_b 23.112092
_cell_length_c 12.580294
_cell_angle_alpha 90.000000
_cell_angle_beta 117.221055
_cell_angle_gamma 90.000000
_cell_volume 3937.983198
_symmetry_space_group_name_H-M "C 2/M"
_symmetry_group_IT_number 12
_symmetry_cell_setting 'monoclinic'
loop_
_space_group_symop_operation_xyz
x,y,z
-x,y,-z
-x,-y,-z
x,-y,z
1/2+x,1/2+y,z
1/2-x,1/2+y,-z
1/2-x,1/2-y,-z
1/2+x,1/2-y,z
loop_
_atom_site_type_symbol
_atom_site_label
_atom_site_fract_x
_atom_site_fract_y
_atom_site_fract_z
Si Si1 0.126130 0.315721 0.391580
Si Si2 0.281857 0.067739 0.538180
Si Si3 0.166184 0.103723 0.268502
Si Si4 0.953269 0.237413 0.357196
Si Si5 0.249101 0.771746 0.334543
Si Si6 0.054001 0.123630 0.783404
Si Si7 0.106689 0.930953 0.600456
Si Si8 0.111523 0.064473 0.016376
O O1 0.134219 0.384803 0.393573
O O2 0.177239 0.281434 0.322836
O O3 0.193524 0.294211 0.528038
O O4 0.017577 0.291577 0.353324
O O5 0.239656 0.076780 0.395973
O O6 0.193148 0.086695 0.568649
O O7 0.305116 0.000000 0.567810
O O8 0.188022 0.171948 0.266457
O O9 0.174321 0.075884 0.156874
O O10 0.055239 0.097119 0.254807
O O11 0.838482 0.251931 0.309217
O O12 0.963543 0.186753 0.276280
O O13 0.000000 0.221716 0.500000
O O14 0.113032 0.091105 0.723261
O O15 0.112232 0.112985 0.925390
O O16 0.000000 0.910782 0.500000
O O17 0.106050 0.000000 0.599414
O O18 0.130972 0.000000 0.983179
O O19 0.000000 0.064693 0.000000
#
# Coordination Sequence:
#
# PCOD9170973 Si02
#       8
#     8   8   8   8   8   8   8   8
#     4   9  17  30  44  68  96 123 154 189 237 284
#     4  10  19  29  46  69  95 125 156 192 232 281
#     4  10  18  30  47  65  94 124 162 187 225 278
#     4  10  19  29  48  69  95 122 154 197 244 275
#     4   9  17  29  47  69  91 123 158 195 230 284
#     4  11  18  28  45  66  93 128 153 189 230 284
#     4  10  18  25  39  67  97 120 147 185 229 281
#     4   9  19  31  44  63  92 129 159 186 223 275
#
# _framework density 16.251974000000001
#
# number of rings (size 3 to 8) (size 9 to 14) (size 15 to 20)
#    0.000    2.250    2.500    1.875    1.750    1.000 
#    0.000    0.625    0.000   10.125    0.000    0.000 
#    0.000    0.000    0.000    6.750    0.000    1.250 
#
# Total GULP energy -178173.982403 kJ/mol
# GULP energy per Si atom -5567.936950 kJ/mol
# Density = 1.621498 g / cm^3
# Si number density = 16.251974 Si / 1000 Ang^3
#
#
#
# Elastic Constant Matrix: (Units=GPa)
#
#
# Indices 1 2 3 4 5 6 
#
# 1 49.1876 26.2747 22.3317 0.0000 -10.6592 0.0000
# 2 26.2747 78.9086 23.9163 0.0000 -9.4399 0.0000
# 3 22.3317 23.9163 60.9464 0.0000 -17.5828 0.0000
# 4 0.0000 0.0000 0.0000 13.6781 0.0000 -1.2483
# 5 -10.6592 -9.4399 -17.5828 0.0000 12.0392 0.0000
# 6 0.0000 0.0000 0.0000 -1.2483 0.0000 18.0752
#
#
#
# Elastic Compliance Matrix: (Units=1/GPa)
#
#
# Indices 1 2 3 4 5 6 
#
# 1 0.028791 -0.006704 -0.003597 0.000000 0.014981 0.000000
# 2 -0.006704 0.016139 -0.003350 0.000000 0.001827 0.000000
# 3 -0.003597 -0.003350 0.030007 0.000000 0.038013 0.000000
# 4 0.000000 0.000000 0.000000 0.073573 0.000000 0.005081
# 5 0.014981 0.001827 0.038013 0.000000 0.153274 0.000000
# 6 0.000000 0.000000 0.000000 0.005081 0.000000 0.055675
#
#
# Mechanical properties :
#
#
# Convention : Reuss Voigt Hill
#
# Bulk Modulus (GPa) = 20.99273 37.12089 29.05681
# Shear Modulus (GPa) = 12.48008 16.52652 14.50330
#
# Velocity S-wave (km/s) = 2.77413 3.19234 2.99055
# Velocity P-wave (km/s) = 4.81727 6.03974 5.46281
#
# Compressibility (1/GPa) = 0.04763554
#
# Stress axis : x y z
#
# Youngs Moduli (GPa) = 34.73308 61.96141 33.32600
#
# Poissons Ratio (x) = 0.41542 0.11986
# Poissons Ratio (y) = 0.23287 0.11163
# Poissons Ratio (z) = 0.12492 0.20755
#
# Static dielectric constant tensor:
#      x y z
#    x 1.544170 0.000000 -0.018470 
#    y 0.000000 1.577240 0.000000 
#    z -0.018470 0.000000 1.555080 
# 
# From -- ./inp_files/148659.got.cif
#   From: 2010.05.17/outbox.cif.g08.bks.cpg/sg12_75_cif.got.tgz:148659.got - 2010.06.03 13:09:07.
