data_PCOD9170714
_publ_section_title
;
Structure prediction by ZEFSAII (Michael W. Deem and Ramdas Pophale) SiO2 
 PCOD9170714
Probable space group: C 2/M
;
_chemical_formula_sum "Si O2"
_cell_formula_units_Z 64
_cell_length_a 22.945570
_cell_length_b 17.948965
_cell_length_c 8.895947
_cell_angle_alpha 90.000000
_cell_angle_beta 70.426522
_cell_angle_gamma 90.000000
_cell_volume 3452.068224
_symmetry_space_group_name_H-M "C 2/M"
_symmetry_group_IT_number 12
_symmetry_cell_setting 'monoclinic'
loop_
_space_group_symop_operation_xyz
x,y,z
-x,y,-z
-x,-y,-z
x,-y,z
1/2+x,1/2+y,z
1/2-x,1/2+y,-z
1/2-x,1/2-y,-z
1/2+x,1/2-y,z
loop_
_atom_site_type_symbol
_atom_site_label
_atom_site_fract_x
_atom_site_fract_y
_atom_site_fract_z
Si Si1 0.312140 0.718755 0.022031
Si Si2 0.001056 0.859383 0.178844
Si Si3 0.123230 0.689382 0.477532
Si Si4 0.374165 0.362528 0.449732
Si Si5 0.481163 0.915291 0.338045
Si Si6 0.069246 0.706411 0.188575
Si Si7 0.375074 0.416142 0.791535
Si Si8 0.738525 0.322863 0.612476
O O1 0.370350 0.775020 0.961553
O O2 0.334360 0.645691 0.912072
O O3 0.250000 0.750000 0.000000
O O4 0.296446 0.699724 0.205825
O O5 0.934845 0.882581 0.302456
O O6 0.021543 0.775182 0.209456
O O7 0.056188 0.908530 0.199564
O O8 0.000000 0.862859 0.000000
O O9 0.124543 0.772335 0.543272
O O10 0.080115 0.634694 0.609356
O O11 0.094446 0.702831 0.337428
O O12 0.191623 0.654490 0.407208
O O13 0.377719 0.395097 0.613592
O O14 0.307505 0.378912 0.433257
O O15 0.500000 0.916627 0.500000
O O16 0.533106 0.870641 0.200442
O O17 0.472945 0.000000 0.296574
O O18 0.352000 0.500000 0.831334
O O19 0.750000 0.250000 0.500000
#
# Coordination Sequence:
#
# PCOD9170714 Si02
#       8
#     8   8   8   8   8   8   8   8
#     4  11  19  38  64  90 118 160 205 254 306 370
#     4  11  22  36  60  91 118 161 209 256 309 377
#     4  10  17  33  58  88 118 157 201 253 296 363
#     4  11  19  36  59  87 120 158 205 248 303 374
#     4   9  18  31  54  88 122 154 196 252 305 355
#     4  10  18  32  59  87 119 152 204 252 305 365
#     4  11  25  41  61  90 122 159 203 258 323 374
#     4  10  21  35  59  95 120 153 209 253 300 366
#
# _framework density 18.539612000000002
#
# number of rings (size 3 to 8) (size 9 to 14) (size 15 to 20)
#    0.000    1.625    5.000    2.625    0.000    1.250 
#    0.000    3.750    0.000    0.375    0.000    0.000 
#    0.000    0.000    0.000    0.000    0.000    0.000 
#
# Total GULP energy -178477.442384 kJ/mol
# GULP energy per Si atom -5577.420074 kJ/mol
# Density = 1.849741 g / cm^3
# Si number density = 18.539612 Si / 1000 Ang^3
#
#
#
# Elastic Constant Matrix: (Units=GPa)
#
#
# Indices 1 2 3 4 5 6 
#
# 1 74.5447 11.0061 57.5336 0.0000 -9.6247 0.0000
# 2 11.0061 81.0858 28.2484 0.0000 -13.4662 0.0000
# 3 57.5336 28.2484 115.8306 0.0000 -6.7138 0.0000
# 4 0.0000 0.0000 0.0000 3.3562 0.0000 -8.8295
# 5 -9.6247 -13.4662 -6.7138 0.0000 38.7968 0.0000
# 6 0.0000 0.0000 0.0000 -8.8295 0.0000 9.6314
#
#
#
# Elastic Compliance Matrix: (Units=1/GPa)
#
#
# Indices 1 2 3 4 5 6 
#
# 1 0.022427 0.001577 -0.011283 0.000000 0.004159 0.000000
# 2 0.001577 0.014285 -0.003997 0.000000 0.004658 0.000000
# 3 -0.011283 -0.003997 0.015122 0.000000 -0.001570 0.000000
# 4 0.000000 0.000000 0.000000 -0.211052 0.000000 -0.193480
# 5 0.004159 0.004658 -0.001570 0.000000 0.028152 0.000000
# 6 0.000000 0.000000 0.000000 -0.193480 0.000000 -0.073544
#
#
# Mechanical properties :
#
#
# Convention : Reuss Voigt Hill
#
# Bulk Modulus (GPa) = 40.93816 51.67081 46.30448
# Shear Modulus (GPa) = -29.57510 22.00176 -3.78667
#
# Velocity S-wave (km/s) = -3.99838 3.44865 -1.43070
# Velocity P-wave (km/s) = 0.90187 6.61729 4.72239
#
# Compressibility (1/GPa) = 0.02442709
#
# Stress axis : x y z
#
# Youngs Moduli (GPa) = 44.58848 70.00569 66.13044
#
# Poissons Ratio (x) = -0.11042 0.74617
# Poissons Ratio (y) = -0.07033 0.26433
# Poissons Ratio (z) = 0.50311 0.27982
#
# Static dielectric constant tensor:
#      x y z
#    x 1.700200 0.000000 0.025470 
#    y 0.000000 1.633460 0.000000 
#    z 0.025470 0.000000 1.632000 
# 
# From -- ./inp_files/89150.got.cif
#   From: 2010.05.17/outbox.cif.g08.bks.cpg/sg12_45_cif.got.tgz:89150.got - 2010.06.03 13:09:07.
