data_PCOD9170583
_publ_section_title
;
Structure prediction by ZEFSAII (Michael W. Deem and Ramdas Pophale) SiO2 
 PCOD9170583
Probable space group: C 2/M
;
_chemical_formula_sum "Si O2"
_cell_formula_units_Z 64
_cell_length_a 22.421819
_cell_length_b 7.423980
_cell_length_c 17.059291
_cell_angle_alpha 90.000000
_cell_angle_beta 61.552707
_cell_angle_gamma 90.000000
_cell_volume 2496.800242
_symmetry_space_group_name_H-M "C 2/M"
_symmetry_group_IT_number 12
_symmetry_cell_setting 'monoclinic'
loop_
_space_group_symop_operation_xyz
x,y,z
-x,y,-z
-x,-y,-z
x,-y,z
1/2+x,1/2+y,z
1/2-x,1/2+y,-z
1/2-x,1/2-y,-z
1/2+x,1/2-y,z
loop_
_atom_site_type_symbol
_atom_site_label
_atom_site_fract_x
_atom_site_fract_y
_atom_site_fract_z
Si Si1 0.795199 0.710722 0.141037
Si Si2 0.839127 0.283802 0.852831
Si Si3 0.304498 0.702465 0.302121
Si Si4 0.411395 0.219232 0.647192
Si Si5 0.671969 0.220212 0.453730
Si Si6 0.049092 0.279688 0.627354
Si Si7 0.085090 0.719609 0.034787
Si Si8 0.458125 0.208711 0.195911
O O1 0.800848 0.500000 0.155305
O O2 0.739116 0.731195 0.108614
O O3 0.770980 0.800953 0.236468
O O4 0.867167 0.783838 0.065434
O O5 0.842387 0.500000 0.850991
O O6 0.876287 0.221505 0.750158
O O7 0.876597 0.227888 0.908567
O O8 0.318757 0.500000 0.318459
O O9 0.249053 0.785284 0.395142
O O10 0.377347 0.787332 0.240144
O O11 0.370622 0.277108 0.596401
O O12 0.490266 0.271741 0.603842
O O13 0.410395 0.000000 0.646408
O O14 0.624508 0.275848 0.555352
O O15 0.675690 0.000000 0.451133
O O16 0.050350 0.500000 0.628425
O O17 0.028678 0.213847 0.726106
O O18 0.086945 0.500000 0.024726
O O19 0.007403 0.778974 0.096960
O O20 0.478202 0.000000 0.188594
#
# Coordination Sequence:
#
# PCOD9170583 Si02
#       8
#     8   8   8   8   8   8   8   8
#     4  11  22  36  55  81 109 142 180 220 265 319
#     4  10  17  32  57  84 112 143 172 211 268 321
#     4  11  23  39  55  75 107 144 181 226 273 316
#     4   9  14  25  50  81 109 137 169 211 259 311
#     4   9  17  29  49  80 111 138 172 217 264 312
#     4   9  16  28  52  83 109 135 175 218 260 316
#     4   9  19  35  57  82 110 141 177 219 266 317
#     4  10  20  37  58  79 104 139 183 228 267 311
#
# _framework density 25.632808000000001
#
# number of rings (size 3 to 8) (size 9 to 14) (size 15 to 20)
#    0.000    2.250    2.500    1.500    0.000    2.500 
#    0.000    5.000    0.000    0.750    0.000    0.875 
#    0.000    0.000    0.000    0.000    0.000    0.000 
#
# Total GULP energy -178869.754565 kJ/mol
# GULP energy per Si atom -5589.679830 kJ/mol
# Density = 2.557447 g / cm^3
# Si number density = 25.632808 Si / 1000 Ang^3
#
#
#
# Elastic Constant Matrix: (Units=GPa)
#
#
# Indices 1 2 3 4 5 6 
#
# 1 74.5331 -5.7181 13.3124 0.0000 -29.9163 0.0006
# 2 -5.7181 84.3320 5.6059 0.0003 0.0804 -0.0003
# 3 13.3124 5.6059 147.2288 -0.0001 -47.3576 0.0002
# 4 0.0000 0.0003 -0.0001 -0.1346 0.0000 -1.5736
# 5 -29.9163 0.0804 -47.3576 0.0000 47.0927 0.0000
# 6 0.0006 -0.0003 0.0002 -1.5736 0.0000 11.0750
#
#
#
# Elastic Compliance Matrix: (Units=1/GPa)
#
#
# Indices 1 2 3 4 5 6 
#
# 1 0.019069 0.001069 0.003150 0.000002 0.015280 -0.000001
# 2 0.001069 0.011964 -0.000503 0.000008 0.000153 0.000001
# 3 0.003150 -0.000503 0.010599 -0.000002 0.012660 -0.000001
# 4 0.000002 0.000008 -0.000002 -2.791846 -0.000001 -0.396671
# 5 0.015280 0.000153 0.012660 -0.000001 0.043673 -0.000001
# 6 -0.000001 0.000001 -0.000001 -0.396671 -0.000001 0.033934
#
#
# Mechanical properties :
#
#
# Convention : Reuss Voigt Hill
#
# Bulk Modulus (GPa) = 20.38162 36.94381 28.66271
# Shear Modulus (GPa) = -1.87710 31.13287 14.62788
#
# Velocity S-wave (km/s) = -0.85668 3.48885 2.39146
# Velocity P-wave (km/s) = 2.64388 5.53836 4.33956
#
# Compressibility (1/GPa) = 0.04906382
#
# Stress axis : x y z
#
# Youngs Moduli (GPa) = 52.44017 83.58636 94.35016
#
# Poissons Ratio (x) = -0.08936 -0.29720
# Poissons Ratio (y) = -0.05606 0.04746
# Poissons Ratio (z) = -0.16519 0.04205
#
# Static dielectric constant tensor:
#      x y z
#    x 2.048430 0.000000 -0.022300 
#    y 0.000000 2.005450 0.000000 
#    z -0.022300 0.000000 2.006340 
# 
# From -- ./inp_files/324128.got.cif
#   From: 2010.05.17/outbox.cif.g08.bks.cpg/sg12_163_cif.got.tgz:324128.got - 2010.06.03 13:09:07.
