data_PCOD9170763
_publ_section_title
;
Structure prediction by ZEFSAII (Michael W. Deem and Ramdas Pophale) SiO2 
 PCOD9170763
Probable space group: C 2/M
;
_chemical_formula_sum "Si O2"
_cell_formula_units_Z 44
_cell_length_a 13.764034
_cell_length_b 20.480790
_cell_length_c 9.055522
_cell_angle_alpha 90.000000
_cell_angle_beta 99.742893
_cell_angle_gamma 90.000000
_cell_volume 2515.918200
_symmetry_space_group_name_H-M "C 2/M"
_symmetry_group_IT_number 12
_symmetry_cell_setting 'monoclinic'
loop_
_space_group_symop_operation_xyz
x,y,z
-x,y,-z
-x,-y,-z
x,-y,z
1/2+x,1/2+y,z
1/2-x,1/2+y,-z
1/2-x,1/2-y,-z
1/2+x,1/2-y,z
loop_
_atom_site_type_symbol
_atom_site_label
_atom_site_fract_x
_atom_site_fract_y
_atom_site_fract_z
Si Si1 0.197451 0.073781 0.909863
Si Si2 0.804885 0.690214 0.094001
Si Si3 0.000000 0.881583 0.000000
Si Si4 0.102341 0.125693 0.584893
Si Si5 0.986482 0.768815 0.235019
Si Si6 0.306218 0.294155 0.629476
O O1 0.099624 0.079879 0.989041
O O2 0.159501 0.090950 0.733587
O O3 0.234347 0.000000 0.923423
O O4 0.275644 0.126516 0.991920
O O5 0.917788 0.714157 0.143783
O O6 0.755593 0.686931 0.242794
O O7 0.750000 0.750000 0.000000
O O8 0.007281 0.831360 0.136758
O O9 0.072180 0.196840 0.645938
O O10 0.162698 0.141454 0.453434
O O11 0.000000 0.094432 0.500000
O O12 0.097005 0.751222 0.304896
O O13 0.250000 0.250000 0.500000
#
# Coordination Sequence:
#
# PCOD9170763 Si02
#       6
#     8   8   4   8   8   8
#     4  11  22  36  54  82 119 157 196 237 291 354
#     4  12  20  34  57  82 115 152 192 237 286 341
#     4  10  17  34  54  80 115 144 184 238 291 336
#     4   9  19  33  50  75 113 147 184 233 289 347
#     4  10  18  31  52  81 115 138 190 234 280 342
#     4  11  19  32  54  83 114 146 186 243 298 338
#
# _framework density 17.488645999999999
#
# number of rings (size 3 to 8) (size 9 to 14) (size 15 to 20)
#    0.000    1.455    7.273    0.273    0.000    0.364 
#    0.000    0.909    0.000    0.000    0.000   18.455 
#    0.000    0.000    0.000    0.000    0.000    0.000 
#
# Total GULP energy -122524.957448 kJ/mol
# GULP energy per Si atom -5569.316248 kJ/mol
# Density = 1.744884 g / cm^3
# Si number density = 17.488646 Si / 1000 Ang^3
#
#
#
# Elastic Constant Matrix: (Units=GPa)
#
#
# Indices 1 2 3 4 5 6 
#
# 1 62.5861 28.2454 28.5158 0.0000 26.5183 0.0000
# 2 28.2454 97.9651 41.1172 0.0000 24.7738 0.0000
# 3 28.5158 41.1172 107.0587 0.0000 7.5706 0.0000
# 4 0.0000 0.0000 0.0000 12.6434 0.0000 5.0961
# 5 26.5183 24.7738 7.5706 0.0000 44.5517 0.0000
# 6 0.0000 0.0000 0.0000 5.0961 0.0000 17.4174
#
#
#
# Elastic Compliance Matrix: (Units=1/GPa)
#
#
# Indices 1 2 3 4 5 6 
#
# 1 0.024400 -0.001752 -0.004927 0.000000 -0.012712 0.000000
# 2 -0.001752 0.014149 -0.004539 0.000000 -0.006053 0.000000
# 3 -0.004927 -0.004539 0.012157 0.000000 0.003391 0.000000
# 4 0.000000 0.000000 0.000000 0.089667 0.000000 -0.026236
# 5 -0.012712 -0.006053 0.003391 0.000000 0.032802 0.000000
# 6 0.000000 0.000000 0.000000 -0.026236 0.000000 0.065090
#
#
# Mechanical properties :
#
#
# Convention : Reuss Voigt Hill
#
# Bulk Modulus (GPa) = 35.37592 51.48518 43.43055
# Shear Modulus (GPa) = 18.50998 26.23795 22.37396
#
# Velocity S-wave (km/s) = 3.25683 3.87755 3.58067
# Velocity P-wave (km/s) = 5.86639 7.03920 6.47938
#
# Compressibility (1/GPa) = 0.02826781
#
# Stress axis : x y z
#
# Youngs Moduli (GPa) = 40.98386 70.67654 82.25990
#
# Poissons Ratio (x) = 0.12386 0.40530
# Poissons Ratio (y) = 0.07182 0.37340
# Poissons Ratio (z) = 0.20193 0.32082
#
# Static dielectric constant tensor:
#      x y z
#    x 1.403820 0.000000 1.108810 
#    y 0.000000 1.625610 0.000000 
#    z 1.108810 0.000000 -3.089230 
# 
# From -- ./inp_files/61233.got.cif
#   From: 2010.05.17/outbox.cif.g08.bks.cpg/sg12_31_cif.got.tgz:61233.got - 2010.06.03 13:09:07.
