data_PCOD9170160
_publ_section_title
;
Structure prediction by ZEFSAII (Michael W. Deem and Ramdas Pophale) SiO2 
 PCOD9170160
Probable space group: C 2/M
;
_chemical_formula_sum "Si O2"
_cell_formula_units_Z 48
_cell_length_a 24.221364
_cell_length_b 7.413339
_cell_length_c 18.218534
_cell_angle_alpha 90.000000
_cell_angle_beta 46.858298
_cell_angle_gamma 90.000000
_cell_volume 2386.982652
_symmetry_space_group_name_H-M "C 2/M"
_symmetry_group_IT_number 12
_symmetry_cell_setting 'monoclinic'
loop_
_space_group_symop_operation_xyz
x,y,z
-x,y,-z
-x,-y,-z
x,-y,z
1/2+x,1/2+y,z
1/2-x,1/2+y,-z
1/2-x,1/2-y,-z
1/2+x,1/2-y,z
loop_
_atom_site_type_symbol
_atom_site_label
_atom_site_fract_x
_atom_site_fract_y
_atom_site_fract_z
Si Si1 0.475921 0.797709 0.298141
Si Si2 0.183972 0.214419 0.616817
Si Si3 0.507665 0.779073 0.112570
Si Si4 0.768922 0.286153 0.680926
Si Si5 0.939265 0.720811 0.493988
Si Si6 0.120876 0.284312 0.883558
O O1 0.390574 0.806107 0.345204
O O2 0.515251 0.715343 0.189872
O O3 0.465949 0.716862 0.388625
O O4 0.507239 0.000000 0.280188
O O5 0.250000 0.250000 0.500000
O O6 0.217969 0.287626 0.661137
O O7 0.169157 0.000000 0.635554
O O8 0.430672 0.720734 0.139417
O O9 0.505553 0.000000 0.117660
O O10 0.576015 0.724812 0.997037
O O11 0.775715 0.500000 0.663555
O O12 0.854828 0.218580 0.595174
O O13 0.709815 0.261808 0.801034
O O14 0.937437 0.500000 0.492059
O O15 0.000000 0.772016 0.500000
O O16 0.115537 0.500000 0.886890
#
# Coordination Sequence:
#
# PCOD9170160 Si02
#       6
#     8   8   8   8   8   8
#     4  10  17  30  50  70  93 122 154 193 232 273
#     4  11  20  29  43  69  99 124 151 186 232 286
#     4   8  15  26  44  69  95 122 154 184 218 273
#     4  10  19  30  45  69  96 121 153 190 229 278
#     4   9  18  32  49  68  90 119 158 200 235 271
#     4   9  16  28  45  67  95 126 153 182 223 274
#
# _framework density 20.109069999999999
#
# number of rings (size 3 to 8) (size 9 to 14) (size 15 to 20)
#    0.000    2.500    3.333    1.500    0.000    0.667 
#    0.000    2.500    0.000    3.000    0.000    0.000 
#    0.000    0.000    0.000    0.000    0.000    0.000 
#
# Total GULP energy -133666.730244 kJ/mol
# GULP energy per Si atom -5569.447094 kJ/mol
# Density = 2.006330 g / cm^3
# Si number density = 20.109070 Si / 1000 Ang^3
#
#
#
# Elastic Constant Matrix: (Units=GPa)
#
#
# Indices 1 2 3 4 5 6 
#
# 1 102.6911 5.2606 75.6614 -0.0012 12.9568 0.0002
# 2 5.2606 74.3832 -2.3136 0.0045 3.2504 0.0112
# 3 75.6614 -2.3136 183.3009 -0.0017 12.6198 0.0031
# 4 -0.0012 0.0045 -0.0017 11.8084 0.0018 -7.6954
# 5 12.9568 3.2504 12.6198 0.0018 14.9618 -0.0018
# 6 0.0002 0.0112 0.0031 -7.6954 -0.0018 5.9703
#
#
#
# Elastic Compliance Matrix: (Units=1/GPa)
#
#
# Indices 1 2 3 4 5 6 
#
# 1 0.014938 -0.000882 -0.005626 0.000020 -0.007999 0.000027
# 2 -0.000882 0.013652 0.000730 -0.000138 -0.002818 -0.000205
# 3 -0.005626 0.000730 0.007923 -0.000020 -0.001969 -0.000031
# 4 0.000020 -0.000138 -0.000020 0.529241 0.000048 0.682164
# 5 -0.007999 -0.002818 -0.001969 0.000048 0.076037 0.000091
# 6 0.000027 -0.000205 -0.000031 0.682164 0.000091 1.046768
#
#
# Mechanical properties :
#
#
# Convention : Reuss Voigt Hill
#
# Bulk Modulus (GPa) = 40.06916 57.51023 48.78969
# Shear Modulus (GPa) = 2.92666 25.33256 14.12961
#
# Velocity S-wave (km/s) = 1.20771 3.55316 2.65363
# Velocity P-wave (km/s) = 4.68123 6.74496 5.80553
#
# Compressibility (1/GPa) = 0.02495685
#
# Stress axis : x y z
#
# Youngs Moduli (GPa) = 66.94449 73.24847 126.22022
#
# Poissons Ratio (x) = 0.06460 0.71015
# Poissons Ratio (y) = 0.05904 -0.09219
# Poissons Ratio (z) = 0.37665 -0.05350
#
# Static dielectric constant tensor:
#      x y z
#    x 1.673410 0.000000 0.040310 
#    y 0.000000 1.749010 -0.000020 
#    z 0.040310 -0.000020 1.917780 
# 
# From -- ./inp_files/287273.got.cif
#   From: 2010.05.17/outbox.cif.g08.bks.cpg/sg12_144_cif.got.tgz:287273.got - 2010.06.03 13:09:07.
