data_PCOD9170680
_publ_section_title
;
Structure prediction by ZEFSAII (Michael W. Deem and Ramdas Pophale) SiO2 
 PCOD9170680
Probable space group: C 2/M
;
_chemical_formula_sum "Si O2"
_cell_formula_units_Z 64
_cell_length_a 19.578540
_cell_length_b 19.209659
_cell_length_c 7.963079
_cell_angle_alpha 90.000000
_cell_angle_beta 95.730077
_cell_angle_gamma 90.000000
_cell_volume 2979.926153
_symmetry_space_group_name_H-M "C 2/M"
_symmetry_group_IT_number 12
_symmetry_cell_setting 'monoclinic'
loop_
_space_group_symop_operation_xyz
x,y,z
-x,y,-z
-x,-y,-z
x,-y,z
1/2+x,1/2+y,z
1/2-x,1/2+y,-z
1/2-x,1/2-y,-z
1/2+x,1/2-y,z
loop_
_atom_site_type_symbol
_atom_site_label
_atom_site_fract_x
_atom_site_fract_y
_atom_site_fract_z
Si Si1 0.735781 0.418579 0.015422
Si Si2 0.530316 0.221934 0.197430
Si Si3 0.103500 0.893211 0.811901
Si Si4 0.173738 0.309355 0.140206
Si Si5 0.035597 0.878092 0.323216
Si Si6 0.674722 0.574544 0.489683
Si Si7 0.244895 0.680487 0.671870
Si Si8 0.386654 0.229401 0.242282
O O1 0.751378 0.500000 0.010512
O O2 0.654155 0.406572 0.976544
O O3 0.775787 0.374120 0.881643
O O4 0.756140 0.382488 0.194161
O O5 0.600456 0.178478 0.212238
O O6 0.548760 0.299346 0.265321
O O7 0.462354 0.197044 0.278995
O O8 0.500000 0.228213 0.000000
O O9 0.142393 0.927507 0.666078
O O10 0.102519 0.811641 0.764800
O O11 0.023934 0.912145 0.804301
O O12 0.212724 0.244734 0.237379
O O13 0.149639 0.287360 0.945369
O O14 0.107804 0.915805 0.356170
O O15 0.000000 0.876734 0.500000
O O16 0.708891 0.500000 0.463726
O O17 0.720636 0.643096 0.477261
O O18 0.167468 0.706877 0.631191
#
# Coordination Sequence:
#
# PCOD9170680 Si02
#       8
#     8   8   8   8   8   8   8   8
#     4  11  21  34  53  76 103 135 167 205 253 304
#     4   9  17  30  54  77  96 126 166 214 248 287
#     4  10  19  34  52  73  99 136 171 204 244 301
#     4  10  17  33  56  76 101 130 167 212 252 290
#     4   9  19  32  49  69 101 138 170 199 247 296
#     4  11  23  34  47  72 107 142 169 204 250 295
#     4  11  19  35  53  74 103 133 168 210 251 298
#     4   9  17  32  54  78  98 126 170 210 256 287
#
# _framework density 21.477042000000001
#
# number of rings (size 3 to 8) (size 9 to 14) (size 15 to 20)
#    0.000    2.000    3.750    1.500    0.000    3.250 
#    0.000    0.000    0.000   12.000    0.000    0.000 
#    0.000    2.500    0.000    0.000    0.000    0.000 
#
# Total GULP energy -178670.379833 kJ/mol
# GULP energy per Si atom -5583.449370 kJ/mol
# Density = 2.142816 g / cm^3
# Si number density = 21.477042 Si / 1000 Ang^3
#
#
#
# Elastic Constant Matrix: (Units=GPa)
#
#
# Indices 1 2 3 4 5 6 
#
# 1 86.3623 5.2784 7.6253 0.0000 -6.6984 0.0000
# 2 5.2784 77.3654 11.3345 0.0000 -0.6591 0.0000
# 3 7.6253 11.3345 40.4472 0.0000 -4.0796 0.0000
# 4 0.0000 0.0000 0.0000 -5.3086 0.0000 -16.6719
# 5 -6.6984 -0.6591 -4.0796 0.0000 20.5183 0.0000
# 6 0.0000 0.0000 0.0000 -16.6719 0.0000 6.6713
#
#
#
# Elastic Compliance Matrix: (Units=1/GPa)
#
#
# Indices 1 2 3 4 5 6 
#
# 1 0.012044 -0.000533 -0.001762 0.000000 0.003564 0.000000
# 2 -0.000533 0.013505 -0.003733 0.000000 -0.000482 0.000000
# 3 -0.001762 -0.003733 0.026564 0.000000 0.004587 0.000000
# 4 0.000000 0.000000 0.000000 -0.021289 0.000000 -0.053202
# 5 0.003564 -0.000482 0.004587 0.000000 0.050797 0.000000
# 6 0.000000 0.000000 0.000000 -0.053202 0.000000 0.016941
#
#
# Mechanical properties :
#
#
# Convention : Reuss Voigt Hill
#
# Bulk Modulus (GPa) = 24.96382 28.07238 26.51810
# Shear Modulus (GPa) = 40.33276 16.37199 28.35237
#
# Velocity S-wave (km/s) = 4.33823 2.76398 3.63729
# Velocity P-wave (km/s) = 6.06155 4.82549 5.47849
#
# Compressibility (1/GPa) = 0.04005798
#
# Stress axis : x y z
#
# Youngs Moduli (GPa) = 83.03084 74.04779 37.64451
#
# Poissons Ratio (x) = 0.03949 0.06631
# Poissons Ratio (y) = 0.04428 0.14051
# Poissons Ratio (z) = 0.14627 0.27639
#
# Static dielectric constant tensor:
#      x y z
#    x 1.854390 0.000000 -0.043360 
#    y 0.000000 1.750680 0.000000 
#    z -0.043360 0.000000 1.894910 
# 
# From -- ./inp_files/87962.got.cif
#   From: 2010.05.17/outbox.cif.g08.bks.cpg/sg12_44_cif.got.tgz:87962.got - 2010.06.03 13:09:07.
