data_PCOD9170589
_publ_section_title
;
Structure prediction by ZEFSAII (Michael W. Deem and Ramdas Pophale) SiO2 
 PCOD9170589
Probable space group: C 2/M
;
_chemical_formula_sum "Si O2"
_cell_formula_units_Z 56
_cell_length_a 18.051831
_cell_length_b 17.236348
_cell_length_c 14.189041
_cell_angle_alpha 90.000000
_cell_angle_beta 43.393719
_cell_angle_gamma 90.000000
_cell_volume 3033.061806
_symmetry_space_group_name_H-M "C 2/M"
_symmetry_group_IT_number 12
_symmetry_cell_setting 'monoclinic'
loop_
_space_group_symop_operation_xyz
x,y,z
-x,y,-z
-x,-y,-z
x,-y,z
1/2+x,1/2+y,z
1/2-x,1/2+y,-z
1/2-x,1/2-y,-z
1/2+x,1/2-y,z
loop_
_atom_site_type_symbol
_atom_site_label
_atom_site_fract_x
_atom_site_fract_y
_atom_site_fract_z
Si Si1 0.462585 0.254342 0.642443
Si Si2 0.686447 0.809114 0.490082
Si Si3 0.767541 0.412594 0.396731
Si Si4 0.233554 0.219920 0.909410
Si Si5 0.518618 0.412755 0.671522
Si Si6 0.484561 0.360912 0.910251
Si Si7 0.660064 0.233128 0.787144
O O1 0.500000 0.258780 0.500000
O O2 0.563452 0.216228 0.601981
O O3 0.354685 0.206505 0.761041
O O4 0.449170 0.341827 0.694742
O O5 0.750000 0.750000 0.500000
O O6 0.700386 0.891811 0.525445
O O7 0.746502 0.792057 0.337066
O O8 0.795313 0.500000 0.345836
O O9 0.637544 0.403764 0.515671
O O10 0.823347 0.348285 0.279960
O O11 0.181588 0.276828 0.878157
O O12 0.250000 0.250000 0.000000
O O13 0.142400 0.153438 0.990718
O O14 0.479660 0.500000 0.687503
O O15 0.528002 0.401789 0.775998
O O16 0.551791 0.279583 0.858922
O O17 0.500000 0.397740 0.000000
#
# Coordination Sequence:
#
# PCOD9170589 Si02
#       7
#     8   8   8   8   8   8   8
#     4  12  21  36  57  85 113 144 186 232 275 325
#     4  10  17  32  58  78 108 139 185 228 268 314
#     4  10  19  32  57  86 113 141 183 229 283 331
#     4  11  22  33  57  83 109 142 189 229 276 321
#     4  11  20  33  52  81 117 148 175 225 285 334
#     4  10  21  36  57  79 108 143 192 233 269 321
#     4  10  18  36  56  84 108 143 183 237 266 324
#
# _framework density 18.463190999999998
#
# number of rings (size 3 to 8) (size 9 to 14) (size 15 to 20)
#    0.000    1.429    7.143    0.857    0.000    0.571 
#    0.000    0.714    0.000    7.714    0.000    0.000 
#    0.000    0.000    0.000    0.000    0.000    0.000 
#
# Total GULP energy -155903.607833 kJ/mol
# GULP energy per Si atom -5567.985994 kJ/mol
# Density = 1.842117 g / cm^3
# Si number density = 18.463191 Si / 1000 Ang^3
#
#
#
# Elastic Constant Matrix: (Units=GPa)
#
#
# Indices 1 2 3 4 5 6 
#
# 1 78.2058 -4.2040 22.6589 0.0000 -5.4393 0.0000
# 2 -4.2040 51.6319 7.9178 0.0000 -6.9795 0.0000
# 3 22.6589 7.9178 81.9568 0.0000 -5.9365 0.0000
# 4 0.0000 0.0000 0.0000 11.3515 0.0000 0.8473
# 5 -5.4393 -6.9795 -5.9365 0.0000 47.0815 0.0000
# 6 0.0000 0.0000 0.0000 0.8473 0.0000 8.4635
#
#
#
# Elastic Compliance Matrix: (Units=1/GPa)
#
#
# Indices 1 2 3 4 5 6 
#
# 1 0.014149 0.001957 -0.003998 0.000000 0.001421 0.000000
# 2 0.001957 0.020276 -0.002287 0.000000 0.002944 0.000000
# 3 -0.003998 -0.002287 0.013594 0.000000 0.000913 0.000000
# 4 0.000000 0.000000 0.000000 0.088757 0.000000 -0.008886
# 5 0.001421 0.002944 0.000913 0.000000 0.021955 0.000000
# 6 0.000000 0.000000 0.000000 -0.008886 0.000000 0.119044
#
#
# Mechanical properties :
#
#
# Convention : Reuss Voigt Hill
#
# Bulk Modulus (GPa) = 25.40407 29.39333 27.39870
# Shear Modulus (GPa) = 16.69160 25.74077 21.21618
#
# Velocity S-wave (km/s) = 3.01000 3.73790 3.39353
# Velocity P-wave (km/s) = 5.08619 5.88080 5.49787
#
# Compressibility (1/GPa) = 0.03936377
#
# Stress axis : x y z
#
# Youngs Moduli (GPa) = 70.67558 49.31990 73.56207
#
# Poissons Ratio (x) = -0.09653 0.29410
# Poissons Ratio (y) = -0.13833 0.16822
# Poissons Ratio (z) = 0.28256 0.11278
#
# Static dielectric constant tensor:
#      x y z
#    x 1.686330 0.000000 0.027600 
#    y 0.000000 1.636530 0.000000 
#    z 0.027600 0.000000 1.713830 
# 
# From -- ./inp_files/226526.got.cif
#   From: 2010.05.17/outbox.cif.g08.bks.cpg/sg12_114_cif.got.tgz:226526.got - 2010.06.03 13:09:07.
