data_PCOD9170021
_publ_section_title
;
Structure prediction by ZEFSAII (Michael W. Deem and Ramdas Pophale) SiO2 
 PCOD9170021
Probable space group: C 2/M
;
_chemical_formula_sum "Si O2"
_cell_formula_units_Z 64
_cell_length_a 35.456454
_cell_length_b 13.799160
_cell_length_c 9.708228
_cell_angle_alpha 90.000000
_cell_angle_beta 51.951483
_cell_angle_gamma 90.000000
_cell_volume 3740.524389
_symmetry_space_group_name_H-M "C 2/M"
_symmetry_group_IT_number 12
_symmetry_cell_setting 'monoclinic'
loop_
_space_group_symop_operation_xyz
x,y,z
-x,y,-z
-x,-y,-z
x,-y,z
1/2+x,1/2+y,z
1/2-x,1/2+y,-z
1/2-x,1/2-y,-z
1/2+x,1/2-y,z
loop_
_atom_site_type_symbol
_atom_site_label
_atom_site_fract_x
_atom_site_fract_y
_atom_site_fract_z
Si Si1 0.548155 0.885469 0.059157
Si Si2 0.056816 0.615250 0.642450
Si Si3 0.291972 0.113917 0.321070
Si Si4 0.780684 0.112797 0.899307
Si Si5 0.586250 0.887715 0.280722
Si Si6 0.184149 0.887372 0.494205
Si Si7 0.128150 0.298870 0.684102
Si Si8 0.185350 0.707907 0.017470
O O1 0.492664 0.855829 0.172654
O O2 0.560751 0.878247 0.192011
O O3 0.552691 0.000000 0.010234
O O4 0.587087 0.824573 0.887804
O O5 0.061656 0.500000 0.652539
O O6 0.053886 0.632209 0.486064
O O7 0.103293 0.666342 0.599746
O O8 0.234834 0.127575 0.459638
O O9 0.324410 0.141679 0.378008
O O10 0.299812 0.000000 0.268006
O O11 0.309110 0.180761 0.155622
O O12 0.804001 0.130015 0.694933
O O13 0.802809 0.183160 0.963714
O O14 0.785432 0.000000 0.920918
O O15 0.725263 0.142526 0.004331
O O16 0.632574 0.821018 0.180263
O O17 0.602237 0.000000 0.255066
O O18 0.145178 0.811481 0.633618
O O19 0.170636 0.000000 0.539800
#
# Coordination Sequence:
#
# PCOD9170021 Si02
#       8
#     8   8   8   8   8   8   8   8
#     4  10  20  34  52  75 106 140 171 211 269 321
#     4  10  21  33  49  78 110 135 169 218 262 313
#     4  10  19  33  52  76 109 143 173 208 258 314
#     4   9  18  32  50  73 105 138 173 217 263 304
#     4  10  18  31  51  74 103 139 175 207 253 316
#     4   9  20  36  52  73 103 139 178 221 263 303
#     4  12  20  32  54  78 102 139 181 213 253 311
#     4  10  17  29  51  76 100 138 179 209 248 315
#
# _framework density 17.1099
#
# number of rings (size 3 to 8) (size 9 to 14) (size 15 to 20)
#    0.000    2.000    1.250    4.875    0.000    2.500 
#    0.000    0.625    0.000    9.000    0.000    0.000 
#    0.000    5.000    0.000    0.000    0.000    0.000 
#
# Total GULP energy -178526.597427 kJ/mol
# GULP energy per Si atom -5578.956170 kJ/mol
# Density = 1.707096 g / cm^3
# Si number density = 17.109900 Si / 1000 Ang^3
#
#
#
# Elastic Constant Matrix: (Units=GPa)
#
#
# Indices 1 2 3 4 5 6 
#
# 1 68.0750 39.4961 19.9562 0.0000 -3.7575 0.0000
# 2 39.4961 89.0786 36.7558 0.0000 -11.6910 0.0000
# 3 19.9562 36.7558 56.7467 0.0000 -5.5823 0.0000
# 4 0.0000 0.0000 0.0000 109.1212 0.0000 12.6263
# 5 -3.7575 -11.6910 -5.5823 0.0000 26.5989 0.0000
# 6 0.0000 0.0000 0.0000 12.6263 0.0000 23.8111
#
#
#
# Elastic Compliance Matrix: (Units=1/GPa)
#
#
# Indices 1 2 3 4 5 6 
#
# 1 0.019939 -0.008264 -0.001776 0.000000 -0.001188 0.000000
# 2 -0.008264 0.019357 -0.009097 0.000000 0.005431 0.000000
# 3 -0.001776 -0.009097 0.024221 0.000000 0.000834 0.000000
# 4 0.000000 0.000000 0.000000 0.009763 0.000000 -0.005177
# 5 -0.001188 0.005431 0.000834 0.000000 0.039990 0.000000
# 6 0.000000 0.000000 0.000000 -0.005177 0.000000 0.044742
#
#
# Mechanical properties :
#
#
# Convention : Reuss Voigt Hill
#
# Bulk Modulus (GPa) = 39.61564 45.14628 42.38096
# Shear Modulus (GPa) = 24.42580 39.75241 32.08910
#
# Velocity S-wave (km/s) = 3.78244 4.82535 4.33537
# Velocity P-wave (km/s) = 6.50228 7.58213 7.06287
#
# Compressibility (1/GPa) = 0.02524256
#
# Stress axis : x y z
#
# Youngs Moduli (GPa) = 50.15209 51.66197 41.28589
#
# Poissons Ratio (x) = 0.42692 0.07334
# Poissons Ratio (y) = 0.41445 0.37559
# Poissons Ratio (z) = 0.08909 0.46998
#
# Static dielectric constant tensor:
#      x y z
#    x 1.595960 0.000000 0.024950 
#    y 0.000000 1.552630 0.000000 
#    z 0.024950 0.000000 1.604240 
# 
# From -- ./inp_files/111610.got.cif
#   From: 2010.05.17/outbox.cif.g08.bks.cpg/sg12_56_cif.got.tgz:111610.got - 2010.06.03 13:09:07.
