data_PCOD9170764
_publ_section_title
;
Structure prediction by ZEFSAII (Michael W. Deem and Ramdas Pophale) SiO2 
 PCOD9170764
Probable space group: C 2/M
;
_chemical_formula_sum "Si O2"
_cell_formula_units_Z 40
_cell_length_a 28.910620
_cell_length_b 18.252913
_cell_length_c 8.961880
_cell_angle_alpha 90.000000
_cell_angle_beta 25.853729
_cell_angle_gamma 90.000000
_cell_volume 2062.291645
_symmetry_space_group_name_H-M "C 2/M"
_symmetry_group_IT_number 12
_symmetry_cell_setting 'monoclinic'
loop_
_space_group_symop_operation_xyz
x,y,z
-x,y,-z
-x,-y,-z
x,-y,z
1/2+x,1/2+y,z
1/2-x,1/2+y,-z
1/2-x,1/2-y,-z
1/2+x,1/2-y,z
loop_
_atom_site_type_symbol
_atom_site_label
_atom_site_fract_x
_atom_site_fract_y
_atom_site_fract_z
Si Si1 0.209636 0.214951 0.273898
Si Si2 0.906810 0.758389 0.896900
Si Si3 0.460883 0.831096 0.261021
Si Si4 0.614489 0.581497 0.087583
Si Si5 0.738578 0.915089 0.048062
O O1 0.104917 0.260666 0.608287
O O2 0.250000 0.250000 0.000000
O O3 0.299347 0.229561 0.134539
O O4 0.199873 0.130588 0.257214
O O5 0.888196 0.843259 0.999062
O O6 0.000000 0.760358 0.500000
O O7 0.948120 0.702510 0.900484
O O8 0.378284 0.880622 0.592598
O O9 0.500000 0.872052 0.000000
O O10 0.500000 0.577822 0.500000
O O11 0.633523 0.500000 0.965411
O O12 0.699999 0.593536 0.972226
O O13 0.733784 0.000000 0.026872
#
# Coordination Sequence:
#
# PCOD9170764 Si02
#       5
#     8   8   8   8   8
#     4  10  17  34  54  81 106 140 191 225 266 325
#     4  11  17  32  59  78 105 146 186 235 266 318
#     4  11  23  36  53  84 117 148 182 225 280 333
#     4   9  16  27  50  82 105 131 179 233 273 306
#     4  10  19  35  58  82 111 143 185 233 272 323
#
# _framework density 19.395897999999999
#
# number of rings (size 3 to 8) (size 9 to 14) (size 15 to 20)
#    0.000    1.800    8.000    1.200    0.000    1.200 
#    0.000    2.000    0.000    2.400    0.000    0.000 
#    0.000    0.000    0.000    0.000    0.000    0.000 
#
# Total GULP energy -111464.766110 kJ/mol
# GULP energy per Si atom -5573.238305 kJ/mol
# Density = 1.935175 g / cm^3
# Si number density = 19.395898 Si / 1000 Ang^3
#
#
#
# Elastic Constant Matrix: (Units=GPa)
#
#
# Indices 1 2 3 4 5 6 
#
# 1 65.8161 2.8127 9.7105 0.0000 -33.4226 0.0000
# 2 2.8127 100.9670 -10.0187 0.0000 -9.7299 0.0000
# 3 9.7105 -10.0187 21.5865 0.0000 -11.0736 0.0000
# 4 0.0000 0.0000 0.0000 10.4962 0.0000 -8.9859
# 5 -33.4226 -9.7299 -11.0736 0.0000 31.9165 0.0000
# 6 0.0000 0.0000 0.0000 -8.9859 0.0000 19.7959
#
#
#
# Elastic Compliance Matrix: (Units=1/GPa)
#
#
# Indices 1 2 3 4 5 6 
#
# 1 0.033630 0.003367 0.006115 0.000000 0.038366 0.000000
# 2 0.003367 0.011715 0.009201 0.000000 0.010290 0.000000
# 3 0.006115 0.009201 0.063951 0.000000 0.031397 0.000000
# 4 0.000000 0.000000 0.000000 0.155830 0.000000 0.070736
# 5 0.038366 0.010290 0.031397 0.000000 0.085538 0.000000
# 6 0.000000 0.000000 0.000000 0.070736 0.000000 0.082624
#
#
# Mechanical properties :
#
#
# Convention : Reuss Voigt Hill
#
# Bulk Modulus (GPa) = 6.81833 21.48653 14.15243
# Shear Modulus (GPa) = 11.24078 24.83275 18.03676
#
# Velocity S-wave (km/s) = 2.40998 3.58202 3.05278
# Velocity P-wave (km/s) = 3.35664 5.31129 4.44279
#
# Compressibility (1/GPa) = 0.14666344
#
# Stress axis : x y z
#
# Youngs Moduli (GPa) = 29.73501 85.36059 15.63702
#
# Poissons Ratio (x) = -0.28742 -0.09563
# Poissons Ratio (y) = -0.10012 -0.14388
# Poissons Ratio (z) = -0.18184 -0.78540
#
# Static dielectric constant tensor:
#      x y z
#    x 1.670700 0.000000 0.009960 
#    y 0.000000 1.739150 0.000000 
#    z 0.009960 0.000000 1.705420 
# 
# From -- ./inp_files/60843.got.cif
#   From: 2010.05.17/outbox.cif.g08.bks.cpg/sg12_31_cif.got.tgz:60843.got - 2010.06.03 13:09:07.
