data_PCOD9170328
_publ_section_title
;
Structure prediction by ZEFSAII (Michael W. Deem and Ramdas Pophale) SiO2 
 PCOD9170328
Probable space group: C 2/M
;
_chemical_formula_sum "Si O2"
_cell_formula_units_Z 44
_cell_length_a 24.673785
_cell_length_b 13.387090
_cell_length_c 15.886764
_cell_angle_alpha 90.000000
_cell_angle_beta 23.744274
_cell_angle_gamma 90.000000
_cell_volume 2112.957347
_symmetry_space_group_name_H-M "C 2/M"
_symmetry_group_IT_number 12
_symmetry_cell_setting 'monoclinic'
loop_
_space_group_symop_operation_xyz
x,y,z
-x,y,-z
-x,-y,-z
x,-y,z
1/2+x,1/2+y,z
1/2-x,1/2+y,-z
1/2-x,1/2-y,-z
1/2+x,1/2-y,z
loop_
_atom_site_type_symbol
_atom_site_label
_atom_site_fract_x
_atom_site_fract_y
_atom_site_fract_z
Si Si1 0.816750 0.386131 0.358423
Si Si2 0.370894 0.386184 0.525602
Si Si3 0.864663 0.211457 0.898590
Si Si4 0.236376 0.812839 0.779241
Si Si5 0.069201 0.611652 0.629132
Si Si6 0.000000 0.231146 0.000000
O O1 0.864526 0.500000 0.273958
O O2 0.680202 0.376264 0.499158
O O3 0.820388 0.373637 0.453450
O O4 0.916157 0.304810 0.179385
O O5 0.346057 0.500000 0.587826
O O6 0.527848 0.359072 0.301241
O O7 0.285609 0.303205 0.697558
O O8 0.954822 0.305760 0.800299
O O9 0.750000 0.250000 0.000000
O O10 0.797726 0.164675 0.076500
O O11 0.356280 0.873379 0.565262
O O12 0.103724 0.827586 0.910964
O O13 0.015227 0.500000 0.713981
#
# Coordination Sequence:
#
# PCOD9170328 Si02
#       6
#     8   8   8   8   8   4
#     4   9  17  32  56  87 118 146 182 233 292 345
#     4   9  21  38  59  86 118 148 185 238 289 337
#     4  11  24  41  59  82 115 156 197 233 278 341
#     4  10  22  36  59  87 115 149 193 233 287 338
#     4  10  22  39  58  86 119 151 188 237 288 340
#     4  10  17  30  59  86 116 146 186 230 292 332
#
# _framework density 20.823893999999999
#
# number of rings (size 3 to 8) (size 9 to 14) (size 15 to 20)
#    0.000    2.182    1.818    0.273    2.545    8.000 
#    0.000    2.273    0.000    0.000    0.000    0.000 
#    0.000    0.000    0.000    0.000    0.000    0.000 
#
# Total GULP energy -122816.407127 kJ/mol
# GULP energy per Si atom -5582.563960 kJ/mol
# Density = 2.077650 g / cm^3
# Si number density = 20.823894 Si / 1000 Ang^3
#
#
#
# Elastic Constant Matrix: (Units=GPa)
#
#
# Indices 1 2 3 4 5 6 
#
# 1 48.2084 -29.6390 11.9131 0.0000 -7.0125 0.0000
# 2 -29.6390 43.5903 -24.1038 0.0000 -8.9347 0.0000
# 3 11.9131 -24.1038 50.5711 0.0000 -2.7476 0.0000
# 4 0.0000 0.0000 0.0000 1.9130 0.0000 -5.3774
# 5 -7.0125 -8.9347 -2.7476 0.0000 30.2874 0.0000
# 6 0.0000 0.0000 0.0000 -5.3774 0.0000 14.6803
#
#
#
# Elastic Compliance Matrix: (Units=1/GPa)
#
#
# Indices 1 2 3 4 5 6 
#
# 1 0.049479 0.045165 0.011273 -0.000023 0.025802 -0.000008
# 2 0.045165 0.076168 0.027590 -0.000023 0.035429 -0.000008
# 3 0.011273 0.027590 0.031005 -0.000006 0.013562 -0.000002
# 4 -0.000023 -0.000023 -0.000006-17.639996 -0.000018 -6.461517
# 5 0.025802 0.035429 0.013562 -0.000018 0.050673 -0.000007
# 6 -0.000008 -0.000008 -0.000002 -6.461517 -0.000007 -2.298730
#
#
# Mechanical properties :
#
#
# Convention : Reuss Voigt Hill
#
# Bulk Modulus (GPa) = 3.07969 6.52339 4.80154
# Shear Modulus (GPa) = -0.25264 21.65613 10.70175
#
# Velocity S-wave (km/s) = -0.34869 3.22835 2.26943
# Velocity P-wave (km/s) = 1.14892 4.12744 3.02950
#
# Compressibility (1/GPa) = 0.32470781
#
# Stress axis : x y z
#
# Youngs Moduli (GPa) = 20.21079 13.12879 32.25243
#
# Poissons Ratio (x) = -0.59296 -0.36359
# Poissons Ratio (y) = -0.91282 -0.88983
# Poissons Ratio (z) = -0.22784 -0.36222
#
# Static dielectric constant tensor:
#      x y z
#    x 1.746050 0.000000 -0.001870 
#    y 0.000000 1.758020 0.000000 
#    z -0.001870 0.000000 1.735500 
# 
# From -- ./inp_files/129750.got.cif
#   From: 2010.05.17/outbox.cif.g08.bks.cpg/sg12_65_cif.got.tgz:129750.got - 2010.06.03 13:09:07.
