data_PCOD9170580
_publ_section_title
;
Structure prediction by ZEFSAII (Michael W. Deem and Ramdas Pophale) SiO2 
 PCOD9170580
Probable space group: C 2/M
;
_chemical_formula_sum "Si O2"
_cell_formula_units_Z 64
_cell_length_a 20.627056
_cell_length_b 7.475237
_cell_length_c 20.919283
_cell_angle_alpha 90.000000
_cell_angle_beta 113.939824
_cell_angle_gamma 90.000000
_cell_volume 2948.098334
_symmetry_space_group_name_H-M "C 2/M"
_symmetry_group_IT_number 12
_symmetry_cell_setting 'monoclinic'
loop_
_space_group_symop_operation_xyz
x,y,z
-x,y,-z
-x,-y,-z
x,-y,z
1/2+x,1/2+y,z
1/2-x,1/2+y,-z
1/2-x,1/2-y,-z
1/2+x,1/2-y,z
loop_
_atom_site_type_symbol
_atom_site_label
_atom_site_fract_x
_atom_site_fract_y
_atom_site_fract_z
Si Si1 0.021756 0.293539 0.751989
Si Si2 0.072355 0.292414 0.056453
Si Si3 0.180048 0.282076 0.791909
Si Si4 0.396090 0.779660 0.789450
Si Si5 0.246582 0.207696 0.681740
Si Si6 0.885773 0.781548 0.443848
Si Si7 0.715052 0.288178 0.053972
Si Si8 0.484126 0.283760 0.595411
O O1 0.032106 0.500000 0.774870
O O2 0.966475 0.218700 0.780793
O O3 0.986617 0.285484 0.667977
O O4 0.100759 0.217478 0.776476
O O5 0.056366 0.500000 0.063933
O O6 0.100024 0.219742 0.135340
O O7 0.136130 0.284659 0.031648
O O8 0.000000 0.211610 0.000000
O O9 0.179491 0.500000 0.789260
O O10 0.206111 0.217246 0.733541
O O11 0.234528 0.222602 0.868514
O O12 0.324509 0.715929 0.725899
O O13 0.393166 0.000000 0.786958
O O14 0.191462 0.284137 0.608043
O O15 0.256686 0.000000 0.668534
O O16 0.917910 0.727444 0.524933
O O17 0.944546 0.729296 0.414287
O O18 0.884742 0.000000 0.442804
O O19 0.709501 0.500000 0.058945
O O20 0.750000 0.250000 0.000000
O O21 0.484263 0.500000 0.598204
#
# Coordination Sequence:
#
# PCOD9170580 Si02
#       8
#     8   8   8   8   8   8   8   8
#     4  10  20  34  51  76 109 141 174 215 268 322
#     4  10  21  38  62  85 110 147 186 222 270 334
#     4  10  21  35  54  78 108 139 172 223 273 311
#     4   9  19  34  54  78 105 140 178 215 259 321
#     4  10  17  32  57  79  99 134 184 224 257 313
#     4   8  15  27  49  76 103 133 172 223 267 310
#     4  11  24  40  59  84 115 146 182 229 277 326
#     4   9  16  30  49  74 104 136 176 219 266 313
#
# _framework density 21.708909999999999
#
# number of rings (size 3 to 8) (size 9 to 14) (size 15 to 20)
#    0.000    2.375    2.500    1.125    1.750    0.750 
#    0.000    3.750    0.000    0.000    0.000    0.000 
#    0.000    0.000    0.000    0.000    0.000    0.000 
#
# Total GULP energy -178675.459612 kJ/mol
# GULP energy per Si atom -5583.608113 kJ/mol
# Density = 2.165950 g / cm^3
# Si number density = 21.708910 Si / 1000 Ang^3
#
#
#
# Elastic Constant Matrix: (Units=GPa)
#
#
# Indices 1 2 3 4 5 6 
#
# 1 107.2767 -9.9162 24.3952 0.0000 17.9456 0.0000
# 2 -9.9162 62.8087 -6.4048 0.0000 6.9772 0.0000
# 3 24.3952 -6.4048 79.9171 0.0000 27.2164 0.0000
# 4 0.0000 0.0000 0.0000 9.2444 0.0000 -8.4645
# 5 17.9456 6.9772 27.2164 0.0000 37.2483 0.0000
# 6 0.0000 0.0000 0.0000 -8.4645 0.0000 10.8107
#
#
#
# Elastic Compliance Matrix: (Units=1/GPa)
#
#
# Indices 1 2 3 4 5 6 
#
# 1 0.010590 0.001985 -0.001610 0.000000 -0.004298 0.000000
# 2 0.001985 0.017236 0.002930 0.000000 -0.006326 0.000000
# 3 -0.001610 0.002930 0.017522 0.000000 -0.012576 0.000000
# 4 0.000000 0.000000 0.000000 0.382122 0.000000 0.299190
# 5 -0.004298 -0.006326 -0.012576 0.000000 0.039291 0.000000
# 6 0.000000 0.000000 0.000000 0.299190 0.000000 0.326758
#
#
# Mechanical properties :
#
#
# Convention : Reuss Voigt Hill
#
# Bulk Modulus (GPa) = 19.24625 29.57232 24.40929
# Shear Modulus (GPa) = 6.21713 27.58922 16.90318
#
# Velocity S-wave (km/s) = 1.69413 3.56880 2.79342
# Velocity P-wave (km/s) = 3.56534 5.53475 4.65538
#
# Compressibility (1/GPa) = 0.05195817
#
# Stress axis : x y z
#
# Youngs Moduli (GPa) = 94.42646 58.01733 57.07079
#
# Poissons Ratio (x) = -0.11518 0.09189
# Poissons Ratio (y) = -0.18746 -0.16720
# Poissons Ratio (z) = 0.15203 -0.16997
#
# Static dielectric constant tensor:
#      x y z
#    x 1.808160 0.000000 0.021090 
#    y 0.000000 1.818550 0.000000 
#    z 0.021090 0.000000 1.784040 
# 
# From -- ./inp_files/320137.got.cif
#   From: 2010.05.17/outbox.cif.g08.bks.cpg/sg12_161_cif.got.tgz:320137.got - 2010.06.03 13:09:07.
