data_PCOD9170061
_publ_section_title
;
Structure prediction by ZEFSAII (Michael W. Deem and Ramdas Pophale) SiO2 
 PCOD9170061
Probable space group: C 2/M
;
_chemical_formula_sum "Si O2"
_cell_formula_units_Z 56
_cell_length_a 9.687122
_cell_length_b 26.434544
_cell_length_c 19.363008
_cell_angle_alpha 90.000000
_cell_angle_beta 139.339225
_cell_angle_gamma 90.000000
_cell_volume 3230.774514
_symmetry_space_group_name_H-M "C 2/M"
_symmetry_group_IT_number 12
_symmetry_cell_setting 'monoclinic'
loop_
_space_group_symop_operation_xyz
x,y,z
-x,y,-z
-x,-y,-z
x,-y,z
1/2+x,1/2+y,z
1/2-x,1/2+y,-z
1/2-x,1/2-y,-z
1/2+x,1/2-y,z
loop_
_atom_site_type_symbol
_atom_site_label
_atom_site_fract_x
_atom_site_fract_y
_atom_site_fract_z
Si Si1 0.806951 0.364053 0.375351
Si Si2 0.992165 0.647685 0.167188
Si Si3 0.119496 0.809679 0.754137
Si Si4 0.771781 0.942426 0.888311
Si Si5 0.558524 0.558148 0.197589
Si Si6 0.339764 0.659166 0.077112
Si Si7 0.813206 0.306172 0.237442
O O1 0.622481 0.328230 0.336474
O O2 0.689860 0.416102 0.309086
O O3 0.876652 0.337342 0.329946
O O4 0.000000 0.370780 0.500000
O O5 0.915458 0.591152 0.154297
O O6 0.938319 0.677757 0.216522
O O7 0.231314 0.654105 0.234050
O O8 0.843161 0.666372 0.047707
O O9 0.193632 0.813319 0.862408
O O10 0.154007 0.753224 0.740340
O O11 0.790646 0.941988 0.812895
O O12 0.758790 0.000000 0.908309
O O13 0.000000 0.921485 0.000000
O O14 0.491223 0.500000 0.183337
O O15 0.376953 0.599525 0.110198
O O16 0.564765 0.679606 0.133937
#
# Coordination Sequence:
#
# PCOD9170061 Si02
#       7
#     8   8   8   8   8   8   8
#     4  10  22  41  57  76 101 132 181 232 277 321
#     4  12  18  32  53  80 113 143 178 211 253 303
#     4  10  23  35  50  78 111 140 173 224 267 304
#     4  10  17  29  53  82 108 142 179 206 246 312
#     4   9  17  33  56  79 102 134 179 213 248 314
#     4  10  20  32  49  82 115 147 174 202 246 316
#     4  10  20  36  54  75 105 146 184 209 253 319
#
# _framework density 17.333304999999999
#
# number of rings (size 3 to 8) (size 9 to 14) (size 15 to 20)
#    0.000    2.143    4.286    2.571    0.000    4.286 
#    0.000    3.571    0.000    4.286    0.000    2.000 
#    0.000    0.000    0.000    0.000    0.000    0.000 
#
# Total GULP energy -156129.167057 kJ/mol
# GULP energy per Si atom -5576.041681 kJ/mol
# Density = 1.729385 g / cm^3
# Si number density = 17.333305 Si / 1000 Ang^3
#
#
#
# Elastic Constant Matrix: (Units=GPa)
#
#
# Indices 1 2 3 4 5 6 
#
# 1 64.7203 8.5708 13.0235 0.0000 -0.9247 0.0000
# 2 8.5708 78.4459 10.3896 0.0001 4.4725 0.0000
# 3 13.0235 10.3896 73.6695 0.0002 2.8923 0.0000
# 4 0.0000 0.0001 0.0002 7.8855 0.0001 -3.2511
# 5 -0.9247 4.4725 2.8923 0.0001 10.8875 0.0000
# 6 0.0000 0.0000 0.0000 -3.2511 0.0000 5.8348
#
#
#
# Elastic Compliance Matrix: (Units=1/GPa)
#
#
# Indices 1 2 3 4 5 6 
#
# 1 0.016254 -0.001567 -0.002761 0.000000 0.002758 0.000000
# 2 -0.001567 0.013405 -0.001407 0.000000 -0.005266 0.000000
# 3 -0.002761 -0.001407 0.014397 -0.000001 -0.003481 0.000000
# 4 0.000000 0.000000 -0.000001 0.164636 0.000000 0.091733
# 5 0.002758 -0.005266 -0.003481 0.000000 0.095171 0.000000
# 6 0.000000 0.000000 0.000000 0.091733 0.000000 0.222497
#
#
# Mechanical properties :
#
#
# Convention : Reuss Voigt Hill
#
# Bulk Modulus (GPa) = 30.68725 31.20038 30.94382
# Shear Modulus (GPa) = 9.11259 17.24502 13.17880
#
# Velocity S-wave (km/s) = 2.29536 3.15764 2.76038
# Velocity P-wave (km/s) = 4.97670 5.59764 5.29628
#
# Compressibility (1/GPa) = 0.03258682
#
# Stress axis : x y z
#
# Youngs Moduli (GPa) = 61.52489 74.59652 69.45784
#
# Poissons Ratio (x) = 0.11693 0.19174
# Poissons Ratio (y) = 0.09644 0.09771
# Poissons Ratio (z) = 0.16984 0.10494
#
# Static dielectric constant tensor:
#      x y z
#    x 1.585940 0.000000 -0.021080 
#    y 0.000000 1.627500 0.000000 
#    z -0.021080 0.000000 1.575740 
# 
# From -- ./inp_files/259582.got.cif
#   From: 2010.05.17/outbox.cif.g08.bks.cpg/sg12_130_cif.got.tgz:259582.got - 2010.06.03 13:09:07.
