data_PCOD9170603
_publ_section_title
;
Structure prediction by ZEFSAII (Michael W. Deem and Ramdas Pophale) SiO2 
 PCOD9170603
Probable space group: C 2/M
;
_chemical_formula_sum "Si O2"
_cell_formula_units_Z 64
_cell_length_a 18.360998
_cell_length_b 20.780205
_cell_length_c 8.956741
_cell_angle_alpha 90.000000
_cell_angle_beta 83.484265
_cell_angle_gamma 90.000000
_cell_volume 3395.328527
_symmetry_space_group_name_H-M "C 2/M"
_symmetry_group_IT_number 12
_symmetry_cell_setting 'monoclinic'
loop_
_space_group_symop_operation_xyz
x,y,z
-x,y,-z
-x,-y,-z
x,-y,z
1/2+x,1/2+y,z
1/2-x,1/2+y,-z
1/2-x,1/2-y,-z
1/2+x,1/2-y,z
loop_
_atom_site_type_symbol
_atom_site_label
_atom_site_fract_x
_atom_site_fract_y
_atom_site_fract_z
Si Si1 0.703906 0.571947 0.064278
Si Si2 0.978445 0.207490 0.829941
Si Si3 0.835377 0.258946 0.719549
Si Si4 0.442248 0.426362 0.698575
Si Si5 0.113515 0.260742 0.636434
Si Si6 0.777345 0.643811 0.280350
Si Si7 0.333400 0.574258 0.482437
Si Si8 0.206449 0.850948 0.776384
O O1 0.713130 0.500000 0.000493
O O2 0.633881 0.570497 0.189962
O O3 0.773053 0.593052 0.148304
O O4 0.691112 0.627119 0.946693
O O5 0.898960 0.239227 0.819269
O O6 0.982194 0.133745 0.766469
O O7 0.032190 0.248364 0.710973
O O8 0.000000 0.208920 0.000000
O O9 0.868232 0.254830 0.543522
O O10 0.773397 0.204353 0.752933
O O11 0.790544 0.325720 0.747330
O O12 0.473596 0.500000 0.693405
O O13 0.412075 0.408675 0.539245
O O14 0.145846 0.328395 0.685648
O O15 0.159016 0.205764 0.713847
O O16 0.731778 0.613933 0.426870
O O17 0.324320 0.500000 0.519952
O O18 0.321192 0.588516 0.313657
#
# Coordination Sequence:
#
# PCOD9170603 Si02
#       8
#     8   8   8   8   8   8   8   8
#     4  10  20  33  56  85 116 147 182 230 282 340
#     4  12  24  36  54  82 112 158 198 225 279 337
#     4  11  21  38  56  78 114 152 182 245 289 329
#     4   9  19  38  56  76 116 159 190 224 271 331
#     4  11  22  35  58  82 111 149 192 241 278 336
#     4  10  18  36  58  81 109 145 189 229 297 331
#     4  10  17  32  59  83 109 144 184 227 278 340
#     4  11  20  34  56  85 116 139 187 241 293 330
#
# _framework density 18.849426999999999
#
# number of rings (size 3 to 8) (size 9 to 14) (size 15 to 20)
#    0.000    1.500    5.000    3.375    1.750    1.250 
#    0.000    1.250    0.000    2.250    0.000    5.250 
#    0.000    0.000    0.000    0.000    0.000    0.000 
#
# Total GULP energy -178435.012839 kJ/mol
# GULP energy per Si atom -5576.094151 kJ/mol
# Density = 1.880653 g / cm^3
# Si number density = 18.849427 Si / 1000 Ang^3
#
#
#
# Elastic Constant Matrix: (Units=GPa)
#
#
# Indices 1 2 3 4 5 6 
#
# 1 60.7827 19.9997 7.3008 0.0000 6.1810 0.0000
# 2 19.9997 37.8250 12.4177 0.0000 6.6068 0.0000
# 3 7.3008 12.4177 82.6581 0.0000 13.7190 0.0000
# 4 0.0000 0.0000 0.0000 22.5669 0.0000 4.3734
# 5 6.1810 6.6068 13.7190 0.0000 19.8654 0.0000
# 6 0.0000 0.0000 0.0000 4.3734 0.0000 27.8498
#
#
#
# Elastic Compliance Matrix: (Units=1/GPa)
#
#
# Indices 1 2 3 4 5 6 
#
# 1 0.020076 -0.010169 0.000260 0.000000 -0.003044 0.000000
# 2 -0.010169 0.033899 -0.003217 0.000000 -0.005888 0.000000
# 3 0.000260 -0.003217 0.013999 0.000000 -0.008678 0.000000
# 4 0.000000 0.000000 0.000000 0.045704 0.000000 -0.007177
# 5 -0.003044 -0.005888 -0.008678 0.000000 0.059238 0.000000
# 6 0.000000 0.000000 0.000000 -0.007177 0.000000 0.037034
#
#
# Mechanical properties :
#
#
# Convention : Reuss Voigt Hill
#
# Bulk Modulus (GPa) = 23.96850 28.96690 26.46770
# Shear Modulus (GPa) = 19.99130 23.49291 21.74211
#
# Velocity S-wave (km/s) = 3.26019 3.53419 3.39995
# Velocity P-wave (km/s) = 5.18798 5.66171 5.43001
#
# Compressibility (1/GPa) = 0.04172143
#
# Stress axis : x y z
#
# Youngs Moduli (GPa) = 49.81001 29.49949 71.43472
#
# Poissons Ratio (x) = 0.29997 -0.01855
# Poissons Ratio (y) = 0.50650 0.22982
# Poissons Ratio (z) = -0.01293 0.09490
#
# Static dielectric constant tensor:
#      x y z
#    x 1.676040 0.000000 0.006570 
#    y 0.000000 1.685660 0.000000 
#    z 0.006570 0.000000 1.687250 
# 
# From -- ./inp_files/77509.got.cif
#   From: 2010.05.17/outbox.cif.g08.bks.cpg/sg12_39_cif.got.tgz:77509.got - 2010.06.03 13:09:07.
