data_PCOD9170586
_publ_section_title
;
Structure prediction by ZEFSAII (Michael W. Deem and Ramdas Pophale) SiO2 
 PCOD9170586
Probable space group: C 2/M
;
_chemical_formula_sum "Si O2"
_cell_formula_units_Z 64
_cell_length_a 15.341647
_cell_length_b 15.946588
_cell_length_c 12.951791
_cell_angle_alpha 90.000000
_cell_angle_beta 80.101965
_cell_angle_gamma 90.000000
_cell_volume 3121.451685
_symmetry_space_group_name_H-M "C 2/M"
_symmetry_group_IT_number 12
_symmetry_cell_setting 'monoclinic'
loop_
_space_group_symop_operation_xyz
x,y,z
-x,y,-z
-x,-y,-z
x,-y,z
1/2+x,1/2+y,z
1/2-x,1/2+y,-z
1/2-x,1/2-y,-z
1/2+x,1/2-y,z
loop_
_atom_site_type_symbol
_atom_site_label
_atom_site_fract_x
_atom_site_fract_y
_atom_site_fract_z
Si Si1 0.301030 0.854462 0.889558
Si Si2 0.676138 0.902329 0.736071
Si Si3 0.757821 0.402460 0.482357
Si Si4 0.573967 0.406259 0.397806
Si Si5 0.010568 0.833518 0.212721
Si Si6 0.687620 0.600061 0.713441
Si Si7 0.496673 0.147855 0.876890
Si Si8 0.306245 0.652341 0.889524
O O1 0.245722 0.875774 0.799949
O O2 0.401017 0.887832 0.864872
O O3 0.309764 0.753453 0.897494
O O4 0.248366 0.882616 0.002430
O O5 0.676589 0.865849 0.618770
O O6 0.581703 0.894761 0.809664
O O7 0.750503 0.865805 0.797392
O O8 0.698187 0.000000 0.721023
O O9 0.784124 0.500000 0.495940
O O10 0.666047 0.400341 0.437801
O O11 0.734267 0.365181 0.599184
O O12 0.500000 0.402892 0.500000
O O13 0.568448 0.500000 0.349680
O O14 0.553958 0.335837 0.317857
O O15 0.913444 0.871859 0.246768
O O16 0.997775 0.743223 0.164743
O O17 0.091475 0.877099 0.133423
O O18 0.684354 0.500000 0.702340
O O19 0.500000 0.146337 0.000000
#
# Coordination Sequence:
#
# PCOD9170586 Si02
#       8
#     8   8   8   8   8   8   8   8
#     4  10  23  42  62  82 121 168 202 245 306 368
#     4  11  22  39  66  94 115 149 213 270 303 347
#     4   9  19  36  59  88 123 162 195 240 305 357
#     4  10  17  32  57  87 125 162 198 240 291 354
#     4  11  22  34  62  92 126 163 197 236 302 376
#     4  11  23  39  61  90 129 167 196 237 301 373
#     4  11  24  44  65  84 117 164 207 256 313 358
#     4  10  21  39  62  88 119 158 203 250 308 358
#
# _framework density 20.503281000000001
#
# number of rings (size 3 to 8) (size 9 to 14) (size 15 to 20)
#    0.000    1.625    3.750    1.125    3.500    1.750 
#    0.000    6.250    0.000    2.250    0.000    0.000 
#    0.000    0.000    0.000    0.000    0.000    0.000 
#
# Total GULP energy -178481.774069 kJ/mol
# GULP energy per Si atom -5577.555440 kJ/mol
# Density = 2.045661 g / cm^3
# Si number density = 20.503281 Si / 1000 Ang^3
#
#
#
# Elastic Constant Matrix: (Units=GPa)
#
#
# Indices 1 2 3 4 5 6 
#
# 1 85.5900 6.7745 65.2444 0.0000 -11.1806 0.0000
# 2 6.7745 13.0294 12.5381 0.0000 -7.8125 0.0000
# 3 65.2444 12.5381 143.7312 0.0000 -25.1247 0.0000
# 4 0.0000 0.0000 0.0000 22.4627 0.0000 -6.7944
# 5 -11.1806 -7.8125 -25.1247 0.0000 33.4139 0.0000
# 6 0.0000 0.0000 0.0000 -6.7944 0.0000 -14.0982
#
#
#
# Elastic Compliance Matrix: (Units=1/GPa)
#
#
# Indices 1 2 3 4 5 6 
#
# 1 0.017904 -0.001859 -0.008052 0.000000 -0.000499 0.000000
# 2 -0.001859 0.092384 -0.004085 0.000000 0.017907 0.000000
# 3 -0.008052 -0.004085 0.011894 0.000000 0.005294 0.000000
# 4 0.000000 0.000000 0.000000 0.038854 0.000000 -0.018725
# 5 -0.000499 0.017907 0.005294 0.000000 0.037929 0.000000
# 6 0.000000 0.000000 0.000000 -0.018725 0.000000 -0.061907
#
#
# Mechanical properties :
#
#
# Convention : Reuss Voigt Hill
#
# Bulk Modulus (GPa) = 10.61686 45.71828 28.16757
# Shear Modulus (GPa) = 25.45222 18.87527 22.16375
#
# Velocity S-wave (km/s) = 3.52713 3.03743 3.29140
# Velocity P-wave (km/s) = 4.66658 5.88623 5.31153
#
# Compressibility (1/GPa) = 0.09418979
#
# Stress axis : x y z
#
# Youngs Moduli (GPa) = 55.85469 10.82438 84.07405
#
# Poissons Ratio (x) = 0.02013 0.67696
# Poissons Ratio (y) = 0.10385 0.34342
# Poissons Ratio (z) = 0.44974 0.04421
#
# Static dielectric constant tensor:
#      x y z
#    x 1.722780 0.000000 -0.115410 
#    y 0.000000 1.744470 0.000000 
#    z -0.115410 0.000000 1.553490 
# 
# From -- ./inp_files/146127.got.cif
#   From: 2010.05.17/outbox.cif.g08.bks.cpg/sg12_74_cif.got.tgz:146127.got - 2010.06.03 13:09:07.
