data_PCOD9170464
_publ_section_title
;
Structure prediction by ZEFSAII (Michael W. Deem and Ramdas Pophale) SiO2 
 PCOD9170464
Probable space group: C 2/M
;
_chemical_formula_sum "Si O2"
_cell_formula_units_Z 32
_cell_length_a 15.575180
_cell_length_b 25.337422
_cell_length_c 7.622095
_cell_angle_alpha 90.000000
_cell_angle_beta 154.100162
_cell_angle_gamma 90.000000
_cell_volume 1313.868001
_symmetry_space_group_name_H-M "C 2/M"
_symmetry_group_IT_number 12
_symmetry_cell_setting 'monoclinic'
loop_
_space_group_symop_operation_xyz
x,y,z
-x,y,-z
-x,-y,-z
x,-y,z
1/2+x,1/2+y,z
1/2-x,1/2+y,-z
1/2-x,1/2-y,-z
1/2+x,1/2-y,z
loop_
_atom_site_type_symbol
_atom_site_label
_atom_site_fract_x
_atom_site_fract_y
_atom_site_fract_z
Si Si1 0.823294 0.000000 0.815451
Si Si2 0.255110 0.384432 0.670938
Si Si3 0.277985 0.890134 0.791158
Si Si4 0.232033 0.311749 0.930932
Si Si5 0.602058 0.000000 0.880975
O O1 0.825782 0.939500 0.891547
O O2 0.587575 0.000000 0.336181
O O3 0.000000 0.000000 0.000000
O O4 0.309797 0.334383 0.889670
O O5 0.016097 0.383984 0.223980
O O6 0.306827 0.384710 0.560181
O O7 0.197157 0.846909 0.776116
O O8 0.265127 0.949237 0.841665
O O9 0.000000 0.322112 0.500000
O O10 0.250000 0.250000 0.000000
O O11 0.500000 0.000000 0.500000
#
# Coordination Sequence:
#
# PCOD9170464 Si02
#       5
#     4   8   8   8   4
#     4  10  19  33  53  88 127 146 176 239 302 354
#     4   9  18  34  56  80 110 149 186 233 286 353
#     4   9  17  32  58  83 105 142 197 234 280 345
#     4  10  21  38  57  80 110 147 200 252 287 340
#     4  10  17  31  61  90 114 158 199 237 289 366
#
# _framework density 24.355564999999999
#
# number of rings (size 3 to 8) (size 9 to 14) (size 15 to 20)
#    0.000    2.500    0.000    4.500    0.000    4.000 
#    4.500    0.000    0.000    3.000    0.000    0.000 
#    0.000    0.000    0.000    0.000    0.000    0.000 
#
# Total GULP energy -89290.408498 kJ/mol
# GULP energy per Si atom -5580.650531 kJ/mol
# Density = 2.430013 g / cm^3
# Si number density = 24.355565 Si / 1000 Ang^3
#
#
#
# Elastic Constant Matrix: (Units=GPa)
#
#
# Indices 1 2 3 4 5 6 
#
# 1 139.7972 99.0809 49.0278 0.0000 -37.7464 0.0000
# 2 99.0809 243.7553 32.1467 0.0000 -56.2657 0.0000
# 3 49.0278 32.1467 127.6491 0.0000 -19.3671 0.0000
# 4 0.0000 0.0000 0.0000 27.3758 0.0000 -4.1321
# 5 -37.7464 -56.2657 -19.3671 0.0000 52.4556 0.0000
# 6 0.0000 0.0000 0.0000 -4.1321 0.0000 36.3275
#
#
#
# Elastic Compliance Matrix: (Units=1/GPa)
#
#
# Indices 1 2 3 4 5 6 
#
# 1 0.011675 -0.003540 -0.003066 0.000000 0.003472 0.000000
# 2 -0.003540 0.006558 0.000412 0.000000 0.004639 0.000000
# 3 -0.003066 0.000412 0.009153 0.000000 0.001615 0.000000
# 4 0.000000 0.000000 0.000000 0.037167 0.000000 0.004228
# 5 0.003472 0.004639 0.001615 0.000000 0.027135 0.000000
# 6 0.000000 0.000000 0.000000 0.004228 0.000000 0.028008
#
#
# Mechanical properties :
#
#
# Convention : Reuss Voigt Hill
#
# Bulk Modulus (GPa) = 66.67524 96.85695 81.76609
# Shear Modulus (GPa) = 36.47468 45.29486 40.88477
#
# Velocity S-wave (km/s) = 3.87407 4.31714 4.10159
# Velocity P-wave (km/s) = 6.88814 8.04391 7.48836
#
# Compressibility (1/GPa) = 0.01499807
#
# Stress axis : x y z
#
# Youngs Moduli (GPa) = 85.65535 152.49050 109.25617
#
# Poissons Ratio (x) = 0.53977 0.33496
# Poissons Ratio (y) = 0.30319 -0.04500
# Poissons Ratio (z) = 0.26260 -0.06281
#
# Static dielectric constant tensor:
#      x y z
#    x 1.998750 0.000000 0.036590 
#    y 0.000000 1.948410 0.000000 
#    z 0.036590 0.000000 2.043430 
# 
# From -- ./inp_files/78976.got.cif
#   From: 2010.05.17/outbox.cif.g08.bks.cpg/sg12_40_cif.got.tgz:78976.got - 2010.06.03 13:09:07.
