data_PCOD9170149
_publ_section_title
;
Structure prediction by ZEFSAII (Michael W. Deem and Ramdas Pophale) SiO2 
 PCOD9170149
Probable space group: C 2/M
;
_chemical_formula_sum "Si O2"
_cell_formula_units_Z 56
_cell_length_a 26.892824
_cell_length_b 14.537772
_cell_length_c 25.345422
_cell_angle_alpha 90.000000
_cell_angle_beta 157.892803
_cell_angle_gamma 90.000000
_cell_volume 3729.193442
_symmetry_space_group_name_H-M "C 2/M"
_symmetry_group_IT_number 12
_symmetry_cell_setting 'monoclinic'
loop_
_space_group_symop_operation_xyz
x,y,z
-x,y,-z
-x,-y,-z
x,-y,z
1/2+x,1/2+y,z
1/2-x,1/2+y,-z
1/2-x,1/2-y,-z
1/2+x,1/2-y,z
loop_
_atom_site_type_symbol
_atom_site_label
_atom_site_fract_x
_atom_site_fract_y
_atom_site_fract_z
Si Si1 0.494285 0.198962 0.662469
Si Si2 0.238703 0.890464 0.112128
Si Si3 0.651998 0.611604 0.144427
Si Si4 0.781294 0.607006 0.379676
Si Si5 0.087667 0.900022 0.384923
Si Si6 0.962745 0.848739 0.785185
Si Si7 0.146511 0.678065 0.371587
O O1 0.640282 0.166489 0.792438
O O2 0.395009 0.164784 0.519568
O O3 0.476592 0.308860 0.652785
O O4 0.445045 0.151740 0.669106
O O5 0.212200 0.864508 0.147068
O O6 0.266900 0.000000 0.137647
O O7 0.104184 0.870965 0.948222
O O8 0.647471 0.500000 0.142403
O O9 0.738719 0.640513 0.279861
O O10 0.500000 0.643592 0.000000
O O11 0.822003 0.500000 0.416677
O O12 0.651178 0.614060 0.288419
O O13 0.247959 0.892740 0.547681
O O14 0.054233 0.892235 0.289585
O O15 0.043397 0.000000 0.360876
O O16 0.935714 0.739546 0.750114
O O17 0.250000 0.750000 0.500000
#
# Coordination Sequence:
#
# PCOD9170149 Si02
#       7
#     8   8   8   8   8   8   8
#     4  10  20  32  44  71  99 126 159 200 235 274
#     4  11  21  31  45  71 104 131 154 189 234 281
#     4   9  18  29  44  69  95 124 164 193 218 279
#     4  11  17  28  50  68  94 130 158 188 230 283
#     4  10  18  31  51  72  92 124 167 201 234 277
#     4  10  17  30  49  70  95 130 161 182 230 288
#     4   8  16  30  46  69  91 115 160 202 222 274
#
# _framework density 15.016652000000001
#
# number of rings (size 3 to 8) (size 9 to 14) (size 15 to 20)
#    0.000    2.429    5.714    1.714    0.000    3.429 
#    0.000    2.143    0.000    0.857    0.000    2.000 
#    0.000    2.286    0.000    0.000    0.000    0.000 
#
# Total GULP energy -155881.414222 kJ/mol
# GULP energy per Si atom -5567.193365 kJ/mol
# Density = 1.498247 g / cm^3
# Si number density = 15.016652 Si / 1000 Ang^3
#
#
#
# Elastic Constant Matrix: (Units=GPa)
#
#
# Indices 1 2 3 4 5 6 
#
# 1 54.5230 26.5404 21.5934 0.0004 -0.2530 0.0002
# 2 26.5404 71.1092 37.3951 -0.0005 -2.8771 -0.0005
# 3 21.5934 37.3951 57.6836 0.0007 1.8989 0.0003
# 4 0.0004 -0.0005 0.0007 16.2533 0.0001 0.0330
# 5 -0.2530 -2.8771 1.8989 0.0001 25.9160 -0.0001
# 6 0.0002 -0.0005 0.0003 0.0330 -0.0001 13.5972
#
#
#
# Elastic Compliance Matrix: (Units=1/GPa)
#
#
# Indices 1 2 3 4 5 6 
#
# 1 0.023211 -0.006222 -0.004651 -0.000001 -0.000123 0.000000
# 2 -0.006222 0.023306 -0.012894 0.000001 0.003471 0.000001
# 3 -0.004651 -0.012894 0.027551 -0.000001 -0.003496 -0.000001
# 4 -0.000001 0.000001 -0.000001 0.061526 0.000000 -0.000149
# 5 -0.000123 0.003471 -0.003496 0.000000 0.039226 0.000000
# 6 0.000000 0.000001 -0.000001 -0.000149 0.000000 0.073545
#
#
# Mechanical properties :
#
#
# Convention : Reuss Voigt Hill
#
# Bulk Modulus (GPa) = 37.68776 39.37483 38.53130
# Shear Modulus (GPa) = 16.40712 17.67244 17.03978
#
# Velocity S-wave (km/s) = 3.30903 3.43426 3.37222
# Velocity P-wave (km/s) = 6.30487 6.48099 6.39353
#
# Compressibility (1/GPa) = 0.02653381
#
# Stress axis : x y z
#
# Youngs Moduli (GPa) = 43.08266 42.90652 36.29618
#
# Poissons Ratio (x) = 0.26698 0.16882
# Poissons Ratio (y) = 0.26807 0.46801
# Poissons Ratio (z) = 0.20038 0.55324
#
# Static dielectric constant tensor:
#      x y z
#    x 1.508520 0.000000 0.003980 
#    y 0.000000 1.528280 0.000000 
#    z 0.003980 0.000000 1.501580 
# 
# From -- ./inp_files/352088.got.cif
#   From: 2010.05.17/outbox.cif.g08.bks.cpg/sg12_177_cif.got.tgz:352088.got - 2010.06.03 13:09:07.
