data_PCOD9170712
_publ_section_title
;
Structure prediction by ZEFSAII (Michael W. Deem and Ramdas Pophale) SiO2 
 PCOD9170712
Probable space group: C 2/M
;
_chemical_formula_sum "Si O2"
_cell_formula_units_Z 52
_cell_length_a 13.622534
_cell_length_b 17.107432
_cell_length_c 15.786238
_cell_angle_alpha 90.000000
_cell_angle_beta 137.401356
_cell_angle_gamma 90.000000
_cell_volume 2490.114329
_symmetry_space_group_name_H-M "C 2/M"
_symmetry_group_IT_number 12
_symmetry_cell_setting 'monoclinic'
loop_
_space_group_symop_operation_xyz
x,y,z
-x,y,-z
-x,-y,-z
x,-y,z
1/2+x,1/2+y,z
1/2-x,1/2+y,-z
1/2-x,1/2-y,-z
1/2+x,1/2-y,z
loop_
_atom_site_type_symbol
_atom_site_label
_atom_site_fract_x
_atom_site_fract_y
_atom_site_fract_z
Si Si1 0.543998 0.405468 0.929188
Si Si2 0.683304 0.500000 0.772730
Si Si3 0.476198 0.000000 0.870308
Si Si4 0.335502 0.667361 0.221998
Si Si5 0.155053 0.654004 0.954587
Si Si6 0.197205 0.000000 0.591507
Si Si7 0.164773 0.825980 0.585418
Si Si8 0.429858 0.275606 0.731810
O O1 0.535575 0.500000 0.908138
O O2 0.444437 0.350661 0.803907
O O3 0.500000 0.393418 0.000000
O O4 0.707926 0.373822 0.015057
O O5 0.637887 0.577827 0.788499
O O6 0.621855 0.500000 0.637673
O O7 0.855556 0.500000 0.867063
O O8 0.571010 0.923358 0.928220
O O9 0.369700 0.000000 0.720450
O O10 0.277607 0.663017 0.280067
O O11 0.489829 0.706689 0.305845
O O12 0.220572 0.695869 0.079998
O O13 0.036050 0.709687 0.838007
O O14 0.167798 0.911345 0.541551
O O15 0.271717 0.760336 0.619108
O O16 0.000000 0.803414 0.500000
#
# Coordination Sequence:
#
# PCOD9170712 Si02
#       8
#     8   4   4   8   8   4   8   8
#     4  10  22  37  56  83 119 162 186 224 280 346
#     4   8  17  31  52  82 107 148 174 222 289 329
#     4  10  17  33  58  86 122 143 178 225 294 355
#     4  10  21  35  55  83 117 147 183 236 283 346
#     4  11  20  35  56  89 122 145 184 231 287 355
#     4   8  17  38  56  84 110 144 181 236 286 346
#     4  11  23  40  59  82 113 153 197 240 292 337
#     4  11  24  35  59  88 115 151 188 240 286 341
#
# _framework density 20.882574999999999
#
# number of rings (size 3 to 8) (size 9 to 14) (size 15 to 20)
#    0.462    1.385    2.308    2.538    7.538    3.077 
#    0.000    0.000    0.000    0.462    0.000    0.000 
#    0.000    0.000    0.000    0.000    0.000    0.000 
#
# Total GULP energy -144952.871908 kJ/mol
# GULP energy per Si atom -5575.110458 kJ/mol
# Density = 2.083504 g / cm^3
# Si number density = 20.882575 Si / 1000 Ang^3
#
#
#
# Elastic Constant Matrix: (Units=GPa)
#
#
# Indices 1 2 3 4 5 6 
#
# 1 69.4282 30.1433 20.3406 0.0000 7.6759 0.0000
# 2 30.1433 124.2216 33.2920 0.0000 20.7070 0.0000
# 3 20.3406 33.2920 88.3773 0.0000 31.4164 0.0000
# 4 0.0000 0.0000 0.0000 36.2155 0.0000 12.2171
# 5 7.6759 20.7070 31.4164 0.0000 34.8567 0.0000
# 6 0.0000 0.0000 0.0000 12.2171 0.0000 28.2632
#
#
#
# Elastic Compliance Matrix: (Units=1/GPa)
#
#
# Indices 1 2 3 4 5 6 
#
# 1 0.016627 -0.003424 -0.002882 0.000000 0.000970 0.000000
# 2 -0.003424 0.009934 -0.001654 0.000000 -0.003656 0.000000
# 3 -0.002882 -0.001654 0.017696 0.000000 -0.014333 0.000000
# 4 0.000000 0.000000 0.000000 0.032326 0.000000 -0.013973
# 5 0.000970 -0.003656 -0.014333 0.000000 0.043565 0.000000
# 6 0.000000 0.000000 0.000000 -0.013973 0.000000 0.041422
#
#
# Mechanical properties :
#
#
# Convention : Reuss Voigt Hill
#
# Bulk Modulus (GPa) = 35.28941 49.95322 42.62132
# Shear Modulus (GPa) = 26.74701 33.08381 29.91541
#
# Velocity S-wave (km/s) = 3.58275 3.98462 3.78902
# Velocity P-wave (km/s) = 5.83528 6.71882 6.29257
#
# Compressibility (1/GPa) = 0.02833711
#
# Stress axis : x y z
#
# Youngs Moduli (GPa) = 60.14307 100.66602 56.50840
#
# Poissons Ratio (x) = 0.34468 0.16284
# Poissons Ratio (y) = 0.20593 0.09348
# Poissons Ratio (z) = 0.17332 0.16653
#
# Static dielectric constant tensor:
#      x y z
#    x 1.774220 0.000000 -0.059470 
#    y 0.000000 1.805440 0.000000 
#    z -0.059470 0.000000 1.863980 
# 
# From -- ./inp_files/311546.got.cif
#   From: 2010.05.17/outbox.cif.g08.bks.cpg/sg12_156_cif.got.tgz:311546.got - 2010.06.03 13:09:07.
