data_PCOD9170623
_publ_section_title
;
Structure prediction by ZEFSAII (Michael W. Deem and Ramdas Pophale) SiO2 
 PCOD9170623
Probable space group: C 2/M
;
_chemical_formula_sum "Si O2"
_cell_formula_units_Z 44
_cell_length_a 11.661378
_cell_length_b 21.668140
_cell_length_c 7.376305
_cell_angle_alpha 90.000000
_cell_angle_beta 93.051927
_cell_angle_gamma 90.000000
_cell_volume 1861.203976
_symmetry_space_group_name_H-M "C 2/M"
_symmetry_group_IT_number 12
_symmetry_cell_setting 'monoclinic'
loop_
_space_group_symop_operation_xyz
x,y,z
-x,y,-z
-x,-y,-z
x,-y,z
1/2+x,1/2+y,z
1/2-x,1/2+y,-z
1/2-x,1/2-y,-z
1/2+x,1/2-y,z
loop_
_atom_site_type_symbol
_atom_site_label
_atom_site_fract_x
_atom_site_fract_y
_atom_site_fract_z
Si Si1 0.516474 0.410727 0.299075
Si Si2 0.791957 0.619874 0.802553
Si Si3 0.170702 0.000000 0.888861
Si Si4 0.769744 0.572299 0.387872
Si Si5 0.537786 0.840716 0.711777
Si Si6 0.586611 0.292634 0.839355
O O1 0.500000 0.435346 0.500000
O O2 0.429458 0.446752 0.163132
O O3 0.649712 0.421613 0.270885
O O4 0.481440 0.339558 0.297514
O O5 0.767116 0.555458 0.898436
O O6 0.761052 0.604967 0.585595
O O7 0.709738 0.674337 0.868680
O O8 0.923138 0.642205 0.811840
O O9 0.790107 0.500000 0.423677
O O10 0.871157 0.604272 0.287789
O O11 0.500000 0.831842 0.500000
O O12 0.595520 0.777143 0.776343
O O13 0.500000 0.293136 0.000000
#
# Coordination Sequence:
#
# PCOD9170623 Si02
#       6
#     8   8   4   8   8   8
#     4  11  18  35  64  92 121 152 199 259 298 350
#     4  10  21  37  62  91 125 157 195 252 299 361
#     4  10  17  32  62  94 121 151 193 246 311 339
#     4  11  20  36  66  98 124 150 196 252 312 362
#     4  10  25  38  61  92 123 161 202 246 304 362
#     4  11  25  42  60  85 122 166 209 248 299 350
#
# _framework density 23.640609999999999
#
# number of rings (size 3 to 8) (size 9 to 14) (size 15 to 20)
#    0.000    1.455    5.455    0.818    3.818    3.273 
#    0.000    7.273    0.000    0.545    0.000    0.000 
#    0.000    0.000    0.000    0.000    0.000    0.000 
#
# Total GULP energy -122621.727508 kJ/mol
# GULP energy per Si atom -5573.714887 kJ/mol
# Density = 2.358680 g / cm^3
# Si number density = 23.640610 Si / 1000 Ang^3
#
#
#
# Elastic Constant Matrix: (Units=GPa)
#
#
# Indices 1 2 3 4 5 6 
#
# 1 133.2135 58.6968 28.9550 0.0000 -32.0808 0.0000
# 2 58.6968 101.4493 17.6381 0.0000 1.4139 0.0000
# 3 28.9550 17.6381 65.6730 0.0000 -8.6807 0.0000
# 4 0.0000 0.0000 0.0000 24.6765 0.0000 -10.0289
# 5 -32.0808 1.4139 -8.6807 0.0000 32.4479 0.0000
# 6 0.0000 0.0000 0.0000 -10.0289 0.0000 30.6613
#
#
#
# Elastic Compliance Matrix: (Units=1/GPa)
#
#
# Indices 1 2 3 4 5 6 
#
# 1 0.015549 -0.008771 -0.002506 0.000000 0.015085 0.000000
# 2 -0.008771 0.015336 -0.001541 0.000000 -0.009752 0.000000
# 3 -0.002506 -0.001541 0.017029 0.000000 0.002145 0.000000
# 4 0.000000 0.000000 0.000000 0.046737 0.000000 0.015287
# 5 0.015085 -0.009752 0.002145 0.000000 0.046732 0.000000
# 6 0.000000 0.000000 0.000000 0.015287 0.000000 0.037615
#
#
# Mechanical properties :
#
#
# Convention : Reuss Voigt Hill
#
# Bulk Modulus (GPa) = 44.88608 56.76840 50.82724
# Shear Modulus (GPa) = 23.57847 30.56021 27.06934
#
# Velocity S-wave (km/s) = 3.16154 3.59931 3.38751
# Velocity P-wave (km/s) = 5.68817 6.42951 6.07017
#
# Compressibility (1/GPa) = 0.02227862
#
# Stress axis : x y z
#
# Youngs Moduli (GPa) = 64.31394 65.20796 58.72280
#
# Poissons Ratio (x) = 0.57192 0.14715
# Poissons Ratio (y) = 0.56408 0.09048
# Poissons Ratio (z) = 0.16116 0.10047
#
# Static dielectric constant tensor:
#      x y z
#    x 1.915790 0.000000 -0.005220 
#    y 0.000000 1.862330 0.000000 
#    z -0.005220 0.000000 2.044740 
# 
# From -- ./inp_files/49282.got.cif
#   From: 2010.05.17/outbox.cif.g08.bks.cpg/sg12_25_cif.got.tgz:49282.got - 2010.06.03 13:09:07.
