data_PCOD9170489
_publ_section_title
;
Structure prediction by ZEFSAII (Michael W. Deem and Ramdas Pophale) SiO2 
 PCOD9170489
Probable space group: C 2/M
;
_chemical_formula_sum "Si O2"
_cell_formula_units_Z 48
_cell_length_a 15.454185
_cell_length_b 17.530943
_cell_length_c 11.565940
_cell_angle_alpha 90.000000
_cell_angle_beta 38.789225
_cell_angle_gamma 90.000000
_cell_volume 1963.015602
_symmetry_space_group_name_H-M "C 2/M"
_symmetry_group_IT_number 12
_symmetry_cell_setting 'monoclinic'
loop_
_space_group_symop_operation_xyz
x,y,z
-x,y,-z
-x,-y,-z
x,-y,z
1/2+x,1/2+y,z
1/2-x,1/2+y,-z
1/2-x,1/2-y,-z
1/2+x,1/2-y,z
loop_
_atom_site_type_symbol
_atom_site_label
_atom_site_fract_x
_atom_site_fract_y
_atom_site_fract_z
Si Si1 0.437818 0.112595 0.897174
Si Si2 0.851856 0.755310 0.595785
Si Si3 0.802587 0.919745 0.022845
Si Si4 0.275148 0.916279 0.307745
Si Si5 0.355265 0.914736 0.580176
Si Si6 0.908921 0.778903 0.981986
O O1 0.342663 0.087785 0.891221
O O2 0.590402 0.080867 0.750669
O O3 0.347917 0.092307 0.104997
O O4 0.461292 0.202738 0.869919
O O5 0.807630 0.836925 0.586553
O O6 0.844369 0.671733 0.539632
O O7 0.742721 0.742485 0.813818
O O8 0.000000 0.763519 0.500000
O O9 0.765721 0.917556 0.196895
O O10 0.898382 0.847666 0.904104
O O11 0.867271 0.000000 0.923758
O O12 0.204688 0.000000 0.385888
O O13 0.500000 0.913303 0.500000
O O14 0.348609 0.000000 0.531949
O O15 0.000000 0.795532 0.000000
#
# Coordination Sequence:
#
# PCOD9170489 Si02
#       6
#     8   8   8   8   8   8
#     4  10  17  32  49  73 104 133 172 209 246 304
#     4   9  17  30  49  71  99 126 171 210 242 304
#     4  10  19  28  48  80 103 127 168 214 256 301
#     4  10  18  29  49  72 103 139 166 207 257 295
#     4   8  15  29  48  69  93 125 164 204 248 296
#     4  10  18  33  51  74 103 135 168 208 257 301
#
# _framework density 24.452175
#
# number of rings (size 3 to 8) (size 9 to 14) (size 15 to 20)
#    0.000    2.500    3.333    2.500    0.000    0.667 
#    0.000    0.000    0.000    9.000    4.333    0.000 
#    0.000    0.000    0.000    0.000    0.000    0.000 
#
# Total GULP energy -133869.373211 kJ/mol
# GULP energy per Si atom -5577.890550 kJ/mol
# Density = 2.439652 g / cm^3
# Si number density = 24.452175 Si / 1000 Ang^3
#
#
#
# Elastic Constant Matrix: (Units=GPa)
#
#
# Indices 1 2 3 4 5 6 
#
# 1 43.9336 79.3843 30.3446 0.0000 4.1969 0.0000
# 2 79.3843 302.6691 11.9869 -0.0001 -22.8824 0.0000
# 3 30.3446 11.9869 57.2006 -0.0002 -7.9100 0.0001
# 4 0.0000 -0.0001 -0.0002 21.8176 0.0001 -26.1121
# 5 4.1969 -22.8824 -7.9100 0.0001 27.5995 -0.0001
# 6 0.0000 0.0000 0.0001 -26.1121 -0.0001 42.4432
#
#
#
# Elastic Compliance Matrix: (Units=1/GPa)
#
#
# Indices 1 2 3 4 5 6 
#
# 1 0.367719 -0.103560 -0.200940 -0.000002 -0.199366 -0.000001
# 2 -0.103560 0.032697 0.056241 0.000001 0.058975 0.000000
# 3 -0.200940 0.056241 0.128042 0.000002 0.113881 0.000001
# 4 -0.000002 0.000001 0.000002 0.173828 0.000001 0.106943
# 5 -0.199366 0.058975 0.113881 0.000001 0.148082 0.000001
# 6 -0.000001 0.000000 0.000001 0.106943 0.000001 0.089355
#
#
# Mechanical properties :
#
#
# Convention : Reuss Voigt Hill
#
# Bulk Modulus (GPa) = 31.30826 71.91498 51.61162
# Shear Modulus (GPa) = 3.45570 37.17790 20.31680
#
# Velocity S-wave (km/s) = 1.19009 3.90350 2.88562
# Velocity P-wave (km/s) = 3.83668 7.05626 5.67939
#
# Compressibility (1/GPa) = 0.03194045
#
# Stress axis : x y z
#
# Youngs Moduli (GPa) = 2.71947 30.58384 7.80994
#
# Poissons Ratio (x) = 3.16726 1.56933
# Poissons Ratio (y) = 0.28163 -0.43924
# Poissons Ratio (z) = 0.54645 -1.72008
#
# Static dielectric constant tensor:
#      x y z
#    x 1.934950 0.000000 0.053980 
#    y 0.000000 2.138420 0.000000 
#    z 0.053980 0.000000 1.957740 
# 
# From -- ./inp_files/216216.got.cif
#   From: 2010.05.17/outbox.cif.g08.bks.cpg/sg12_109_cif.got.tgz:216216.got - 2010.06.03 13:09:07.
