data_PCOD9170825
_publ_section_title
;
Structure prediction by ZEFSAII (Michael W. Deem and Ramdas Pophale) SiO2 
 PCOD9170825
Probable space group: C 2/M
;
_chemical_formula_sum "Si O2"
_cell_formula_units_Z 56
_cell_length_a 16.964280
_cell_length_b 30.715344
_cell_length_c 7.905127
_cell_angle_alpha 90.000000
_cell_angle_beta 139.028199
_cell_angle_gamma 90.000000
_cell_volume 2700.825818
_symmetry_space_group_name_H-M "C 2/M"
_symmetry_group_IT_number 12
_symmetry_cell_setting 'monoclinic'
loop_
_space_group_symop_operation_xyz
x,y,z
-x,y,-z
-x,-y,-z
x,-y,z
1/2+x,1/2+y,z
1/2-x,1/2+y,-z
1/2-x,1/2-y,-z
1/2+x,1/2-y,z
loop_
_atom_site_type_symbol
_atom_site_label
_atom_site_fract_x
_atom_site_fract_y
_atom_site_fract_z
Si Si1 0.356437 0.451788 0.452134
Si Si2 0.000000 0.881558 0.500000
Si Si3 0.917252 0.276151 0.623469
Si Si4 0.000000 0.924290 0.000000
Si Si5 0.338894 0.255842 0.863066
Si Si6 0.375690 0.049190 0.697963
Si Si7 0.895833 0.373744 0.461561
Si Si8 0.137478 0.853552 0.031030
O O1 0.356908 0.500000 0.375353
O O2 0.394169 0.414240 0.385340
O O3 0.229929 0.443738 0.337447
O O4 0.452761 0.450108 0.762238
O O5 0.040218 0.853949 0.725210
O O6 0.805845 0.253609 0.338224
O O7 0.871458 0.268753 0.742038
O O8 0.923898 0.327344 0.594709
O O9 0.054485 0.258433 0.835478
O O10 0.896422 0.891835 0.895803
O O11 0.358799 0.307492 0.870753
O O12 0.379668 0.086958 0.566265
O O13 0.357144 0.000000 0.596498
O O14 0.500000 0.049603 0.000000
O O15 0.000000 0.384344 0.500000
O O16 0.767681 0.364362 0.167257
#
# Coordination Sequence:
#
# PCOD9170825 Si02
#       8
#     8   4   8   4   8   8   8   8
#     4  10  20  37  60  89 123 158 205 256 309 372
#     4  10  23  38  58  96 126 162 196 254 329 360
#     4   9  19  37  61  92 117 158 204 256 310 371
#     4  10  17  34  62  88 116 156 210 248 311 364
#     4   9  18  37  61  87 118 153 207 250 309 371
#     4  10  23  42  64  91 121 165 217 257 303 369
#     4  11  24  42  63  90 129 164 208 260 311 370
#     4  10  21  40  61  92 123 162 204 255 312 376
#
# _framework density 20.734399
#
# number of rings (size 3 to 8) (size 9 to 14) (size 15 to 20)
#    0.000    2.143    1.429    1.286    4.000    0.286 
#    3.857    2.143    0.000    0.000    0.000    0.000 
#    0.000    0.000    0.000    0.000    0.000    0.000 
#
# Total GULP energy -156145.202933 kJ/mol
# GULP energy per Si atom -5576.614390 kJ/mol
# Density = 2.068721 g / cm^3
# Si number density = 20.734399 Si / 1000 Ang^3
#
#
#
# Elastic Constant Matrix: (Units=GPa)
#
#
# Indices 1 2 3 4 5 6 
#
# 1 72.5647 28.0646 16.5380 0.0000 20.7435 0.0000
# 2 28.0646 75.6779 28.8946 0.0000 8.9978 0.0000
# 3 16.5380 28.8946 82.3708 0.0000 26.3429 0.0000
# 4 0.0000 0.0000 0.0000 15.1439 0.0000 3.9612
# 5 20.7435 8.9978 26.3429 0.0000 33.6275 0.0000
# 6 0.0000 0.0000 0.0000 3.9612 0.0000 22.8184
#
#
#
# Elastic Compliance Matrix: (Units=1/GPa)
#
#
# Indices 1 2 3 4 5 6 
#
# 1 0.019193 -0.006563 0.002233 0.000000 -0.011832 0.000000
# 2 -0.006563 0.017502 -0.006163 0.000000 0.004193 0.000000
# 3 0.002233 -0.006163 0.018369 0.000000 -0.014118 0.000000
# 4 0.000000 0.000000 0.000000 0.069174 0.000000 -0.012008
# 5 -0.011832 0.004193 -0.014118 0.000000 0.046974 0.000000
# 6 0.000000 0.000000 0.000000 -0.012008 0.000000 0.045909
#
#
# Mechanical properties :
#
#
# Convention : Reuss Voigt Hill
#
# Bulk Modulus (GPa) = 29.34490 41.95644 35.65067
# Shear Modulus (GPa) = 20.04274 24.79236 22.41755
#
# Velocity S-wave (km/s) = 3.11246 3.46166 3.29169
# Velocity P-wave (km/s) = 5.20577 6.02134 5.62835
#
# Compressibility (1/GPa) = 0.03407747
#
# Stress axis : x y z
#
# Youngs Moduli (GPa) = 52.10333 57.13535 54.43993
#
# Poissons Ratio (x) = 0.37499 -0.12156
# Poissons Ratio (y) = 0.34196 0.33551
# Poissons Ratio (z) = -0.11634 0.35212
#
# Static dielectric constant tensor:
#      x y z
#    x 1.711670 0.000000 0.031810 
#    y 0.000000 1.713790 0.000000 
#    z 0.031810 0.000000 1.740840 
# 
# From -- ./inp_files/80523.got.cif
#   From: 2010.05.17/outbox.cif.g08.bks.cpg/sg12_41_cif.got.tgz:80523.got - 2010.06.03 13:09:07.
