data_PCOD9170387
_publ_section_title
;
Structure prediction by ZEFSAII (Michael W. Deem and Ramdas Pophale) SiO2 
 PCOD9170387
Probable space group: C 2/M
;
_chemical_formula_sum "Si O2"
_cell_formula_units_Z 64
_cell_length_a 23.433248
_cell_length_b 20.153317
_cell_length_c 9.605785
_cell_angle_alpha 90.000000
_cell_angle_beta 123.208750
_cell_angle_gamma 90.000000
_cell_volume 3795.523009
_symmetry_space_group_name_H-M "C 2/M"
_symmetry_group_IT_number 12
_symmetry_cell_setting 'monoclinic'
loop_
_space_group_symop_operation_xyz
x,y,z
-x,y,-z
-x,-y,-z
x,-y,z
1/2+x,1/2+y,z
1/2-x,1/2+y,-z
1/2-x,1/2-y,-z
1/2+x,1/2-y,z
loop_
_atom_site_type_symbol
_atom_site_label
_atom_site_fract_x
_atom_site_fract_y
_atom_site_fract_z
Si Si1 0.674439 0.701604 0.740787
Si Si2 0.936161 0.104691 0.011782
Si Si3 0.298847 0.423714 0.663139
Si Si4 0.627743 0.427808 0.799678
Si Si5 0.829335 0.685797 0.035511
Si Si6 0.179085 0.784933 0.438220
Si Si7 0.075286 0.258083 0.058906
Si Si8 0.225704 0.575868 0.844651
O O1 0.631582 0.634685 0.704823
O O2 0.662022 0.750695 0.852608
O O3 0.658637 0.729799 0.568675
O O4 0.756139 0.689235 0.859603
O O5 0.930362 0.077789 0.160266
O O6 0.870024 0.078506 0.842068
O O7 0.932523 0.184643 0.018994
O O8 0.000000 0.087871 0.000000
O O9 0.287056 0.500000 0.599864
O O10 0.307145 0.364077 0.564854
O O11 0.242399 0.405602 0.706520
O O12 0.624584 0.500000 0.727593
O O13 0.700242 0.422669 0.979734
O O14 0.822613 0.623999 0.131928
O O15 0.887038 0.692254 0.996033
O O16 0.250000 0.750000 0.500000
O O17 0.123002 0.758214 0.255286
O O18 0.000000 0.280885 0.000000
O O19 0.201924 0.500000 0.814913
#
# Coordination Sequence:
#
# PCOD9170387 Si02
#       8
#     8   8   8   8   8   8   8   8
#     4  10  19  29  49  75  97 127 170 210 252 289
#     4   9  16  28  47  69  95 135 179 205 234 294
#     4   9  18  30  45  71 105 132 163 209 254 291
#     4   9  16  26  41  67 100 128 163 209 248 285
#     4  10  17  31  53  73  97 131 167 206 250 303
#     4  11  20  33  52  78 102 133 172 212 252 299
#     4  10  20  34  52  75 103 134 168 210 254 301
#     4   8  15  27  46  72  97 124 161 207 251 298
#
# _framework density 16.861971
#
# number of rings (size 3 to 8) (size 9 to 14) (size 15 to 20)
#    0.000    2.500    2.500    1.875    3.500    1.500 
#    0.000    0.625    0.000    0.375    0.000    3.500 
#    0.000    3.000    0.000    0.000    0.000    0.000 
#
# Total GULP energy -178199.254367 kJ/mol
# GULP energy per Si atom -5568.726699 kJ/mol
# Density = 1.682359 g / cm^3
# Si number density = 16.861971 Si / 1000 Ang^3
#
#
#
# Elastic Constant Matrix: (Units=GPa)
#
#
# Indices 1 2 3 4 5 6 
#
# 1 118.8091 43.1906 29.7550 0.0000 -8.0052 0.0000
# 2 43.1906 50.2364 6.6108 0.0000 0.9194 0.0000
# 3 29.7550 6.6108 32.7872 0.0000 -5.8961 0.0000
# 4 0.0000 0.0000 0.0000 4.0351 0.0000 0.5517
# 5 -8.0052 0.9194 -5.8961 0.0000 12.6417 0.0000
# 6 0.0000 0.0000 0.0000 0.5517 0.0000 19.2424
#
#
#
# Elastic Compliance Matrix: (Units=1/GPa)
#
#
# Indices 1 2 3 4 5 6 
#
# 1 0.016144 -0.012535 -0.011047 0.000000 0.005982 0.000000
# 2 -0.012535 0.030343 0.003748 0.000000 -0.008397 0.000000
# 3 -0.011047 0.003748 0.041984 0.000000 0.012313 0.000000
# 4 0.000000 0.000000 0.000000 0.248800 0.000000 -0.007133
# 5 0.005982 -0.008397 0.012313 0.000000 0.089245 0.000000
# 6 0.000000 0.000000 0.000000 -0.007133 0.000000 0.052173
#
#
# Mechanical properties :
#
#
# Convention : Reuss Voigt Hill
#
# Bulk Modulus (GPa) = 20.49115 40.10505 30.29810
# Shear Modulus (GPa) = 9.35235 15.33560 12.34397
#
# Velocity S-wave (km/s) = 2.35764 3.01903 2.70860
# Velocity P-wave (km/s) = 4.42605 5.99905 5.27156
#
# Compressibility (1/GPa) = 0.04880156
#
# Stress axis : x y z
#
# Youngs Moduli (GPa) = 61.94422 32.95606 23.81862
#
# Poissons Ratio (x) = 0.41311 0.26313
# Poissons Ratio (y) = 0.77648 -0.08927
# Poissons Ratio (z) = 0.68432 -0.12351
#
# Static dielectric constant tensor:
#      x y z
#    x 1.604540 0.000000 -0.017890 
#    y 0.000000 1.603180 0.000000 
#    z -0.017890 0.000000 1.553490 
# 
# From -- ./inp_files/89618.got.cif
#   From: 2010.05.17/outbox.cif.g08.bks.cpg/sg12_45_cif.got.tgz:89618.got - 2010.06.03 13:09:07.
