data_PCOD9170658
_publ_section_title
;
Structure prediction by ZEFSAII (Michael W. Deem and Ramdas Pophale) SiO2 
 PCOD9170658
Probable space group: C 2/M
;
_chemical_formula_sum "Si O2"
_cell_formula_units_Z 64
_cell_length_a 18.230465
_cell_length_b 22.364766
_cell_length_c 24.274804
_cell_angle_alpha 90.000000
_cell_angle_beta 22.188930
_cell_angle_gamma 90.000000
_cell_volume 3737.842553
_symmetry_space_group_name_H-M "C 2/M"
_symmetry_group_IT_number 12
_symmetry_cell_setting 'monoclinic'
loop_
_space_group_symop_operation_xyz
x,y,z
-x,y,-z
-x,-y,-z
x,-y,z
1/2+x,1/2+y,z
1/2-x,1/2+y,-z
1/2-x,1/2-y,-z
1/2+x,1/2-y,z
loop_
_atom_site_type_symbol
_atom_site_label
_atom_site_fract_x
_atom_site_fract_y
_atom_site_fract_z
Si Si1 0.559828 0.930600 0.710376
Si Si2 0.317176 0.568414 0.948991
Si Si3 0.180187 0.364890 0.212403
Si Si4 0.469874 0.261709 0.368851
Si Si5 0.448281 0.750088 0.181874
Si Si6 0.684434 0.313177 0.116418
Si Si7 0.942845 0.130018 0.126458
Si Si8 0.138977 0.837387 0.451172
O O1 0.469309 0.906699 0.716190
O O2 0.735154 0.888641 0.607140
O O3 0.612594 0.000000 0.669848
O O4 0.385309 0.924837 0.876559
O O5 0.335190 0.500000 0.918273
O O6 0.320529 0.618176 0.899319
O O7 0.485761 0.585352 0.875703
O O8 0.076898 0.302263 0.297532
O O9 0.279335 0.391900 0.197999
O O10 0.361773 0.355120 0.044411
O O11 0.585787 0.300036 0.242912
O O12 0.463098 0.297665 0.430660
O O13 0.250000 0.250000 0.500000
O O14 0.564121 0.724133 0.154130
O O15 0.375218 0.692027 0.200451
O O16 0.284661 0.792836 0.318528
O O17 0.598926 0.787021 0.039620
O O18 0.000000 0.861787 0.500000
#
# Coordination Sequence:
#
# PCOD9170658 Si02
#       8
#     8   8   8   8   8   8   8   8
#     4  10  20  36  56  76 105 150 193 227 269 320
#     4   9  18  33  56  82 107 145 191 227 262 318
#     4  10  18  33  51  83 113 143 174 224 276 332
#     4  12  21  35  57  84 114 142 179 226 283 332
#     4  10  17  33  53  82 109 146 183 217 280 331
#     4  10  18  32  59  78 108 148 182 225 269 331
#     4   9  18  29  54  83 115 140 176 219 276 331
#     4  12  24  37  55  83 112 143 186 231 278 329
#
# _framework density 17.122177000000001
#
# number of rings (size 3 to 8) (size 9 to 14) (size 15 to 20)
#    0.000    1.750    5.000    0.750    0.000    0.750 
#    0.000    3.125    0.000    0.000    0.000    2.625 
#    0.000    0.000    0.000    0.000    0.000    0.000 
#
# Total GULP energy -178526.965453 kJ/mol
# GULP energy per Si atom -5578.967670 kJ/mol
# Density = 1.708321 g / cm^3
# Si number density = 17.122177 Si / 1000 Ang^3
#
#
#
# Elastic Constant Matrix: (Units=GPa)
#
#
# Indices 1 2 3 4 5 6 
#
# 1 57.7693 16.7382 25.3041 0.0112 2.6085 -0.0102
# 2 16.7382 86.2403 29.3900 -0.0092 0.5795 0.0025
# 3 25.3041 29.3900 57.7549 -0.0012 12.1612 0.0044
# 4 0.0112 -0.0092 -0.0012 17.2297 0.0010 4.6029
# 5 2.6085 0.5795 12.1612 0.0010 22.9426 0.0088
# 6 -0.0102 0.0025 0.0044 4.6029 0.0088 6.0314
#
#
#
# Elastic Compliance Matrix: (Units=1/GPa)
#
#
# Indices 1 2 3 4 5 6 
#
# 1 0.021654 -0.000967 -0.009548 -0.000033 0.002623 0.000065
# 2 -0.000967 0.014382 -0.007701 0.000012 0.003829 -0.000017
# 3 -0.009548 -0.007701 0.028307 0.000011 -0.013725 -0.000022
# 4 -0.000033 0.000012 0.000011 0.072902 0.000016 -0.055636
# 5 0.002623 0.003829 -0.013725 0.000016 0.050467 -0.000073
# 6 0.000065 -0.000017 -0.000022 -0.055636 -0.000073 0.208257
#
#
# Mechanical properties :
#
#
# Convention : Reuss Voigt Hill
#
# Bulk Modulus (GPa) = 35.82801 38.29211 37.06006
# Shear Modulus (GPa) = 11.31980 17.92955 14.62467
#
# Velocity S-wave (km/s) = 2.57401 3.23949 2.92573
# Velocity P-wave (km/s) = 5.45934 6.03365 5.75367
#
# Compressibility (1/GPa) = 0.02791112
#
# Stress axis : x y z
#
# Youngs Moduli (GPa) = 46.18095 69.53157 35.32742
#
# Poissons Ratio (x) = 0.06721 0.33730
# Poissons Ratio (y) = 0.04464 0.27207
# Poissons Ratio (z) = 0.44092 0.53549
#
# Static dielectric constant tensor:
#      x y z
#    x 1.598920 0.000000 -0.014030 
#    y 0.000000 1.549980 0.000020 
#    z -0.014030 0.000020 1.576650 
# 
# From -- ./inp_files/285774.got.cif
#   From: 2010.05.17/outbox.cif.g08.bks.cpg/sg12_143_cif.got.tgz:285774.got - 2010.06.03 13:09:07.
