data_PCOD9170707
_publ_section_title
;
Structure prediction by ZEFSAII (Michael W. Deem and Ramdas Pophale) SiO2 
 PCOD9170707
Probable space group: C 2/M
;
_chemical_formula_sum "Si O2"
_cell_formula_units_Z 56
_cell_length_a 21.187446
_cell_length_b 7.489330
_cell_length_c 22.790783
_cell_angle_alpha 90.000000
_cell_angle_beta 131.776896
_cell_angle_gamma 90.000000
_cell_volume 2696.938261
_symmetry_space_group_name_H-M "C 2/M"
_symmetry_group_IT_number 12
_symmetry_cell_setting 'monoclinic'
loop_
_space_group_symop_operation_xyz
x,y,z
-x,y,-z
-x,-y,-z
x,-y,z
1/2+x,1/2+y,z
1/2-x,1/2+y,-z
1/2-x,1/2-y,-z
1/2+x,1/2-y,z
loop_
_atom_site_type_symbol
_atom_site_label
_atom_site_fract_x
_atom_site_fract_y
_atom_site_fract_z
Si Si1 0.765150 0.792429 0.324045
Si Si2 0.683343 0.205112 0.773562
Si Si3 0.863317 0.218357 0.920350
Si Si4 0.496681 0.715407 0.903695
Si Si5 0.425824 0.215939 0.498432
Si Si6 0.493101 0.780396 0.666285
Si Si7 0.909531 0.291836 0.733421
O O1 0.798458 0.705434 0.284912
O O2 0.836667 0.778250 0.417830
O O3 0.677050 0.714547 0.293409
O O4 0.751856 0.000000 0.300672
O O5 0.767505 0.283695 0.855410
O O6 0.590580 0.282318 0.726983
O O7 0.678807 0.000000 0.790907
O O8 0.919155 0.271905 0.898242
O O9 0.861800 0.000000 0.918425
O O10 0.917200 0.272472 0.010627
O O11 0.496420 0.500000 0.902700
O O12 0.479409 0.779096 0.827665
O O13 0.500000 0.274103 0.500000
O O14 0.448523 0.273774 0.578133
O O15 0.424680 0.000000 0.496984
O O16 0.443671 0.718770 0.693376
O O17 0.494832 0.000000 0.667123
O O18 0.890917 0.500000 0.710696
#
# Coordination Sequence:
#
# PCOD9170707 Si02
#       7
#     8   8   8   8   8   8   8
#     4  11  22  33  50  77 109 136 162 207 263 311
#     4  10  17  33  58  78  96 132 182 217 245 294
#     4   8  15  27  51  81 102 125 170 223 257 284
#     4   9  16  30  51  77 105 132 169 217 256 294
#     4  10  19  35  58  80  97 127 179 220 246 291
#     4   9  19  35  55  75 100 134 174 215 249 299
#     4  10  21  36  50  73 109 143 167 199 259 317
#
# _framework density 20.764288000000001
#
# number of rings (size 3 to 8) (size 9 to 14) (size 15 to 20)
#    0.000    2.429    2.857    1.286    0.000    1.429 
#    0.000    4.286    0.000    0.000    0.000    0.000 
#    0.000    0.000    0.000    0.000    0.000    0.000 
#
# Total GULP energy -156310.285547 kJ/mol
# GULP energy per Si atom -5582.510198 kJ/mol
# Density = 2.071703 g / cm^3
# Si number density = 20.764288 Si / 1000 Ang^3
#
#
#
# Elastic Constant Matrix: (Units=GPa)
#
#
# Indices 1 2 3 4 5 6 
#
# 1 90.9848 -1.6566 40.9395 0.0000 -6.1819 0.0000
# 2 -1.6566 57.2822 -12.0266 0.0000 1.0884 0.0001
# 3 40.9395 -12.0266 119.5189 0.0000 4.5914 0.0000
# 4 0.0000 0.0000 0.0000 26.2164 0.0000 3.1127
# 5 -6.1819 1.0884 4.5914 0.0000 37.0191 0.0000
# 6 0.0000 0.0001 0.0000 3.1127 0.0000 9.7322
#
#
#
# Elastic Compliance Matrix: (Units=1/GPa)
#
#
# Indices 1 2 3 4 5 6 
#
# 1 0.013300 -0.000662 -0.004731 0.000000 0.002827 0.000000
# 2 -0.000662 0.017888 0.002061 0.000000 -0.000892 0.000000
# 3 -0.004731 0.002061 0.010276 0.000000 -0.002125 0.000000
# 4 0.000000 0.000000 0.000000 0.039650 0.000000 -0.012681
# 5 0.002827 -0.000892 -0.002125 0.000000 0.027775 0.000000
# 6 0.000000 0.000000 0.000000 -0.012681 0.000000 0.106808
#
#
# Mechanical properties :
#
#
# Convention : Reuss Voigt Hill
#
# Bulk Modulus (GPa) = 28.73577 35.81095 32.27336
# Shear Modulus (GPa) = 21.37115 30.62886 26.00000
#
# Velocity S-wave (km/s) = 3.21164 3.84484 3.54241
# Velocity P-wave (km/s) = 5.25565 6.08229 5.68402
#
# Compressibility (1/GPa) = 0.03479983
#
# Stress axis : x y z
#
# Youngs Moduli (GPa) = 75.19050 55.90346 97.31041
#
# Poissons Ratio (x) = 0.03703 0.46036
# Poissons Ratio (y) = 0.04980 -0.20057
# Poissons Ratio (z) = 0.35571 -0.11522
#
# Static dielectric constant tensor:
#      x y z
#    x 1.720340 0.000000 0.020140 
#    y 0.000000 1.801350 0.000000 
#    z 0.020140 0.000000 1.725400 
# 
# From -- ./inp_files/320212.got.cif
#   From: 2010.05.17/outbox.cif.g08.bks.cpg/sg12_161_cif.got.tgz:320212.got - 2010.06.03 13:09:07.
