data_PCOD9170269
_publ_section_title
;
Structure prediction by ZEFSAII (Michael W. Deem and Ramdas Pophale) SiO2 
 PCOD9170269
Probable space group: C 2/M
;
_chemical_formula_sum "Si O2"
_cell_formula_units_Z 52
_cell_length_a 14.393409
_cell_length_b 30.196693
_cell_length_c 9.857154
_cell_angle_alpha 90.000000
_cell_angle_beta 27.947261
_cell_angle_gamma 90.000000
_cell_volume 2007.849782
_symmetry_space_group_name_H-M "C 2/M"
_symmetry_group_IT_number 12
_symmetry_cell_setting 'monoclinic'
loop_
_space_group_symop_operation_xyz
x,y,z
-x,y,-z
-x,-y,-z
x,-y,z
1/2+x,1/2+y,z
1/2-x,1/2+y,-z
1/2-x,1/2-y,-z
1/2+x,1/2-y,z
loop_
_atom_site_type_symbol
_atom_site_label
_atom_site_fract_x
_atom_site_fract_y
_atom_site_fract_z
Si Si1 0.024890 0.355952 0.709249
Si Si2 0.429897 0.551861 0.884930
Si Si3 0.172280 0.822441 0.893063
Si Si4 0.177753 0.722235 0.882586
Si Si5 0.868746 0.846066 0.485275
Si Si6 0.163256 0.446519 0.476387
Si Si7 0.500000 0.416087 0.500000
O O1 0.138633 0.340637 0.427420
O O2 0.185944 0.350791 0.621589
O O3 0.000613 0.409285 0.725002
O O4 0.875684 0.316136 0.940992
O O5 0.421868 0.500000 0.917292
O O6 0.646042 0.563088 0.671197
O O7 0.428513 0.558772 0.725325
O O8 0.250657 0.565827 0.215110
O O9 0.204852 0.771926 0.896363
O O10 0.000000 0.821929 0.000000
O O11 0.073359 0.851701 0.139550
O O12 0.359729 0.702609 0.560971
O O13 0.000000 0.724677 0.000000
O O14 0.844642 0.882102 0.633353
O O15 0.113094 0.500000 0.548691
#
# Coordination Sequence:
#
# PCOD9170269 Si02
#       7
#     8   8   8   8   8   8   4
#     4  10  17  30  54  77 102 135 173 219 263 302
#     4   9  18  30  49  74 102 131 173 220 259 299
#     4   9  17  30  53  76  98 131 182 223 255 297
#     4   9  18  32  49  75 105 134 173 221 262 304
#     4  10  20  30  47  74 104 134 171 210 262 311
#     4   9  17  31  51  78 103 131 176 223 254 300
#     4  12  19  30  48  74 108 138 164 204 271 322
#
# _framework density 25.898354000000001
#
# number of rings (size 3 to 8) (size 9 to 14) (size 15 to 20)
#    0.000    2.462    1.538    3.000    4.308    3.692 
#    0.000    0.769    0.000    9.692    0.000    2.154 
#    0.000    0.000    0.000    0.000    0.000    0.000 
#
# Total GULP energy -145222.583681 kJ/mol
# GULP energy per Si atom -5585.483988 kJ/mol
# Density = 2.583941 g / cm^3
# Si number density = 25.898354 Si / 1000 Ang^3
#
#
#
# Elastic Constant Matrix: (Units=GPa)
#
#
# Indices 1 2 3 4 5 6 
#
# 1 130.3539 5.7036 10.4802 0.0000 18.9962 0.0000
# 2 5.7036 144.4827 39.1547 0.0000 11.2187 0.0000
# 3 10.4802 39.1547 83.5962 0.0000 28.5347 0.0000
# 4 0.0000 0.0000 0.0000 37.1023 0.0000 29.3854
# 5 18.9962 11.2187 28.5347 0.0000 18.3159 0.0000
# 6 0.0000 0.0000 0.0000 29.3854 0.0000 16.5554
#
#
#
# Elastic Compliance Matrix: (Units=1/GPa)
#
#
# Indices 1 2 3 4 5 6 
#
# 1 0.009887 -0.000366 0.005031 0.000000 -0.017868 0.000000
# 2 -0.000366 0.007975 -0.004595 0.000000 0.002655 0.000000
# 3 0.005031 -0.004595 0.030550 0.000000 -0.049998 0.000000
# 4 0.000000 0.000000 0.000000 -0.066418 0.000000 0.117890
# 5 -0.017868 0.002655 -0.049998 0.000000 0.149396 0.000000
# 6 0.000000 0.000000 0.000000 0.117890 0.000000 -0.148850
#
#
# Mechanical properties :
#
#
# Convention : Reuss Voigt Hill
#
# Bulk Modulus (GPa) = 20.59713 52.12329 36.36021
# Shear Modulus (GPa) = -3534.52873 34.60102 -1749.96386
#
# Velocity S-wave (km/s) = -36.98287 3.65914 -26.02252
# Velocity P-wave (km/s) = 42.61071 6.16622 29.81317
#
# Compressibility (1/GPa) = 0.04855045
#
# Stress axis : x y z
#
# Youngs Moduli (GPa) = 101.14537 125.39250 32.73284
#
# Poissons Ratio (x) = 0.04593 -0.16468
# Poissons Ratio (y) = 0.03705 0.15042
# Poissons Ratio (z) = -0.50886 0.57624
#
# Static dielectric constant tensor:
#      x y z
#    x 2.057090 0.000000 -0.012570 
#    y 0.000000 2.033650 0.000000 
#    z -0.012570 0.000000 2.063820 
# 
# From -- ./inp_files/68532.got.cif
#   From: 2010.05.17/outbox.cif.g08.bks.cpg/sg12_35_cif.got.tgz:68532.got - 2010.06.03 13:09:07.
