data_PCOD9170141
_publ_section_title
;
Structure prediction by ZEFSAII (Michael W. Deem and Ramdas Pophale) SiO2 
 PCOD9170141
Probable space group: C 2/M
;
_chemical_formula_sum "Si O2"
_cell_formula_units_Z 40
_cell_length_a 9.134181
_cell_length_b 16.727612
_cell_length_c 15.199352
_cell_angle_alpha 90.000000
_cell_angle_beta 48.143023
_cell_angle_gamma 90.000000
_cell_volume 1729.719846
_symmetry_space_group_name_H-M "C 2/M"
_symmetry_group_IT_number 12
_symmetry_cell_setting 'monoclinic'
loop_
_space_group_symop_operation_xyz
x,y,z
-x,y,-z
-x,-y,-z
x,-y,z
1/2+x,1/2+y,z
1/2-x,1/2+y,-z
1/2-x,1/2-y,-z
1/2+x,1/2-y,z
loop_
_atom_site_type_symbol
_atom_site_label
_atom_site_fract_x
_atom_site_fract_y
_atom_site_fract_z
Si Si1 0.438714 0.672873 0.355434
Si Si2 0.000000 0.720946 0.500000
Si Si3 0.551481 0.000000 0.698788
Si Si4 0.153007 0.000000 0.581365
Si Si5 0.327302 0.640216 0.889870
Si Si6 0.497320 0.908772 0.123042
Si Si7 0.367622 0.500000 0.211615
O O1 0.504184 0.727023 0.409688
O O2 0.472787 0.581029 0.371122
O O3 0.547403 0.699287 0.221851
O O4 0.205157 0.675016 0.429286
O O5 0.685335 0.000000 0.559491
O O6 0.582549 0.079204 0.746463
O O7 0.318876 0.000000 0.775011
O O8 0.224299 0.000000 0.653587
O O9 0.491013 0.576268 0.853300
O O10 0.175299 0.607825 0.876408
O O11 0.177075 0.651544 0.031051
O O12 0.572609 0.000000 0.074881
#
# Coordination Sequence:
#
# PCOD9170141 Si02
#       7
#     8   4   4   4   8   8   4
#     4  10  24  40  66  89 125 160 205 252 307 372
#     4  10  24  46  58  90 126 174 192 238 330 382
#     4  10  21  28  50  91 134 152 192 257 314 364
#     4  10  23  35  60 100 123 153 204 265 299 344
#     4  10  17  34  56  79 115 160 201 242 299 358
#     4   9  18  32  50  82 126 161 192 244 314 356
#     4  10  17  30  48  81 128 159 181 250 319 343
#
# _framework density 23.125133000000002
#
# number of rings (size 3 to 8) (size 9 to 14) (size 15 to 20)
#    0.600    1.600    2.000    0.900    8.400    2.000 
#    0.000    0.000    0.000    4.800    0.000    0.000 
#    0.000    0.000    0.000    0.000    0.000    0.000 
#
# Total GULP energy -111397.085636 kJ/mol
# GULP energy per Si atom -5569.854282 kJ/mol
# Density = 2.307250 g / cm^3
# Si number density = 23.125133 Si / 1000 Ang^3
#
#
#
# Elastic Constant Matrix: (Units=GPa)
#
#
# Indices 1 2 3 4 5 6 
#
# 1 104.7345 3.0310 32.7663 0.0000 -14.3196 -0.0001
# 2 3.0310 40.6038 14.5844 0.0000 -4.9940 0.0000
# 3 32.7663 14.5844 119.2141 0.0001 -20.6755 0.0000
# 4 0.0000 0.0000 0.0001 -17.4523 -0.0001 4.5863
# 5 -14.3196 -4.9940 -20.6755 -0.0001 22.9967 0.0000
# 6 -0.0001 0.0000 0.0000 4.5863 0.0000 -5.4248
#
#
#
# Elastic Compliance Matrix: (Units=1/GPa)
#
#
# Indices 1 2 3 4 5 6 
#
# 1 0.010896 0.000587 -0.002213 0.000000 0.004923 0.000000
# 2 0.000587 0.026001 -0.002724 0.000000 0.003563 0.000000
# 3 -0.002213 -0.002724 0.010649 0.000000 0.007604 0.000000
# 4 0.000000 0.000000 0.000000 -0.073666 0.000000 -0.062281
# 5 0.004923 0.003563 0.007604 0.000000 0.054160 0.000000
# 6 0.000000 0.000000 0.000000 -0.062281 0.000000 -0.236994
#
#
# Mechanical properties :
#
#
# Convention : Reuss Voigt Hill
#
# Bulk Modulus (GPa) = 25.74305 40.59062 33.16683
# Shear Modulus (GPa) = -26.69445 14.30197 -6.19624
#
# Velocity S-wave (km/s) = -3.40126 2.48958 -1.63868
# Velocity P-wave (km/s) = 2.06603 5.08476 3.28529
#
# Compressibility (1/GPa) = 0.03884544
#
# Stress axis : x y z
#
# Youngs Moduli (GPa) = 91.77387 38.45978 93.90900
#
# Poissons Ratio (x) = -0.02257 0.20781
# Poissons Ratio (y) = -0.05387 0.25584
# Poissons Ratio (z) = 0.20309 0.10478
#
# Static dielectric constant tensor:
#      x y z
#    x 1.810630 0.000000 0.008750 
#    y 0.000000 1.919610 0.000000 
#    z 0.008750 0.000000 1.986950 
# 
# From -- ./inp_files/196807.got.cif
#   From: 2010.05.17/outbox.cif.g08.bks.cpg/sg12_99_cif.got.tgz:196807.got - 2010.06.03 13:09:07.
