data_PCOD9170930
_publ_section_title
;
Structure prediction by ZEFSAII (Michael W. Deem and Ramdas Pophale) SiO2 
 PCOD9170930
Probable space group: C 2/M
;
_chemical_formula_sum "Si O2"
_cell_formula_units_Z 40
_cell_length_a 7.120173
_cell_length_b 30.041048
_cell_length_c 12.512951
_cell_angle_alpha 90.000000
_cell_angle_beta 137.785923
_cell_angle_gamma 90.000000
_cell_volume 1798.339469
_symmetry_space_group_name_H-M "C 2/M"
_symmetry_group_IT_number 12
_symmetry_cell_setting 'monoclinic'
loop_
_space_group_symop_operation_xyz
x,y,z
-x,y,-z
-x,-y,-z
x,-y,z
1/2+x,1/2+y,z
1/2-x,1/2+y,-z
1/2-x,1/2-y,-z
1/2+x,1/2-y,z
loop_
_atom_site_type_symbol
_atom_site_label
_atom_site_fract_x
_atom_site_fract_y
_atom_site_fract_z
Si Si1 0.836817 0.401905 0.630270
Si Si2 0.731973 0.598086 0.004101
Si Si3 0.269480 0.500000 0.998765
Si Si4 0.000000 0.657766 0.500000
Si Si5 0.331346 0.000000 0.638735
Si Si6 0.522118 0.686645 0.818228
Si Si7 0.000000 0.239495 0.000000
O O1 0.500000 0.397317 0.500000
O O2 0.967105 0.370970 0.594037
O O3 0.913739 0.452494 0.626365
O O4 0.983083 0.395650 0.807702
O O5 0.709611 0.548958 0.940695
O O6 0.500000 0.598516 0.000000
O O7 0.664203 0.638925 0.898016
O O8 0.969601 0.500000 0.813954
O O9 0.500000 0.500000 0.000000
O O10 0.288118 0.684463 0.630375
O O11 0.000000 0.000000 0.500000
O O12 0.374108 0.704213 0.862923
O O13 0.749161 0.725355 0.906150
#
# Coordination Sequence:
#
# PCOD9170930 Si02
#       7
#     8   8   4   4   4   8   4
#     4  10  21  36  59  88 124 165 205 248 299 353
#     4  10  17  37  60  86 124 162 199 243 294 358
#     4   8  16  26  56  86 112 163 204 227 285 359
#     4  12  24  39  60  96 120 152 202 253 308 364
#     4   8  16  33  52  80 121 164 204 244 289 348
#     4  11  23  42  64  90 119 154 201 252 306 367
#     4  10  24  44  66  84 114 160 196 250 316 366
#
# _framework density 22.242742
#
# number of rings (size 3 to 8) (size 9 to 14) (size 15 to 20)
#    0.000    2.000    3.000    0.000    2.800    1.200 
#    0.000    1.000    0.000    0.600    0.000    0.000 
#    0.000    0.000    0.000    0.000    0.000    0.000 
#
# Total GULP energy -111420.852445 kJ/mol
# GULP energy per Si atom -5571.042622 kJ/mol
# Density = 2.219212 g / cm^3
# Si number density = 22.242742 Si / 1000 Ang^3
#
#
#
# Elastic Constant Matrix: (Units=GPa)
#
#
# Indices 1 2 3 4 5 6 
#
# 1 29.8936 14.0249 3.2822 0.0000 6.9138 0.0000
# 2 14.0249 157.2782 53.0768 0.0000 -4.6995 0.0000
# 3 3.2822 53.0768 129.5322 0.0000 23.2191 0.0000
# 4 0.0000 0.0000 0.0000 -9.4062 0.0000 -7.2526
# 5 6.9138 -4.6995 23.2191 0.0000 23.7601 0.0000
# 6 0.0000 0.0000 0.0000 -7.2526 0.0000 -6.5921
#
#
#
# Elastic Compliance Matrix: (Units=1/GPa)
#
#
# Indices 1 2 3 4 5 6 
#
# 1 0.039389 -0.005432 0.004213 0.000000 -0.016653 0.000000
# 2 -0.005432 0.008735 -0.004891 0.000000 0.008088 0.000000
# 3 0.004213 -0.004891 0.012137 0.000000 -0.014054 0.000000
# 4 0.000000 0.000000 0.000000 -0.700775 0.000000 0.770991
# 5 -0.016653 0.008088 -0.014054 0.000000 0.062267 0.000000
# 6 0.000000 0.000000 0.000000 0.770991 0.000000 -0.999940
#
#
# Mechanical properties :
#
#
# Convention : Reuss Voigt Hill
#
# Bulk Modulus (GPa) = 20.81593 50.83018 35.82306
# Shear Modulus (GPa) = -3.22590 17.97369 7.37389
#
# Velocity S-wave (km/s) = -1.20560 2.84574 1.82274
# Velocity P-wave (km/s) = 2.72780 5.80515 4.53545
#
# Compressibility (1/GPa) = 0.04804013
#
# Stress axis : x y z
#
# Youngs Moduli (GPa) = 25.38764 114.48324 82.39382
#
# Poissons Ratio (x) = 0.62183 -0.34710
# Poissons Ratio (y) = 0.13790 0.40302
# Poissons Ratio (z) = -0.10695 0.55998
#
# Static dielectric constant tensor:
#      x y z
#    x 2.090060 0.000000 -0.058770 
#    y 0.000000 1.957720 0.000000 
#    z -0.058770 0.000000 1.878220 
# 
# From -- ./inp_files/201442.got.cif
#   From: 2010.05.17/outbox.cif.g08.bks.cpg/sg12_101_cif.got.tgz:201442.got - 2010.06.03 13:09:07.
