data_PCOD9170260
_publ_section_title
;
Structure prediction by ZEFSAII (Michael W. Deem and Ramdas Pophale) SiO2 
 PCOD9170260
Probable space group: C 2/M
;
_chemical_formula_sum "Si O2"
_cell_formula_units_Z 56
_cell_length_a 12.545374
_cell_length_b 14.603808
_cell_length_c 13.804059
_cell_angle_alpha 90.000000
_cell_angle_beta 97.138302
_cell_angle_gamma 90.000000
_cell_volume 2509.442467
_symmetry_space_group_name_H-M "C 2/M"
_symmetry_group_IT_number 12
_symmetry_cell_setting 'monoclinic'
loop_
_space_group_symop_operation_xyz
x,y,z
-x,y,-z
-x,-y,-z
x,-y,z
1/2+x,1/2+y,z
1/2-x,1/2+y,-z
1/2-x,1/2-y,-z
1/2+x,1/2-y,z
loop_
_atom_site_type_symbol
_atom_site_label
_atom_site_fract_x
_atom_site_fract_y
_atom_site_fract_z
Si Si1 0.556706 0.895627 0.413234
Si Si2 0.381451 0.838307 0.256139
Si Si3 0.305581 0.397450 0.209273
Si Si4 0.485890 0.667816 0.814795
Si Si5 0.703370 0.389582 0.577672
Si Si6 0.786230 0.777660 0.897777
Si Si7 0.311737 0.609978 0.638366
O O1 0.500000 0.850708 0.500000
O O2 0.474989 0.898099 0.314857
O O3 0.672924 0.856503 0.401654
O O4 0.581631 0.000000 0.445633
O O5 0.454135 0.757220 0.220121
O O6 0.297074 0.851750 0.157947
O O7 0.294051 0.837355 0.334475
O O8 0.258490 0.500000 0.206413
O O9 0.411938 0.396287 0.155400
O O10 0.345037 0.371346 0.322606
O O11 0.228621 0.316213 0.166208
O O12 0.406968 0.689161 0.894620
O O13 0.408059 0.629227 0.722589
O O14 0.698197 0.500000 0.572513
O O15 0.660449 0.360575 0.468191
O O16 0.750000 0.750000 0.000000
O O17 0.288182 0.500000 0.637528
#
# Coordination Sequence:
#
# PCOD9170260 Si02
#       7
#     8   8   8   8   8   8   8
#     4  10  17  30  53  82 118 161 200 235 282 350
#     4  10  20  35  55  86 116 150 194 244 297 350
#     4  10  21  40  62  88 119 158 202 242 294 364
#     4  10  22  39  57  88 121 153 193 252 308 354
#     4   9  18  32  54  83 121 162 198 236 280 341
#     4  10  23  44  63  83 116 153 196 258 321 360
#     4  10  19  36  58  84 120 165 205 236 279 349
#
# _framework density 22.315712999999999
#
# number of rings (size 3 to 8) (size 9 to 14) (size 15 to 20)
#    0.000    2.143    1.429    1.714    0.000    2.857 
#    5.143   12.143    0.000    0.000    0.000   16.000 
#    0.000    0.000    0.000    0.000    0.000    0.000 
#
# Total GULP energy -155904.331141 kJ/mol
# GULP energy per Si atom -5568.011826 kJ/mol
# Density = 2.226492 g / cm^3
# Si number density = 22.315713 Si / 1000 Ang^3
#
#
#
# Elastic Constant Matrix: (Units=GPa)
#
#
# Indices 1 2 3 4 5 6 
#
# 1 71.6159 -2.5802 2.7734 0.0000 -15.7307 0.0000
# 2 -2.5802 40.1633 -4.8399 0.0000 -8.6970 0.0000
# 3 2.7734 -4.8399 94.0703 0.0000 -25.2024 0.0000
# 4 0.0000 0.0000 0.0000 31.2318 0.0000 6.2015
# 5 -15.7307 -8.6970 -25.2024 0.0000 34.6938 0.0000
# 6 0.0000 0.0000 0.0000 6.2015 0.0000 25.7160
#
#
#
# Elastic Compliance Matrix: (Units=1/GPa)
#
#
# Indices 1 2 3 4 5 6 
#
# 1 0.016176 0.003471 0.002359 0.000000 0.009918 0.000000
# 2 0.003471 0.028263 0.004559 0.000000 0.011970 0.000000
# 3 0.002359 0.004559 0.014140 0.000000 0.012484 0.000000
# 4 0.000000 0.000000 0.000000 0.033629 0.000000 -0.008110
# 5 0.009918 0.011970 0.012484 0.000000 0.045390 0.000000
# 6 0.000000 0.000000 0.000000 -0.008110 0.000000 0.040842
#
#
# Mechanical properties :
#
#
# Convention : Reuss Voigt Hill
#
# Bulk Modulus (GPa) = 12.60155 21.83956 17.22056
# Shear Modulus (GPa) = 27.15714 32.36139 29.75926
#
# Velocity S-wave (km/s) = 3.49227 3.81223 3.65575
# Velocity P-wave (km/s) = 4.68193 5.40235 5.05499
#
# Compressibility (1/GPa) = 0.07935531
#
# Stress axis : x y z
#
# Youngs Moduli (GPa) = 61.82157 35.38226 70.72190
#
# Poissons Ratio (x) = -0.12281 -0.16682
# Poissons Ratio (y) = -0.21458 -0.32240
# Poissons Ratio (z) = -0.14582 -0.16130
#
# Static dielectric constant tensor:
#      x y z
#    x 1.855080 0.000000 -0.017230 
#    y 0.000000 1.894320 0.000000 
#    z -0.017230 0.000000 1.845910 
# 
# From -- ./inp_files/205032.got.cif
#   From: 2010.05.17/outbox.cif.g08.bks.cpg/sg12_103_cif.got.tgz:205032.got - 2010.06.03 13:09:07.
