data_PCOD9170270
_publ_section_title
;
Structure prediction by ZEFSAII (Michael W. Deem and Ramdas Pophale) SiO2 
 PCOD9170270
Probable space group: C 2/M
;
_chemical_formula_sum "Si O2"
_cell_formula_units_Z 40
_cell_length_a 25.839493
_cell_length_b 16.446716
_cell_length_c 20.169598
_cell_angle_alpha 90.000000
_cell_angle_beta 168.461557
_cell_angle_gamma 90.000000
_cell_volume 1714.531706
_symmetry_space_group_name_H-M "C 2/M"
_symmetry_group_IT_number 12
_symmetry_cell_setting 'monoclinic'
loop_
_space_group_symop_operation_xyz
x,y,z
-x,y,-z
-x,-y,-z
x,-y,z
1/2+x,1/2+y,z
1/2-x,1/2+y,-z
1/2-x,1/2-y,-z
1/2+x,1/2-y,z
loop_
_atom_site_type_symbol
_atom_site_label
_atom_site_fract_x
_atom_site_fract_y
_atom_site_fract_z
Si Si1 0.977127 0.590522 0.125131
Si Si2 0.830517 0.380654 0.347798
Si Si3 0.768845 0.380353 0.417131
Si Si4 0.371835 0.724564 0.260390
Si Si5 0.078542 0.194402 0.379513
O O1 0.902116 0.500000 0.009304
O O2 0.086719 0.587262 0.337695
O O3 0.212574 0.627794 0.378009
O O4 0.749308 0.656719 0.844192
O O5 0.887315 0.405354 0.494925
O O6 0.000000 0.412232 0.500000
O O7 0.888324 0.283010 0.420826
O O8 0.532829 0.400629 0.961991
O O9 0.786589 0.282395 0.444588
O O10 0.442010 0.680808 0.278757
O O11 0.140952 0.788741 0.951694
#
# Coordination Sequence:
#
# PCOD9170270 Si02
#       5
#     8   8   8   8   8
#     4  11  21  33  51  77 111 141 164 202 259 316
#     4  10  17  30  54  77  98 126 170 221 256 287
#     4   9  19  32  51  78 101 130 175 214 251 301
#     4   9  18  32  54  77  96 128 180 223 247 289
#     4   9  17  33  53  73  97 132 177 220 252 288
#
# _framework density 23.329985000000001
#
# number of rings (size 3 to 8) (size 9 to 14) (size 15 to 20)
#    0.000    2.400    0.000    6.000    0.000    0.800 
#    0.000    2.000    0.000   11.400    0.000   14.000 
#    0.000    0.000    0.000    0.000    0.000    0.000 
#
# Total GULP energy -111769.479692 kJ/mol
# GULP energy per Si atom -5588.473985 kJ/mol
# Density = 2.327689 g / cm^3
# Si number density = 23.329985 Si / 1000 Ang^3
#
#
#
# Elastic Constant Matrix: (Units=GPa)
#
#
# Indices 1 2 3 4 5 6 
#
# 1 93.4393 17.5415 23.6919 0.0042 26.7830 0.0006
# 2 17.5415 144.9818 30.4491 0.0200 19.5778 0.0097
# 3 23.6919 30.4491 90.5740 -0.0149 13.4599 0.0156
# 4 0.0042 0.0200 -0.0149 -12.6365 -0.0009 -6.2908
# 5 26.7830 19.5778 13.4599 -0.0009 43.4759 0.0022
# 6 0.0006 0.0097 0.0156 -6.2908 0.0022 -13.0899
#
#
#
# Elastic Compliance Matrix: (Units=1/GPa)
#
#
# Indices 1 2 3 4 5 6 
#
# 1 0.013480 -0.000118 -0.002369 0.000012 -0.007517 -0.000010
# 2 -0.000118 0.007736 -0.002162 0.000018 -0.002741 -0.000006
# 3 -0.002369 -0.002162 0.012606 -0.000034 -0.001469 0.000029
# 4 0.000012 0.000018 -0.000034 -0.104023 -0.000010 0.049992
# 5 -0.007517 -0.002741 -0.001469 -0.000010 0.029322 0.000005
# 6 -0.000010 -0.000006 0.000029 0.049992 0.000005 -0.100420
#
#
# Mechanical properties :
#
#
# Convention : Reuss Voigt Hill
#
# Bulk Modulus (GPa) = 40.77955 52.48444 46.63200
# Shear Modulus (GPa) = -40.37908 20.70406 -9.83751
#
# Velocity S-wave (km/s) = -4.16478 2.98223 -2.05568
# Velocity P-wave (km/s) = 2.36849 5.86546 3.79433
#
# Compressibility (1/GPa) = 0.02452210
#
# Stress axis : x y z
#
# Youngs Moduli (GPa) = 74.18518 129.26499 79.32920
#
# Poissons Ratio (x) = 0.01529 0.18794
# Poissons Ratio (y) = 0.00877 0.17154
# Poissons Ratio (z) = 0.17575 0.27952
#
# Static dielectric constant tensor:
#      x y z
#    x 1.969270 0.000000 -0.042250 
#    y 0.000000 1.875520 -0.000020 
#    z -0.042250 -0.000020 1.869470 
# 
# From -- ./inp_files/285057.got.cif
#   From: 2010.05.17/outbox.cif.g08.bks.cpg/sg12_143_cif.got.tgz:285057.got - 2010.06.03 13:09:07.
