data_PCOD9170420
_publ_section_title
;
Structure prediction by ZEFSAII (Michael W. Deem and Ramdas Pophale) SiO2 
 PCOD9170420
Probable space group: C 2/M
;
_chemical_formula_sum "Si O2"
_cell_formula_units_Z 44
_cell_length_a 18.498274
_cell_length_b 13.620593
_cell_length_c 11.781741
_cell_angle_alpha 90.000000
_cell_angle_beta 61.301061
_cell_angle_gamma 90.000000
_cell_volume 2603.832638
_symmetry_space_group_name_H-M "C 2/M"
_symmetry_group_IT_number 12
_symmetry_cell_setting 'monoclinic'
loop_
_space_group_symop_operation_xyz
x,y,z
-x,y,-z
-x,-y,-z
x,-y,z
1/2+x,1/2+y,z
1/2-x,1/2+y,-z
1/2-x,1/2-y,-z
1/2+x,1/2-y,z
loop_
_atom_site_type_symbol
_atom_site_label
_atom_site_fract_x
_atom_site_fract_y
_atom_site_fract_z
Si Si1 0.848118 0.613914 0.130974
Si Si2 0.000000 0.753859 0.000000
Si Si3 0.631606 0.309144 0.514308
Si Si4 0.507286 0.616006 0.214842
Si Si5 0.188445 0.388174 0.572745
Si Si6 0.162239 0.882570 0.243697
O O1 0.864681 0.500000 0.088888
O O2 0.921110 0.684671 0.039611
O O3 0.839442 0.619402 0.274686
O O4 0.757938 0.642459 0.151867
O O5 0.986405 0.821561 0.119845
O O6 0.553865 0.353588 0.637631
O O7 0.714447 0.361787 0.499447
O O8 0.642182 0.194466 0.535646
O O9 0.631202 0.329384 0.380830
O O10 0.499344 0.500000 0.199029
O O11 0.600129 0.636188 0.188038
O O12 0.175816 0.500000 0.544448
O O13 0.160511 0.000000 0.269307
#
# Coordination Sequence:
#
# PCOD9170420 Si02
#       6
#     8   4   8   8   8   8
#     4   9  18  35  55  76 100 134 178 216 250 300
#     4  12  22  34  52  78 102 142 172 212 254 306
#     4  10  17  31  55  80 103 131 170 211 261 308
#     4  11  22  35  51  77 108 137 171 212 258 312
#     4   9  17  30  52  81 107 130 165 215 263 303
#     4   9  19  35  56  78 102 132 172 219 261 302
#
# _framework density 16.898167000000001
#
# number of rings (size 3 to 8) (size 9 to 14) (size 15 to 20)
#    0.000    2.182    1.818    3.818    0.000    2.182 
#    0.000    0.000    0.000    4.364    0.000    0.000 
#    0.000    0.000    0.000    0.000    0.000    0.000 
#
# Total GULP energy -122729.081735 kJ/mol
# GULP energy per Si atom -5578.594624 kJ/mol
# Density = 1.685971 g / cm^3
# Si number density = 16.898167 Si / 1000 Ang^3
#
#
#
# Elastic Constant Matrix: (Units=GPa)
#
#
# Indices 1 2 3 4 5 6 
#
# 1 41.0571 22.2353 10.1580 0.0000 -9.6637 0.0000
# 2 22.2353 82.2708 21.0122 0.0000 -9.9355 0.0000
# 3 10.1580 21.0122 32.7948 0.0000 -17.5262 0.0000
# 4 0.0000 0.0000 0.0000 17.6352 0.0000 -7.6888
# 5 -9.6637 -9.9355 -17.5262 0.0000 18.7716 0.0000
# 6 0.0000 0.0000 0.0000 -7.6888 0.0000 15.9447
#
#
#
# Elastic Compliance Matrix: (Units=1/GPa)
#
#
# Indices 1 2 3 4 5 6 
#
# 1 0.031126 -0.007397 0.003132 0.000000 0.015033 0.000000
# 2 -0.007397 0.016329 -0.011151 0.000000 -0.005577 0.000000
# 3 0.003132 -0.011151 0.068607 0.000000 0.059766 0.000000
# 4 0.000000 0.000000 0.000000 0.071800 0.000000 0.034623
# 5 0.015033 -0.005577 0.059766 0.000000 0.113860 0.000000
# 6 0.000000 0.000000 0.000000 0.034623 0.000000 0.079413
#
#
# Mechanical properties :
#
#
# Convention : Reuss Voigt Hill
#
# Bulk Modulus (GPa) = 11.73302 29.21487 20.47395
# Shear Modulus (GPa) = 11.35391 17.31810 14.33601
#
# Velocity S-wave (km/s) = 2.59492 3.20480 2.91585
# Velocity P-wave (km/s) = 3.99207 5.56962 4.84547
#
# Compressibility (1/GPa) = 0.08522957
#
# Stress axis : x y z
#
# Youngs Moduli (GPa) = 32.12795 61.24183 14.57569
#
# Poissons Ratio (x) = 0.45299 -0.04565
# Poissons Ratio (y) = 0.23764 0.16254
# Poissons Ratio (z) = -0.10063 0.68293
#
# Static dielectric constant tensor:
#      x y z
#    x 1.572580 0.000000 -0.018390 
#    y 0.000000 1.559010 0.000000 
#    z -0.018390 0.000000 1.544900 
# 
# From -- ./inp_files/154113.got.cif
#   From: 2010.05.17/outbox.cif.g08.bks.cpg/sg12_78_cif.got.tgz:154113.got - 2010.06.03 13:09:07.
