data_PCOD9170148
_publ_section_title
;
Structure prediction by ZEFSAII (Michael W. Deem and Ramdas Pophale) SiO2 
 PCOD9170148
Probable space group: C 2/M
;
_chemical_formula_sum "Si O2"
_cell_formula_units_Z 40
_cell_length_a 17.143076
_cell_length_b 19.301109
_cell_length_c 8.482430
_cell_angle_alpha 90.000000
_cell_angle_beta 123.237047
_cell_angle_gamma 90.000000
_cell_volume 2347.526809
_symmetry_space_group_name_H-M "C 2/M"
_symmetry_group_IT_number 12
_symmetry_cell_setting 'monoclinic'
loop_
_space_group_symop_operation_xyz
x,y,z
-x,y,-z
-x,-y,-z
x,-y,z
1/2+x,1/2+y,z
1/2-x,1/2+y,-z
1/2-x,1/2-y,-z
1/2+x,1/2-y,z
loop_
_atom_site_type_symbol
_atom_site_label
_atom_site_fract_x
_atom_site_fract_y
_atom_site_fract_z
Si Si1 0.938696 0.263810 0.569342
Si Si2 0.218879 0.645105 0.773460
Si Si3 0.028182 0.500000 0.796965
Si Si4 0.894964 0.222828 0.845420
Si Si5 0.649048 0.000000 0.606029
Si Si6 0.595468 0.147984 0.932158
O O1 0.859554 0.309090 0.400060
O O2 0.889247 0.219834 0.650486
O O3 0.000000 0.227912 0.500000
O O4 0.013227 0.313499 0.741703
O O5 0.318162 0.678936 0.851019
O O6 0.209377 0.569065 0.688719
O O7 0.185996 0.644652 0.919212
O O8 0.084285 0.500000 0.691965
O O9 0.060108 0.570019 0.918687
O O10 0.920593 0.500000 0.620892
O O11 0.113214 0.302388 0.100528
O O12 0.000000 0.199934 0.000000
#
# Coordination Sequence:
#
# PCOD9170148 Si02
#       6
#     8   8   4   8   4   8
#     4   9  17  30  48  67  89 122 162 195 237 280
#     4  10  17  30  49  69  94 127 160 195 229 285
#     4   9  14  28  48  73 101 122 149 191 237 296
#     4  10  20  31  43  69 100 126 160 195 235 275
#     4   9  16  26  50  74  92 125 162 189 231 279
#     4   9  17  29  48  72  98 122 151 193 249 283
#
# _framework density 17.039207999999999
#
# number of rings (size 3 to 8) (size 9 to 14) (size 15 to 20)
#    0.000    2.600    2.000    1.200    0.000    0.000 
#    0.000    6.000    0.000    0.000    0.000    0.700 
#    0.000    0.000    0.000    3.200    0.000    0.000 
#
# Total GULP energy -111421.846861 kJ/mol
# GULP energy per Si atom -5571.092343 kJ/mol
# Density = 1.700043 g / cm^3
# Si number density = 17.039208 Si / 1000 Ang^3
#
#
#
# Elastic Constant Matrix: (Units=GPa)
#
#
# Indices 1 2 3 4 5 6 
#
# 1 130.2366 48.5184 28.5053 0.0000 -4.5759 0.0000
# 2 48.5184 66.3604 18.8814 0.0000 9.2015 0.0000
# 3 28.5053 18.8814 26.1295 0.0000 -9.2740 0.0000
# 4 0.0000 0.0000 0.0000 6.7158 0.0000 4.3862
# 5 -4.5759 9.2015 -9.2740 0.0000 21.1338 0.0000
# 6 0.0000 0.0000 0.0000 4.3862 0.0000 2.5882
#
#
#
# Elastic Compliance Matrix: (Units=1/GPa)
#
#
# Indices 1 2 3 4 5 6 
#
# 1 0.011945 -0.007122 -0.006948 0.000000 0.002638 0.000000
# 2 -0.007122 0.030193 -0.022814 0.000000 -0.024699 0.000000
# 3 -0.006948 -0.022814 0.077379 0.000000 0.042384 0.000000
# 4 0.000000 0.000000 0.000000 -1.393335 0.000000 2.361324
# 5 0.002638 -0.024699 0.042384 0.000000 0.077242 0.000000
# 6 0.000000 0.000000 0.000000 2.361324 0.000000 -3.615429
#
#
# Mechanical properties :
#
#
# Convention : Reuss Voigt Hill
#
# Bulk Modulus (GPa) = 21.85854 46.05965 33.95909
# Shear Modulus (GPa) = -1.05865 14.54230 6.74182
#
# Velocity S-wave (km/s) = -0.78908 2.92457 1.99129
# Velocity P-wave (km/s) = 3.46786 6.20439 5.02596
#
# Compressibility (1/GPa) = 0.04574871
#
# Stress axis : x y z
#
# Youngs Moduli (GPa) = 83.71567 33.12076 12.92336
#
# Poissons Ratio (x) = 0.23590 0.08979
# Poissons Ratio (y) = 0.59626 0.29483
# Poissons Ratio (z) = 0.58166 0.75560
#
# Static dielectric constant tensor:
#      x y z
#    x 1.611950 0.000000 -0.036750 
#    y 0.000000 1.570770 0.000000 
#    z -0.036750 0.000000 1.589810 
# 
# From -- ./inp_files/146392.got.cif
#   From: 2010.05.17/outbox.cif.g08.bks.cpg/sg12_74_cif.got.tgz:146392.got - 2010.06.03 13:09:07.
