data_PCOD9170399
_publ_section_title
;
Structure prediction by ZEFSAII (Michael W. Deem and Ramdas Pophale) SiO2 
 PCOD9170399
Probable space group: C 2/M
;
_chemical_formula_sum "Si O2"
_cell_formula_units_Z 56
_cell_length_a 15.060959
_cell_length_b 19.963397
_cell_length_c 8.026019
_cell_angle_alpha 90.000000
_cell_angle_beta 74.443311
_cell_angle_gamma 90.000000
_cell_volume 2324.761344
_symmetry_space_group_name_H-M "C 2/M"
_symmetry_group_IT_number 12
_symmetry_cell_setting 'monoclinic'
loop_
_space_group_symop_operation_xyz
x,y,z
-x,y,-z
-x,-y,-z
x,-y,z
1/2+x,1/2+y,z
1/2-x,1/2+y,-z
1/2-x,1/2-y,-z
1/2+x,1/2-y,z
loop_
_atom_site_type_symbol
_atom_site_label
_atom_site_fract_x
_atom_site_fract_y
_atom_site_fract_z
Si Si1 0.607073 0.923907 0.023395
Si Si2 0.829350 0.073085 0.855373
Si Si3 0.091302 0.332029 0.728735
Si Si4 0.861253 0.923805 0.219875
Si Si5 0.340307 0.856780 0.674375
Si Si6 0.798422 0.206267 0.687779
Si Si7 0.557072 0.695690 0.641503
O O1 0.718850 0.927030 0.938589
O O2 0.570210 0.889825 0.871651
O O3 0.577972 0.000000 0.059932
O O4 0.600471 0.886878 0.204701
O O5 0.846691 0.142587 0.752044
O O6 0.853307 0.000000 0.765475
O O7 0.873682 0.076006 0.015034
O O8 0.107250 0.355068 0.529540
O O9 0.191232 0.308092 0.744452
O O10 0.032688 0.263102 0.754295
O O11 0.755620 0.897624 0.298925
O O12 0.933601 0.873107 0.265648
O O13 0.869413 0.000000 0.277604
O O14 0.317534 0.780684 0.741809
O O15 0.838813 0.206208 0.481222
O O16 0.500000 0.695369 0.500000
#
# Coordination Sequence:
#
# PCOD9170399 Si02
#       7
#     8   8   8   8   8   8   8
#     4   9  19  30  50  87 113 134 168 217 281 329
#     4   8  17  30  48  78 109 135 175 222 265 317
#     4  10  19  35  57  80 108 141 180 224 271 313
#     4  10  19  32  51  76 109 146 176 216 270 314
#     4  10  17  31  53  82 109 136 177 226 266 317
#     4  10  18  33  56  79 100 139 183 221 272 315
#     4  11  22  36  52  76 107 142 184 222 260 318
#
# _framework density 24.088494000000001
#
# number of rings (size 3 to 8) (size 9 to 14) (size 15 to 20)
#    0.000    2.286    2.857    2.143    2.000    3.714 
#    0.000    0.714    0.000    2.143    0.000    4.000 
#    0.000    0.000    0.000    0.000    0.000    0.000 
#
# Total GULP energy -156464.196379 kJ/mol
# GULP energy per Si atom -5588.007014 kJ/mol
# Density = 2.403367 g / cm^3
# Si number density = 24.088494 Si / 1000 Ang^3
#
#
#
# Elastic Constant Matrix: (Units=GPa)
#
#
# Indices 1 2 3 4 5 6 
#
# 1 54.1414 24.7987 26.7787 0.0000 19.7251 0.0000
# 2 24.7987 254.2524 117.9880 0.0000 27.2644 0.0000
# 3 26.7787 117.9880 124.0410 0.0000 30.4481 0.0000
# 4 0.0000 0.0000 0.0000 57.7121 0.0000 6.7097
# 5 19.7251 27.2644 30.4481 0.0000 49.2250 0.0000
# 6 0.0000 0.0000 0.0000 6.7097 0.0000 13.9345
#
#
#
# Elastic Compliance Matrix: (Units=1/GPa)
#
#
# Indices 1 2 3 4 5 6 
#
# 1 0.022616 0.000022 -0.003155 0.000000 -0.007123 0.000000
# 2 0.000022 0.007045 -0.006774 0.000000 0.000280 0.000000
# 3 -0.003155 -0.006774 0.016453 0.000000 -0.005161 0.000000
# 4 0.000000 0.000000 0.000000 0.018355 0.000000 -0.008838
# 5 -0.007123 0.000280 -0.005161 0.000000 0.026207 0.000000
# 6 0.000000 0.000000 0.000000 -0.008838 0.000000 0.076020
#
#
# Mechanical properties :
#
#
# Convention : Reuss Voigt Hill
#
# Bulk Modulus (GPa) = 38.02331 85.72950 61.87641
# Shear Modulus (GPa) = 25.60476 41.69894 33.65185
#
# Velocity S-wave (km/s) = 3.26382 4.16513 3.74171
# Velocity P-wave (km/s) = 5.47928 7.66797 6.66409
#
# Compressibility (1/GPa) = 0.02629965
#
# Stress axis : x y z
#
# Youngs Moduli (GPa) = 44.21718 141.95249 60.77749
#
# Poissons Ratio (x) = -0.00313 0.19174
# Poissons Ratio (y) = -0.00097 0.41172
# Poissons Ratio (z) = 0.13950 0.96162
#
# Static dielectric constant tensor:
#      x y z
#    x 2.039660 0.000000 -0.002820 
#    y 0.000000 1.972070 0.000000 
#    z -0.002820 0.000000 1.873110 
# 
# From -- ./inp_files/87254.got.cif
#   From: 2010.05.17/outbox.cif.g08.bks.cpg/sg12_44_cif.got.tgz:87254.got - 2010.06.03 13:09:07.
