data_PCOD9170013
_publ_section_title
;
Structure prediction by ZEFSAII (Michael W. Deem and Ramdas Pophale) SiO2 
 PCOD9170013
Probable space group: C 2/M
;
_chemical_formula_sum "Si O2"
_cell_formula_units_Z 64
_cell_length_a 30.951185
_cell_length_b 8.684214
_cell_length_c 18.030768
_cell_angle_alpha 90.000000
_cell_angle_beta 136.930375
_cell_angle_gamma 90.000000
_cell_volume 3309.562644
_symmetry_space_group_name_H-M "C 2/M"
_symmetry_group_IT_number 12
_symmetry_cell_setting 'monoclinic'
loop_
_space_group_symop_operation_xyz
x,y,z
-x,y,-z
-x,-y,-z
x,-y,z
1/2+x,1/2+y,z
1/2-x,1/2+y,-z
1/2-x,1/2-y,-z
1/2+x,1/2-y,z
loop_
_atom_site_type_symbol
_atom_site_label
_atom_site_fract_x
_atom_site_fract_y
_atom_site_fract_z
Si Si1 0.293303 0.186549 0.266114
Si Si2 0.906695 0.316756 0.132262
Si Si3 0.957063 0.185033 0.730939
Si Si4 0.808513 0.183822 0.120653
Si Si5 0.363079 0.176353 0.491777
Si Si6 0.728775 0.326667 0.399272
Si Si7 0.904020 0.187332 0.823133
Si Si8 0.854289 0.186822 0.913312
O O1 0.304592 0.250087 0.198383
O O2 0.349526 0.240811 0.392303
O O3 0.219887 0.225230 0.195220
O O4 0.296232 0.000000 0.270016
O O5 0.902745 0.500000 0.133776
O O6 0.871052 0.238670 0.156236
O O7 0.978520 0.260678 0.215884
O O8 0.873001 0.261532 0.014272
O O9 0.902521 0.234712 0.604002
O O10 0.944125 0.234106 0.800870
O O11 0.961735 0.000000 0.736785
O O12 0.804740 0.000000 0.117159
O O13 0.750000 0.250000 0.000000
O O14 0.290211 0.168812 0.426334
O O15 0.387604 0.000000 0.519236
O O16 0.709117 0.500000 0.392445
O O17 0.750000 0.250000 0.500000
O O18 0.666448 0.256744 0.286607
O O19 0.904063 0.232804 0.910227
O O20 0.909121 0.000000 0.832134
O O21 0.857162 0.000000 0.923049
#
# Coordination Sequence:
#
# PCOD9170013 Si02
#       8
#     8   8   8   8   8   8   8   8
#     4  10  20  36  62  95 128 159 195 247 308 362
#     4  12  26  44  63  87 120 158 205 256 309 367
#     4  11  23  40  61  85 121 170 216 252 296 358
#     4  12  24  41  67  97 125 153 194 247 308 368
#     4  10  20  35  58  89 126 164 203 248 302 357
#     4  10  17  29  50  81 116 155 200 246 289 339
#     4   9  18  33  56  87 121 162 208 248 295 355
#     4  10  19  36  62  90 122 160 203 249 300 363
#
# _framework density 19.337903000000001
#
# number of rings (size 3 to 8) (size 9 to 14) (size 15 to 20)
#    0.000    1.500    3.750    2.625    0.000    1.000 
#    0.000    5.000    0.000    3.750    0.000    0.000 
#    0.000    0.000    0.000    0.000    0.000    0.000 
#
# Total GULP energy -178374.718427 kJ/mol
# GULP energy per Si atom -5574.209951 kJ/mol
# Density = 1.929389 g / cm^3
# Si number density = 19.337903 Si / 1000 Ang^3
#
#
#
# Elastic Constant Matrix: (Units=GPa)
#
#
# Indices 1 2 3 4 5 6 
#
# 1 128.1054 23.4859 28.3932 0.0000 -16.0541 0.0000
# 2 23.4859 38.2064 14.4862 0.0000 -6.7815 0.0000
# 3 28.3932 14.4862 55.7084 0.0000 -12.4056 0.0000
# 4 0.0000 0.0000 0.0000 27.5939 0.0000 -2.6852
# 5 -16.0541 -6.7815 -12.4056 0.0000 37.4480 0.0000
# 6 0.0000 0.0000 0.0000 -2.6852 0.0000 25.1612
#
#
#
# Elastic Compliance Matrix: (Units=1/GPa)
#
#
# Indices 1 2 3 4 5 6 
#
# 1 0.009596 -0.004254 -0.003282 0.000000 0.002256 0.000000
# 2 -0.004254 0.031233 -0.005506 0.000000 0.002008 0.000000
# 3 -0.003282 -0.005506 0.022154 0.000000 0.004935 0.000000
# 4 0.000000 0.000000 0.000000 0.036620 0.000000 0.003908
# 5 0.002256 0.002008 0.004935 0.000000 0.029669 0.000000
# 6 0.000000 0.000000 0.000000 0.003908 0.000000 0.040161
#
#
# Mechanical properties :
#
#
# Convention : Reuss Voigt Hill
#
# Bulk Modulus (GPa) = 27.10166 39.41678 33.25922
# Shear Modulus (GPa) = 24.05948 28.41760 26.23854
#
# Velocity S-wave (km/s) = 3.53109 3.83760 3.68753
# Velocity P-wave (km/s) = 5.53805 6.32959 5.94700
#
# Compressibility (1/GPa) = 0.03689810
#
# Stress axis : x y z
#
# Youngs Moduli (GPa) = 104.20790 32.01764 45.13791
#
# Poissons Ratio (x) = 0.13620 0.14816
# Poissons Ratio (y) = 0.44329 0.24855
# Poissons Ratio (z) = 0.34205 0.17630
#
# Static dielectric constant tensor:
#      x y z
#    x 1.684450 0.000000 -0.068540 
#    y 0.000000 1.665550 0.000000 
#    z -0.068540 0.000000 1.648430 
# 
# From -- ./inp_files/295737.got.cif
#   From: 2010.05.17/outbox.cif.g08.bks.cpg/sg12_148_cif.got.tgz:295737.got - 2010.06.03 13:09:07.
