data_PCOD9170294
_publ_section_title
;
Structure prediction by ZEFSAII (Michael W. Deem and Ramdas Pophale) SiO2 
 PCOD9170294
Probable space group: C 2/M
;
_chemical_formula_sum "Si O2"
_cell_formula_units_Z 52
_cell_length_a 18.694798
_cell_length_b 13.521947
_cell_length_c 11.750750
_cell_angle_alpha 90.000000
_cell_angle_beta 100.419098
_cell_angle_gamma 90.000000
_cell_volume 2921.493489
_symmetry_space_group_name_H-M "C 2/M"
_symmetry_group_IT_number 12
_symmetry_cell_setting 'monoclinic'
loop_
_space_group_symop_operation_xyz
x,y,z
-x,y,-z
-x,-y,-z
x,-y,z
1/2+x,1/2+y,z
1/2-x,1/2+y,-z
1/2-x,1/2-y,-z
1/2+x,1/2-y,z
loop_
_atom_site_type_symbol
_atom_site_label
_atom_site_fract_x
_atom_site_fract_y
_atom_site_fract_z
Si Si1 0.148149 0.111958 0.946095
Si Si2 0.856614 0.733444 0.261849
Si Si3 0.789552 0.117253 0.787843
Si Si4 0.000000 0.181987 0.000000
Si Si5 0.064914 0.220983 0.247745
Si Si6 0.000220 0.616115 0.636619
Si Si7 0.452124 0.388273 0.373779
O O1 0.153542 0.199718 0.855207
O O2 0.162442 0.000000 0.907310
O O3 0.197633 0.128413 0.072032
O O4 0.065956 0.117484 0.970409
O O5 0.784040 0.673516 0.265162
O O6 0.925064 0.657708 0.285365
O O7 0.883670 0.815762 0.359403
O O8 0.858623 0.166901 0.745999
O O9 0.786706 0.000000 0.763057
O O10 0.033974 0.243646 0.113200
O O11 0.062799 0.318345 0.324271
O O12 0.005839 0.148354 0.289355
O O13 0.992699 0.500000 0.654372
O O14 0.000000 0.632912 0.500000
O O15 0.500000 0.382533 0.500000
O O16 0.429446 0.500000 0.347580
#
# Coordination Sequence:
#
# PCOD9170294 Si02
#       7
#     8   8   8   4   8   8   8
#     4  10  19  31  52  81 113 148 185 223 271 330
#     4  11  19  34  55  79 112 145 188 224 274 329
#     4  10  22  35  52  80 115 151 183 222 276 336
#     4  10  17  30  55  84 112 138 181 226 281 326
#     4  10  19  35  57  81 111 141 185 234 276 328
#     4  10  21  39  61  80 104 146 193 230 271 329
#     4  10  20  35  57  84 110 142 188 239 282 318
#
# _framework density 17.799115
#
# number of rings (size 3 to 8) (size 9 to 14) (size 15 to 20)
#    0.000    1.846    3.077    3.923    0.000    1.231 
#    0.000    5.000    0.000    3.692    0.000    0.000 
#    0.000    0.000    0.000    0.000    0.000    0.000 
#
# Total GULP energy -144885.028232 kJ/mol
# GULP energy per Si atom -5572.501086 kJ/mol
# Density = 1.775860 g / cm^3
# Si number density = 17.799115 Si / 1000 Ang^3
#
#
#
# Elastic Constant Matrix: (Units=GPa)
#
#
# Indices 1 2 3 4 5 6 
#
# 1 100.9592 58.1218 31.4601 0.0000 13.3715 0.0000
# 2 58.1218 161.0756 51.9487 0.0000 1.7358 0.0000
# 3 31.4601 51.9487 78.6622 0.0000 -0.2276 0.0000
# 4 0.0000 0.0000 0.0000 29.0843 0.0000 -0.1700
# 5 13.3715 1.7358 -0.2276 0.0000 19.6269 0.0000
# 6 0.0000 0.0000 0.0000 -0.1700 0.0000 22.7148
#
#
#
# Elastic Compliance Matrix: (Units=1/GPa)
#
#
# Indices 1 2 3 4 5 6 
#
# 1 0.014519 -0.004135 -0.003104 0.000000 -0.009562 0.000000
# 2 -0.004135 0.009077 -0.004335 0.000000 0.001964 0.000000
# 3 -0.003104 -0.004335 0.016825 0.000000 0.002693 0.000000
# 4 0.000000 0.000000 0.000000 0.034384 0.000000 0.000257
# 5 -0.009562 0.001964 0.002693 0.000000 0.057322 0.000000
# 6 0.000000 0.000000 0.000000 0.000257 0.000000 0.044026
#
#
# Mechanical properties :
#
#
# Convention : Reuss Voigt Hill
#
# Bulk Modulus (GPa) = 57.89299 69.30647 63.59973
# Shear Modulus (GPa) = 24.38318 27.56294 25.97306
#
# Velocity S-wave (km/s) = 3.70524 3.93944 3.82414
# Velocity P-wave (km/s) = 7.13453 7.72754 7.43695
#
# Compressibility (1/GPa) = 0.01727325
#
# Stress axis : x y z
#
# Youngs Moduli (GPa) = 68.87503 110.16464 59.43651
#
# Poissons Ratio (x) = 0.45553 0.18447
# Poissons Ratio (y) = 0.28480 0.25767
# Poissons Ratio (z) = 0.21376 0.47759
#
# Static dielectric constant tensor:
#      x y z
#    x 1.594260 0.000000 0.016170 
#    y 0.000000 1.614420 0.000000 
#    z 0.016170 0.000000 1.658580 
# 
# From -- ./inp_files/155417.got.cif
#   From: 2010.05.17/outbox.cif.g08.bks.cpg/sg12_78_cif.got.tgz:155417.got - 2010.06.03 13:09:07.
