data_PCOD9170256
_publ_section_title
;
Structure prediction by ZEFSAII (Michael W. Deem and Ramdas Pophale) SiO2 
 PCOD9170256
Probable space group: C 2/M
;
_chemical_formula_sum "Si O2"
_cell_formula_units_Z 64
_cell_length_a 18.718769
_cell_length_b 22.403423
_cell_length_c 8.060153
_cell_angle_alpha 90.000000
_cell_angle_beta 76.672989
_cell_angle_gamma 90.000000
_cell_volume 3289.115862
_symmetry_space_group_name_H-M "C 2/M"
_symmetry_group_IT_number 12
_symmetry_cell_setting 'monoclinic'
loop_
_space_group_symop_operation_xyz
x,y,z
-x,y,-z
-x,-y,-z
x,-y,z
1/2+x,1/2+y,z
1/2-x,1/2+y,-z
1/2-x,1/2-y,-z
1/2+x,1/2-y,z
loop_
_atom_site_type_symbol
_atom_site_label
_atom_site_fract_x
_atom_site_fract_y
_atom_site_fract_z
Si Si1 0.576307 0.148558 0.546629
Si Si2 0.023943 0.866899 0.681614
Si Si3 0.662373 0.565568 0.541468
Si Si4 0.882698 0.065918 0.825032
Si Si5 0.261916 0.658370 0.895807
Si Si6 0.831133 0.720482 0.767871
Si Si7 0.314818 0.929241 0.320250
Si Si8 0.992658 0.260599 0.820138
O O1 0.500000 0.127843 0.500000
O O2 0.640059 0.178777 0.398132
O O3 0.612332 0.096483 0.635684
O O4 0.545929 0.202125 0.674919
O O5 0.107493 0.887459 0.647017
O O6 0.000000 0.856056 0.500000
O O7 0.967685 0.916248 0.779874
O O8 0.014288 0.807625 0.789871
O O9 0.648327 0.500000 0.619839
O O10 0.639484 0.563650 0.358627
O O11 0.748486 0.577192 0.489116
O O12 0.831256 0.118740 0.918171
O O13 0.869197 0.000000 0.902227
O O14 0.291150 0.714659 0.768404
O O15 0.210165 0.613670 0.817692
O O16 0.219369 0.684706 0.075870
O O17 0.908656 0.735205 0.811515
O O18 0.318133 0.000000 0.274794
O O19 0.000000 0.284000 0.000000
#
# Coordination Sequence:
#
# PCOD9170256 Si02
#       8
#     8   8   8   8   8   8   8   8
#     4  10  23  41  64  86 115 155 193 250 305 361
#     4  10  17  30  53  81 116 156 200 240 285 342
#     4   8  16  29  49  80 114 148 193 241 277 332
#     4   9  16  28  52  82 115 158 200 236 278 339
#     4  10  19  35  59  87 124 156 198 247 295 358
#     4  10  21  38  58  88 119 154 201 245 307 351
#     4  10  21  39  60  88 121 157 202 247 296 359
#     4  11  22  37  57  84 119 153 196 249 298 354
#
# _framework density 19.458117000000001
#
# number of rings (size 3 to 8) (size 9 to 14) (size 15 to 20)
#    0.000    2.250    1.250    3.375    3.500    2.250 
#    4.500    1.250    0.000   10.875    0.000    0.000 
#    0.000    0.000    0.000    0.000    0.000    0.000 
#
# Total GULP energy -178374.278186 kJ/mol
# GULP energy per Si atom -5574.196193 kJ/mol
# Density = 1.941383 g / cm^3
# Si number density = 19.458117 Si / 1000 Ang^3
#
#
#
# Elastic Constant Matrix: (Units=GPa)
#
#
# Indices 1 2 3 4 5 6 
#
# 1 48.3613 39.0008 17.6537 0.0000 -6.5553 0.0000
# 2 39.0008 104.1855 24.1566 0.0000 -8.9269 0.0000
# 3 17.6537 24.1566 52.1441 0.0000 -16.5275 0.0000
# 4 0.0000 0.0000 0.0000 -9.2419 0.0000 3.8959
# 5 -6.5553 -8.9269 -16.5275 0.0000 23.7827 0.0000
# 6 0.0000 0.0000 0.0000 3.8959 0.0000 33.0213
#
#
#
# Elastic Compliance Matrix: (Units=1/GPa)
#
#
# Indices 1 2 3 4 5 6 
#
# 1 0.031101 -0.010296 -0.005473 0.000000 0.000905 0.000000
# 2 -0.010296 0.014172 -0.002941 0.000000 0.000438 0.000000
# 3 -0.005473 -0.002941 0.027657 0.000000 0.016607 0.000000
# 4 0.000000 0.000000 0.000000 -0.103076 0.000000 0.012161
# 5 0.000905 0.000438 0.016607 0.000000 0.054002 0.000000
# 6 0.000000 0.000000 0.000000 0.012161 0.000000 0.028849
#
#
# Mechanical properties :
#
#
# Convention : Reuss Voigt Hill
#
# Bulk Modulus (GPa) = 28.16092 40.70146 34.43119
# Shear Modulus (GPa) = 49.03849 17.77107 33.40478
#
# Velocity S-wave (km/s) = 5.02561 3.02536 4.14787
# Velocity P-wave (km/s) = 6.94116 5.75905 6.37755
#
# Compressibility (1/GPa) = 0.03551020
#
# Stress axis : x y z
#
# Youngs Moduli (GPa) = 32.15292 70.56250 36.15759
#
# Poissons Ratio (x) = 0.72651 0.19789
# Poissons Ratio (y) = 0.33105 0.10633
# Poissons Ratio (z) = 0.17598 0.20751
#
# Static dielectric constant tensor:
#      x y z
#    x 1.687150 0.000000 0.025680 
#    y 0.000000 1.689330 0.000000 
#    z 0.025680 0.000000 1.700210 
# 
# From -- ./inp_files/89584.got.cif
#   From: 2010.05.17/outbox.cif.g08.bks.cpg/sg12_45_cif.got.tgz:89584.got - 2010.06.03 13:09:07.
