data_PCOD9170140
_publ_section_title
;
Structure prediction by ZEFSAII (Michael W. Deem and Ramdas Pophale) SiO2 
 PCOD9170140
Probable space group: C 2/M
;
_chemical_formula_sum "Si O2"
_cell_formula_units_Z 48
_cell_length_a 25.767730
_cell_length_b 10.973010
_cell_length_c 9.004658
_cell_angle_alpha 90.000000
_cell_angle_beta 57.590844
_cell_angle_gamma 90.000000
_cell_volume 2149.494119
_symmetry_space_group_name_H-M "C 2/M"
_symmetry_group_IT_number 12
_symmetry_cell_setting 'monoclinic'
loop_
_space_group_symop_operation_xyz
x,y,z
-x,y,-z
-x,-y,-z
x,-y,z
1/2+x,1/2+y,z
1/2-x,1/2+y,-z
1/2-x,1/2-y,-z
1/2+x,1/2-y,z
loop_
_atom_site_type_symbol
_atom_site_label
_atom_site_fract_x
_atom_site_fract_y
_atom_site_fract_z
Si Si1 0.308812 0.761326 0.304735
Si Si2 0.126732 0.000000 0.313801
Si Si3 0.427808 0.748569 0.673495
Si Si4 0.114839 0.633896 0.549860
Si Si5 0.954687 0.000000 0.261693
Si Si6 0.333581 0.500000 0.268025
Si Si7 0.993177 0.726626 0.838522
Si Si8 0.750188 0.500000 0.297852
O O1 0.250000 0.750000 0.500000
O O2 0.360094 0.785037 0.352966
O O3 0.319890 0.630016 0.213616
O O4 0.292841 0.879736 0.232845
O O5 0.102834 0.117657 0.267424
O O6 0.197936 0.000000 0.251459
O O7 0.087140 0.000000 0.527316
O O8 0.500000 0.740299 0.500000
O O9 0.384971 0.815529 0.617685
O O10 0.433327 0.798860 0.831799
O O11 0.142928 0.500000 0.517728
O O12 0.042969 0.637304 0.690998
O O13 0.990842 0.871695 0.205418
O O14 0.905212 0.000000 0.204283
O O15 0.290658 0.500000 0.484666
O O16 0.000000 0.703150 0.000000
#
# Coordination Sequence:
#
# PCOD9170140 Si02
#       8
#     8   4   8   8   4   4   8   4
#     4  10  17  30  48  80 112 136 169 228 277 321
#     4  11  16  32  54  84 110 138 174 219 280 324
#     4  10  19  32  54  76 108 144 174 223 270 318
#     4  11  21  35  54  77 110 141 184 220 272 327
#     4  11  16  31  51  76 106 134 170 222 262 314
#     4   9  16  26  47  71 106 136 170 211 274 312
#     4  11  23  35  51  77 110 144 183 220 266 322
#     4   9  18  26  48  78 116 134 171 220 285 324
#
# _framework density 22.330835
#
# number of rings (size 3 to 8) (size 9 to 14) (size 15 to 20)
#    0.000    1.667    5.833    3.000    0.000    3.333 
#    0.000    0.000    0.000    0.000    0.000    4.667 
#    0.000    0.000    0.000    0.000    0.000    0.000 
#
# Total GULP energy -133711.873346 kJ/mol
# GULP energy per Si atom -5571.328056 kJ/mol
# Density = 2.228001 g / cm^3
# Si number density = 22.330835 Si / 1000 Ang^3
#
#
#
# Elastic Constant Matrix: (Units=GPa)
#
#
# Indices 1 2 3 4 5 6 
#
# 1 100.8231 25.2749 10.7179 0.0000 20.3206 0.0000
# 2 25.2749 115.2278 -0.1927 0.0000 0.4163 0.0000
# 3 10.7179 -0.1927 31.5829 0.0000 21.2756 0.0000
# 4 0.0000 0.0000 0.0000 2.6431 0.0000 4.7278
# 5 20.3206 0.4163 21.2756 0.0000 25.6051 0.0000
# 6 0.0000 0.0000 0.0000 4.7278 0.0000 31.7502
#
#
#
# Elastic Compliance Matrix: (Units=1/GPa)
#
#
# Indices 1 2 3 4 5 6 
#
# 1 0.013044 -0.002797 0.005677 0.000000 -0.015023 0.000000
# 2 -0.002797 0.009280 -0.000881 0.000000 0.002801 0.000000
# 3 0.005677 -0.000881 0.074402 0.000000 -0.066313 0.000000
# 4 0.000000 0.000000 0.000000 0.515703 0.000000 -0.076791
# 5 -0.015023 0.002801 -0.066313 0.000000 0.106032 0.000000
# 6 0.000000 0.000000 0.000000 -0.076791 0.000000 0.042930
#
#
# Mechanical properties :
#
#
# Convention : Reuss Voigt Hill
#
# Bulk Modulus (GPa) = 9.92824 35.47047 22.69936
# Shear Modulus (GPa) = 6.32136 26.12192 16.22164
#
# Velocity S-wave (km/s) = 1.68432 3.42390 2.69815
# Velocity P-wave (km/s) = 2.87022 5.61688 4.46024
#
# Compressibility (1/GPa) = 0.10072277
#
# Stress axis : x y z
#
# Youngs Moduli (GPa) = 76.66316 107.75309 13.44050
#
# Poissons Ratio (x) = 0.30143 -0.07630
# Poissons Ratio (y) = 0.21446 0.01184
# Poissons Ratio (z) = -0.43519 0.09495
#
# Static dielectric constant tensor:
#      x y z
#    x 1.718860 0.000000 0.052650 
#    y 0.000000 1.905870 0.000000 
#    z 0.052650 0.000000 1.872460 
# 
# From -- ./inp_files/94967.got.cif
#   From: 2010.05.17/outbox.cif.g08.bks.cpg/sg12_48_cif.got.tgz:94967.got - 2010.06.03 13:09:07.
