data_PCOD9170125
_publ_section_title
;
Structure prediction by ZEFSAII (Michael W. Deem and Ramdas Pophale) SiO2 
 PCOD9170125
Probable space group: C 2/M
;
_chemical_formula_sum "Si O2"
_cell_formula_units_Z 56
_cell_length_a 21.713944
_cell_length_b 23.539265
_cell_length_c 5.445257
_cell_angle_alpha 90.000000
_cell_angle_beta 77.928936
_cell_angle_gamma 90.000000
_cell_volume 2721.695552
_symmetry_space_group_name_H-M "C 2/M"
_symmetry_group_IT_number 12
_symmetry_cell_setting 'monoclinic'
loop_
_space_group_symop_operation_xyz
x,y,z
-x,y,-z
-x,-y,-z
x,-y,z
1/2+x,1/2+y,z
1/2-x,1/2+y,-z
1/2-x,1/2-y,-z
1/2+x,1/2-y,z
loop_
_atom_site_type_symbol
_atom_site_label
_atom_site_fract_x
_atom_site_fract_y
_atom_site_fract_z
Si Si1 0.182503 0.720332 0.544707
Si Si2 0.863330 0.830877 0.887710
Si Si3 0.404722 0.668659 0.357635
Si Si4 0.784812 0.663226 0.990595
Si Si5 0.427911 0.068919 0.552458
Si Si6 0.519905 0.252111 0.230361
Si Si7 0.144457 0.432038 0.889179
O O1 0.250000 0.750000 0.500000
O O2 0.133212 0.771503 0.583936
O O3 0.186201 0.681310 0.296854
O O4 0.177955 0.690316 0.811564
O O5 0.885945 0.862399 0.623146
O O6 0.909469 0.775365 0.849309
O O7 0.880015 0.859749 0.131537
O O8 0.788833 0.818929 0.945128
O O9 0.475923 0.690562 0.273830
O O10 0.791234 0.597791 0.071620
O O11 0.500000 0.088279 0.500000
O O12 0.399540 0.083596 0.841792
O O13 0.428597 0.000000 0.539208
O O14 0.387408 0.086156 0.344427
O O15 0.500000 0.222699 0.500000
O O16 0.500000 0.220513 0.000000
O O17 0.151267 0.500000 0.872615
#
# Coordination Sequence:
#
# PCOD9170125 Si02
#       7
#     8   8   8   8   8   8   8
#     4  12  21  33  50  74 104 138 176 218 254 320
#     4  10  17  30  47  69  95 127 172 205 243 306
#     4  10  18  30  47  67  94 127 165 215 251 288
#     4  12  22  33  52  78 103 140 177 213 262 320
#     4   9  17  33  59  81  98 132 178 222 268 321
#     4   8  16  27  44  64  87 121 164 206 241 279
#     4  10  21  36  54  81 110 136 175 229 276 320
#
# _framework density 20.575407999999999
#
# number of rings (size 3 to 8) (size 9 to 14) (size 15 to 20)
#    0.000    1.857    2.857    2.571    0.000    1.714 
#    0.000    0.000    0.000   25.714    0.000    0.000 
#    0.000   10.286    0.000    0.000    0.000   11.143 
#
# Total GULP energy -155951.036500 kJ/mol
# GULP energy per Si atom -5569.679875 kJ/mol
# Density = 2.052858 g / cm^3
# Si number density = 20.575408 Si / 1000 Ang^3
#
#
#
# Elastic Constant Matrix: (Units=GPa)
#
#
# Indices 1 2 3 4 5 6 
#
# 1 98.0466 19.9314 34.4605 0.0000 1.6766 0.0000
# 2 19.9314 20.9594 22.2016 0.0000 4.0154 0.0000
# 3 34.4605 22.2016 203.5581 0.0000 29.6757 0.0000
# 4 0.0000 0.0000 0.0000 13.9998 0.0000 5.9361
# 5 1.6766 4.0154 29.6757 0.0000 43.1199 0.0000
# 6 0.0000 0.0000 0.0000 5.9361 0.0000 4.8284
#
#
#
# Elastic Compliance Matrix: (Units=1/GPa)
#
#
# Indices 1 2 3 4 5 6 
#
# 1 0.012873 -0.011286 -0.001143 0.000000 0.001337 0.000000
# 2 -0.011286 0.063885 -0.004728 0.000000 -0.002256 0.000000
# 3 -0.001143 -0.004728 0.006170 0.000000 -0.003762 0.000000
# 4 0.000000 0.000000 0.000000 0.149213 0.000000 -0.183445
# 5 0.001337 -0.002256 -0.003762 0.000000 0.025938 0.000000
# 6 0.000000 0.000000 0.000000 -0.183445 0.000000 0.432636
#
#
# Mechanical properties :
#
#
# Convention : Reuss Voigt Hill
#
# Bulk Modulus (GPa) = 20.57102 52.86124 36.71613
# Shear Modulus (GPa) = 6.74550 28.78764 17.76657
#
# Velocity S-wave (km/s) = 1.81261 3.74455 2.94170
# Velocity P-wave (km/s) = 3.79477 6.66654 5.42416
#
# Compressibility (1/GPa) = 0.04861208
#
# Stress axis : x y z
#
# Youngs Moduli (GPa) = 77.68482 15.65315 162.06892
#
# Poissons Ratio (x) = 0.17667 0.18527
# Poissons Ratio (y) = 0.87679 0.76629
# Poissons Ratio (z) = 0.08881 0.07401
#
# Static dielectric constant tensor:
#      x y z
#    x 1.829620 0.000000 0.038010 
#    y 0.000000 1.731630 0.000000 
#    z 0.038010 0.000000 1.890810 
# 
# From -- ./inp_files/21618.got.cif
#   From: 2010.05.17/outbox.cif.g08.bks.cpg/sg12_11_cif.got.tgz:21618.got - 2010.06.03 13:09:07.
