data_PCOD9170946
_publ_section_title
;
Structure prediction by ZEFSAII (Michael W. Deem and Ramdas Pophale) SiO2 
 PCOD9170946
Probable space group: C 2/M
;
_chemical_formula_sum "Si O2"
_cell_formula_units_Z 42
_cell_length_a 13.299848
_cell_length_b 16.891163
_cell_length_c 8.724252
_cell_angle_alpha 90.000000
_cell_angle_beta 110.705532
_cell_angle_gamma 90.000000
_cell_volume 1833.312051
_symmetry_space_group_name_H-M "C 2/M"
_symmetry_group_IT_number 12
_symmetry_cell_setting 'monoclinic'
loop_
_space_group_symop_operation_xyz
x,y,z
-x,y,-z
-x,-y,-z
x,-y,z
1/2+x,1/2+y,z
1/2-x,1/2+y,-z
1/2-x,1/2-y,-z
1/2+x,1/2-y,z
loop_
_atom_site_type_symbol
_atom_site_label
_atom_site_fract_x
_atom_site_fract_y
_atom_site_fract_z
Si Si1 0.947446 0.307226 0.318549
Si Si2 0.677550 0.871397 0.008565
Si Si3 0.500000 0.000000 0.000000
Si Si4 0.628285 0.413401 0.374109
Si Si5 0.598342 0.271812 0.155475
Si Si6 0.879798 0.873129 0.292639
O O1 0.896545 0.221095 0.324566
O O2 0.000000 0.340585 0.500000
O O3 0.042210 0.285497 0.249971
O O4 0.862999 0.362278 0.186570
O O5 0.663761 0.784503 0.078276
O O6 0.799230 0.892875 0.112202
O O7 0.594088 0.931234 0.039801
O O8 0.658061 0.500000 0.332239
O O9 0.657077 0.340707 0.279670
O O10 0.498153 0.406714 0.323134
O O11 0.666622 0.403142 0.570305
O O12 0.500000 0.305821 0.000000
#
# Coordination Sequence:
#
# PCOD9170946 Si02
#       6
#     8   8   2   8   8   8
#     4  10  17  38  60  87 113 151 197 249 286 333
#     4  11  23  37  62  88 112 168 195 234 293 360
#     4  12  24  40  58  82 126 148 202 236 288 348
#     4  10  20  35  57  92 120 151 188 255 290 341
#     4   9  18  37  56  82 119 153 194 228 298 346
#     4  10  19  34  62  86 119 148 203 238 291 348
#
# _framework density 22.909358000000001
#
# number of rings (size 3 to 8) (size 9 to 14) (size 15 to 20)
#    0.000    1.905    6.667    1.714    2.667    1.143 
#    0.000    0.476    0.000    0.000    0.000    0.000 
#    0.000    0.000    0.000    0.000    0.000    0.000 
#
# Total GULP energy -117122.925211 kJ/mol
# GULP energy per Si atom -5577.282153 kJ/mol
# Density = 2.285721 g / cm^3
# Si number density = 22.909358 Si / 1000 Ang^3
#
#
#
# Elastic Constant Matrix: (Units=GPa)
#
#
# Indices 1 2 3 4 5 6 
#
# 1 53.3146 4.0257 21.4007 0.0000 5.1429 0.0000
# 2 4.0257 92.7293 18.3817 0.0000 -0.8376 0.0000
# 3 21.4007 18.3817 163.5637 0.0000 10.9772 0.0000
# 4 0.0000 0.0000 0.0000 -24.0681 0.0000 -8.1811
# 5 5.1429 -0.8376 10.9772 0.0000 31.2227 0.0000
# 6 0.0000 0.0000 0.0000 -8.1811 0.0000 4.0916
#
#
#
# Elastic Compliance Matrix: (Units=1/GPa)
#
#
# Indices 1 2 3 4 5 6 
#
# 1 0.019990 -0.000413 -0.002404 0.000000 -0.002459 0.000000
# 2 -0.000413 0.011055 -0.001242 0.000000 0.000801 0.000000
# 3 -0.002404 -0.001242 0.006702 0.000000 -0.001994 0.000000
# 4 0.000000 0.000000 0.000000 -0.024737 0.000000 -0.049460
# 5 -0.002459 0.000801 -0.001994 0.000000 0.033155 0.000000
# 6 0.000000 0.000000 0.000000 -0.049460 0.000000 0.145508
#
#
# Mechanical properties :
#
#
# Convention : Reuss Voigt Hill
#
# Bulk Modulus (GPa) = 33.75193 44.13598 38.94395
# Shear Modulus (GPa) = 23.84707 19.96921 21.90814
#
# Velocity S-wave (km/s) = 3.22985 2.95559 3.09576
# Velocity P-wave (km/s) = 5.35481 5.56369 5.46025
#
# Compressibility (1/GPa) = 0.02962794
#
# Stress axis : x y z
#
# Youngs Moduli (GPa) = 50.02509 90.45280 149.21469
#
# Poissons Ratio (x) = 0.03740 0.35871
# Poissons Ratio (y) = 0.02068 0.18534
# Poissons Ratio (z) = 0.12026 0.11235
#
# Static dielectric constant tensor:
#      x y z
#    x 1.901250 0.000000 -0.006170 
#    y 0.000000 1.842060 0.000000 
#    z -0.006170 0.000000 1.905800 
# 
# From -- ./inp_files/61855.got.cif
#   From: 2010.05.17/outbox.cif.g08.bks.cpg/sg12_31_cif.got.tgz:61855.got - 2010.06.03 13:09:07.
