data_PCOD9170756
_publ_section_title
;
Structure prediction by ZEFSAII (Michael W. Deem and Ramdas Pophale) SiO2 
 PCOD9170756
Probable space group: C 2/M
;
_chemical_formula_sum "Si O2"
_cell_formula_units_Z 48
_cell_length_a 15.467801
_cell_length_b 17.324729
_cell_length_c 12.165539
_cell_angle_alpha 90.000000
_cell_angle_beta 60.154804
_cell_angle_gamma 90.000000
_cell_volume 2827.693679
_symmetry_space_group_name_H-M "C 2/M"
_symmetry_group_IT_number 12
_symmetry_cell_setting 'monoclinic'
loop_
_space_group_symop_operation_xyz
x,y,z
-x,y,-z
-x,-y,-z
x,-y,z
1/2+x,1/2+y,z
1/2-x,1/2+y,-z
1/2-x,1/2-y,-z
1/2+x,1/2-y,z
loop_
_atom_site_type_symbol
_atom_site_label
_atom_site_fract_x
_atom_site_fract_y
_atom_site_fract_z
Si Si1 0.671749 0.642837 0.886156
Si Si2 0.006989 0.854600 0.823115
Si Si3 0.925237 0.911577 0.648717
Si Si4 0.663905 0.911806 0.068822
Si Si5 0.972413 0.321141 0.148127
Si Si6 0.230012 0.678359 0.812041
O O1 0.607492 0.617915 0.820959
O O2 0.766994 0.596396 0.868030
O O3 0.710777 0.730431 0.841997
O O4 0.588165 0.638701 0.035297
O O5 0.983219 0.896808 0.725817
O O6 0.019745 0.762330 0.801158
O O7 0.835954 0.849792 0.702206
O O8 0.000000 0.902796 0.500000
O O9 0.886287 0.000000 0.673448
O O10 0.553086 0.877619 0.149184
O O11 0.659220 0.000000 0.036351
O O12 0.714297 0.861362 0.940541
O O13 0.858848 0.348551 0.212664
O O14 0.000000 0.310596 0.000000
#
# Coordination Sequence:
#
# PCOD9170756 Si02
#       6
#     8   8   8   8   8   8
#     4  10  18  31  54  79 100 130 166 211 266 302
#     4  10  17  34  54  72 101 133 167 212 255 297
#     4  11  24  37  50  72 104 143 177 204 241 296
#     4  11  19  26  44  78 110 130 155 196 259 323
#     4   9  17  31  50  76 101 127 160 206 259 306
#     4  10  18  33  52  72 100 137 169 210 249 297
#
# _framework density 16.974964
#
# number of rings (size 3 to 8) (size 9 to 14) (size 15 to 20)
#    0.000    1.833    6.667    2.000    0.000    4.333 
#    0.000    5.000    0.000    0.000    0.000    0.000 
#    0.000    6.667    0.000    0.000    0.000    0.000 
#
# Total GULP energy -133761.917808 kJ/mol
# GULP energy per Si atom -5573.413242 kJ/mol
# Density = 1.693633 g / cm^3
# Si number density = 16.974964 Si / 1000 Ang^3
#
#
#
# Elastic Constant Matrix: (Units=GPa)
#
#
# Indices 1 2 3 4 5 6 
#
# 1 102.7644 8.5393 21.9827 0.0000 4.7701 0.0000
# 2 8.5393 22.2859 10.0253 0.0000 1.7833 0.0000
# 3 21.9827 10.0253 50.6791 0.0000 1.6649 0.0000
# 4 0.0000 0.0000 0.0000 12.6428 0.0000 10.3765
# 5 4.7701 1.7833 1.6649 0.0000 7.8689 0.0000
# 6 0.0000 0.0000 0.0000 10.3765 0.0000 0.9007
#
#
#
# Elastic Compliance Matrix: (Units=1/GPa)
#
#
# Indices 1 2 3 4 5 6 
#
# 1 0.011045 -0.001895 -0.004239 0.000000 -0.005369 0.000000
# 2 -0.001895 0.050245 -0.008842 0.000000 -0.008367 0.000000
# 3 -0.004239 -0.008842 0.023332 0.000000 -0.000363 0.000000
# 4 0.000000 0.000000 0.000000 -0.009355 0.000000 0.107769
# 5 -0.005369 -0.008367 -0.000363 0.000000 0.132310 0.000000
# 6 0.000000 0.000000 0.000000 0.107769 0.000000 -0.131307
#
#
# Mechanical properties :
#
#
# Convention : Reuss Voigt Hill
#
# Bulk Modulus (GPa) = 18.29249 28.53601 23.41425
# Shear Modulus (GPa) = 40.17790 13.29463 26.73626
#
# Velocity S-wave (km/s) = 4.87035 2.80159 3.97298
# Velocity P-wave (km/s) = 6.51357 5.22612 5.90504
#
# Compressibility (1/GPa) = 0.05466723
#
# Stress axis : x y z
#
# Youngs Moduli (GPa) = 90.54234 19.90252 42.85960
#
# Poissons Ratio (x) = 0.03772 0.18170
# Poissons Ratio (y) = 0.17160 0.37898
# Poissons Ratio (z) = 0.38385 0.17599
#
# Static dielectric constant tensor:
#      x y z
#    x 1.625260 0.000000 -0.000760 
#    y 0.000000 1.571410 0.000000 
#    z -0.000760 0.000000 1.547770 
# 
# From -- ./inp_files/142708.got.cif
#   From: 2010.05.17/outbox.cif.g08.bks.cpg/sg12_72_cif.got.tgz:142708.got - 2010.06.03 13:09:07.
