data_PCOD9170498
_publ_section_title
;
Structure prediction by ZEFSAII (Michael W. Deem and Ramdas Pophale) SiO2 
 PCOD9170498
Probable space group: C 2/M
;
_chemical_formula_sum "Si O2"
_cell_formula_units_Z 40
_cell_length_a 18.494137
_cell_length_b 12.747189
_cell_length_c 9.853364
_cell_angle_alpha 90.000000
_cell_angle_beta 126.756564
_cell_angle_gamma 90.000000
_cell_volume 1861.083992
_symmetry_space_group_name_H-M "C 2/M"
_symmetry_group_IT_number 12
_symmetry_cell_setting 'monoclinic'
loop_
_space_group_symop_operation_xyz
x,y,z
-x,y,-z
-x,-y,-z
x,-y,z
1/2+x,1/2+y,z
1/2-x,1/2+y,-z
1/2-x,1/2-y,-z
1/2+x,1/2-y,z
loop_
_atom_site_type_symbol
_atom_site_label
_atom_site_fract_x
_atom_site_fract_y
_atom_site_fract_z
Si Si1 0.642163 0.115532 0.284844
Si Si2 0.000000 0.303195 0.500000
Si Si3 0.739097 0.826467 0.139428
Si Si4 0.191577 0.382692 0.643863
Si Si5 0.903446 0.200037 0.151913
Si Si6 0.000000 0.778858 0.000000
O O1 0.714411 0.110931 0.244812
O O2 0.690975 0.137945 0.481776
O O3 0.570385 0.203159 0.158742
O O4 0.598512 0.000000 0.249879
O O5 0.087126 0.372019 0.567864
O O6 0.021845 0.230353 0.653896
O O7 0.759776 0.709628 0.220976
O O8 0.824008 0.860404 0.143967
O O9 0.649179 0.808004 0.950171
O O10 0.225570 0.500000 0.708877
O O11 0.947456 0.160482 0.061229
#
# Coordination Sequence:
#
# PCOD9170498 Si02
#       6
#     8   4   8   8   8   4
#     4  10  19  31  51  80 111 142 173 216 268 318
#     4  10  17  32  50  80 113 138 163 222 270 328
#     4   9  19  34  48  75 112 147 176 209 256 331
#     4  10  19  31  51  80 111 142 173 216 268 318
#     4   9  18  32  52  73 110 141 176 203 264 314
#     4  10  17  32  50  80 113 138 163 222 270 328
#
# _framework density 21.492850000000001
#
# number of rings (size 3 to 8) (size 9 to 14) (size 15 to 20)
#    0.000    2.400    2.000    1.200    0.000    0.000 
#    0.000   18.000    0.000    0.000    0.000   35.000 
#    0.000    0.000    0.000    0.000    0.000    0.000 
#
# Total GULP energy -111474.121599 kJ/mol
# GULP energy per Si atom -5573.706080 kJ/mol
# Density = 2.144393 g / cm^3
# Si number density = 21.492850 Si / 1000 Ang^3
#
#
#
# Elastic Constant Matrix: (Units=GPa)
#
#
# Indices 1 2 3 4 5 6 
#
# 1 116.0191 2.3522 26.6249 0.0000 -33.0716 0.0000
# 2 2.3522 42.4416 16.1319 0.0000 6.9708 0.0000
# 3 26.6249 16.1319 110.8798 0.0000 -20.3657 0.0000
# 4 0.0000 0.0000 0.0000 -0.9054 0.0000 7.3768
# 5 -33.0716 6.9708 -20.3657 0.0000 40.9553 0.0000
# 6 0.0000 0.0000 0.0000 7.3768 0.0000 8.0589
#
#
#
# Elastic Compliance Matrix: (Units=1/GPa)
#
#
# Indices 1 2 3 4 5 6 
#
# 1 0.011452 -0.001835 -0.000800 0.000000 0.009162 0.000000
# 2 -0.001835 0.027001 -0.005067 0.000000 -0.008597 0.000000
# 3 -0.000800 -0.005067 0.010992 0.000000 0.005682 0.000000
# 4 0.000000 0.000000 0.000000 -0.130585 0.000000 0.119532
# 5 0.009162 -0.008597 0.005682 0.000000 0.036104 0.000000
# 6 0.000000 0.000000 0.000000 0.119532 0.000000 0.014672
#
#
# Mechanical properties :
#
#
# Convention : Reuss Voigt Hill
#
# Bulk Modulus (GPa) = 29.37682 39.95095 34.66389
# Shear Modulus (GPa) = -1383.74893 24.57052 -679.58920
#
# Velocity S-wave (km/s) = -25.40110 3.38478 -17.80111
# Velocity P-wave (km/s) = 29.09622 5.82272 20.15795
#
# Compressibility (1/GPa) = 0.03404044
#
# Stress axis : x y z
#
# Youngs Moduli (GPa) = 87.32336 37.03500 90.97748
#
# Poissons Ratio (x) = 0.06797 0.07278
# Poissons Ratio (y) = 0.16027 0.46097
# Poissons Ratio (z) = 0.06986 0.18765
#
# Static dielectric constant tensor:
#      x y z
#    x 1.851710 0.000000 -0.018030 
#    y 0.000000 1.744610 0.000000 
#    z -0.018030 0.000000 1.807410 
# 
# From -- ./inp_files/85330.got.cif
#   From: 2010.05.17/outbox.cif.g08.bks.cpg/sg12_43_cif.got.tgz:85330.got - 2010.06.03 13:09:07.
