data_PCOD9170627
_publ_section_title
;
Structure prediction by ZEFSAII (Michael W. Deem and Ramdas Pophale) SiO2 
 PCOD9170627
Probable space group: C 2/M
;
_chemical_formula_sum "Si O2"
_cell_formula_units_Z 36
_cell_length_a 9.253111
_cell_length_b 26.912580
_cell_length_c 9.517379
_cell_angle_alpha 90.000000
_cell_angle_beta 135.282797
_cell_angle_gamma 90.000000
_cell_volume 1667.597721
_symmetry_space_group_name_H-M "C 2/M"
_symmetry_group_IT_number 12
_symmetry_cell_setting 'monoclinic'
loop_
_space_group_symop_operation_xyz
x,y,z
-x,y,-z
-x,-y,-z
x,-y,z
1/2+x,1/2+y,z
1/2-x,1/2+y,-z
1/2-x,1/2-y,-z
1/2+x,1/2-y,z
loop_
_atom_site_type_symbol
_atom_site_label
_atom_site_fract_x
_atom_site_fract_y
_atom_site_fract_z
Si Si1 0.024836 0.725669 0.859220
Si Si2 0.925926 0.832969 0.747232
Si Si3 0.840808 0.636117 0.204785
Si Si4 0.000000 0.876674 0.500000
Si Si5 0.093972 0.442884 0.221051
O O1 0.010486 0.681749 0.737547
O O2 0.885856 0.774498 0.747216
O O3 0.250000 0.750000 0.000000
O O4 0.000000 0.705142 0.000000
O O5 0.738936 0.862237 0.691078
O O6 0.971003 0.843329 0.617306
O O7 0.133454 0.851246 0.971322
O O8 0.941112 0.585778 0.220394
O O9 0.197195 0.911954 0.643457
O O10 0.127762 0.500000 0.286169
O O11 0.000000 0.442182 0.000000
#
# Coordination Sequence:
#
# PCOD9170627 Si02
#       5
#     8   8   8   4   8
#     4  10  17  32  63  94 127 172 211 252 309 378
#     4  10  21  38  61  99 130 167 213 255 318 382
#     4  10  20  40  67  90 128 176 213 256 315 383
#     4  12  25  42  66  98 132 160 209 278 316 380
#     4  11  24  44  69  95 124 168 216 265 325 378
#
# _framework density 21.587942000000002
#
# number of rings (size 3 to 8) (size 9 to 14) (size 15 to 20)
#    0.000    1.556    6.667    1.000    3.111    0.889 
#    0.000   10.000    0.000    0.000    0.000    0.000 
#    0.000    0.000    0.000    0.000    0.000    0.000 
#
# Total GULP energy -100673.990873 kJ/mol
# GULP energy per Si atom -5592.999493 kJ/mol
# Density = 2.153881 g / cm^3
# Si number density = 21.587942 Si / 1000 Ang^3
#
#
#
# Elastic Constant Matrix: (Units=GPa)
#
#
# Indices 1 2 3 4 5 6 
#
# 1 137.5091 33.2327 28.7325 0.0000 -33.2948 0.0000
# 2 33.2327 88.2585 6.4188 0.0000 -14.9887 0.0000
# 3 28.7325 6.4188 60.1197 0.0000 -19.2830 0.0000
# 4 0.0000 0.0000 0.0000 21.1128 0.0000 3.5378
# 5 -33.2948 -14.9887 -19.2830 0.0000 48.1247 0.0000
# 6 0.0000 0.0000 0.0000 3.5378 0.0000 54.4481
#
#
#
# Elastic Compliance Matrix: (Units=1/GPa)
#
#
# Indices 1 2 3 4 5 6 
#
# 1 0.009637 -0.002622 -0.002810 0.000000 0.004725 0.000000
# 2 -0.002622 0.012677 0.000670 0.000000 0.002403 0.000000
# 3 -0.002810 0.000670 0.019907 0.000000 0.006241 0.000000
# 4 0.000000 0.000000 0.000000 0.047886 0.000000 -0.003111
# 5 0.004725 0.002403 0.006241 0.000000 0.027297 0.000000
# 6 0.000000 0.000000 0.000000 -0.003111 0.000000 0.018568
#
#
# Mechanical properties :
#
#
# Convention : Reuss Voigt Hill
#
# Bulk Modulus (GPa) = 30.58415 46.96169 38.77292
# Shear Modulus (GPa) = 31.97027 39.23734 35.60381
#
# Velocity S-wave (km/s) = 3.85246 4.26791 4.06550
# Velocity P-wave (km/s) = 5.82980 6.78879 6.32749
#
# Compressibility (1/GPa) = 0.03269668
#
# Stress axis : x y z
#
# Youngs Moduli (GPa) = 103.76542 78.88332 50.23415
#
# Poissons Ratio (x) = 0.20683 0.14118
# Poissons Ratio (y) = 0.27207 -0.03367
# Poissons Ratio (z) = 0.29163 -0.05288
#
# Static dielectric constant tensor:
#      x y z
#    x 1.795370 0.000000 0.033910 
#    y 0.000000 1.755190 0.000000 
#    z 0.033910 0.000000 1.886580 
# 
# From -- ./inp_files/40664.got.cif
#   From: 2010.05.17/outbox.cif.g08.bks.cpg/sg12_21_cif.got.tgz:40664.got - 2010.06.03 13:09:07.
