data_PCOD9170345
_publ_section_title
;
Structure prediction by ZEFSAII (Michael W. Deem and Ramdas Pophale) SiO2 
 PCOD9170345
Probable space group: C 2/M
;
_chemical_formula_sum "Si O2"
_cell_formula_units_Z 40
_cell_length_a 12.597170
_cell_length_b 18.922208
_cell_length_c 16.784802
_cell_angle_alpha 90.000000
_cell_angle_beta 29.434578
_cell_angle_gamma 90.000000
_cell_volume 1966.175121
_symmetry_space_group_name_H-M "C 2/M"
_symmetry_group_IT_number 12
_symmetry_cell_setting 'monoclinic'
loop_
_space_group_symop_operation_xyz
x,y,z
-x,y,-z
-x,-y,-z
x,-y,z
1/2+x,1/2+y,z
1/2-x,1/2+y,-z
1/2-x,1/2-y,-z
1/2+x,1/2-y,z
loop_
_atom_site_type_symbol
_atom_site_label
_atom_site_fract_x
_atom_site_fract_y
_atom_site_fract_z
Si Si1 0.870389 0.000000 0.501266
Si Si2 0.198711 0.655074 0.968557
Si Si3 0.869150 0.213382 0.296990
Si Si4 0.733637 0.300286 0.253466
Si Si5 0.739727 0.000000 0.881750
Si Si6 0.262932 0.351106 0.528916
O O1 0.000000 0.000000 0.500000
O O2 0.724358 0.069367 0.581761
O O3 0.065425 0.000000 0.308958
O O4 0.395941 0.688889 0.887885
O O5 0.224664 0.697780 0.867921
O O6 0.252637 0.573143 0.920424
O O7 0.944009 0.659942 0.151580
O O8 0.731625 0.229941 0.307868
O O9 0.875162 0.286060 0.345943
O O10 0.781543 0.158809 0.420933
O O11 0.502540 0.336739 0.408466
O O12 0.500000 0.000000 0.000000
#
# Coordination Sequence:
#
# PCOD9170345 Si02
#       6
#     4   8   8   8   4   8
#     4  12  20  32  52  76 106 139 168 208 271 322
#     4  10  20  31  51  78 104 135 173 209 258 323
#     4  10  19  32  47  72 108 136 172 212 254 309
#     4  10  17  31  49  71 101 137 165 207 261 302
#     4  12  18  34  52  76 114 136 160 213 269 318
#     4  10  21  32  49  77 105 134 173 215 258 317
#
# _framework density 20.344066000000002
#
# number of rings (size 3 to 8) (size 9 to 14) (size 15 to 20)
#    0.000    1.600    6.000    2.400    0.000    0.000 
#    0.000    0.000    0.000    0.000    0.000   50.400 
#    0.000   27.200    0.000    0.000    0.000    0.000 
#
# Total GULP energy -111345.920897 kJ/mol
# GULP energy per Si atom -5567.296045 kJ/mol
# Density = 2.029776 g / cm^3
# Si number density = 20.344066 Si / 1000 Ang^3
#
#
#
# Elastic Constant Matrix: (Units=GPa)
#
#
# Indices 1 2 3 4 5 6 
#
# 1 58.1764 26.4875 -4.7479 0.0128 11.0067 -0.0241
# 2 26.4875 115.2570 23.1237 0.0426 -8.8408 0.0030
# 3 -4.7479 23.1237 54.7217 0.0271 -18.9415 0.0356
# 4 0.0128 0.0426 0.0271 26.7216 -0.0206 -13.8082
# 5 11.0067 -8.8408 -18.9415 -0.0206 31.8151 -0.0162
# 6 -0.0241 0.0030 0.0356 -13.8082 -0.0162 9.5698
#
#
#
# Elastic Compliance Matrix: (Units=1/GPa)
#
#
# Indices 1 2 3 4 5 6 
#
# 1 0.021540 -0.005883 0.001524 0.000040 -0.008179 0.000094
# 2 -0.005883 0.011089 -0.004314 -0.000029 0.002548 -0.000040
# 3 0.001524 -0.004314 0.024728 -0.000167 0.012996 -0.000306
# 4 0.000040 -0.000029 -0.000167 0.147111 0.000082 0.212268
# 5 -0.008179 0.002548 0.012996 0.000082 0.042707 0.000121
# 6 0.000094 -0.000040 -0.000306 0.212268 0.000121 0.410778
#
#
# Mechanical properties :
#
#
# Convention : Reuss Voigt Hill
#
# Bulk Modulus (GPa) = 24.99416 35.32018 30.15717
# Shear Modulus (GPa) = 7.26071 25.84076 16.55073
#
# Velocity S-wave (km/s) = 1.89122 3.56783 2.85536
# Velocity P-wave (km/s) = 4.13296 5.86274 5.07213
#
# Compressibility (1/GPa) = 0.04000935
#
# Stress axis : x y z
#
# Youngs Moduli (GPa) = 46.42621 90.17665 40.43938
#
# Poissons Ratio (x) = 0.53052 -0.06161
# Poissons Ratio (y) = 0.27313 0.17447
# Poissons Ratio (z) = -0.07073 0.38906
#
# Static dielectric constant tensor:
#      x y z
#    x 1.757280 0.000000 0.043680 
#    y 0.000000 1.813430 0.000010 
#    z 0.043680 0.000010 1.830500 
# 
# From -- ./inp_files/311165.got.cif
#   From: 2010.05.17/outbox.cif.g08.bks.cpg/sg12_156_cif.got.tgz:311165.got - 2010.06.03 13:09:07.
