data_PCOD9170838
_publ_section_title
;
Structure prediction by ZEFSAII (Michael W. Deem and Ramdas Pophale) SiO2 
 PCOD9170838
Probable space group: C 2/M
;
_chemical_formula_sum "Si O2"
_cell_formula_units_Z 64
_cell_length_a 19.426414
_cell_length_b 18.968601
_cell_length_c 9.745237
_cell_angle_alpha 90.000000
_cell_angle_beta 98.509496
_cell_angle_gamma 90.000000
_cell_volume 3551.508356
_symmetry_space_group_name_H-M "C 2/M"
_symmetry_group_IT_number 12
_symmetry_cell_setting 'monoclinic'
loop_
_space_group_symop_operation_xyz
x,y,z
-x,y,-z
-x,-y,-z
x,-y,z
1/2+x,1/2+y,z
1/2-x,1/2+y,-z
1/2-x,1/2-y,-z
1/2+x,1/2-y,z
loop_
_atom_site_type_symbol
_atom_site_label
_atom_site_fract_x
_atom_site_fract_y
_atom_site_fract_z
Si Si1 0.749188 0.420609 0.956836
Si Si2 0.528226 0.260946 0.158678
Si Si3 0.130925 0.891413 0.719804
Si Si4 0.169085 0.284684 0.106391
Si Si5 0.024555 0.921096 0.248484
Si Si6 0.672287 0.577899 0.435057
Si Si7 0.241204 0.655964 0.758689
Si Si8 0.386317 0.232076 0.221794
O O1 0.774863 0.500000 0.945833
O O2 0.672792 0.414469 0.867275
O O3 0.796881 0.361494 0.897406
O O4 0.746754 0.400419 0.116424
O O5 0.604005 0.226710 0.188546
O O6 0.529917 0.346714 0.168554
O O7 0.469953 0.229495 0.242424
O O8 0.500000 0.243696 0.000000
O O9 0.171755 0.916160 0.598104
O O10 0.129914 0.807146 0.716997
O O11 0.051297 0.917473 0.703232
O O12 0.225471 0.227795 0.171101
O O13 0.141042 0.266263 0.944823
O O14 0.091208 0.916196 0.367464
O O15 0.029468 0.000000 0.183421
O O16 0.696463 0.500000 0.401066
O O17 0.718701 0.632983 0.365509
O O18 0.159237 0.671814 0.720330
#
# Coordination Sequence:
#
# PCOD9170838 Si02
#       8
#     8   8   8   8   8   8   8   8
#     4  11  21  34  56  78 102 135 170 210 258 305
#     4   9  18  31  52  75  99 134 170 210 254 293
#     4  11  20  35  51  74 104 140 175 205 246 303
#     4  10  17  35  54  76 105 132 168 215 254 296
#     4  10  20  32  46  68 104 144 173 200 245 299
#     4  11  23  34  48  73 108 142 171 210 253 295
#     4  11  19  36  53  75 105 135 169 211 256 304
#     4   9  18  33  55  75  98 135 171 209 255 296
#
# _framework density 18.020513000000001
#
# number of rings (size 3 to 8) (size 9 to 14) (size 15 to 20)
#    0.000    1.750    3.750    2.625    0.000    1.750 
#    0.000    0.000    0.000   10.125    0.000    0.000 
#    0.000    2.000    0.000    0.000    0.000    0.000 
#
# Total GULP energy -178322.868866 kJ/mol
# GULP energy per Si atom -5572.589652 kJ/mol
# Density = 1.797950 g / cm^3
# Si number density = 18.020513 Si / 1000 Ang^3
#
#
#
# Elastic Constant Matrix: (Units=GPa)
#
#
# Indices 1 2 3 4 5 6 
#
# 1 89.3450 27.5646 7.3221 0.0000 -16.2106 0.0000
# 2 27.5646 80.8443 10.7753 0.0000 -15.3748 0.0000
# 3 7.3221 10.7753 13.6290 0.0000 -8.6135 0.0000
# 4 0.0000 0.0000 0.0000 10.6407 0.0000 -1.3563
# 5 -16.2106 -15.3748 -8.6135 0.0000 14.9825 0.0000
# 6 0.0000 0.0000 0.0000 -1.3563 0.0000 19.7338
#
#
#
# Elastic Compliance Matrix: (Units=1/GPa)
#
#
# Indices 1 2 3 4 5 6 
#
# 1 0.014421 -0.002538 0.003886 0.000000 0.015233 0.000000
# 2 -0.002538 0.015918 -0.004136 0.000000 0.011211 0.000000
# 3 0.003886 -0.004136 0.117064 0.000000 0.067260 0.000000
# 4 0.000000 0.000000 0.000000 0.094809 0.000000 0.006516
# 5 0.015233 0.011211 0.067260 0.000000 0.133398 0.000000
# 6 0.000000 0.000000 0.000000 0.006516 0.000000 0.051122
#
#
# Mechanical properties :
#
#
# Convention : Reuss Voigt Hill
#
# Bulk Modulus (GPa) = 7.05087 30.57133 18.81110
# Shear Modulus (GPa) = 10.42569 18.28184 14.35376
#
# Velocity S-wave (km/s) = 2.40791 3.18858 2.82534
# Velocity P-wave (km/s) = 3.41348 5.52789 4.59399
#
# Compressibility (1/GPa) = 0.14182650
#
# Stress axis : x y z
#
# Youngs Moduli (GPa) = 69.34376 62.82126 8.54234
#
# Poissons Ratio (x) = 0.15944 -0.03320
# Poissons Ratio (y) = 0.17599 0.03533
# Poissons Ratio (z) = -0.26947 0.25985
#
# Static dielectric constant tensor:
#      x y z
#    x 1.658480 0.000000 -0.018950 
#    y 0.000000 1.618790 0.000000 
#    z -0.018950 0.000000 1.629840 
# 
# From -- ./inp_files/87963.got.cif
#   From: 2010.05.17/outbox.cif.g08.bks.cpg/sg12_44_cif.got.tgz:87963.got - 2010.06.03 13:09:07.
