data_PCOD9170591
_publ_section_title
;
Structure prediction by ZEFSAII (Michael W. Deem and Ramdas Pophale) SiO2 
 PCOD9170591
Probable space group: C 2/M
;
_chemical_formula_sum "Si O2"
_cell_formula_units_Z 48
_cell_length_a 22.724102
_cell_length_b 19.199900
_cell_length_c 17.337592
_cell_angle_alpha 90.000000
_cell_angle_beta 20.747013
_cell_angle_gamma 90.000000
_cell_volume 2679.630284
_symmetry_space_group_name_H-M "C 2/M"
_symmetry_group_IT_number 12
_symmetry_cell_setting 'monoclinic'
loop_
_space_group_symop_operation_xyz
x,y,z
-x,y,-z
-x,-y,-z
x,-y,z
1/2+x,1/2+y,z
1/2-x,1/2+y,-z
1/2-x,1/2-y,-z
1/2+x,1/2-y,z
loop_
_atom_site_type_symbol
_atom_site_label
_atom_site_fract_x
_atom_site_fract_y
_atom_site_fract_z
Si Si1 0.043566 0.882945 0.083834
Si Si2 0.154628 0.500000 0.870828
Si Si3 0.024262 0.272670 0.060041
Si Si4 0.704254 0.645913 0.474905
Si Si5 0.193571 0.000000 0.692124
Si Si6 0.632619 0.000000 0.678774
Si Si7 0.165241 0.855277 0.346602
Si Si8 0.800510 0.500000 0.738746
O O1 0.061010 0.808816 0.021747
O O2 0.950776 0.861770 0.277170
O O3 0.918373 0.932478 0.189319
O O4 0.208336 0.931291 0.887347
O O5 0.266325 0.432871 0.728339
O O6 0.000000 0.500000 0.000000
O O7 0.060836 0.500000 0.067208
O O8 0.857080 0.300808 0.306382
O O9 0.191492 0.313576 0.874556
O O10 0.000000 0.291617 0.000000
O O11 0.787806 0.569149 0.380680
O O12 0.646419 0.666611 0.459609
O O13 0.330100 0.000000 0.457517
O O14 0.257136 0.000000 0.700725
O O15 0.000000 0.851492 0.500000
O O16 0.000000 0.500000 0.500000
#
# Coordination Sequence:
#
# PCOD9170591 Si02
#       8
#     8   4   8   8   4   4   8   4
#     4  10  20  37  62  82 103 138 190 238 265 313
#     4  12  17  34  57  76 106 142 186 217 262 305
#     4  10  19  34  57  80 108 144 184 222 272 319
#     4  10  19  35  56  84 109 140 184 232 270 310
#     4   9  20  37  60  83 103 128 190 231 267 310
#     4  10  17  32  58  82 101 135 176 233 261 299
#     4  11  22  34  51  80 117 150 174 211 269 341
#     4  11  23  41  57  81 113 147 175 222 288 335
#
# _framework density 17.912918999999999
#
# number of rings (size 3 to 8) (size 9 to 14) (size 15 to 20)
#    0.000    1.667    3.333    3.750    0.000    0.667 
#    3.000    0.833    0.000    0.000    0.000    0.000 
#    0.000    0.000    0.000    0.000    0.000    0.000 
#
# Total GULP energy -133673.565541 kJ/mol
# GULP energy per Si atom -5569.731898 kJ/mol
# Density = 1.787215 g / cm^3
# Si number density = 17.912919 Si / 1000 Ang^3
#
#
#
# Elastic Constant Matrix: (Units=GPa)
#
#
# Indices 1 2 3 4 5 6 
#
# 1 74.1545 15.5475 58.2348 0.0033 -8.3955 -0.0001
# 2 15.5475 101.0348 32.2612 0.0178 -17.4284 -0.0103
# 3 58.2348 32.2612 136.8739 0.0198 -8.7973 -0.0121
# 4 0.0033 0.0178 0.0198 21.7360 -0.0082 8.3941
# 5 -8.3955 -17.4284 -8.7973 -0.0082 33.0438 0.0042
# 6 -0.0001 -0.0103 -0.0121 8.3941 0.0042 12.4473
#
#
#
# Elastic Compliance Matrix: (Units=1/GPa)
#
#
# Indices 1 2 3 4 5 6 
#
# 1 0.020530 0.000090 -0.008564 0.000012 0.002984 -0.000018
# 2 0.000090 0.011605 -0.002420 -0.000010 0.005499 0.000012
# 3 -0.008564 -0.002420 0.011495 -0.000015 -0.000392 0.000019
# 4 0.000012 -0.000010 -0.000015 0.062207 0.000015 -0.041951
# 5 0.002984 0.005499 -0.000392 0.000015 0.033817 -0.000017
# 6 -0.000018 0.000012 0.000019 -0.041951 -0.000017 0.108629
#
#
# Mechanical properties :
#
#
# Convention : Reuss Voigt Hill
#
# Bulk Modulus (GPa) = 45.78455 58.23890 52.01173
# Shear Modulus (GPa) = 18.02761 27.18008 22.60384
#
# Velocity S-wave (km/s) = 3.17583 3.89954 3.55614
# Velocity P-wave (km/s) = 6.25003 7.27035 6.77941
#
# Compressibility (1/GPa) = 0.02184143
#
# Stress axis : x y z
#
# Youngs Moduli (GPa) = 48.70959 86.16852 86.99459
#
# Poissons Ratio (x) = -0.00776 0.74504
# Poissons Ratio (y) = -0.00439 0.21054
# Poissons Ratio (z) = 0.41716 0.20854
#
# Static dielectric constant tensor:
#      x y z
#    x 1.620330 0.000000 0.040600 
#    y 0.000000 1.637040 0.000000 
#    z 0.040600 0.000000 1.656100 
# 
# From -- ./inp_files/290558.got.cif
#   From: 2010.05.17/outbox.cif.g08.bks.cpg/sg12_146_cif.got.tgz:290558.got - 2010.06.03 13:09:07.
