data_PCOD9170786
_publ_section_title
;
Structure prediction by ZEFSAII (Michael W. Deem and Ramdas Pophale) SiO2 
 PCOD9170786
Probable space group: C 2/M
;
_chemical_formula_sum "Si O2"
_cell_formula_units_Z 56
_cell_length_a 12.627993
_cell_length_b 14.355001
_cell_length_c 15.820362
_cell_angle_alpha 90.000000
_cell_angle_beta 133.055727
_cell_angle_gamma 90.000000
_cell_volume 2095.497555
_symmetry_space_group_name_H-M "C 2/M"
_symmetry_group_IT_number 12
_symmetry_cell_setting 'monoclinic'
loop_
_space_group_symop_operation_xyz
x,y,z
-x,y,-z
-x,-y,-z
x,-y,z
1/2+x,1/2+y,z
1/2-x,1/2+y,-z
1/2-x,1/2-y,-z
1/2+x,1/2-y,z
loop_
_atom_site_type_symbol
_atom_site_label
_atom_site_fract_x
_atom_site_fract_y
_atom_site_fract_z
Si Si1 0.454631 0.393407 0.290869
Si Si2 0.353761 0.608300 0.813596
Si Si3 0.700058 0.102758 0.900803
Si Si4 0.284268 0.106520 0.497606
Si Si5 0.012211 0.721548 0.906451
Si Si6 0.567004 0.811576 0.683445
Si Si7 0.260717 0.103419 0.683126
O O1 0.413162 0.500000 0.236777
O O2 0.626831 0.385946 0.369842
O O3 0.404187 0.285063 0.250835
O O4 0.394646 0.395874 0.354888
O O5 0.364613 0.500000 0.800545
O O6 0.327445 0.617745 0.901564
O O7 0.489983 0.671294 0.865785
O O8 0.202257 0.654538 0.700620
O O9 0.654400 0.171560 0.949194
O O10 0.568881 0.112339 0.760460
O O11 0.714355 0.000000 0.943014
O O12 0.414647 0.178664 0.553923
O O13 0.247847 0.118963 0.577089
O O14 0.335362 0.000000 0.509964
O O15 0.871787 0.671454 0.789994
O O16 0.000000 0.710566 0.000000
O O17 0.320778 0.000000 0.730102
#
# Coordination Sequence:
#
# PCOD9170786 Si02
#       7
#     8   8   8   8   8   8   8
#     4  10  20  31  50  84 117 142 183 238 290 332
#     4   9  20  40  61  81 112 157 198 231 284 354
#     4   9  19  38  61  83 112 153 195 232 282 348
#     4  10  18  30  54  82 107 147 193 229 273 343
#     4  12  23  35  60  91 115 145 195 249 293 339
#     4  10  17  34  57  76 107 155 193 230 278 342
#     4  10  18  34  52  75 113 146 177 230 292 342
#
# _framework density 26.723963999999999
#
# number of rings (size 3 to 8) (size 9 to 14) (size 15 to 20)
#    0.857    1.143    2.857    2.143    0.000    3.714 
#    0.000    0.714    0.000    0.000    0.000    1.000 
#    0.000    0.000    0.000    0.000    0.000    0.000 
#
# Total GULP energy -156230.303480 kJ/mol
# GULP energy per Si atom -5579.653696 kJ/mol
# Density = 2.666314 g / cm^3
# Si number density = 26.723964 Si / 1000 Ang^3
#
#
#
# Elastic Constant Matrix: (Units=GPa)
#
#
# Indices 1 2 3 4 5 6 
#
# 1 114.5742 39.8122 2.0130 0.0000 18.8775 0.0000
# 2 39.8122 177.2804 18.6496 0.0000 17.0361 0.0000
# 3 2.0130 18.6496 58.3648 0.0000 -1.9387 -0.0001
# 4 0.0000 0.0000 0.0000 -488.0585 0.0000 -600.0863
# 5 18.8775 17.0361 -1.9387 0.0000 36.7086 0.0000
# 6 0.0000 0.0000 -0.0001 -600.0863 0.0000 -696.5585
#
#
#
# Elastic Compliance Matrix: (Units=1/GPa)
#
#
# Indices 1 2 3 4 5 6 
#
# 1 0.010084 -0.001861 0.000103 0.000000 -0.004317 0.000000
# 2 -0.001861 0.006485 -0.002080 0.000000 -0.002163 0.000000
# 3 0.000103 -0.002080 0.017856 0.000000 0.001855 0.000000
# 4 0.000000 0.000000 0.000000 0.034582 0.000000 -0.029792
# 5 -0.004317 -0.002163 0.001855 0.000000 0.030563 0.000000
# 6 0.000000 0.000000 0.000000 -0.029792 0.000000 0.024230
#
#
# Mechanical properties :
#
#
# Convention : Reuss Voigt Hill
#
# Bulk Modulus (GPa) = 37.38171 52.35210 44.86691
# Shear Modulus (GPa) = 35.61448 -210.26536 -87.32544
#
# Velocity S-wave (km/s) = 3.65455 -8.87982 -5.72257
# Velocity P-wave (km/s) = 5.64146 9.24676 5.18056
#
# Compressibility (1/GPa) = 0.02675105
#
# Stress axis : x y z
#
# Youngs Moduli (GPa) = 99.16790 154.19565 56.00272
#
# Poissons Ratio (x) = 0.28690 -0.00579
# Poissons Ratio (y) = 0.18451 0.11648
# Poissons Ratio (z) = -0.01025 0.32072
#
# Static dielectric constant tensor:
#      x y z
#    x 2.107660 0.000000 -0.005210 
#    y 0.000000 2.133830 0.000000 
#    z -0.005210 0.000000 2.159780 
# 
# From -- ./inp_files/339932.got.cif
#   From: 2010.05.17/outbox.cif.g08.bks.cpg/sg12_170_cif.got.tgz:339932.got - 2010.06.03 13:09:07.
