data_PCOD9170428
_publ_section_title
;
Structure prediction by ZEFSAII (Michael W. Deem and Ramdas Pophale) SiO2 
 PCOD9170428
Probable space group: C 2/M
;
_chemical_formula_sum "Si O2"
_cell_formula_units_Z 52
_cell_length_a 22.669115
_cell_length_b 27.656523
_cell_length_c 8.812552
_cell_angle_alpha 90.000000
_cell_angle_beta 32.217151
_cell_angle_gamma 90.000000
_cell_volume 2945.551328
_symmetry_space_group_name_H-M "C 2/M"
_symmetry_group_IT_number 12
_symmetry_cell_setting 'monoclinic'
loop_
_space_group_symop_operation_xyz
x,y,z
-x,y,-z
-x,-y,-z
x,-y,z
1/2+x,1/2+y,z
1/2-x,1/2+y,-z
1/2-x,1/2-y,-z
1/2+x,1/2-y,z
loop_
_atom_site_type_symbol
_atom_site_label
_atom_site_fract_x
_atom_site_fract_y
_atom_site_fract_z
Si Si1 0.218763 0.175040 0.150027
Si Si2 0.102451 0.749780 0.174574
Si Si3 0.538708 0.000000 0.591691
Si Si4 0.299647 0.000000 0.117557
Si Si5 0.940849 0.000000 0.288945
Si Si6 0.784551 0.427186 0.874734
Si Si7 0.558899 0.583603 0.215952
Si Si8 0.001853 0.825272 0.175962
O O1 0.164526 0.208996 0.138541
O O2 0.118567 0.164681 0.485254
O O3 0.311945 0.206438 0.032324
O O4 0.272569 0.128830 0.948847
O O5 0.000000 0.732358 0.500000
O O6 0.051881 0.776416 0.138904
O O7 0.500000 0.000000 0.500000
O O8 0.613529 0.951577 0.439262
O O9 0.420272 0.000000 0.932333
O O10 0.189992 0.000000 0.455292
O O11 0.287800 0.954824 0.028509
O O12 0.980988 0.954260 0.300048
O O13 0.000000 0.000000 0.000000
O O14 0.674297 0.438681 0.019241
O O15 0.500000 0.600079 0.500000
O O16 0.574938 0.629678 0.074494
O O17 0.000000 0.823335 0.000000
#
# Coordination Sequence:
#
# PCOD9170428 Si02
#       8
#     8   8   4   4   4   8   8   8
#     4  10  18  33  55  77 102 136 185 225 267 319
#     4   9  19  34  52  78 103 135 183 233 265 319
#     4   8  19  31  48  83 106 134 173 216 274 315
#     4  10  19  34  50  79 117 138 170 220 271 323
#     4  12  23  32  52  87 115 145 177 220 275 328
#     4  10  17  31  56  77 103 136 181 231 268 312
#     4  12  19  34  55  78 109 138 183 231 273 316
#     4  11  21  34  51  78 114 143 168 220 291 333
#
# _framework density 17.653741
#
# number of rings (size 3 to 8) (size 9 to 14) (size 15 to 20)
#    0.000    1.846    4.615    2.077    0.000    2.462 
#    0.000    0.000    0.000    1.846    0.000    0.000 
#    0.000    0.000    0.000    0.000    0.000    0.000 
#
# Total GULP energy -144848.509649 kJ/mol
# GULP energy per Si atom -5571.096525 kJ/mol
# Density = 1.761356 g / cm^3
# Si number density = 17.653741 Si / 1000 Ang^3
#
#
#
# Elastic Constant Matrix: (Units=GPa)
#
#
# Indices 1 2 3 4 5 6 
#
# 1 77.0796 16.5425 42.9299 0.0000 1.7250 0.0000
# 2 16.5425 67.1207 36.0648 0.0000 -7.3211 0.0000
# 3 42.9299 36.0648 115.8461 0.0001 -21.9860 0.0000
# 4 0.0000 0.0000 0.0001 18.6760 0.0000 -7.7235
# 5 1.7250 -7.3211 -21.9860 0.0000 32.3892 0.0000
# 6 0.0000 0.0000 0.0000 -7.7235 0.0000 16.6638
#
#
#
# Elastic Compliance Matrix: (Units=1/GPa)
#
#
# Indices 1 2 3 4 5 6 
#
# 1 0.017386 -0.001040 -0.007277 0.000000 -0.006101 0.000000
# 2 -0.001040 0.017956 -0.005078 0.000000 0.000667 0.000000
# 3 -0.007277 -0.005078 0.014653 0.000000 0.009186 0.000000
# 4 0.000000 0.000000 0.000000 0.066242 0.000000 0.030702
# 5 -0.006101 0.000667 0.009186 0.000000 0.037586 0.000000
# 6 0.000000 0.000000 0.000000 0.030702 0.000000 0.074240
#
#
# Mechanical properties :
#
#
# Convention : Reuss Voigt Hill
#
# Bulk Modulus (GPa) = 43.09393 50.12452 46.60923
# Shear Modulus (GPa) = 19.04116 24.51307 21.77711
#
# Velocity S-wave (km/s) = 3.28775 3.73037 3.51603
# Velocity P-wave (km/s) = 6.23507 6.85631 6.55305
#
# Compressibility (1/GPa) = 0.02320512
#
# Stress axis : x y z
#
# Youngs Moduli (GPa) = 57.51645 55.69131 68.24519
#
# Poissons Ratio (x) = 0.05795 0.49661
# Poissons Ratio (y) = 0.05984 0.34654
# Poissons Ratio (z) = 0.41854 0.28279
#
# Static dielectric constant tensor:
#      x y z
#    x 1.581250 0.000000 -0.032800 
#    y 0.000000 1.635180 0.000000 
#    z -0.032800 0.000000 1.655790 
# 
# From -- ./inp_files/91489.got.cif
#   From: 2010.05.17/outbox.cif.g08.bks.cpg/sg12_46_cif.got.tgz:91489.got - 2010.06.03 13:09:07.
