data_PCOD9170423
_publ_section_title
;
Structure prediction by ZEFSAII (Michael W. Deem and Ramdas Pophale) SiO2 
 PCOD9170423
Probable space group: C 2/M
;
_chemical_formula_sum "Si O2"
_cell_formula_units_Z 48
_cell_length_a 24.199130
_cell_length_b 18.558011
_cell_length_c 5.488171
_cell_angle_alpha 90.000000
_cell_angle_beta 75.688603
_cell_angle_gamma 90.000000
_cell_volume 2388.183061
_symmetry_space_group_name_H-M "C 2/M"
_symmetry_group_IT_number 12
_symmetry_cell_setting 'monoclinic'
loop_
_space_group_symop_operation_xyz
x,y,z
-x,y,-z
-x,-y,-z
x,-y,z
1/2+x,1/2+y,z
1/2-x,1/2+y,-z
1/2-x,1/2-y,-z
1/2+x,1/2-y,z
loop_
_atom_site_type_symbol
_atom_site_label
_atom_site_fract_x
_atom_site_fract_y
_atom_site_fract_z
Si Si1 0.198976 0.122697 0.357754
Si Si2 0.103631 0.000000 0.986152
Si Si3 0.837032 0.846764 0.102970
Si Si4 0.067885 0.645402 0.421090
Si Si5 0.601864 0.500000 0.488071
Si Si6 0.067702 0.268689 0.921250
Si Si7 0.208852 0.500000 0.820443
Si Si8 0.638995 0.000000 0.396058
O O1 0.202486 0.160551 0.616206
O O2 0.143338 0.069948 0.440734
O O3 0.251655 0.070224 0.253042
O O4 0.189731 0.171578 0.129966
O O5 0.144985 0.069294 0.939449
O O6 0.069243 0.000000 0.775267
O O7 0.069132 0.000000 0.271988
O O8 0.893636 0.801345 0.090724
O O9 0.080657 0.694007 0.646577
O O10 0.101319 0.571339 0.409284
O O11 0.000000 0.632101 0.500000
O O12 0.080332 0.682264 0.145888
O O13 0.000000 0.252694 0.000000
O O14 0.166578 0.500000 0.635294
O O15 0.182334 0.500000 0.119390
#
# Coordination Sequence:
#
# PCOD9170423 Si02
#       8
#     8   4   8   8   4   8   4   4
#     4   9  17  30  50  78 109 149 193 227 269 332
#     4   8  14  23  41  70  98 132 184 225 249 298
#     4  10  17  31  55  80 113 158 199 231 277 337
#     4  10  22  41  63  88 116 148 187 234 303 373
#     4   7  12  22  38  62  91 122 171 222 250 285
#     4  10  21  37  59  87 119 154 193 239 293 353
#     4  11  22  36  59  92 121 148 194 248 294 335
#     4  12  23  39  66  90 114 142 187 253 300 352
#
# _framework density 20.098960000000002
#
# number of rings (size 3 to 8) (size 9 to 14) (size 15 to 20)
#    0.000    2.333    0.000    4.250    0.000    1.333 
#    0.000    3.750    0.000   20.000    0.000   14.000 
#    0.000    0.000    0.000    0.000    0.000    0.000 
#
# Total GULP energy -133787.828201 kJ/mol
# GULP energy per Si atom -5574.492842 kJ/mol
# Density = 2.005321 g / cm^3
# Si number density = 20.098960 Si / 1000 Ang^3
#
#
#
# Elastic Constant Matrix: (Units=GPa)
#
#
# Indices 1 2 3 4 5 6 
#
# 1 33.1854 21.6073 8.7486 0.0000 16.4939 0.0000
# 2 21.6073 41.3829 -6.5463 0.0000 -3.7679 0.0000
# 3 8.7486 -6.5463 137.6503 0.0000 38.7690 0.0000
# 4 0.0000 0.0000 0.0000 26.5308 0.0000 -23.2982
# 5 16.4939 -3.7679 38.7690 0.0000 28.3121 0.0000
# 6 0.0000 0.0000 0.0000 -23.2982 0.0000 126.7928
#
#
#
# Elastic Compliance Matrix: (Units=1/GPa)
#
#
# Indices 1 2 3 4 5 6 
#
# 1 0.129715 -0.074846 0.019998 0.000000 -0.112914 0.000000
# 2 -0.074846 0.067661 -0.011138 0.000000 0.067859 0.000000
# 3 0.019998 -0.011138 0.014915 0.000000 -0.033557 0.000000
# 4 0.000000 0.000000 0.000000 0.044944 0.000000 0.008258
# 5 -0.112914 0.067859 -0.033557 0.000000 0.156083 0.000000
# 6 0.000000 0.000000 0.000000 0.008258 0.000000 0.009404
#
#
# Mechanical properties :
#
#
# Convention : Reuss Voigt Hill
#
# Bulk Modulus (GPa) = 12.45008 28.87088 20.66048
# Shear Modulus (GPa) = 8.59896 48.88776 28.74336
#
# Velocity S-wave (km/s) = 2.07065 4.93724 3.78576
# Velocity P-wave (km/s) = 3.45321 6.84816 5.42319
#
# Compressibility (1/GPa) = 0.08032075
#
# Stress axis : x y z
#
# Youngs Moduli (GPa) = 7.70922 14.77965 67.04503
#
# Poissons Ratio (x) = 1.10619 -1.34078
# Poissons Ratio (y) = 0.57700 0.74673
# Poissons Ratio (z) = -0.15417 0.16461
#
# Static dielectric constant tensor:
#      x y z
#    x 1.672050 0.000000 0.045680 
#    y 0.000000 1.675440 0.000000 
#    z 0.045680 0.000000 1.802700 
# 
# From -- ./inp_files/25013.got.cif
#   From: 2010.05.17/outbox.cif.g08.bks.cpg/sg12_13_cif.got.tgz:25013.got - 2010.06.03 13:09:07.
