data_PCOD9170348
_publ_section_title
;
Structure prediction by ZEFSAII (Michael W. Deem and Ramdas Pophale) SiO2 
 PCOD9170348
Probable space group: C 2/M
;
_chemical_formula_sum "Si O2"
_cell_formula_units_Z 48
_cell_length_a 24.021338
_cell_length_b 22.239845
_cell_length_c 5.875018
_cell_angle_alpha 90.000000
_cell_angle_beta 68.931089
_cell_angle_gamma 90.000000
_cell_volume 2928.795326
_symmetry_space_group_name_H-M "C 2/M"
_symmetry_group_IT_number 12
_symmetry_cell_setting 'monoclinic'
loop_
_space_group_symop_operation_xyz
x,y,z
-x,y,-z
-x,-y,-z
x,-y,z
1/2+x,1/2+y,z
1/2-x,1/2+y,-z
1/2-x,1/2-y,-z
1/2+x,1/2-y,z
loop_
_atom_site_type_symbol
_atom_site_label
_atom_site_fract_x
_atom_site_fract_y
_atom_site_fract_z
Si Si1 0.261716 0.173305 0.722910
Si Si2 0.836646 0.430427 0.373216
Si Si3 0.442582 0.127444 0.466563
Si Si4 0.656213 0.158959 0.019698
Si Si5 0.156519 0.235214 0.665904
Si Si6 0.471294 0.740397 0.290313
O O1 0.290105 0.112987 0.573205
O O2 0.279773 0.171746 0.959506
O O3 0.194770 0.185076 0.740956
O O4 0.299959 0.229533 0.570071
O O5 0.822088 0.500000 0.410435
O O6 0.902285 0.416354 0.376854
O O7 0.838723 0.403884 0.117387
O O8 0.500000 0.098610 0.500000
O O9 0.395736 0.153489 0.719685
O O10 0.466292 0.186641 0.302597
O O11 0.640841 0.212718 0.871720
O O12 0.096540 0.216244 0.627623
O O13 0.500000 0.725029 0.500000
O O14 0.500000 0.723805 0.000000
#
# Coordination Sequence:
#
# PCOD9170348 Si02
#       6
#     8   8   8   8   8   8
#     4   9  19  31  50  70  93 128 163 212 255 305
#     4  10  21  34  46  65  93 128 177 222 255 286
#     4  10  20  31  48  65  96 136 174 207 249 293
#     4  10  17  32  45  71  93 133 164 214 253 299
#     4  10  17  31  49  74  98 123 168 197 257 313
#     4  11  21  32  52  77 108 139 166 205 254 308
#
# _framework density 16.388991999999998
#
# number of rings (size 3 to 8) (size 9 to 14) (size 15 to 20)
#    0.000    2.000    5.000    2.500    0.000    3.000 
#    0.000    0.833    0.000    0.000    0.000    0.000 
#    0.000    1.333    0.000    0.000    0.000    0.000 
#
# Total GULP energy -133647.437376 kJ/mol
# GULP energy per Si atom -5568.643224 kJ/mol
# Density = 1.635169 g / cm^3
# Si number density = 16.388992 Si / 1000 Ang^3
#
#
#
# Elastic Constant Matrix: (Units=GPa)
#
#
# Indices 1 2 3 4 5 6 
#
# 1 140.5886 37.2540 28.6590 0.0000 29.2802 0.0000
# 2 37.2540 42.3918 -0.0491 0.0000 11.0723 0.0000
# 3 28.6590 -0.0491 52.8199 0.0000 15.3163 0.0000
# 4 0.0000 0.0000 0.0000 3.2965 0.0000 0.7136
# 5 29.2802 11.0723 15.3163 0.0000 25.0719 0.0000
# 6 0.0000 0.0000 0.0000 0.7136 0.0000 16.2583
#
#
#
# Elastic Compliance Matrix: (Units=1/GPa)
#
#
# Indices 1 2 3 4 5 6 
#
# 1 0.011744 -0.008384 -0.004225 0.000000 -0.007431 0.000000
# 2 -0.008384 0.033433 0.007319 0.000000 -0.009444 0.000000
# 3 -0.004225 0.007319 0.025202 0.000000 -0.013694 0.000000
# 4 0.000000 0.000000 0.000000 0.306257 0.000000 -0.013441
# 5 -0.007431 -0.009444 -0.013694 0.000000 0.061100 0.000000
# 6 0.000000 0.000000 0.000000 -0.013441 0.000000 0.062097
#
#
# Mechanical properties :
#
#
# Convention : Reuss Voigt Hill
#
# Bulk Modulus (GPa) = 16.72302 40.83646 28.77974
# Shear Modulus (GPa) = 9.42781 20.25444 14.84112
#
# Velocity S-wave (km/s) = 2.40104 3.51929 3.01251
# Velocity P-wave (km/s) = 4.23233 6.44088 5.44966
#
# Compressibility (1/GPa) = 0.05979782
#
# Stress axis : x y z
#
# Youngs Moduli (GPa) = 85.15320 29.91087 39.67901
#
# Poissons Ratio (x) = 0.25078 0.16764
# Poissons Ratio (y) = 0.71394 -0.29040
# Poissons Ratio (z) = 0.35975 -0.21891
#
# Static dielectric constant tensor:
#      x y z
#    x 1.616810 0.000000 0.027630 
#    y 0.000000 1.513540 0.000000 
#    z 0.027630 0.000000 1.633530 
# 
# From -- ./inp_files/17226.got.cif
#   From: 2010.05.17/outbox.cif.g08.bks.cpg/sg12_9_cif.got.tgz:17226.got - 2010.06.03 13:09:07.
