data_PCOD9170433
_publ_section_title
;
Structure prediction by ZEFSAII (Michael W. Deem and Ramdas Pophale) SiO2 
 PCOD9170433
Probable space group: C 2/M
;
_chemical_formula_sum "Si O2"
_cell_formula_units_Z 52
_cell_length_a 14.541166
_cell_length_b 17.351739
_cell_length_c 16.538904
_cell_angle_alpha 90.000000
_cell_angle_beta 146.254666
_cell_angle_gamma 90.000000
_cell_volume 2318.115109
_symmetry_space_group_name_H-M "C 2/M"
_symmetry_group_IT_number 12
_symmetry_cell_setting 'monoclinic'
loop_
_space_group_symop_operation_xyz
x,y,z
-x,y,-z
-x,-y,-z
x,-y,z
1/2+x,1/2+y,z
1/2-x,1/2+y,-z
1/2-x,1/2-y,-z
1/2+x,1/2-y,z
loop_
_atom_site_type_symbol
_atom_site_label
_atom_site_fract_x
_atom_site_fract_y
_atom_site_fract_z
Si Si1 0.167777 0.000000 0.373242
Si Si2 0.164963 0.360387 0.568053
Si Si3 0.318481 0.196700 0.848869
Si Si4 0.371018 0.773567 0.702133
Si Si5 0.887892 0.135027 0.159488
Si Si6 0.086847 0.414248 0.819807
Si Si7 0.819125 0.876745 0.850490
O O1 0.312552 0.067312 0.472434
O O2 0.023097 0.067947 0.266732
O O3 0.218863 0.281230 0.563987
O O4 0.288460 0.381457 0.733150
O O5 0.000000 0.349698 0.500000
O O6 0.309161 0.200150 0.745709
O O7 0.182621 0.155049 0.803182
O O8 0.317152 0.286646 0.873515
O O9 0.500000 0.163733 0.000000
O O10 0.523517 0.711934 0.811725
O O11 0.444820 0.849925 0.717228
O O12 0.733086 0.110851 0.989837
O O13 0.028487 0.500000 0.798579
O O14 0.178647 0.414606 0.800883
O O15 0.000000 0.908784 0.000000
#
# Coordination Sequence:
#
# PCOD9170433 Si02
#       7
#     4   8   8   8   8   8   8
#     4  10  21  36  58  90 119 151 192 248 299 351
#     4  10  22  41  66  87 119 157 198 247 304 356
#     4  10  17  31  56  80 116 160 199 236 295 349
#     4  10  21  37  57  81 117 160 207 245 289 354
#     4  11  19  35  56  84 127 158 196 242 302 360
#     4  12  22  33  53  85 126 157 196 246 300 354
#     4  10  21  35  59  91 118 155 196 250 304 354
#
# _framework density 22.432020000000001
#
# number of rings (size 3 to 8) (size 9 to 14) (size 15 to 20)
#    0.000    1.538    3.846    4.385    1.077    0.308 
#    1.385    1.923    0.000    0.462    0.000    0.000 
#    0.000    0.000    0.000    0.000    0.000    0.000 
#
# Total GULP energy -144735.605947 kJ/mol
# GULP energy per Si atom -5566.754075 kJ/mol
# Density = 2.238096 g / cm^3
# Si number density = 22.432020 Si / 1000 Ang^3
#
#
#
# Elastic Constant Matrix: (Units=GPa)
#
#
# Indices 1 2 3 4 5 6 
#
# 1 135.7074 67.4185 30.6825 -0.0022 26.6942 -0.0020
# 2 67.4185 183.8193 44.2758 -0.0060 28.8439 -0.0035
# 3 30.6825 44.2758 72.3707 -0.0106 22.4461 -0.0061
# 4 -0.0022 -0.0060 -0.0106 15.3812 -0.0009 10.7143
# 5 26.6942 28.8439 22.4461 -0.0009 31.3538 -0.0006
# 6 -0.0020 -0.0035 -0.0061 10.7143 -0.0006 0.3780
#
#
#
# Elastic Compliance Matrix: (Units=1/GPa)
#
#
# Indices 1 2 3 4 5 6 
#
# 1 0.009921 -0.002558 -0.000965 0.000000 -0.005401 -0.000001
# 2 -0.002558 0.007445 -0.002599 0.000000 -0.002811 0.000000
# 3 -0.000965 -0.002599 0.019050 0.000009 -0.010426 0.000003
# 4 0.000000 0.000000 0.000009 -0.003469 -0.000005 0.098313
# 5 -0.005401 -0.002811 -0.010426 -0.000005 0.046542 -0.000002
# 6 -0.000001 0.000000 0.000003 0.098313 -0.000002 -0.141136
#
#
# Mechanical properties :
#
#
# Convention : Reuss Voigt Hill
#
# Bulk Modulus (GPa) = 41.37099 75.18347 58.27723
# Shear Modulus (GPa) = -120.93537 26.05729 -47.43904
#
# Velocity S-wave (km/s) = -7.35044 3.41194 -4.60367
# Velocity P-wave (km/s) = 7.31818 7.00790 1.49082
#
# Compressibility (1/GPa) = 0.02417153
#
# Stress axis : x y z
#
# Youngs Moduli (GPa) = 100.80073 134.31038 52.49232
#
# Poissons Ratio (x) = 0.34362 0.05068
# Poissons Ratio (y) = 0.25789 0.13641
# Poissons Ratio (z) = 0.09732 0.34902
#
# Static dielectric constant tensor:
#      x y z
#    x 1.836740 0.000000 -0.002690 
#    y 0.000000 1.852910 0.000000 
#    z -0.002690 0.000000 1.980690 
# 
# From -- ./inp_files/144853.got.cif
#   From: 2010.05.17/outbox.cif.g08.bks.cpg/sg12_73_cif.got.tgz:144853.got - 2010.06.03 13:09:07.
