data_PCOD9170888
_publ_section_title
;
Structure prediction by ZEFSAII (Michael W. Deem and Ramdas Pophale) SiO2 
 PCOD9170888
Probable space group: C 2/M
;
_chemical_formula_sum "Si O2"
_cell_formula_units_Z 40
_cell_length_a 16.570365
_cell_length_b 17.658549
_cell_length_c 8.940740
_cell_angle_alpha 90.000000
_cell_angle_beta 53.872877
_cell_angle_gamma 90.000000
_cell_volume 2113.082660
_symmetry_space_group_name_H-M "C 2/M"
_symmetry_group_IT_number 12
_symmetry_cell_setting 'monoclinic'
loop_
_space_group_symop_operation_xyz
x,y,z
-x,y,-z
-x,-y,-z
x,-y,z
1/2+x,1/2+y,z
1/2-x,1/2+y,-z
1/2-x,1/2-y,-z
1/2+x,1/2-y,z
loop_
_atom_site_type_symbol
_atom_site_label
_atom_site_fract_x
_atom_site_fract_y
_atom_site_fract_z
Si Si1 0.500000 0.676878 0.500000
Si Si2 0.297510 0.827300 0.513627
Si Si3 0.981197 0.666394 0.859707
Si Si4 0.667167 0.208442 0.190400
Si Si5 0.500000 0.314508 0.000000
Si Si6 0.886059 0.911371 0.362956
O O1 0.415975 0.730952 0.663504
O O2 0.556524 0.625822 0.560260
O O3 0.250000 0.750000 0.500000
O O4 0.412982 0.830981 0.339261
O O5 0.291173 0.825565 0.700191
O O6 0.231602 0.892817 0.510479
O O7 0.892243 0.646385 0.845066
O O8 0.000000 0.627101 0.000000
O O9 0.951292 0.752692 0.942300
O O10 0.750000 0.250000 0.000000
O O11 0.427415 0.366830 0.173342
O O12 0.905372 0.000000 0.334239
#
# Coordination Sequence:
#
# PCOD9170888 Si02
#       6
#     4   8   8   8   4   8
#     4  12  21  40  58  88 121 154 200 246 301 358
#     4  12  19  36  59  83 120 150 201 246 288 352
#     4  10  19  34  59  92 111 145 193 250 300 333
#     4  12  20  33  60  91 119 147 197 256 304 342
#     4  10  17  36  56  82 117 148 188 242 293 346
#     4  12  25  38  56  86 125 162 191 237 303 365
#
# _framework density 18.929690999999998
#
# number of rings (size 3 to 8) (size 9 to 14) (size 15 to 20)
#    0.600    0.000    8.000    3.000    0.000    0.000 
#    0.000    0.000    0.000    3.000    0.000    0.000 
#    0.000    0.000    0.000    0.000    0.000    0.000 
#
# Total GULP energy -111493.537480 kJ/mol
# GULP energy per Si atom -5574.676874 kJ/mol
# Density = 1.888661 g / cm^3
# Si number density = 18.929691 Si / 1000 Ang^3
#
#
#
# Elastic Constant Matrix: (Units=GPa)
#
#
# Indices 1 2 3 4 5 6 
#
# 1 141.8563 6.4698 41.3035 0.0000 13.4559 0.0000
# 2 6.4698 37.7258 -5.2381 0.0000 9.9264 0.0000
# 3 41.3035 -5.2381 104.2229 0.0000 1.6781 0.0000
# 4 0.0000 0.0000 0.0000 11.0062 0.0000 -4.2770
# 5 13.4559 9.9264 1.6781 0.0000 34.3803 0.0000
# 6 0.0000 0.0000 0.0000 -4.2770 0.0000 15.0155
#
#
#
# Elastic Compliance Matrix: (Units=1/GPa)
#
#
# Indices 1 2 3 4 5 6 
#
# 1 0.008330 -0.001162 -0.003315 0.000000 -0.002763 0.000000
# 2 -0.001162 0.029110 0.002053 0.000000 -0.008050 0.000000
# 3 -0.003315 0.002053 0.011009 0.000000 0.000167 0.000000
# 4 0.000000 0.000000 0.000000 0.102166 0.000000 0.029101
# 5 -0.002763 -0.008050 0.000167 0.000000 0.032484 0.000000
# 6 0.000000 0.000000 0.000000 0.029101 0.000000 0.074887
#
#
# Mechanical properties :
#
#
# Convention : Reuss Voigt Hill
#
# Bulk Modulus (GPa) = 22.93537 40.98613 31.96075
# Shear Modulus (GPa) = 18.02675 28.16506 23.09590
#
# Velocity S-wave (km/s) = 3.08928 3.86149 3.49677
# Velocity P-wave (km/s) = 4.98671 6.44827 5.76400
#
# Compressibility (1/GPa) = 0.04360077
#
# Stress axis : x y z
#
# Youngs Moduli (GPa) = 120.05321 34.35304 90.83461
#
# Poissons Ratio (x) = 0.03991 0.30111
# Poissons Ratio (y) = 0.13948 -0.18649
# Poissons Ratio (z) = 0.39797 -0.07053
#
# Static dielectric constant tensor:
#      x y z
#    x 1.763900 0.000000 0.031720 
#    y 0.000000 1.632830 0.000000 
#    z 0.031720 0.000000 1.689520 
# 
# From -- ./inp_files/62605.got.cif
#   From: 2010.05.17/outbox.cif.g08.bks.cpg/sg12_32_cif.got.tgz:62605.got - 2010.06.03 13:09:07.
