data_PCOD9170457
_publ_section_title
;
Structure prediction by ZEFSAII (Michael W. Deem and Ramdas Pophale) SiO2 
 PCOD9170457
Probable space group: C 2/M
;
_chemical_formula_sum "Si O2"
_cell_formula_units_Z 40
_cell_length_a 14.949145
_cell_length_b 17.585512
_cell_length_c 11.149590
_cell_angle_alpha 90.000000
_cell_angle_beta 143.192604
_cell_angle_gamma 90.000000
_cell_volume 1756.099538
_symmetry_space_group_name_H-M "C 2/M"
_symmetry_group_IT_number 12
_symmetry_cell_setting 'monoclinic'
loop_
_space_group_symop_operation_xyz
x,y,z
-x,y,-z
-x,-y,-z
x,-y,z
1/2+x,1/2+y,z
1/2-x,1/2+y,-z
1/2-x,1/2-y,-z
1/2+x,1/2-y,z
loop_
_atom_site_type_symbol
_atom_site_label
_atom_site_fract_x
_atom_site_fract_y
_atom_site_fract_z
Si Si1 0.175554 0.000000 0.202906
Si Si2 0.921035 0.500000 0.285797
Si Si3 0.006761 0.909981 0.647797
Si Si4 0.321113 0.724793 0.890521
Si Si5 0.131697 0.847779 0.282839
Si Si6 0.663198 0.856213 0.924194
O O1 0.251639 0.000000 0.155334
O O2 0.206846 0.076416 0.309693
O O3 0.000000 0.000000 0.000000
O O4 0.941251 0.424935 0.228801
O O5 0.000000 0.500000 0.500000
O O6 0.000000 0.893812 0.500000
O O7 0.887114 0.861652 0.596308
O O8 0.978996 0.000000 0.638714
O O9 0.175862 0.890482 0.867601
O O10 0.293675 0.718028 0.718996
O O11 0.186773 0.697565 0.832130
O O12 0.455452 0.665256 0.061567
O O13 0.378975 0.803456 0.008799
#
# Coordination Sequence:
#
# PCOD9170457 Si02
#       6
#     4   4   8   8   8   8
#     4  12  16  32  66  97 111 151 219 265 308 352
#     4  12  24  38  64  98 132 168 209 259 316 389
#     4  10  19  32  58  93 119 148 204 273 317 357
#     4   9  18  30  58  88 117 154 203 259 311 367
#     4  10  17  31  59  87 115 149 210 265 303 358
#     4  10  19  36  55  85 126 166 195 245 323 379
#
# _framework density 22.777752
#
# number of rings (size 3 to 8) (size 9 to 14) (size 15 to 20)
#    0.000    1.800    6.000    1.200    0.000    0.000 
#    0.000   10.000    8.800    2.400    0.000    0.000 
#    0.000    0.000    0.000    0.000    0.000    0.000 
#
# Total GULP energy -111397.106889 kJ/mol
# GULP energy per Si atom -5569.855344 kJ/mol
# Density = 2.272591 g / cm^3
# Si number density = 22.777752 Si / 1000 Ang^3
#
#
#
# Elastic Constant Matrix: (Units=GPa)
#
#
# Indices 1 2 3 4 5 6 
#
# 1 109.4577 47.1599 28.9331 0.0000 -47.8879 0.0000
# 2 47.1599 132.3592 42.6771 0.0000 -30.5401 0.0000
# 3 28.9331 42.6771 72.0243 0.0000 -26.6067 0.0000
# 4 0.0000 0.0000 0.0000 11.9802 0.0000 -12.4796
# 5 -47.8879 -30.5401 -26.6067 0.0000 38.2044 0.0000
# 6 0.0000 0.0000 0.0000 -12.4796 0.0000 38.0661
#
#
#
# Elastic Compliance Matrix: (Units=1/GPa)
#
#
# Indices 1 2 3 4 5 6 
#
# 1 0.020865 -0.002235 0.002618 0.000000 0.026190 0.000000
# 2 -0.002235 0.010302 -0.004307 0.000000 0.002434 0.000000
# 3 0.002618 -0.004307 0.020633 0.000000 0.014207 0.000000
# 4 0.000000 0.000000 0.000000 0.126760 0.000000 0.041557
# 5 0.026190 0.002434 0.014207 0.000000 0.070843 0.000000
# 6 0.000000 0.000000 0.000000 0.041557 0.000000 0.039894
#
#
# Mechanical properties :
#
#
# Convention : Reuss Voigt Hill
#
# Bulk Modulus (GPa) = 22.75297 61.26461 42.00879
# Shear Modulus (GPa) = 16.03601 30.65490 23.34546
#
# Velocity S-wave (km/s) = 2.65622 3.67253 3.20492
# Velocity P-wave (km/s) = 4.40660 6.70361 5.67259
#
# Compressibility (1/GPa) = 0.04395030
#
# Stress axis : x y z
#
# Youngs Moduli (GPa) = 47.92655 97.06835 48.46518
#
# Poissons Ratio (x) = 0.21698 -0.12686
# Poissons Ratio (y) = 0.10713 0.20876
# Poissons Ratio (z) = -0.12545 0.41811
#
# Static dielectric constant tensor:
#      x y z
#    x 1.905060 0.000000 -0.007930 
#    y 0.000000 1.927180 0.000000 
#    z -0.007930 0.000000 1.921590 
# 
# From -- ./inp_files/157615.got.cif
#   From: 2010.05.17/outbox.cif.g08.bks.cpg/sg12_79_cif.got.tgz:157615.got - 2010.06.03 13:09:07.
