data_PCOD9170698
_publ_section_title
;
Structure prediction by ZEFSAII (Michael W. Deem and Ramdas Pophale) SiO2 
 PCOD9170698
Probable space group: C 2/M
;
_chemical_formula_sum "Si O2"
_cell_formula_units_Z 64
_cell_length_a 18.558032
_cell_length_b 13.918030
_cell_length_c 27.109647
_cell_angle_alpha 90.000000
_cell_angle_beta 23.172351
_cell_angle_gamma 90.000000
_cell_volume 2755.347841
_symmetry_space_group_name_H-M "C 2/M"
_symmetry_group_IT_number 12
_symmetry_cell_setting 'monoclinic'
loop_
_space_group_symop_operation_xyz
x,y,z
-x,y,-z
-x,-y,-z
x,-y,z
1/2+x,1/2+y,z
1/2-x,1/2+y,-z
1/2-x,1/2-y,-z
1/2+x,1/2-y,z
loop_
_atom_site_type_symbol
_atom_site_label
_atom_site_fract_x
_atom_site_fract_y
_atom_site_fract_z
Si Si1 0.062412 0.697577 0.406731
Si Si2 0.061920 0.215079 0.875792
Si Si3 0.822470 0.390149 0.985702
Si Si4 0.531698 0.607646 0.580181
Si Si5 0.779092 0.385906 0.518673
Si Si6 0.037838 0.195008 0.223701
Si Si7 0.691982 0.894379 0.120632
Si Si8 0.302271 0.141049 0.141094
O O1 0.994014 0.808174 0.443105
O O2 0.978894 0.645429 0.410590
O O3 0.000000 0.662218 0.500000
O O4 0.280498 0.690332 0.262117
O O5 0.160713 0.250305 0.863635
O O6 0.962249 0.314132 0.921295
O O7 0.904344 0.138662 0.986380
O O8 0.828740 0.500000 0.000504
O O9 0.623672 0.339047 0.118123
O O10 0.859547 0.397371 0.904622
O O11 0.580890 0.500000 0.531833
O O12 0.680033 0.639816 0.528997
O O13 0.331742 0.601015 0.732472
O O14 0.763703 0.500000 0.530288
O O15 0.659691 0.339284 0.637703
O O16 0.174731 0.138819 0.173966
O O17 0.069096 0.306365 0.216326
O O18 0.665004 0.000000 0.159756
O O19 0.500000 0.102752 0.000000
#
# Coordination Sequence:
#
# PCOD9170698 Si02
#       8
#     8   8   8   8   8   8   8   8
#     4  11  25  39  61  89 123 164 202 256 305 349
#     4  10  21  38  55  82 120 154 188 239 298 349
#     4  10  20  33  55  82 113 150 189 235 294 353
#     4   9  21  41  62  87 119 162 207 248 298 361
#     4  10  22  41  66  88 116 158 210 255 296 354
#     4  10  19  36  59  85 116 147 195 243 293 353
#     4  10  21  35  56  82 118 160 193 234 291 363
#     4  10  17  33  56  88 115 148 185 240 303 342
#
# _framework density 23.227557000000001
#
# number of rings (size 3 to 8) (size 9 to 14) (size 15 to 20)
#    0.000    2.000    2.500    2.250    3.500    3.750 
#    0.000    1.875    0.000    4.500    0.000    0.000 
#    0.000    0.000    0.000    0.000    0.000    0.000 
#
# Total GULP energy -178538.954099 kJ/mol
# GULP energy per Si atom -5579.342316 kJ/mol
# Density = 2.317469 g / cm^3
# Si number density = 23.227557 Si / 1000 Ang^3
#
#
#
# Elastic Constant Matrix: (Units=GPa)
#
#
# Indices 1 2 3 4 5 6 
#
# 1 46.2813 -4.3006 7.7505 -0.0028 -9.1090 -0.0044
# 2 -4.3006 86.5719 6.7693 -0.0020 -10.0230 0.0021
# 3 7.7505 6.7693 76.9456 -0.0106 -12.7850 -0.0054
# 4 -0.0028 -0.0020 -0.0106 13.2736 0.0026 -0.9113
# 5 -9.1090 -10.0230 -12.7850 0.0026 26.6847 0.0015
# 6 -0.0044 0.0021 -0.0054 -0.9113 0.0015 16.2676
#
#
#
# Elastic Compliance Matrix: (Units=1/GPa)
#
#
# Indices 1 2 3 4 5 6 
#
# 1 0.023656 0.002234 -0.001193 0.000003 0.008343 0.000005
# 2 0.002234 0.012295 -0.000448 0.000001 0.005166 -0.000002
# 3 -0.001193 -0.000448 0.014190 0.000010 0.006223 0.000004
# 4 0.000003 0.000001 0.000010 0.075629 -0.000002 0.004237
# 5 0.008343 0.005166 0.006223 -0.000002 0.045244 -0.000001
# 6 0.000005 -0.000002 0.000004 0.004237 -0.000001 0.061709
#
#
# Mechanical properties :
#
#
# Convention : Reuss Voigt Hill
#
# Bulk Modulus (GPa) = 19.48285 25.58191 22.53238
# Shear Modulus (GPa) = 20.10880 24.55047 22.32964
#
# Velocity S-wave (km/s) = 2.94552 3.25461 3.10392
# Velocity P-wave (km/s) = 4.46925 5.01606 4.75053
#
# Compressibility (1/GPa) = 0.05132718
#
# Stress axis : x y z
#
# Youngs Moduli (GPa) = 42.27170 81.33216 70.47321
#
# Poissons Ratio (x) = -0.18173 0.08409
# Poissons Ratio (y) = -0.09445 0.03160
# Poissons Ratio (z) = 0.05044 0.03647
#
# Static dielectric constant tensor:
#      x y z
#    x 1.930300 0.000000 0.035160 
#    y 0.000000 1.916140 0.000010 
#    z 0.035160 0.000010 1.936020 
# 
# From -- ./inp_files/381455.got.cif
#   From: 2010.05.17/outbox.cif.g08.bks.cpg/sg12_191_cif.got.tgz:381455.got - 2010.06.03 13:09:07.
