data_PCOD9170595
_publ_section_title
;
Structure prediction by ZEFSAII (Michael W. Deem and Ramdas Pophale) SiO2 
 PCOD9170595
Probable space group: C 2/M
;
_chemical_formula_sum "Si O2"
_cell_formula_units_Z 48
_cell_length_a 9.043208
_cell_length_b 28.773273
_cell_length_c 17.088307
_cell_angle_alpha 90.000000
_cell_angle_beta 147.379566
_cell_angle_gamma 90.000000
_cell_volume 2396.938863
_symmetry_space_group_name_H-M "C 2/M"
_symmetry_group_IT_number 12
_symmetry_cell_setting 'monoclinic'
loop_
_space_group_symop_operation_xyz
x,y,z
-x,y,-z
-x,-y,-z
x,-y,z
1/2+x,1/2+y,z
1/2-x,1/2+y,-z
1/2-x,1/2-y,-z
1/2+x,1/2-y,z
loop_
_atom_site_type_symbol
_atom_site_label
_atom_site_fract_x
_atom_site_fract_y
_atom_site_fract_z
Si Si1 0.336311 0.845372 0.151017
Si Si2 0.441378 0.905367 0.064899
Si Si3 0.769965 0.500000 0.335222
Si Si4 0.752916 0.748562 0.174591
Si Si5 0.795971 0.902926 0.768998
Si Si6 0.779961 0.804915 0.674189
Si Si7 0.688627 0.000000 0.161424
O O1 0.479361 0.860591 0.135508
O O2 0.425603 0.794959 0.216695
O O3 0.373304 0.884808 0.232221
O O4 0.000000 0.841456 0.000000
O O5 0.608277 0.951234 0.165370
O O6 0.500000 0.896940 0.000000
O O7 0.115866 0.912986 0.930139
O O8 0.802764 0.452393 0.303301
O O9 0.487457 0.500000 0.257961
O O10 0.000000 0.500000 0.500000
O O11 0.687830 0.726680 0.231546
O O12 0.957977 0.791800 0.261944
O O13 0.500000 0.756648 0.000000
O O14 0.788820 0.858896 0.706444
O O15 0.500000 0.796780 0.500000
O O16 0.500000 0.000000 0.000000
#
# Coordination Sequence:
#
# PCOD9170595 Si02
#       7
#     8   8   4   8   8   8   4
#     4   8  18  33  55  86 115 144 187 239 287 343
#     4  10  17  32  58  84 113 141 185 249 287 323
#     4  12  22  37  57  83 116 154 188 230 288 353
#     4  10  21  40  60  87 120 150 201 247 288 348
#     4  10  20  36  56  82 114 152 192 229 283 355
#     4  11  23  39  59  87 120 157 195 242 295 356
#     4  10  18  35  53  85 117 134 192 248 279 332
#
# _framework density 20.025541
#
# number of rings (size 3 to 8) (size 9 to 14) (size 15 to 20)
#    0.000    2.000    3.333    2.500    0.000    2.667 
#    0.000    2.500    0.000    1.000    0.000    0.000 
#    0.000    0.000    0.000    0.000    0.000    0.000 
#
# Total GULP energy -133636.139956 kJ/mol
# GULP energy per Si atom -5568.172498 kJ/mol
# Density = 1.997996 g / cm^3
# Si number density = 20.025541 Si / 1000 Ang^3
#
#
#
# Elastic Constant Matrix: (Units=GPa)
#
#
# Indices 1 2 3 4 5 6 
#
# 1 68.2341 53.9706 0.6140 0.0000 -0.6792 0.0000
# 2 53.9706 91.1306 13.4305 0.0000 -0.9745 0.0000
# 3 0.6140 13.4305 81.4020 -0.0001 1.1357 0.0000
# 4 0.0000 0.0000 -0.0001 4.8041 0.0000 5.7274
# 5 -0.6792 -0.9745 1.1357 0.0000 13.7324 0.0000
# 6 0.0000 0.0000 0.0000 5.7274 0.0000 28.1097
#
#
#
# Elastic Compliance Matrix: (Units=1/GPa)
#
#
# Indices 1 2 3 4 5 6 
#
# 1 0.028096 -0.017022 0.002597 0.000000 -0.000033 0.000000
# 2 -0.017022 0.021573 -0.003444 0.000000 0.000974 0.000000
# 3 0.002597 -0.003444 0.012850 0.000000 -0.001179 0.000000
# 4 0.000000 0.000000 0.000000 0.274941 0.000000 -0.056020
# 5 -0.000033 0.000974 -0.001179 0.000000 0.072986 0.000000
# 6 0.000000 0.000000 0.000000 -0.056020 0.000000 0.046989
#
#
# Mechanical properties :
#
#
# Convention : Reuss Voigt Hill
#
# Bulk Modulus (GPa) = 37.34313 41.86633 39.60473
# Shear Modulus (GPa) = 9.95818 20.84601 15.40209
#
# Velocity S-wave (km/s) = 2.23238 3.22991 2.77631
# Velocity P-wave (km/s) = 5.03318 5.90437 5.48610
#
# Compressibility (1/GPa) = 0.02677869
#
# Stress axis : x y z
#
# Youngs Moduli (GPa) = 35.59253 46.35527 77.82183
#
# Poissons Ratio (x) = 0.78908 -0.20211
# Poissons Ratio (y) = 0.60587 0.26805
# Poissons Ratio (z) = -0.09244 0.15967
#
# Static dielectric constant tensor:
#      x y z
#    x 1.776670 0.000000 -0.061680 
#    y 0.000000 1.698260 0.000000 
#    z -0.061680 0.000000 1.733650 
# 
# From -- ./inp_files/260451.got.cif
#   From: 2010.05.17/outbox.cif.g08.bks.cpg/sg12_131_cif.got.tgz:260451.got - 2010.06.03 13:09:07.
