data_PCOD9170745
_publ_section_title
;
Structure prediction by ZEFSAII (Michael W. Deem and Ramdas Pophale) SiO2 
 PCOD9170745
Probable space group: C 2/M
;
_chemical_formula_sum "Si O2"
_cell_formula_units_Z 64
_cell_length_a 29.795315
_cell_length_b 14.445882
_cell_length_c 8.381517
_cell_angle_alpha 90.000000
_cell_angle_beta 115.729088
_cell_angle_gamma 90.000000
_cell_volume 3249.903075
_symmetry_space_group_name_H-M "C 2/M"
_symmetry_group_IT_number 12
_symmetry_cell_setting 'monoclinic'
loop_
_space_group_symop_operation_xyz
x,y,z
-x,y,-z
-x,-y,-z
x,-y,z
1/2+x,1/2+y,z
1/2-x,1/2+y,-z
1/2-x,1/2-y,-z
1/2+x,1/2-y,z
loop_
_atom_site_type_symbol
_atom_site_label
_atom_site_fract_x
_atom_site_fract_y
_atom_site_fract_z
Si Si1 0.002972 0.105167 0.694944
Si Si2 0.327627 0.257445 0.346516
Si Si3 0.951728 0.271770 0.015483
Si Si4 0.263058 0.146845 0.460625
Si Si5 0.335146 0.597011 0.880371
Si Si6 0.899823 0.853384 0.693435
Si Si7 0.237811 0.396540 0.179997
Si Si8 0.638454 0.794825 0.925098
O O1 0.946957 0.103929 0.677950
O O2 0.000000 0.127086 0.500000
O O3 0.030553 0.182699 0.847341
O O4 0.023997 0.000000 0.744007
O O5 0.309131 0.168368 0.417262
O O6 0.356992 0.327019 0.505157
O O7 0.279955 0.317813 0.211035
O O8 0.363977 0.221975 0.265958
O O9 0.912748 0.324645 0.068679
O O10 0.919567 0.237040 0.815677
O O11 0.000000 0.313256 0.000000
O O12 0.250000 0.250000 0.500000
O O13 0.218547 0.107450 0.285944
O O14 0.269010 0.097976 0.638535
O O15 0.337568 0.500000 0.976922
O O16 0.374586 0.592355 0.797726
O O17 0.347169 0.692270 0.987167
O O18 0.250695 0.500000 0.141727
O O19 0.185286 0.360795 0.031476
#
# Coordination Sequence:
#
# PCOD9170745 Si02
#       8
#     8   8   8   8   8   8   8   8
#     4  10  20  33  49  75 111 143 180 233 285 334
#     4  11  21  36  56  81 117 153 184 233 287 333
#     4   9  20  36  57  78 104 144 191 232 279 334
#     4  10  17  34  52  71 104 143 188 229 269 324
#     4  11  20  32  51  75 103 144 190 225 268 329
#     4  10  19  33  52  75 104 147 191 226 271 334
#     4  11  22  37  57  81 115 155 195 234 280 336
#     4  11  22  38  55  81 116 148 187 240 288 337
#
# _framework density 19.692896000000001
#
# number of rings (size 3 to 8) (size 9 to 14) (size 15 to 20)
#    0.000    1.625    5.000    2.625    0.000    5.250 
#    0.000    0.625    0.000    0.375    0.000    0.000 
#    0.000    5.500    0.000    0.000    0.000    0.000 
#
# Total GULP energy -178283.862615 kJ/mol
# GULP energy per Si atom -5571.370707 kJ/mol
# Density = 1.964807 g / cm^3
# Si number density = 19.692896 Si / 1000 Ang^3
#
#
#
# Elastic Constant Matrix: (Units=GPa)
#
#
# Indices 1 2 3 4 5 6 
#
# 1 87.5240 2.6284 13.8240 0.0000 -12.2813 0.0000
# 2 2.6284 33.1037 -6.1152 0.0000 1.0088 0.0000
# 3 13.8240 -6.1152 28.4912 0.0000 -6.1172 0.0000
# 4 0.0000 0.0000 0.0000 -71.1172 0.0000 7.4874
# 5 -12.2813 1.0088 -6.1172 0.0000 39.0534 0.0000
# 6 0.0000 0.0000 0.0000 7.4874 0.0000 38.8391
#
#
#
# Elastic Compliance Matrix: (Units=1/GPa)
#
#
# Indices 1 2 3 4 5 6 
#
# 1 0.012893 -0.002239 -0.006057 0.000000 0.003164 0.000000
# 2 -0.002239 0.031847 0.007858 0.000000 -0.000296 0.000000
# 3 -0.006057 0.007858 0.040638 0.000000 0.004258 0.000000
# 4 0.000000 0.000000 0.000000 -0.013782 0.000000 0.002657
# 5 0.003164 -0.000296 0.004258 0.000000 0.027275 0.000000
# 6 0.000000 0.000000 0.000000 0.002657 0.000000 0.025235
#
#
# Mechanical properties :
#
#
# Convention : Reuss Voigt Hill
#
# Bulk Modulus (GPa) = 11.83401 18.86590 15.34996
# Shear Modulus (GPa) = 32.64764 10.60717 21.62740
#
# Velocity S-wave (km/s) = 4.07607 2.32336 3.31756
# Velocity P-wave (km/s) = 5.30800 4.09856 4.74199
#
# Compressibility (1/GPa) = 0.08450219
#
# Stress axis : x y z
#
# Youngs Moduli (GPa) = 77.55965 31.40056 24.60734
#
# Poissons Ratio (x) = 0.07031 0.14905
# Poissons Ratio (y) = 0.17366 -0.19337
# Poissons Ratio (z) = 0.46979 -0.24675
#
# Static dielectric constant tensor:
#      x y z
#    x 1.758660 0.000000 -0.015020 
#    y 0.000000 1.710310 0.000000 
#    z -0.015020 0.000000 1.701540 
# 
# From -- ./inp_files/111691.got.cif
#   From: 2010.05.17/outbox.cif.g08.bks.cpg/sg12_56_cif.got.tgz:111691.got - 2010.06.03 13:09:07.
