data_PCOD9170687
_publ_section_title
;
Structure prediction by ZEFSAII (Michael W. Deem and Ramdas Pophale) SiO2 
 PCOD9170687
Probable space group: C 2/M
;
_chemical_formula_sum "Si O2"
_cell_formula_units_Z 56
_cell_length_a 27.975691
_cell_length_b 16.831994
_cell_length_c 23.909551
_cell_angle_alpha 90.000000
_cell_angle_beta 16.890967
_cell_angle_gamma 90.000000
_cell_volume 3271.227118
_symmetry_space_group_name_H-M "C 2/M"
_symmetry_group_IT_number 12
_symmetry_cell_setting 'monoclinic'
loop_
_space_group_symop_operation_xyz
x,y,z
-x,y,-z
-x,-y,-z
x,-y,z
1/2+x,1/2+y,z
1/2-x,1/2+y,-z
1/2-x,1/2-y,-z
1/2+x,1/2-y,z
loop_
_atom_site_type_symbol
_atom_site_label
_atom_site_fract_x
_atom_site_fract_y
_atom_site_fract_z
Si Si1 0.004437 0.907705 0.163772
Si Si2 0.252605 0.211452 0.935778
Si Si3 0.587631 0.273699 0.538693
Si Si4 0.760834 0.164668 0.519352
Si Si5 0.553727 0.704848 0.878475
Si Si6 0.087299 0.663017 0.037305
Si Si7 0.068662 0.912270 0.360397
O O1 0.843905 0.893676 0.382145
O O2 0.979403 0.858393 0.134122
O O3 0.031786 0.000000 0.122354
O O4 0.152816 0.868227 0.033736
O O5 0.443493 0.209133 0.705767
O O6 0.250000 0.250000 0.000000
O O7 0.163845 0.275722 0.995931
O O8 0.622311 0.316983 0.558855
O O9 0.756199 0.231162 0.333365
O O10 0.521763 0.341796 0.571273
O O11 0.750000 0.250000 0.500000
O O12 0.585663 0.137505 0.740938
O O13 0.456718 0.784730 0.967990
O O14 0.500000 0.678006 0.000000
O O15 0.234126 0.602134 0.861170
O O16 0.000000 0.910324 0.500000
O O17 0.034014 0.000000 0.375252
#
# Coordination Sequence:
#
# PCOD9170687 Si02
#       7
#     8   8   8   8   8   8   8
#     4  11  23  36  55  84 116 145 176 228 287 328
#     4  10  17  33  56  79 108 140 175 221 266 327
#     4  10  19  33  62  81 104 144 193 224 268 330
#     4  11  17  36  59  82 109 141 181 229 276 327
#     4  10  20  37  60  81 105 146 196 230 265 326
#     4   9  19  32  57  80 106 143 190 224 265 332
#     4  10  21  36  51  79 120 150 181 229 277 318
#
# _framework density 17.118959
#
# number of rings (size 3 to 8) (size 9 to 14) (size 15 to 20)
#    0.000    1.857    5.714    0.857    0.000    1.429 
#    0.000    2.857    0.000    8.571    0.000    0.000 
#    0.000    0.000    0.000    0.000    0.000    0.000 
#
# Total GULP energy -155992.140238 kJ/mol
# GULP energy per Si atom -5571.147866 kJ/mol
# Density = 1.708000 g / cm^3
# Si number density = 17.118959 Si / 1000 Ang^3
#
#
#
# Elastic Constant Matrix: (Units=GPa)
#
#
# Indices 1 2 3 4 5 6 
#
# 1 91.0552 29.9561 53.3828 -0.0020 5.6808 0.0011
# 2 29.9561 91.2640 44.4534 -0.0020 0.9216 0.0023
# 3 53.3828 44.4534 103.4540 -0.0040 -6.1552 0.0018
# 4 -0.0020 -0.0020 -0.0040 16.2484 0.0034 0.6431
# 5 5.6808 0.9216 -6.1552 0.0034 29.0546 -0.0019
# 6 0.0011 0.0023 0.0018 0.6431 -0.0019 16.3432
#
#
#
# Elastic Compliance Matrix: (Units=1/GPa)
#
#
# Indices 1 2 3 4 5 6 
#
# 1 0.016587 -0.001368 -0.008266 0.000001 -0.004951 -0.000001
# 2 -0.001368 0.014056 -0.005412 0.000001 -0.001325 -0.000001
# 3 -0.008266 -0.005412 0.016572 0.000001 0.005299 0.000000
# 4 0.000001 0.000001 0.000001 0.061641 -0.000007 -0.002425
# 5 -0.004951 -0.001325 0.005299 -0.000007 0.036550 0.000005
# 6 -0.000001 -0.000001 0.000000 -0.002425 0.000005 0.061283
#
#
# Mechanical properties :
#
#
# Convention : Reuss Voigt Hill
#
# Bulk Modulus (GPa) = 58.40309 60.15088 59.27698
# Shear Modulus (GPa) = 20.61937 22.86130 21.74033
#
# Velocity S-wave (km/s) = 3.47432 3.65833 3.56751
# Velocity P-wave (km/s) = 7.09117 7.28408 7.18827
#
# Compressibility (1/GPa) = 0.01712238
#
# Stress axis : x y z
#
# Youngs Moduli (GPa) = 60.28684 71.14333 60.34188
#
# Poissons Ratio (x) = 0.09736 0.49877
# Poissons Ratio (y) = 0.08250 0.32660
# Poissons Ratio (z) = 0.49831 0.38506
#
# Static dielectric constant tensor:
#      x y z
#    x 1.579520 0.000000 0.003630 
#    y 0.000000 1.582350 -0.000010 
#    z 0.003630 -0.000010 1.624650 
# 
# From -- ./inp_files/87348.got.cif
#   From: 2010.05.17/outbox.cif.g08.bks.cpg/sg12_44_cif.got.tgz:87348.got - 2010.06.03 13:09:07.
