data_PCOD9170483
_publ_section_title
;
Structure prediction by ZEFSAII (Michael W. Deem and Ramdas Pophale) SiO2 
 PCOD9170483
Probable space group: C 2/M
;
_chemical_formula_sum "Si O2"
_cell_formula_units_Z 64
_cell_length_a 28.406501
_cell_length_b 20.460627
_cell_length_c 18.106842
_cell_angle_alpha 90.000000
_cell_angle_beta 19.678614
_cell_angle_gamma 90.000000
_cell_volume 3543.880211
_symmetry_space_group_name_H-M "C 2/M"
_symmetry_group_IT_number 12
_symmetry_cell_setting 'monoclinic'
loop_
_space_group_symop_operation_xyz
x,y,z
-x,y,-z
-x,-y,-z
x,-y,z
1/2+x,1/2+y,z
1/2-x,1/2+y,-z
1/2-x,1/2-y,-z
1/2+x,1/2-y,z
loop_
_atom_site_type_symbol
_atom_site_label
_atom_site_fract_x
_atom_site_fract_y
_atom_site_fract_z
Si Si1 0.302535 0.324917 0.925759
Si Si2 0.106863 0.425504 0.490880
Si Si3 0.572191 0.287139 0.600705
Si Si4 0.874761 0.802857 0.312745
Si Si5 0.844430 0.731660 0.106125
Si Si6 0.092860 0.652269 0.118196
Si Si7 0.842100 0.926690 0.260646
Si Si8 0.351174 0.175669 0.701714
O O1 0.465821 0.324625 0.703458
O O2 0.250000 0.250000 0.000000
O O3 0.242396 0.351491 0.938263
O O4 0.218181 0.352356 0.121352
O O5 0.092388 0.500000 0.488538
O O6 0.250021 0.415809 0.323996
O O7 0.108967 0.378243 0.417653
O O8 0.992443 0.407278 0.721697
O O9 0.582986 0.318855 0.665289
O O10 0.727236 0.280130 0.340132
O O11 0.500456 0.215546 0.717567
O O12 0.750000 0.750000 0.500000
O O13 0.827275 0.866625 0.338590
O O14 0.016816 0.769097 0.072016
O O15 0.761945 0.775989 0.167231
O O16 0.889086 0.666769 0.994879
O O17 0.807625 0.000000 0.340709
O O18 0.000000 0.927270 0.000000
O O19 0.500000 0.209681 0.500000
#
# Coordination Sequence:
#
# PCOD9170483 Si02
#       8
#     8   8   8   8   8   8   8   8
#     4  10  17  32  48  79 112 145 177 215 281 335
#     4  11  23  37  53  78 113 151 188 228 272 337
#     4  10  20  33  52  81 111 138 181 232 286 327
#     4  11  23  35  54  81 113 148 187 242 287 328
#     4  11  21  33  56  83 113 146 179 234 284 335
#     4  10  19  33  53  79 111 143 181 222 275 335
#     4  10  22  38  57  77 108 152 190 226 283 348
#     4  12  19  31  56  80 116 146 175 225 275 340
#
# _framework density 18.059301000000001
#
# number of rings (size 3 to 8) (size 9 to 14) (size 15 to 20)
#    0.000    1.375    6.250    3.000    1.750    0.250 
#    0.000    0.000    0.000    1.500    0.000    3.500 
#    0.000    0.000    0.000    0.000    0.000    0.000 
#
# Total GULP energy -178428.854186 kJ/mol
# GULP energy per Si atom -5575.901693 kJ/mol
# Density = 1.801820 g / cm^3
# Si number density = 18.059301 Si / 1000 Ang^3
#
#
#
# Elastic Constant Matrix: (Units=GPa)
#
#
# Indices 1 2 3 4 5 6 
#
# 1 39.5100 25.3886 4.6332 0.0206 4.8400 -0.0079
# 2 25.3886 53.7828 13.2235 0.0040 0.9142 -0.0023
# 3 4.6332 13.2235 96.8626 0.0308 -3.1320 -0.0121
# 4 0.0206 0.0040 0.0308 385.8366 -0.0101 -132.9641
# 5 4.8400 0.9142 -3.1320 -0.0101 35.5129 0.0037
# 6 -0.0079 -0.0023 -0.0121 -132.9641 0.0037 69.5932
#
#
#
# Elastic Compliance Matrix: (Units=1/GPa)
#
#
# Indices 1 2 3 4 5 6 
#
# 1 0.037089 -0.017547 0.000474 -0.000002 -0.004561 0.000001
# 2 -0.017547 0.027560 -0.002877 0.000001 0.001428 0.000000
# 3 0.000474 -0.002877 0.010725 -0.000001 0.000955 0.000001
# 4 -0.000002 0.000001 -0.000001 0.007587 0.000001 0.014496
# 5 -0.004561 0.001428 0.000955 0.000001 0.028828 0.000000
# 6 0.000001 0.000000 0.000001 0.014496 0.000000 0.042066
#
#
# Mechanical properties :
#
#
# Convention : Reuss Voigt Hill
#
# Bulk Modulus (GPa) = 28.19027 30.73846 29.46436
# Shear Modulus (GPa) = 24.32155 107.98255 66.15205
#
# Velocity S-wave (km/s) = 3.67380 7.74100 6.05888
# Velocity P-wave (km/s) = 5.79996 9.84659 8.08068
#
# Compressibility (1/GPa) = 0.03547324
#
# Stress axis : x y z
#
# Youngs Moduli (GPa) = 26.96235 36.28503 93.24124
#
# Poissons Ratio (x) = 0.63670 -0.04419
# Poissons Ratio (y) = 0.47311 0.26824
# Poissons Ratio (z) = -0.01278 0.10439
#
# Static dielectric constant tensor:
#      x y z
#    x 1.691320 0.000000 -0.041070 
#    y 0.000000 1.626020 0.000000 
#    z -0.041070 0.000000 1.699230 
# 
# From -- ./inp_files/294127.got.cif
#   From: 2010.05.17/outbox.cif.g08.bks.cpg/sg12_148_cif.got.tgz:294127.got - 2010.06.03 13:09:07.
