data_PCOD9170650
_publ_section_title
;
Structure prediction by ZEFSAII (Michael W. Deem and Ramdas Pophale) SiO2 
 PCOD9170650
Probable space group: C 2/M
;
_chemical_formula_sum "Si O2"
_cell_formula_units_Z 56
_cell_length_a 16.332607
_cell_length_b 25.479346
_cell_length_c 8.895426
_cell_angle_alpha 90.000000
_cell_angle_beta 52.433755
_cell_angle_gamma 90.000000
_cell_volume 2934.211644
_symmetry_space_group_name_H-M "C 2/M"
_symmetry_group_IT_number 12
_symmetry_cell_setting 'monoclinic'
loop_
_space_group_symop_operation_xyz
x,y,z
-x,y,-z
-x,-y,-z
x,-y,z
1/2+x,1/2+y,z
1/2-x,1/2+y,-z
1/2-x,1/2-y,-z
1/2+x,1/2-y,z
loop_
_atom_site_type_symbol
_atom_site_label
_atom_site_fract_x
_atom_site_fract_y
_atom_site_fract_z
Si Si1 0.801008 0.642405 0.232261
Si Si2 0.795895 0.291915 0.718928
Si Si3 0.423343 0.222473 0.280452
Si Si4 0.887685 0.186325 0.685315
Si Si5 0.585892 0.135271 0.202192
Si Si6 0.063075 0.560146 0.769961
Si Si7 0.934184 0.177144 0.952299
O O1 0.865631 0.694091 0.207283
O O2 0.680484 0.655032 0.358771
O O3 0.839840 0.597891 0.303466
O O4 0.833367 0.629389 0.025168
O O5 0.839402 0.275698 0.507500
O O6 0.826288 0.240685 0.783405
O O7 0.856510 0.342892 0.715602
O O8 0.675354 0.304424 0.857919
O O9 0.509036 0.181828 0.241552
O O10 0.486070 0.274975 0.173967
O O11 0.904278 0.155610 0.822144
O O12 0.000000 0.200731 0.500000
O O13 0.511884 0.084520 0.273509
O O14 0.089712 0.500000 0.711039
O O15 0.000000 0.562781 0.000000
O O16 0.000000 0.144551 0.000000
#
# Coordination Sequence:
#
# PCOD9170650 Si02
#       7
#     8   8   8   8   8   8   8
#     4  10  21  34  54  75 103 141 173 220 271 311
#     4  12  22  34  51  70 109 149 183 220 258 303
#     4  11  21  34  49  72 103 141 187 215 255 312
#     4  12  22  35  49  71 108 143 183 219 250 309
#     4  10  17  33  52  76 103 137 169 214 267 316
#     4   8  16  32  57  84 106 127 168 225 275 324
#     4  12  24  35  48  69 102 145 190 222 253 303
#
# _framework density 19.085194000000001
#
# number of rings (size 3 to 8) (size 9 to 14) (size 15 to 20)
#    0.000    1.286    4.286    4.714    2.000    1.143 
#    0.000    0.000    0.000    7.286    0.000    0.000 
#    0.000    1.143    0.000    0.000    0.000    0.000 
#
# Total GULP energy -156222.538629 kJ/mol
# GULP energy per Si atom -5579.376380 kJ/mol
# Density = 1.904176 g / cm^3
# Si number density = 19.085194 Si / 1000 Ang^3
#
#
#
# Elastic Constant Matrix: (Units=GPa)
#
#
# Indices 1 2 3 4 5 6 
#
# 1 144.5480 38.8185 26.6055 0.0000 -22.0782 0.0000
# 2 38.8185 68.4184 -6.7650 0.0000 -0.0231 0.0000
# 3 26.6055 -6.7650 75.9008 0.0000 -7.3858 0.0000
# 4 0.0000 0.0000 0.0000 6.7475 0.0000 -0.5039
# 5 -22.0782 -0.0231 -7.3858 0.0000 26.2901 0.0000
# 6 0.0000 0.0000 0.0000 -0.5039 0.0000 19.3454
#
#
#
# Elastic Compliance Matrix: (Units=1/GPa)
#
#
# Indices 1 2 3 4 5 6 
#
# 1 0.010420 -0.006251 -0.003453 0.000000 0.007775 0.000000
# 2 -0.006251 0.018500 0.003424 0.000000 -0.004271 0.000000
# 3 -0.003453 0.003424 0.014814 0.000000 0.001265 0.000000
# 4 0.000000 0.000000 0.000000 0.148492 0.000000 0.003868
# 5 0.007775 -0.004271 0.001265 0.000000 0.044918 0.000000
# 6 0.000000 0.000000 0.000000 0.003868 0.000000 0.051793
#
#
# Mechanical properties :
#
#
# Convention : Reuss Voigt Hill
#
# Bulk Modulus (GPa) = 32.07768 45.13168 38.60468
# Shear Modulus (GPa) = 16.03151 25.82382 20.92767
#
# Velocity S-wave (km/s) = 2.90142 3.68242 3.31500
# Velocity P-wave (km/s) = 5.29796 6.46367 5.90963
#
# Compressibility (1/GPa) = 0.03117432
#
# Stress axis : x y z
#
# Youngs Moduli (GPa) = 95.97063 54.05538 67.50479
#
# Poissons Ratio (x) = 0.33788 0.23310
# Poissons Ratio (y) = 0.59988 -0.23116
# Poissons Ratio (z) = 0.33139 -0.18510
#
# Static dielectric constant tensor:
#      x y z
#    x 1.740950 0.000000 0.046600 
#    y 0.000000 1.651140 0.000000 
#    z 0.046600 0.000000 1.740880 
# 
# From -- ./inp_files/68154.got.cif
#   From: 2010.05.17/outbox.cif.g08.bks.cpg/sg12_35_cif.got.tgz:68154.got - 2010.06.03 13:09:07.
