data_PCOD9170209
_publ_section_title
;
Structure prediction by ZEFSAII (Michael W. Deem and Ramdas Pophale) SiO2 
 PCOD9170209
Probable space group: C 2/M
;
_chemical_formula_sum "Si O2"
_cell_formula_units_Z 48
_cell_length_a 14.234437
_cell_length_b 21.973367
_cell_length_c 14.917432
_cell_angle_alpha 90.000000
_cell_angle_beta 149.166470
_cell_angle_gamma 90.000000
_cell_volume 2391.461270
_symmetry_space_group_name_H-M "C 2/M"
_symmetry_group_IT_number 12
_symmetry_cell_setting 'monoclinic'
loop_
_space_group_symop_operation_xyz
x,y,z
-x,y,-z
-x,-y,-z
x,-y,z
1/2+x,1/2+y,z
1/2-x,1/2+y,-z
1/2-x,1/2-y,-z
1/2+x,1/2-y,z
loop_
_atom_site_type_symbol
_atom_site_label
_atom_site_fract_x
_atom_site_fract_y
_atom_site_fract_z
Si Si1 0.218851 0.762785 0.195515
Si Si2 0.238721 0.798877 0.411469
Si Si3 0.781080 0.902417 0.832423
Si Si4 0.257125 0.066563 0.398925
Si Si5 0.671552 0.693830 0.879241
Si Si6 0.189573 0.935387 0.947568
O O1 0.274896 0.767185 0.345471
O O2 0.258560 0.830790 0.193276
O O3 0.326588 0.715649 0.221835
O O4 0.000000 0.751812 0.000000
O O5 0.250000 0.750000 0.500000
O O6 0.324841 0.867093 0.491240
O O7 0.024173 0.813603 0.235381
O O8 0.707572 0.928249 0.679076
O O9 0.739005 0.932745 0.891849
O O10 0.000000 0.907450 0.000000
O O11 0.034906 0.064318 0.232048
O O12 0.326223 0.000000 0.487131
O O13 0.757488 0.626910 0.957903
O O14 0.750000 0.750000 0.000000
O O15 0.244606 0.000000 0.951065
#
# Coordination Sequence:
#
# PCOD9170209 Si02
#       6
#     8   8   8   8   8   8
#     4  10  17  30  51  76  99 130 166 204 245 292
#     4  10  21  33  49  78 105 126 167 208 245 294
#     4   8  12  20  38  68  98 118 148 194 248 293
#     4   8  14  25  43  66  95 127 156 196 248 298
#     4  11  18  31  53  74  98 134 168 197 249 296
#     4   9  15  23  40  70 100 123 158 206 241 280
#
# _framework density 20.071408999999999
#
# number of rings (size 3 to 8) (size 9 to 14) (size 15 to 20)
#    0.000    2.667    3.333    2.500    0.000    2.667 
#    0.000    0.000    0.000    2.500    0.000    7.000 
#    0.000    0.000    0.000    0.000    0.000    0.000 
#
# Total GULP energy -133632.481081 kJ/mol
# GULP energy per Si atom -5568.020045 kJ/mol
# Density = 2.002573 g / cm^3
# Si number density = 20.071409 Si / 1000 Ang^3
#
#
#
# Elastic Constant Matrix: (Units=GPa)
#
#
# Indices 1 2 3 4 5 6 
#
# 1 61.7409 42.9969 11.9219 0.0000 -17.8920 0.0000
# 2 42.9969 178.6665 33.3463 0.0000 -32.8556 0.0000
# 3 11.9219 33.3463 34.2296 0.0000 -5.6952 0.0000
# 4 0.0000 0.0000 0.0000 16.9784 0.0000 -4.2156
# 5 -17.8920 -32.8556 -5.6952 0.0000 32.9766 0.0000
# 6 0.0000 0.0000 0.0000 -4.2156 0.0000 22.2344
#
#
#
# Elastic Compliance Matrix: (Units=1/GPa)
#
#
# Indices 1 2 3 4 5 6 
#
# 1 0.021230 -0.003078 -0.003078 0.000000 0.007920 0.000000
# 2 -0.003078 0.008583 -0.006326 0.000000 0.005789 0.000000
# 3 -0.003078 -0.006326 0.036162 0.000000 -0.001728 0.000000
# 4 0.000000 0.000000 0.000000 0.061808 0.000000 0.011719
# 5 0.007920 0.005789 -0.001728 0.000000 0.040091 0.000000
# 6 0.000000 0.000000 0.000000 0.011719 0.000000 0.047197
#
#
# Mechanical properties :
#
#
# Convention : Reuss Voigt Hill
#
# Bulk Modulus (GPa) = 24.38385 50.12968 37.25676
# Shear Modulus (GPa) = 19.70785 26.86267 23.28526
#
# Velocity S-wave (km/s) = 3.13691 3.66232 3.40975
# Velocity P-wave (km/s) = 5.02943 6.55083 5.83989
#
# Compressibility (1/GPa) = 0.04101076
#
# Stress axis : x y z
#
# Youngs Moduli (GPa) = 47.10335 116.50830 27.65326
#
# Poissons Ratio (x) = 0.35863 0.08511
# Poissons Ratio (y) = 0.14499 0.17494
# Poissons Ratio (z) = 0.14497 0.73707
#
# Static dielectric constant tensor:
#      x y z
#    x 1.762120 0.000000 0.196800 
#    y 0.000000 1.823130 0.000000 
#    z 0.196800 0.000000 2.271430 
# 
# From -- ./inp_files/63344.got.cif
#   From: 2010.05.17/outbox.cif.g08.bks.cpg/sg12_32_cif.got.tgz:63344.got - 2010.06.03 13:09:07.
