data_PCOD9170150
_publ_section_title
;
Structure prediction by ZEFSAII (Michael W. Deem and Ramdas Pophale) SiO2 
 PCOD9170150
Probable space group: C 2/M
;
_chemical_formula_sum "Si O2"
_cell_formula_units_Z 56
_cell_length_a 13.847044
_cell_length_b 20.393831
_cell_length_c 11.780062
_cell_angle_alpha 90.000000
_cell_angle_beta 74.856789
_cell_angle_gamma 90.000000
_cell_volume 3211.108081
_symmetry_space_group_name_H-M "C 2/M"
_symmetry_group_IT_number 12
_symmetry_cell_setting 'monoclinic'
loop_
_space_group_symop_operation_xyz
x,y,z
-x,y,-z
-x,-y,-z
x,-y,z
1/2+x,1/2+y,z
1/2-x,1/2+y,-z
1/2-x,1/2-y,-z
1/2+x,1/2-y,z
loop_
_atom_site_type_symbol
_atom_site_label
_atom_site_fract_x
_atom_site_fract_y
_atom_site_fract_z
Si Si1 0.584209 0.203699 0.381059
Si Si2 0.410982 0.220647 0.875370
Si Si3 0.603197 0.638799 0.406125
Si Si4 0.220921 0.181143 0.567212
Si Si5 0.914007 0.183233 0.174460
Si Si6 0.779366 0.838030 0.996674
Si Si7 0.418496 0.575970 0.829837
O O1 0.500000 0.190136 0.500000
O O2 0.566861 0.190766 0.254655
O O3 0.599445 0.283142 0.379456
O O4 0.681817 0.164603 0.390723
O O5 0.515802 0.254465 0.876350
O O6 0.340164 0.170250 0.965412
O O7 0.332296 0.282503 0.900676
O O8 0.500000 0.621861 0.500000
O O9 0.688212 0.633295 0.476282
O O10 0.609312 0.598308 0.289337
O O11 0.250000 0.250000 0.500000
O O12 0.132282 0.190782 0.685589
O O13 0.828470 0.174781 0.106016
O O14 0.988697 0.121069 0.156696
O O15 0.824111 0.905378 0.937047
O O16 0.443718 0.500000 0.826645
#
# Coordination Sequence:
#
# PCOD9170150 Si02
#       7
#     8   8   8   8   8   8   8
#     4  10  17  30  49  76 107 136 163 204 261 321
#     4  10  17  30  49  71 105 139 166 206 262 310
#     4  10  17  32  47  70 105 134 169 209 253 308
#     4  10  19  28  50  75 106 142 164 200 261 315
#     4  11  19  35  49  76 108 142 175 212 257 314
#     4  10  21  32  49  73 107 140 176 211 254 312
#     4  11  22  35  52  71 104 145 178 218 261 305
#
# _framework density 17.439461000000001
#
# number of rings (size 3 to 8) (size 9 to 14) (size 15 to 20)
#    0.000    1.714    5.714    3.429    0.000    1.429 
#    0.000    1.429    0.000    0.000    0.000    0.000 
#    0.000   89.714    0.000    0.000    0.000    0.000 
#
# Total GULP energy -155895.292227 kJ/mol
# GULP energy per Si atom -5567.689008 kJ/mol
# Density = 1.739977 g / cm^3
# Si number density = 17.439461 Si / 1000 Ang^3
#
#
#
# Elastic Constant Matrix: (Units=GPa)
#
#
# Indices 1 2 3 4 5 6 
#
# 1 60.9672 27.1266 21.0182 0.0000 1.2987 0.0000
# 2 27.1266 45.5038 13.9841 0.0000 -1.0747 0.0000
# 3 21.0182 13.9841 90.9743 0.0000 -3.9484 0.0000
# 4 0.0000 0.0000 0.0000 12.6755 0.0000 0.0945
# 5 1.2987 -1.0747 -3.9484 0.0000 34.5119 0.0000
# 6 0.0000 0.0000 0.0000 0.0945 0.0000 7.4986
#
#
#
# Elastic Compliance Matrix: (Units=1/GPa)
#
#
# Indices 1 2 3 4 5 6 
#
# 1 0.023385 -0.012907 -0.003492 0.000000 -0.001681 0.000000
# 2 -0.012907 0.030193 -0.001605 0.000000 0.001242 0.000000
# 3 -0.003492 -0.001605 0.012109 0.000000 0.001467 0.000000
# 4 0.000000 0.000000 0.000000 0.078900 0.000000 -0.000994
# 5 -0.001681 0.001242 0.001467 0.000000 0.029245 0.000000
# 6 0.000000 0.000000 0.000000 -0.000994 0.000000 0.133371
#
#
# Mechanical properties :
#
#
# Convention : Reuss Voigt Hill
#
# Bulk Modulus (GPa) = 33.69374 35.74480 34.71927
# Shear Modulus (GPa) = 14.16013 19.95830 17.05921
#
# Velocity S-wave (km/s) = 2.85258 3.38662 3.13101
# Velocity P-wave (km/s) = 5.49654 5.98609 5.74653
#
# Compressibility (1/GPa) = 0.02967910
#
# Stress axis : x y z
#
# Youngs Moduli (GPa) = 42.76298 33.11990 82.58180
#
# Poissons Ratio (x) = 0.42749 0.28834
# Poissons Ratio (y) = 0.55195 0.13256
# Poissons Ratio (z) = 0.14931 0.05317
#
# Static dielectric constant tensor:
#      x y z
#    x 1.661540 0.000000 0.029130 
#    y 0.000000 1.581160 0.000000 
#    z 0.029130 0.000000 1.670240 
# 
# From -- ./inp_files/147035.got.cif
#   From: 2010.05.17/outbox.cif.g08.bks.cpg/sg12_74_cif.got.tgz:147035.got - 2010.06.03 13:09:07.
