data_PCOD9170758
_publ_section_title
;
Structure prediction by ZEFSAII (Michael W. Deem and Ramdas Pophale) SiO2 
 PCOD9170758
Probable space group: C 2/M
;
_chemical_formula_sum "Si O2"
_cell_formula_units_Z 36
_cell_length_a 18.803707
_cell_length_b 11.792922
_cell_length_c 16.265664
_cell_angle_alpha 90.000000
_cell_angle_beta 27.777367
_cell_angle_gamma 90.000000
_cell_volume 1680.959541
_symmetry_space_group_name_H-M "C 2/M"
_symmetry_group_IT_number 12
_symmetry_cell_setting 'monoclinic'
loop_
_space_group_symop_operation_xyz
x,y,z
-x,y,-z
-x,-y,-z
x,-y,z
1/2+x,1/2+y,z
1/2-x,1/2+y,-z
1/2-x,1/2-y,-z
1/2+x,1/2-y,z
loop_
_atom_site_type_symbol
_atom_site_label
_atom_site_fract_x
_atom_site_fract_y
_atom_site_fract_z
Si Si1 0.000000 0.304716 0.500000
Si Si2 0.170780 0.163291 0.805556
Si Si3 0.894448 0.207741 0.303137
Si Si4 0.039784 0.125355 0.316977
Si Si5 0.119463 0.629979 0.974456
O O1 0.837042 0.369498 0.671874
O O2 0.017241 0.222775 0.562374
O O3 0.173656 0.143980 0.705658
O O4 0.155940 0.292971 0.856770
O O5 0.000000 0.118237 0.000000
O O6 0.750000 0.250000 0.500000
O O7 0.993007 0.143856 0.270633
O O8 0.995886 0.305636 0.156675
O O9 0.985750 0.000000 0.399505
O O10 0.221726 0.128718 0.138822
O O11 0.078543 0.500000 0.999312
#
# Coordination Sequence:
#
# PCOD9170758 Si02
#       5
#     4   8   8   8   8
#     4  10  17  34  54  78 113 144 179 232 274 336
#     4   9  19  33  52  79 111 144 183 215 279 329
#     4  11  20  33  50  83 117 144 178 226 281 333
#     4  10  20  34  54  80 110 147 186 227 277 329
#     4   9  20  37  58  82 110 145 183 229 282 331
#
# _framework density 21.416339000000001
#
# number of rings (size 3 to 8) (size 9 to 14) (size 15 to 20)
#    0.000    2.222    2.222    1.000    0.000    5.778 
#    0.000    0.000    0.000    6.000    0.000    6.222 
#    0.000    0.000    0.000    0.000    0.000    0.000 
#
# Total GULP energy -100209.303266 kJ/mol
# GULP energy per Si atom -5567.183515 kJ/mol
# Density = 2.136759 g / cm^3
# Si number density = 21.416339 Si / 1000 Ang^3
#
#
#
# Elastic Constant Matrix: (Units=GPa)
#
#
# Indices 1 2 3 4 5 6 
#
# 1 165.4073 24.6637 30.8249 0.0000 -6.9336 0.0000
# 2 24.6637 102.5088 10.6815 0.0000 -2.8637 0.0000
# 3 30.8249 10.6815 114.8529 0.0000 -10.9590 0.0000
# 4 0.0000 0.0000 0.0000 -3.6102 0.0000 6.4287
# 5 -6.9336 -2.8637 -10.9590 0.0000 50.7545 0.0000
# 6 0.0000 0.0000 0.0000 6.4287 0.0000 -6.8998
#
#
#
# Elastic Compliance Matrix: (Units=1/GPa)
#
#
# Indices 1 2 3 4 5 6 
#
# 1 0.006571 -0.001402 -0.001588 0.000000 0.000476 0.000000
# 2 -0.001402 0.010157 -0.000543 0.000000 0.000264 0.000000
# 3 -0.001588 -0.000543 0.009352 0.000000 0.001772 0.000000
# 4 0.000000 0.000000 0.000000 0.420254 0.000000 0.391560
# 5 0.000476 0.000264 0.001772 0.000000 0.020165 0.000000
# 6 0.000000 0.000000 0.000000 0.391560 0.000000 0.219893
#
#
# Mechanical properties :
#
#
# Convention : Reuss Voigt Hill
#
# Bulk Modulus (GPa) = 52.59309 57.23435 54.91372
# Shear Modulus (GPa) = 7.14494 29.15551 18.15022
#
# Velocity S-wave (km/s) = 1.82851 3.69367 2.91433
# Velocity P-wave (km/s) = 5.39154 6.70624 6.08450
#
# Compressibility (1/GPa) = 0.01901390
#
# Stress axis : x y z
#
# Youngs Moduli (GPa) = 152.19376 98.45827 106.92371
#
# Poissons Ratio (x) = 0.13805 0.16976
# Poissons Ratio (y) = 0.21340 0.05806
# Poissons Ratio (z) = 0.24163 0.05347
#
# Static dielectric constant tensor:
#      x y z
#    x 1.884800 0.000000 -0.027410 
#    y 0.000000 1.806460 0.000000 
#    z -0.027410 0.000000 1.781840 
# 
# From -- ./inp_files/72571.got.cif
#   From: 2010.05.17/outbox.cif.g08.bks.cpg/sg12_37_cif.got.tgz:72571.got - 2010.06.03 13:09:07.
