data_PCOD9170674
_publ_section_title
;
Structure prediction by ZEFSAII (Michael W. Deem and Ramdas Pophale) SiO2 
 PCOD9170674
Probable space group: C 2/M
;
_chemical_formula_sum "Si O2"
_cell_formula_units_Z 48
_cell_length_a 15.205429
_cell_length_b 15.116612
_cell_length_c 17.227713
_cell_angle_alpha 90.000000
_cell_angle_beta 145.292009
_cell_angle_gamma 90.000000
_cell_volume 2254.726125
_symmetry_space_group_name_H-M "C 2/M"
_symmetry_group_IT_number 12
_symmetry_cell_setting 'monoclinic'
loop_
_space_group_symop_operation_xyz
x,y,z
-x,y,-z
-x,-y,-z
x,-y,z
1/2+x,1/2+y,z
1/2-x,1/2+y,-z
1/2-x,1/2-y,-z
1/2+x,1/2-y,z
loop_
_atom_site_type_symbol
_atom_site_label
_atom_site_fract_x
_atom_site_fract_y
_atom_site_fract_z
Si Si1 0.729720 0.648735 0.672369
Si Si2 0.377264 0.247785 0.209366
Si Si3 0.567175 0.206433 0.918963
Si Si4 0.969583 0.903010 0.608139
Si Si5 0.348602 0.153909 0.352283
Si Si6 0.483335 0.406191 0.894789
O O1 0.680921 0.604788 0.555941
O O2 0.616510 0.608417 0.655655
O O3 0.680439 0.751326 0.627573
O O4 0.910335 0.654457 0.825263
O O5 0.400076 0.192213 0.147915
O O6 0.511171 0.319842 0.321177
O O7 0.365621 0.183918 0.274919
O O8 0.218677 0.304166 0.081650
O O9 0.543005 0.312890 0.907217
O O10 0.974750 0.000000 0.648371
O O11 0.500000 0.114325 0.500000
O O12 0.198140 0.096307 0.253391
O O13 0.552222 0.500000 0.917923
O O14 0.500000 0.401889 0.000000
#
# Coordination Sequence:
#
# PCOD9170674 Si02
#       6
#     8   8   8   8   8   8
#     4   9  17  32  54  81 101 141 179 216 261 314
#     4  10  20  36  54  82 107 142 181 221 268 312
#     4  10  21  35  57  78 109 141 184 224 257 326
#     4  10  19  34  56  80 110 140 176 223 275 323
#     4  10  17  33  55  80 103 136 179 218 255 316
#     4  10  20  34  55  78 104 139 177 224 267 308
#
# _framework density 21.288616999999999
#
# number of rings (size 3 to 8) (size 9 to 14) (size 15 to 20)
#    0.000    2.167    5.000    1.000    0.000    1.667 
#    0.000    2.500    0.000    4.000    0.000    0.000 
#    0.000    0.000    0.000    0.000    0.000    0.000 
#
# Total GULP energy -133807.256114 kJ/mol
# GULP energy per Si atom -5575.302338 kJ/mol
# Density = 2.124016 g / cm^3
# Si number density = 21.288617 Si / 1000 Ang^3
#
#
#
# Elastic Constant Matrix: (Units=GPa)
#
#
# Indices 1 2 3 4 5 6 
#
# 1 25.9112 -6.4447 11.1964 0.0003 -3.4901 0.0002
# 2 -6.4447 64.2295 -12.0349 0.0004 -4.9939 0.0002
# 3 11.1964 -12.0349 97.0283 0.0010 -1.0721 0.0004
# 4 0.0003 0.0004 0.0010 -78.9233 0.0006 12.4467
# 5 -3.4901 -4.9939 -1.0721 0.0006 28.0310 0.0003
# 6 0.0002 0.0002 0.0004 12.4467 0.0003 -2.0350
#
#
#
# Elastic Compliance Matrix: (Units=1/GPa)
#
#
# Indices 1 2 3 4 5 6 
#
# 1 0.042204 0.003874 -0.004326 0.000028 0.005779 0.000178
# 2 0.003874 0.016537 0.001643 0.000017 0.003491 0.000108
# 3 -0.004326 0.001643 0.011011 0.000012 0.000175 0.000078
# 4 0.000028 0.000017 0.000012 -0.357493 0.000035 -2.186488
# 5 0.005779 0.003491 0.000175 0.000035 0.037023 0.000222
# 6 0.000178 0.000108 0.000078 -2.186488 0.000222-13.864316
#
#
# Mechanical properties :
#
#
# Convention : Reuss Voigt Hill
#
# Bulk Modulus (GPa) = 13.86314 19.17806 16.52060
# Shear Modulus (GPa) = -0.35478 2.37801 1.01162
#
# Velocity S-wave (km/s) = -0.40867 1.05804 0.69009
# Velocity P-wave (km/s) = 2.51067 3.24357 2.90036
#
# Compressibility (1/GPa) = 0.07213373
#
# Stress axis : x y z
#
# Youngs Moduli (GPa) = 23.69418 60.47011 90.81709
#
# Poissons Ratio (x) = -0.23423 0.39286
# Poissons Ratio (y) = -0.09178 -0.14919
# Poissons Ratio (z) = 0.10250 -0.09934
#
# Static dielectric constant tensor:
#      x y z
#    x 1.817820 0.000000 -0.009700 
#    y 0.000000 1.755870 0.000000 
#    z -0.009700 0.000000 1.829480 
# 
# From -- ./inp_files/216510.got.cif
#   From: 2010.05.17/outbox.cif.g08.bks.cpg/sg12_109_cif.got.tgz:216510.got - 2010.06.03 13:09:07.
