data_PCOD9170214
_publ_section_title
;
Structure prediction by ZEFSAII (Michael W. Deem and Ramdas Pophale) SiO2 
 PCOD9170214
Probable space group: C 2/M
;
_chemical_formula_sum "Si O2"
_cell_formula_units_Z 34
_cell_length_a 21.491530
_cell_length_b 10.342395
_cell_length_c 17.854165
_cell_angle_alpha 90.000000
_cell_angle_beta 161.642359
_cell_angle_gamma 90.000000
_cell_volume 1249.873573
_symmetry_space_group_name_H-M "C 2/M"
_symmetry_group_IT_number 12
_symmetry_cell_setting 'monoclinic'
loop_
_space_group_symop_operation_xyz
x,y,z
-x,y,-z
-x,-y,-z
x,-y,z
1/2+x,1/2+y,z
1/2-x,1/2+y,-z
1/2-x,1/2-y,-z
1/2+x,1/2-y,z
loop_
_atom_site_type_symbol
_atom_site_label
_atom_site_fract_x
_atom_site_fract_y
_atom_site_fract_z
Si Si1 0.000000 0.500000 0.500000
Si Si2 0.608148 0.500000 0.528327
Si Si3 0.443051 0.500000 0.707963
Si Si4 0.439317 0.735882 0.774542
Si Si5 0.042239 0.500000 0.357661
Si Si6 0.340910 0.000000 0.985408
Si Si7 0.790891 0.295879 0.345698
O O1 0.170670 0.384575 0.681602
O O2 0.615044 0.500000 0.444834
O O3 0.688891 0.642157 0.641984
O O4 0.381317 0.500000 0.293467
O O5 0.554950 0.627708 0.861228
O O6 0.240713 0.500000 0.530647
O O7 0.250000 0.750000 0.500000
O O8 0.545499 0.871000 0.906108
O O9 0.389400 0.691667 0.801788
O O10 0.049878 0.373865 0.418696
O O11 0.855201 0.500000 0.091472
#
# Coordination Sequence:
#
# PCOD9170214 Si02
#       7
#     2   4   4   8   4   4   8
#     4  10  24  42  68  84  94 154 214 244 282 314
#     4  12  22  31  51  89 127 144 173 251 301 337
#     4  10  17  30  51  81 114 157 186 228 271 329
#     4  11  17  34  59  83 116 158 193 230 267 358
#     4   9  16  33  54  80 119 159 189 221 262 368
#     4  12  21  30  52  90 125 154 176 214 316 356
#     4  10  20  37  60  84 114 148 199 249 271 327
#
# _framework density 27.202750999999999
#
# number of rings (size 3 to 8) (size 9 to 14) (size 15 to 20)
#    0.000    1.412    7.059    1.412    0.000    4.235 
#    0.000    1.176    0.000    4.235    0.000    0.000 
#    0.000    0.000    0.000    0.000    0.000    0.000 
#
# Total GULP energy -94671.766312 kJ/mol
# GULP energy per Si atom -5568.927430 kJ/mol
# Density = 2.714084 g / cm^3
# Si number density = 27.202751 Si / 1000 Ang^3
#
#
#
# Elastic Constant Matrix: (Units=GPa)
#
#
# Indices 1 2 3 4 5 6 
#
# 1 139.1887 54.5221 27.4409 -0.0002 0.1874 -0.0002
# 2 54.5221 260.7176 8.4684 -0.0004 13.1194 0.0000
# 3 27.4409 8.4684 72.8095 -0.0014 -1.3449 0.0000
# 4 -0.0002 -0.0004 -0.0014 7.5464 -0.0003 21.3160
# 5 0.1874 13.1194 -1.3449 -0.0003 49.5260 -0.0001
# 6 -0.0002 0.0000 0.0000 21.3160 -0.0001 65.2755
#
#
#
# Elastic Compliance Matrix: (Units=1/GPa)
#
#
# Indices 1 2 3 4 5 6 
#
# 1 0.008430 -0.001683 -0.002975 -0.000006 0.000333 0.000002
# 2 -0.001683 0.004240 0.000121 0.000002 -0.001113 -0.000001
# 3 -0.002975 0.000121 0.014849 0.000035 0.000383 -0.000011
# 4 -0.000006 0.000002 0.000035 1.707605 0.000011 -0.557624
# 5 0.000333 -0.001113 0.000383 0.000011 0.020495 -0.000004
# 6 0.000002 -0.000001 -0.000011 -0.557624 -0.000004 0.197414
#
#
# Mechanical properties :
#
#
# Convention : Reuss Voigt Hill
#
# Bulk Modulus (GPa) = 54.22064 72.61983 63.42024
# Shear Modulus (GPa) = 2.54032 49.95522 26.24777
#
# Velocity S-wave (km/s) = 0.96741 4.28998 3.10964
# Velocity P-wave (km/s) = 4.60686 7.16186 6.02144
#
# Compressibility (1/GPa) = 0.01844316
#
# Stress axis : x y z
#
# Youngs Moduli (GPa) = 118.62605 235.86947 67.34545
#
# Poissons Ratio (x) = 0.39697 0.20037
# Poissons Ratio (y) = 0.19965 -0.00812
# Poissons Ratio (z) = 0.35294 -0.02845
#
# Static dielectric constant tensor:
#      x y z
#    x 2.377540 0.000000 -0.004640 
#    y 0.000000 2.256810 0.000000 
#    z -0.004640 0.000000 2.276670 
# 
# From -- ./inp_files/325048.got.cif
#   From: 2010.05.17/outbox.cif.g08.bks.cpg/sg12_163_cif.got.tgz:325048.got - 2010.06.03 13:09:07.
