data_PCOD9170994
_publ_section_title
;
Structure prediction by ZEFSAII (Michael W. Deem and Ramdas Pophale) SiO2 
 PCOD9170994
Probable space group: C 2/M
;
_chemical_formula_sum "Si O2"
_cell_formula_units_Z 64
_cell_length_a 28.118868
_cell_length_b 7.577883
_cell_length_c 18.063269
_cell_angle_alpha 90.000000
_cell_angle_beta 102.296412
_cell_angle_gamma 90.000000
_cell_volume 3760.649247
_symmetry_space_group_name_H-M "C 2/M"
_symmetry_group_IT_number 12
_symmetry_cell_setting 'monoclinic'
loop_
_space_group_symop_operation_xyz
x,y,z
-x,y,-z
-x,-y,-z
x,-y,z
1/2+x,1/2+y,z
1/2-x,1/2+y,-z
1/2-x,1/2-y,-z
1/2+x,1/2-y,z
loop_
_atom_site_type_symbol
_atom_site_label
_atom_site_fract_x
_atom_site_fract_y
_atom_site_fract_z
Si Si1 0.214425 0.296477 0.078557
Si Si2 0.862075 0.712275 0.060932
Si Si3 0.811310 0.788563 0.185038
Si Si4 0.945116 0.288096 0.977705
Si Si5 0.132154 0.789277 0.167141
Si Si6 0.289995 0.287565 0.340077
Si Si7 0.193041 0.211611 0.495234
Si Si8 0.323968 0.288240 0.669158
O O1 0.225079 0.500000 0.063546
O O2 0.263430 0.214781 0.127211
O O3 0.174578 0.292063 0.130620
O O4 0.185597 0.217505 0.999203
O O5 0.861619 0.500000 0.053347
O O6 0.856069 0.754411 0.145017
O O7 0.909287 0.776603 0.031563
O O8 0.811259 0.721914 0.269232
O O9 0.805351 0.000000 0.188437
O O10 0.947290 0.500000 0.985750
O O11 0.918071 0.249867 0.891309
O O12 0.000000 0.219421 0.000000
O O13 0.140601 0.725954 0.253738
O O14 0.139187 0.000000 0.168200
O O15 0.294391 0.500000 0.342607
O O16 0.315252 0.220588 0.424150
O O17 0.232070 0.249086 0.325884
O O18 0.250000 0.250000 0.500000
O O19 0.167879 0.280215 0.411818
O O20 0.186116 0.000000 0.494613
O O21 0.328428 0.500000 0.666902
#
# Coordination Sequence:
#
# PCOD9170994 Si02
#       8
#     8   8   8   8   8   8   8   8
#     4   9  17  29  40  53  79 112 143 169 194 230
#     4   9  18  29  42  59  76 100 132 164 202 244
#     4  10  18  26  38  57  82 110 140 171 197 228
#     4   9  19  36  52  62  77 102 131 165 206 252
#     4  10  18  26  41  65  86 106 134 168 206 242
#     4   9  16  25  38  54  76 111 147 171 194 226
#     4   8  14  24  36  51  74 106 141 171 197 227
#     4   9  16  25  37  56  82 108 136 170 203 233
#
# _framework density 17.018338
#
# number of rings (size 3 to 8) (size 9 to 14) (size 15 to 20)
#    0.000    2.875    1.250    1.500    0.000    3.750 
#    0.000    0.000    0.000    0.000    0.000    0.000 
#    0.000    1.000    0.000   12.500    0.000    1.000 
#
# Total GULP energy -178178.195421 kJ/mol
# GULP energy per Si atom -5568.068607 kJ/mol
# Density = 1.697960 g / cm^3
# Si number density = 17.018338 Si / 1000 Ang^3
#
#
#
# Elastic Constant Matrix: (Units=GPa)
#
#
# Indices 1 2 3 4 5 6 
#
# 1 60.7191 3.6809 66.6495 0.0000 7.1920 0.0000
# 2 3.6809 41.9710 3.1216 0.0000 -3.3964 0.0000
# 3 66.6495 3.1216 189.5347 0.0000 -0.1730 0.0000
# 4 0.0000 0.0000 0.0000 7.7999 0.0000 -4.1884
# 5 7.1920 -3.3964 -0.1730 0.0000 12.7758 0.0000
# 6 0.0000 0.0000 0.0000 -4.1884 0.0000 7.4299
#
#
#
# Elastic Compliance Matrix: (Units=1/GPa)
#
#
# Indices 1 2 3 4 5 6 
#
# 1 0.030610 -0.003365 -0.010725 0.000000 -0.018272 0.000000
# 2 -0.003365 0.024749 0.000784 0.000000 0.008485 0.000000
# 3 -0.010725 0.000784 0.009041 0.000000 0.006368 0.000000
# 4 0.000000 0.000000 0.000000 0.183865 0.000000 0.103649
# 5 -0.018272 0.008485 0.006368 0.000000 0.090901 0.000000
# 6 0.000000 0.000000 0.000000 0.103649 0.000000 0.193022
#
#
# Mechanical properties :
#
#
# Convention : Reuss Voigt Hill
#
# Bulk Modulus (GPa) = 26.46486 48.79209 37.62847
# Shear Modulus (GPa) = 8.75048 20.18598 14.46823
#
# Velocity S-wave (km/s) = 2.27001 3.44776 2.91891
# Velocity P-wave (km/s) = 4.73869 6.67697 5.78952
#
# Compressibility (1/GPa) = 0.03778596
#
# Stress axis : x y z
#
# Youngs Moduli (GPa) = 32.66862 40.40499 110.61294
#
# Poissons Ratio (x) = 0.13598 1.18636
# Poissons Ratio (y) = 0.10994 -0.08667
# Poissons Ratio (z) = 0.35038 -0.03166
#
# Static dielectric constant tensor:
#      x y z
#    x 1.543330 0.000000 0.008710 
#    y 0.000000 1.209240 0.000000 
#    z 0.008710 0.000000 1.658010 
# 
# From -- ./inp_files/287582.got.cif
#   From: 2010.05.17/outbox.cif.g08.bks.cpg/sg12_144_cif.got.tgz:287582.got - 2010.06.03 13:09:07.
