data_PCOD9170165
_publ_section_title
;
Structure prediction by ZEFSAII (Michael W. Deem and Ramdas Pophale) SiO2 
 PCOD9170165
Probable space group: C 2/M
;
_chemical_formula_sum "Si O2"
_cell_formula_units_Z 40
_cell_length_a 29.592219
_cell_length_b 8.571816
_cell_length_c 10.566231
_cell_angle_alpha 90.000000
_cell_angle_beta 59.524107
_cell_angle_gamma 90.000000
_cell_volume 2309.928010
_symmetry_space_group_name_H-M "C 2/M"
_symmetry_group_IT_number 12
_symmetry_cell_setting 'monoclinic'
loop_
_space_group_symop_operation_xyz
x,y,z
-x,y,-z
-x,-y,-z
x,-y,z
1/2+x,1/2+y,z
1/2-x,1/2+y,-z
1/2-x,1/2-y,-z
1/2+x,1/2-y,z
loop_
_atom_site_type_symbol
_atom_site_label
_atom_site_fract_x
_atom_site_fract_y
_atom_site_fract_z
Si Si1 0.037973 0.811545 0.563394
Si Si2 0.137944 0.812574 0.028020
Si Si3 0.247448 0.685854 0.859649
Si Si4 0.975478 0.190195 0.902930
Si Si5 0.356432 0.185409 0.693201
O O1 0.094529 0.737406 0.460265
O O2 0.000000 0.770225 0.500000
O O3 0.010241 0.762830 0.732895
O O4 0.043326 0.000000 0.555469
O O5 0.084700 0.762627 0.034225
O O6 0.134823 0.756324 0.178420
O O7 0.140984 0.000000 0.024873
O O8 0.191220 0.745478 0.892156
O O9 0.248589 0.500000 0.859921
O O10 0.300597 0.750754 0.722973
O O11 0.250000 0.750000 0.000000
O O12 0.975504 0.000000 0.903793
O O13 0.000000 0.244074 0.000000
O O14 0.353566 0.000000 0.708581
#
# Coordination Sequence:
#
# PCOD9170165 Si02
#       5
#     8   8   8   8   8
#     4  10  18  32  52  75 101 133 167 207 252 296
#     4  10  17  30  50  73 102 133 168 207 250 296
#     4  10  18  29  46  71 101 132 166 206 255 300
#     4   9  18  32  52  76 102 134 170 203 245 302
#     4  11  20  30  47  74 104 132 167 208 254 297
#
# _framework density 17.316557
#
# number of rings (size 3 to 8) (size 9 to 14) (size 15 to 20)
#    0.000    2.000    2.000    6.600    0.000    0.400 
#    0.000    0.000    0.000    6.600    0.000    0.000 
#    0.000    0.000    0.000    0.000    0.000    0.000 
#
# Total GULP energy -111561.367611 kJ/mol
# GULP energy per Si atom -5578.068381 kJ/mol
# Density = 1.727714 g / cm^3
# Si number density = 17.316557 Si / 1000 Ang^3
#
#
#
# Elastic Constant Matrix: (Units=GPa)
#
#
# Indices 1 2 3 4 5 6 
#
# 1 139.8135 39.6671 89.6999 0.0000 -32.8853 0.0000
# 2 39.6671 83.7056 36.1078 0.0000 -17.3442 0.0000
# 3 89.6999 36.1078 109.3092 0.0000 -29.6625 0.0000
# 4 0.0000 0.0000 0.0000 21.3544 0.0000 -13.1654
# 5 -32.8853 -17.3442 -29.6625 0.0000 40.5656 0.0000
# 6 0.0000 0.0000 0.0000 -13.1654 0.0000 17.6907
#
#
#
# Elastic Compliance Matrix: (Units=1/GPa)
#
#
# Indices 1 2 3 4 5 6 
#
# 1 0.015864 -0.001825 -0.011399 0.000000 0.003745 0.000000
# 2 -0.001825 0.014490 -0.002507 0.000000 0.002883 0.000000
# 3 -0.011399 -0.002507 0.020625 0.000000 0.004768 0.000000
# 4 0.000000 0.000000 0.000000 0.086530 0.000000 0.064395
# 5 0.003745 0.002883 0.004768 0.000000 0.032407 0.000000
# 6 0.000000 0.000000 0.000000 0.064395 0.000000 0.104450
#
#
# Mechanical properties :
#
#
# Convention : Reuss Voigt Hill
#
# Bulk Modulus (GPa) = 51.23565 73.75310 62.49438
# Shear Modulus (GPa) = 16.00853 27.07905 21.54379
#
# Velocity S-wave (km/s) = 3.04380 3.95874 3.53103
# Velocity P-wave (km/s) = 6.48111 7.97365 7.26581
#
# Compressibility (1/GPa) = 0.01951766
#
# Stress axis : x y z
#
# Youngs Moduli (GPa) = 63.03382 69.01293 48.48510
#
# Poissons Ratio (x) = 0.12592 0.55271
# Poissons Ratio (y) = 0.11501 0.12154
# Poissons Ratio (z) = 0.71855 0.17300
#
# Static dielectric constant tensor:
#      x y z
#    x 1.588330 0.000000 -0.052980 
#    y 0.000000 1.584160 0.000000 
#    z -0.052980 0.000000 1.558980 
# 
# From -- ./inp_files/92918.got.cif
#   From: 2010.05.17/outbox.cif.g08.bks.cpg/sg12_47_cif.got.tgz:92918.got - 2010.06.03 13:09:07.
