data_PCOD9170600
_publ_section_title
;
Structure prediction by ZEFSAII (Michael W. Deem and Ramdas Pophale) SiO2 
 PCOD9170600
Probable space group: C 2/M
;
_chemical_formula_sum "Si O2"
_cell_formula_units_Z 36
_cell_length_a 20.140246
_cell_length_b 21.792871
_cell_length_c 7.528732
_cell_angle_alpha 90.000000
_cell_angle_beta 25.918672
_cell_angle_gamma 90.000000
_cell_volume 1444.364535
_symmetry_space_group_name_H-M "C 2/M"
_symmetry_group_IT_number 12
_symmetry_cell_setting 'monoclinic'
loop_
_space_group_symop_operation_xyz
x,y,z
-x,y,-z
-x,-y,-z
x,-y,z
1/2+x,1/2+y,z
1/2-x,1/2+y,-z
1/2-x,1/2-y,-z
1/2+x,1/2-y,z
loop_
_atom_site_type_symbol
_atom_site_label
_atom_site_fract_x
_atom_site_fract_y
_atom_site_fract_z
Si Si1 0.406317 0.809882 0.042862
Si Si2 0.126947 0.819009 0.958096
Si Si3 0.315691 0.432709 0.953824
Si Si4 0.181872 0.434348 0.881196
Si Si5 0.500000 0.602424 0.000000
O O1 0.234658 0.811433 0.528377
O O2 0.420681 0.750184 0.883015
O O3 0.421918 0.876458 0.918264
O O4 0.500000 0.801850 0.000000
O O5 0.208527 0.866504 0.893417
O O6 0.989821 0.856445 0.201771
O O7 0.500000 0.435014 0.500000
O O8 0.274173 0.500000 0.136592
O O9 0.235478 0.431727 0.956067
O O10 0.105923 0.500000 0.031630
O O11 0.340676 0.432993 0.385950
#
# Coordination Sequence:
#
# PCOD9170600 Si02
#       5
#     8   8   8   8   4
#     4  10  22  39  58  81 116 158 200 242 283 342
#     4  10  20  35  60  83 116 152 194 242 295 342
#     4  10  20  35  57  90 125 148 183 245 302 348
#     4  10  21  35  56  87 118 151 194 238 287 346
#     4  10  17  32  58  86 113 146 188 248 291 332
#
# _framework density 24.924455999999999
#
# number of rings (size 3 to 8) (size 9 to 14) (size 15 to 20)
#    0.000    2.000    3.333    0.333    0.000    4.889 
#    0.000    1.111    0.000    2.667    0.000    0.000 
#    0.000    0.000    0.000    0.000    0.000    0.000 
#
# Total GULP energy -100329.096743 kJ/mol
# GULP energy per Si atom -5573.838708 kJ/mol
# Density = 2.486773 g / cm^3
# Si number density = 24.924456 Si / 1000 Ang^3
#
#
#
# Elastic Constant Matrix: (Units=GPa)
#
#
# Indices 1 2 3 4 5 6 
#
# 1 90.3462 82.6377 6.0284 -0.0007 -4.1759 0.0011
# 2 82.6377 304.4167 9.6982 0.0005 6.5923 0.0000
# 3 6.0284 9.6982 43.5010 -0.0041 -5.1297 -0.0005
# 4 -0.0007 0.0005 -0.0041 15.7383 0.0008 -2.1124
# 5 -4.1759 6.5923 -5.1297 0.0008 27.6090 -0.0007
# 6 0.0011 0.0000 -0.0005 -2.1124 -0.0007 35.3607
#
#
#
# Elastic Compliance Matrix: (Units=1/GPa)
#
#
# Indices 1 2 3 4 5 6 
#
# 1 0.015038 -0.004124 -0.000798 0.000000 0.003111 0.000000
# 2 -0.004124 0.004464 -0.000637 0.000000 -0.001808 0.000000
# 3 -0.000798 -0.000637 0.023765 0.000006 0.004447 0.000001
# 4 0.000000 0.000000 0.000006 0.064053 0.000000 0.003826
# 5 0.003111 -0.001808 0.004447 0.000000 0.037949 0.000001
# 6 0.000000 0.000000 0.000001 0.003826 0.000001 0.028509
#
#
# Mechanical properties :
#
#
# Convention : Reuss Voigt Hill
#
# Bulk Modulus (GPa) = 31.10485 70.55472 50.82979
# Shear Modulus (GPa) = 25.56102 38.40157 31.98129
#
# Velocity S-wave (km/s) = 3.20588 3.92946 3.58597
# Velocity P-wave (km/s) = 5.11960 6.99688 6.13053
#
# Compressibility (1/GPa) = 0.03214932
#
# Stress axis : x y z
#
# Youngs Moduli (GPa) = 66.49889 224.01577 42.07889
#
# Poissons Ratio (x) = 0.92388 0.03356
# Poissons Ratio (y) = 0.27425 0.02680
# Poissons Ratio (z) = 0.05304 0.14267
#
# Static dielectric constant tensor:
#      x y z
#    x 1.960320 0.000000 0.011240 
#    y 0.000000 2.164790 0.000000 
#    z 0.011240 0.000000 2.012100 
# 
# From -- ./inp_files/46569.got.cif
#   From: 2010.05.17/outbox.cif.g08.bks.cpg/sg12_24_cif.got.tgz:46569.got - 2010.06.03 13:09:07.
