data_PCOD9170918
_publ_section_title
;
Structure prediction by ZEFSAII (Michael W. Deem and Ramdas Pophale) SiO2 
 PCOD9170918
Probable space group: C 2/M
;
_chemical_formula_sum "Si O2"
_cell_formula_units_Z 52
_cell_length_a 17.313485
_cell_length_b 18.212877
_cell_length_c 8.611240
_cell_angle_alpha 90.000000
_cell_angle_beta 54.475509
_cell_angle_gamma 90.000000
_cell_volume 2209.949256
_symmetry_space_group_name_H-M "C 2/M"
_symmetry_group_IT_number 12
_symmetry_cell_setting 'monoclinic'
loop_
_space_group_symop_operation_xyz
x,y,z
-x,y,-z
-x,-y,-z
x,-y,z
1/2+x,1/2+y,z
1/2-x,1/2+y,-z
1/2-x,1/2-y,-z
1/2+x,1/2-y,z
loop_
_atom_site_type_symbol
_atom_site_label
_atom_site_fract_x
_atom_site_fract_y
_atom_site_fract_z
Si Si1 0.464434 0.733451 0.871766
Si Si2 0.581935 0.500000 0.043588
Si Si3 0.047834 0.106112 0.607918
Si Si4 0.068210 0.616126 0.798787
Si Si5 0.392710 0.917221 0.586212
Si Si6 0.288428 0.636096 0.057678
Si Si7 0.248322 0.586423 0.753169
O O1 0.520762 0.689430 0.674053
O O2 0.501483 0.816451 0.823523
O O3 0.500000 0.708221 0.000000
O O4 0.354965 0.707936 0.987510
O O5 0.503009 0.561702 0.195749
O O6 0.658109 0.566600 0.925764
O O7 0.158603 0.092978 0.461835
O O8 0.000000 0.083182 0.500000
O O9 0.107781 0.579358 0.598877
O O10 0.162698 0.634053 0.785654
O O11 0.000000 0.575627 0.000000
O O12 0.500000 0.896068 0.500000
O O13 0.314743 0.862014 0.744349
O O14 0.376829 0.000000 0.669767
O O15 0.277007 0.612358 0.891405
O O16 0.221167 0.500000 0.791660
#
# Coordination Sequence:
#
# PCOD9170918 Si02
#       7
#     8   4   8   8   8   8   8
#     4  10  25  46  64  93 146 188 231 283 345 422
#     4  10  17  36  66 104 148 164 226 282 360 420
#     4  11  19  37  67 105 137 182 225 286 349 420
#     4  11  27  49  65  96 137 190 243 283 339 417
#     4  11  24  45  72 106 143 180 233 294 361 421
#     4  11  21  42  73 107 141 183 223 293 361 423
#     4  12  22  40  74 106 137 178 232 294 357 415
#
# _framework density 23.529951000000001
#
# number of rings (size 3 to 8) (size 9 to 14) (size 15 to 20)
#    0.000    1.077    5.385    1.615    2.154    3.692 
#    2.769   10.000    0.000    0.000    0.000    0.000 
#    0.000    0.000    0.000    0.000    0.000    0.000 
#
# Total GULP energy -144780.168101 kJ/mol
# GULP energy per Si atom -5568.468004 kJ/mol
# Density = 2.347640 g / cm^3
# Si number density = 23.529951 Si / 1000 Ang^3
#
#
#
# Elastic Constant Matrix: (Units=GPa)
#
#
# Indices 1 2 3 4 5 6 
#
# 1 93.1702 26.6610 29.5765 0.0000 -31.1744 0.0000
# 2 26.6610 120.8895 21.9142 0.0000 -14.6487 0.0000
# 3 29.5765 21.9142 98.3032 0.0000 -36.1241 0.0000
# 4 0.0000 0.0000 0.0000 -26.9755 0.0000 -12.2403
# 5 -31.1744 -14.6487 -36.1241 0.0000 48.9378 0.0000
# 6 0.0000 0.0000 0.0000 -12.2403 0.0000 -19.9621
#
#
#
# Elastic Compliance Matrix: (Units=1/GPa)
#
#
# Indices 1 2 3 4 5 6 
#
# 1 0.014206 -0.002019 -0.000989 0.000000 0.007715 0.000000
# 2 -0.002019 0.008999 -0.001209 0.000000 0.000515 0.000000
# 3 -0.000989 -0.001209 0.014237 0.000000 0.009517 0.000000
# 4 0.000000 0.000000 0.000000 -0.051361 0.000000 0.031493
# 5 0.007715 0.000515 0.009517 0.000000 0.032528 0.000000
# 6 0.000000 0.000000 0.000000 0.031493 0.000000 -0.069406
#
#
# Mechanical properties :
#
#
# Convention : Reuss Voigt Hill
#
# Bulk Modulus (GPa) = 34.47365 52.07404 43.27384
# Shear Modulus (GPa) = -152.94231 16.01411 -68.46410
#
# Velocity S-wave (km/s) = -8.07094 2.61163 -5.39998
# Velocity P-wave (km/s) = 8.49533 5.59224 4.52203
#
# Compressibility (1/GPa) = 0.02900766
#
# Stress axis : x y z
#
# Youngs Moduli (GPa) = 70.39168 111.12486 70.23862
#
# Poissons Ratio (x) = 0.22435 0.06946
# Poissons Ratio (y) = 0.14211 0.08495
# Poissons Ratio (z) = 0.06961 0.13440
#
# Static dielectric constant tensor:
#      x y z
#    x 1.962020 0.000000 0.049730 
#    y 0.000000 1.929460 0.000000 
#    z 0.049730 0.000000 1.882580 
# 
# From -- ./inp_files/77952.got.cif
#   From: 2010.05.17/outbox.cif.g08.bks.cpg/sg12_39_cif.got.tgz:77952.got - 2010.06.03 13:09:07.
