data_PCOD9170450
_publ_section_title
;
Structure prediction by ZEFSAII (Michael W. Deem and Ramdas Pophale) SiO2 
 PCOD9170450
Probable space group: C 2/M
;
_chemical_formula_sum "Si O2"
_cell_formula_units_Z 40
_cell_length_a 7.283525
_cell_length_b 29.937516
_cell_length_c 7.892910
_cell_angle_alpha 90.000000
_cell_angle_beta 103.396623
_cell_angle_gamma 90.000000
_cell_volume 1674.223444
_symmetry_space_group_name_H-M "C 2/M"
_symmetry_group_IT_number 12
_symmetry_cell_setting 'monoclinic'
loop_
_space_group_symop_operation_xyz
x,y,z
-x,y,-z
-x,-y,-z
x,-y,z
1/2+x,1/2+y,z
1/2-x,1/2+y,-z
1/2-x,1/2-y,-z
1/2+x,1/2-y,z
loop_
_atom_site_type_symbol
_atom_site_label
_atom_site_fract_x
_atom_site_fract_y
_atom_site_fract_z
Si Si1 0.297174 0.550008 0.557830
Si Si2 0.667515 0.048940 0.173786
Si Si3 0.282317 0.647877 0.127566
Si Si4 0.224703 0.198840 0.546092
Si Si5 0.224319 0.139865 0.243301
O O1 0.500000 0.555773 0.500000
O O2 0.295040 0.500000 0.630674
O O3 0.141822 0.551246 0.372684
O O4 0.274265 0.588792 0.690924
O O5 0.770219 0.095391 0.166250
O O6 0.762154 0.000000 0.168913
O O7 0.500000 0.049126 0.000000
O O8 0.207423 0.680759 0.257409
O O9 0.507329 0.655077 0.173095
O O10 0.190687 0.649873 0.922167
O O11 0.250000 0.250000 0.500000
O O12 0.304351 0.168869 0.412179
O O13 0.000000 0.190375 0.500000
#
# Coordination Sequence:
#
# PCOD9170450 Si02
#       5
#     8   8   8   8   8
#     4  10  17  31  57  85 118 160 204 244 290 354
#     4  10  20  35  55  85 127 164 195 241 297 354
#     4  10  20  36  60  87 116 157 197 247 302 357
#     4  10  21  41  62  86 119 154 199 259 315 366
#     4  10  19  35  61  88 116 148 202 255 298 351
#
# _framework density 23.891677000000001
#
# number of rings (size 3 to 8) (size 9 to 14) (size 15 to 20)
#    0.000    2.000    4.000    0.600    0.000    1.600 
#    3.600    3.000    0.000    3.600    0.000    0.000 
#    0.000    0.000    0.000    0.000    0.000    0.000 
#
# Total GULP energy -111579.451321 kJ/mol
# GULP energy per Si atom -5578.972566 kJ/mol
# Density = 2.383730 g / cm^3
# Si number density = 23.891677 Si / 1000 Ang^3
#
#
#
# Elastic Constant Matrix: (Units=GPa)
#
#
# Indices 1 2 3 4 5 6 
#
# 1 50.4490 29.6191 54.2425 0.0000 4.8711 0.0000
# 2 29.6191 158.0663 100.5831 0.0000 -32.8939 0.0000
# 3 54.2425 100.5831 226.5531 0.0000 -28.2706 0.0000
# 4 0.0000 0.0000 0.0000 -6.3351 0.0000 10.9900
# 5 4.8711 -32.8939 -28.2706 0.0000 41.4378 0.0000
# 6 0.0000 0.0000 0.0000 10.9900 0.0000 15.6844
#
#
#
# Elastic Compliance Matrix: (Units=1/GPa)
#
#
# Indices 1 2 3 4 5 6 
#
# 1 0.030738 -0.003534 -0.007205 0.000000 -0.011334 0.000000
# 2 -0.003534 0.010163 -0.002850 0.000000 0.006538 0.000000
# 3 -0.007205 -0.002850 0.007900 0.000000 0.003974 0.000000
# 4 0.000000 0.000000 0.000000 -0.071247 0.000000 0.049922
# 5 -0.011334 0.006538 0.003974 0.000000 0.033367 0.000000
# 6 0.000000 0.000000 0.000000 0.049922 0.000000 0.028777
#
#
# Mechanical properties :
#
#
# Convention : Reuss Voigt Hill
#
# Bulk Modulus (GPa) = 46.24565 89.32864 67.78714
# Shear Modulus (GPa) = 67.49217 26.86568 47.17893
#
# Velocity S-wave (km/s) = 5.32077 3.35696 4.44858
# Velocity P-wave (km/s) = 7.55949 7.24540 7.40411
#
# Compressibility (1/GPa) = 0.02162366
#
# Stress axis : x y z
#
# Youngs Moduli (GPa) = 32.53355 98.39757 126.57765
#
# Poissons Ratio (x) = 0.34770 0.91197
# Poissons Ratio (y) = 0.11496 0.36076
# Poissons Ratio (z) = 0.23440 0.28044
#
# Static dielectric constant tensor:
#      x y z
#    x 2.001910 0.000000 -0.007860 
#    y 0.000000 2.016280 0.000000 
#    z -0.007860 0.000000 1.974880 
# 
# From -- ./inp_files/53592.got.cif
#   From: 2010.05.17/outbox.cif.g08.bks.cpg/sg12_27_cif.got.tgz:53592.got - 2010.06.03 13:09:07.
