data_PCOD9170689
_publ_section_title
;
Structure prediction by ZEFSAII (Michael W. Deem and Ramdas Pophale) SiO2 
 PCOD9170689
Probable space group: C 2/M
;
_chemical_formula_sum "Si O2"
_cell_formula_units_Z 56
_cell_length_a 19.987456
_cell_length_b 23.236790
_cell_length_c 9.629289
_cell_angle_alpha 90.000000
_cell_angle_beta 40.203458
_cell_angle_gamma 90.000000
_cell_volume 2886.866280
_symmetry_space_group_name_H-M "C 2/M"
_symmetry_group_IT_number 12
_symmetry_cell_setting 'monoclinic'
loop_
_space_group_symop_operation_xyz
x,y,z
-x,y,-z
-x,-y,-z
x,-y,z
1/2+x,1/2+y,z
1/2-x,1/2+y,-z
1/2-x,1/2-y,-z
1/2+x,1/2-y,z
loop_
_atom_site_type_symbol
_atom_site_label
_atom_site_fract_x
_atom_site_fract_y
_atom_site_fract_z
Si Si1 0.272176 0.638344 0.783289
Si Si2 0.552831 0.632622 0.722954
Si Si3 0.238637 0.267545 0.290367
Si Si4 0.709380 0.565789 0.658032
Si Si5 0.085170 0.260865 0.764491
Si Si6 0.379519 0.067949 0.157709
Si Si7 0.318671 0.618359 0.022066
O O1 0.367024 0.623449 0.530162
O O2 0.272965 0.708114 0.776045
O O3 0.169351 0.610256 0.879537
O O4 0.290395 0.613510 0.906734
O O5 0.613257 0.604091 0.756516
O O6 0.541349 0.699810 0.779670
O O7 0.441429 0.611031 0.852280
O O8 0.137251 0.286167 0.541977
O O9 0.322509 0.252867 0.275552
O O10 0.281062 0.318537 0.129948
O O11 0.680724 0.500000 0.678989
O O12 0.809172 0.579214 0.405642
O O13 0.731447 0.576725 0.784108
O O14 0.000000 0.289857 0.000000
O O15 0.364896 0.000000 0.143394
O O16 0.500000 0.076098 0.000000
#
# Coordination Sequence:
#
# PCOD9170689 Si02
#       7
#     8   8   8   8   8   8   8
#     4  10  23  37  57  86 115 147 189 232 280 341
#     4  10  19  37  58  82 111 154 189 223 280 334
#     4  10  21  33  54  82 115 150 189 230 277 325
#     4  10  21  37  60  88 112 142 192 235 272 334
#     4  10  17  33  56  81 105 148 196 234 264 322
#     4   9  20  43  66  82 105 144 192 241 283 325
#     4  12  21  37  55  83 124 153 178 227 290 335
#
# _framework density 19.398195999999999
#
# number of rings (size 3 to 8) (size 9 to 14) (size 15 to 20)
#    0.000    1.857    2.857    1.286    2.000    2.286 
#    0.000    0.714    0.000    6.857    0.000    0.000 
#    0.000    0.000    0.000    0.000    0.000    0.000 
#
# Total GULP energy -156168.141539 kJ/mol
# GULP energy per Si atom -5577.433626 kJ/mol
# Density = 1.935404 g / cm^3
# Si number density = 19.398196 Si / 1000 Ang^3
#
#
#
# Elastic Constant Matrix: (Units=GPa)
#
#
# Indices 1 2 3 4 5 6 
#
# 1 82.8762 9.4793 50.2270 0.0000 13.2386 0.0000
# 2 9.4793 49.0051 15.7412 0.0000 -3.8063 0.0000
# 3 50.2270 15.7412 99.3351 0.0000 -5.8924 0.0000
# 4 0.0000 0.0000 0.0000 14.8703 0.0000 -2.9451
# 5 13.2386 -3.8063 -5.8924 0.0000 33.0870 0.0000
# 6 0.0000 0.0000 0.0000 -2.9451 0.0000 10.6847
#
#
#
# Elastic Compliance Matrix: (Units=1/GPa)
#
#
# Indices 1 2 3 4 5 6 
#
# 1 0.020301 -0.001292 -0.010664 0.000000 -0.010170 0.000000
# 2 -0.001292 0.021700 -0.002635 0.000000 0.002544 0.000000
# 3 -0.010664 -0.002635 0.016283 0.000000 0.006863 0.000000
# 4 0.000000 0.000000 0.000000 0.071131 0.000000 0.019606
# 5 -0.010170 0.002544 0.006863 0.000000 0.035808 0.000000
# 6 0.000000 0.000000 0.000000 0.019606 0.000000 0.098996
#
#
# Mechanical properties :
#
#
# Convention : Reuss Voigt Hill
#
# Bulk Modulus (GPa) = 34.35877 42.45684 38.40781
# Shear Modulus (GPa) = 16.49619 22.11300 19.30459
#
# Velocity S-wave (km/s) = 2.91932 3.37998 3.15806
# Velocity P-wave (km/s) = 5.39574 6.09646 5.75678
#
# Compressibility (1/GPa) = 0.02910465
#
# Stress axis : x y z
#
# Youngs Moduli (GPa) = 49.25826 46.08344 61.41226
#
# Poissons Ratio (x) = 0.05952 0.65487
# Poissons Ratio (y) = 0.06362 0.16180
# Poissons Ratio (z) = 0.52527 0.12141
#
# Static dielectric constant tensor:
#      x y z
#    x 1.642180 0.000000 -0.005250 
#    y 0.000000 1.720510 0.000000 
#    z -0.005250 0.000000 1.734860 
# 
# From -- ./inp_files/66561.got.cif
#   From: 2010.05.17/outbox.cif.g08.bks.cpg/sg12_34_cif.got.tgz:66561.got - 2010.06.03 13:09:07.
