data_PCOD9170162
_publ_section_title
;
Structure prediction by ZEFSAII (Michael W. Deem and Ramdas Pophale) SiO2 
 PCOD9170162
Probable space group: C 2/M
;
_chemical_formula_sum "Si O2"
_cell_formula_units_Z 64
_cell_length_a 31.074490
_cell_length_b 7.960396
_cell_length_c 15.399590
_cell_angle_alpha 90.000000
_cell_angle_beta 80.190776
_cell_angle_gamma 90.000000
_cell_volume 3753.632903
_symmetry_space_group_name_H-M "C 2/M"
_symmetry_group_IT_number 12
_symmetry_cell_setting 'monoclinic'
loop_
_space_group_symop_operation_xyz
x,y,z
-x,y,-z
-x,-y,-z
x,-y,z
1/2+x,1/2+y,z
1/2-x,1/2+y,-z
1/2-x,1/2-y,-z
1/2+x,1/2-y,z
loop_
_atom_site_type_symbol
_atom_site_label
_atom_site_fract_x
_atom_site_fract_y
_atom_site_fract_z
Si Si1 0.374856 0.298536 0.253342
Si Si2 0.316819 0.194583 0.109713
Si Si3 0.280315 0.797805 0.612333
Si Si4 0.685779 0.701742 0.576310
Si Si5 0.444613 0.705074 0.932333
Si Si6 0.458586 0.294821 0.127324
Si Si7 0.148943 0.804169 0.085952
Si Si8 0.722040 0.803631 0.191235
O O1 0.378763 0.500000 0.259746
O O2 0.341322 0.262920 0.186363
O O3 0.353352 0.233932 0.349705
O O4 0.422218 0.234056 0.207209
O O5 0.265014 0.213008 0.140539
O O6 0.328211 0.000000 0.095062
O O7 0.332391 0.288429 0.018013
O O8 0.313406 0.744282 0.525442
O O9 0.232016 0.736312 0.600173
O O10 0.288929 0.742536 0.707668
O O11 0.279539 0.000000 0.611880
O O12 0.686258 0.500000 0.583551
O O13 0.443634 0.500000 0.931921
O O14 0.491240 0.758341 0.877477
O O15 0.400610 0.763059 0.900988
O O16 0.444700 0.753927 0.034087
O O17 0.458497 0.500000 0.128528
O O18 0.181618 0.715978 0.140727
O O19 0.147787 0.000000 0.110442
O O20 0.734076 0.000000 0.193346
#
# Coordination Sequence:
#
# PCOD9170162 Si02
#       8
#     8   8   8   8   8   8   8   8
#     4  10  17  30  50  72  98 128 157 193 234 279
#     4  12  23  33  46  68  97 130 165 195 228 273
#     4   9  18  32  48  66  91 122 153 191 235 277
#     4   9  17  29  47  70  94 120 151 189 237 280
#     4   8  14  25  45  71  94 120 155 194 230 275
#     4   8  13  24  46  72  94 120 155 190 232 278
#     4  11  21  34  50  69  95 127 162 199 235 272
#     4  11  22  37  51  66  92 126 165 199 233 276
#
# _framework density 17.050149000000001
#
# number of rings (size 3 to 8) (size 9 to 14) (size 15 to 20)
#    0.000    2.250    2.500    3.000    0.000    1.500 
#    0.000    0.000    0.000    2.250    0.000    0.875 
#    0.000    7.000    0.000    0.000    0.000    0.000 
#
# Total GULP energy -178463.879533 kJ/mol
# GULP energy per Si atom -5576.996235 kJ/mol
# Density = 1.701134 g / cm^3
# Si number density = 17.050149 Si / 1000 Ang^3
#
#
#
# Elastic Constant Matrix: (Units=GPa)
#
#
# Indices 1 2 3 4 5 6 
#
# 1 107.2775 -6.3649 54.2627 0.0000 -22.6273 0.0000
# 2 -6.3649 14.2493 2.9137 0.0000 -6.6277 0.0000
# 3 54.2627 2.9137 61.6443 0.0000 -15.2735 0.0000
# 4 0.0000 0.0000 0.0000 16.9892 0.0000 2.4810
# 5 -22.6273 -6.6277 -15.2735 0.0000 24.4584 0.0000
# 6 0.0000 0.0000 0.0000 2.4810 0.0000 12.1878
#
#
#
# Elastic Compliance Matrix: (Units=1/GPa)
#
#
# Indices 1 2 3 4 5 6 
#
# 1 0.022376 0.020806 -0.016745 0.000000 0.015882 0.000000
# 2 0.020806 0.099832 -0.013678 0.000000 0.037759 0.000000
# 3 -0.016745 -0.013678 0.031767 0.000000 0.000640 0.000000
# 4 0.000000 0.000000 0.000000 0.060664 0.000000 -0.012349
# 5 0.015882 0.037759 0.000640 0.000000 0.066210 0.000000
# 6 0.000000 0.000000 0.000000 -0.012349 0.000000 0.084563
#
#
# Mechanical properties :
#
#
# Convention : Reuss Voigt Hill
#
# Bulk Modulus (GPa) = 7.42163 31.64379 19.53271
# Shear Modulus (GPa) = 11.63988 19.55108 15.59548
#
# Velocity S-wave (km/s) = 2.61566 3.38994 3.02765
# Velocity P-wave (km/s) = 3.67212 5.82424 4.86859
#
# Compressibility (1/GPa) = 0.13474129
#
# Stress axis : x y z
#
# Youngs Moduli (GPa) = 44.69155 10.01685 31.47951
#
# Poissons Ratio (x) = -0.20841 0.52711
# Poissons Ratio (y) = -0.92984 0.43056
# Poissons Ratio (z) = 0.74834 0.13701
#
# Static dielectric constant tensor:
#      x y z
#    x 1.580800 0.000000 -0.026710 
#    y 0.000000 1.616530 0.000000 
#    z -0.026710 0.000000 1.574640 
# 
# From -- ./inp_files/248276.got.cif
#   From: 2010.05.17/outbox.cif.g08.bks.cpg/sg12_125_cif.got.tgz:248276.got - 2010.06.03 13:09:07.
