data_PCOD9170626
_publ_section_title
;
Structure prediction by ZEFSAII (Michael W. Deem and Ramdas Pophale) SiO2 
 PCOD9170626
Probable space group: C 2/M
;
_chemical_formula_sum "Si O2"
_cell_formula_units_Z 44
_cell_length_a 22.251567
_cell_length_b 8.372648
_cell_length_c 12.913688
_cell_angle_alpha 90.000000
_cell_angle_beta 65.184940
_cell_angle_gamma 90.000000
_cell_volume 2183.737151
_symmetry_space_group_name_H-M "C 2/M"
_symmetry_group_IT_number 12
_symmetry_cell_setting 'monoclinic'
loop_
_space_group_symop_operation_xyz
x,y,z
-x,y,-z
-x,-y,-z
x,-y,z
1/2+x,1/2+y,z
1/2-x,1/2+y,-z
1/2-x,1/2-y,-z
1/2+x,1/2-y,z
loop_
_atom_site_type_symbol
_atom_site_label
_atom_site_fract_x
_atom_site_fract_y
_atom_site_fract_z
Si Si1 0.686949 0.314328 0.986995
Si Si2 0.458383 0.806856 0.427232
Si Si3 0.174986 0.190878 0.574250
Si Si4 0.871364 0.312025 0.170786
Si Si5 0.440216 0.178120 0.825081
Si Si6 0.500000 0.242388 0.000000
O O1 0.692868 0.500000 0.957941
O O2 0.623481 0.285111 0.107063
O O3 0.750000 0.250000 0.000000
O O4 0.678622 0.215283 0.887034
O O5 0.500000 0.760166 0.500000
O O6 0.384137 0.740041 0.463051
O O7 0.504997 0.762394 0.295411
O O8 0.452502 0.000000 0.431874
O O9 0.250000 0.250000 0.500000
O O10 0.154326 0.267985 0.698645
O O11 0.175669 0.000000 0.580533
O O12 0.891965 0.500000 0.155299
O O13 0.931685 0.192829 0.095844
O O14 0.472670 0.164131 0.915032
O O15 0.419304 0.000000 0.806197
#
# Coordination Sequence:
#
# PCOD9170626 Si02
#       6
#     8   8   8   8   8   4
#     4  11  23  39  58  89 128 168 212 263 326 393
#     4  10  22  42  67  94 128 172 221 275 336 401
#     4  12  26  44  66  95 132 177 227 280 333 395
#     4  11  21  39  65  94 125 163 208 263 328 393
#     4  10  19  35  60  90 122 161 205 260 326 388
#     4  10  17  32  63  94 121 154 195 252 321 384
#
# _framework density 20.148945999999999
#
# number of rings (size 3 to 8) (size 9 to 14) (size 15 to 20)
#    0.000    1.273    1.818    6.545    0.000    2.545 
#    0.000    7.727    0.000    0.000    0.000    0.000 
#    0.000    0.000    0.000    0.000    0.000    0.000 
#
# Total GULP energy -122567.776809 kJ/mol
# GULP energy per Si atom -5571.262582 kJ/mol
# Density = 2.010309 g / cm^3
# Si number density = 20.148946 Si / 1000 Ang^3
#
#
#
# Elastic Constant Matrix: (Units=GPa)
#
#
# Indices 1 2 3 4 5 6 
#
# 1 173.0725 41.0881 69.0655 0.0000 3.6349 0.0000
# 2 41.0881 87.8701 21.5466 0.0000 -1.5086 0.0000
# 3 69.0655 21.5466 126.9559 0.0000 -5.4792 0.0000
# 4 0.0000 0.0000 0.0000 25.1948 0.0000 -1.9692
# 5 3.6349 -1.5086 -5.4792 0.0000 16.8156 0.0000
# 6 0.0000 0.0000 0.0000 -1.9692 0.0000 31.9928
#
#
#
# Elastic Compliance Matrix: (Units=1/GPa)
#
#
# Indices 1 2 3 4 5 6 
#
# 1 0.008166 -0.002871 -0.004100 0.000000 -0.003359 0.000000
# 2 -0.002871 0.012887 -0.000557 0.000000 0.001595 0.000000
# 3 -0.004100 -0.000557 0.010384 0.000000 0.004220 0.000000
# 4 0.000000 0.000000 0.000000 0.039883 0.000000 0.002455
# 5 -0.003359 0.001595 0.004220 0.000000 0.061713 0.000000
# 6 0.000000 0.000000 0.000000 0.002455 0.000000 0.031408
#
#
# Mechanical properties :
#
#
# Convention : Reuss Voigt Hill
#
# Bulk Modulus (GPa) = 61.04366 72.36656 66.70511
# Shear Modulus (GPa) = 27.03348 31.88053 29.45701
#
# Velocity S-wave (km/s) = 3.66687 3.98206 3.82771
# Velocity P-wave (km/s) = 6.94909 7.55885 7.26037
#
# Compressibility (1/GPa) = 0.01638172
#
# Stress axis : x y z
#
# Youngs Moduli (GPa) = 122.45546 77.59966 96.30279
#
# Poissons Ratio (x) = 0.22277 0.39487
# Poissons Ratio (y) = 0.35154 0.05359
# Poissons Ratio (z) = 0.50210 0.04318
#
# Static dielectric constant tensor:
#      x y z
#    x 1.751290 0.000000 -0.013780 
#    y 0.000000 1.711590 0.000000 
#    z -0.013780 0.000000 1.697890 
# 
# From -- ./inp_files/171939.got.cif
#   From: 2010.05.17/outbox.cif.g08.bks.cpg/sg12_86_cif.got.tgz:171939.got - 2010.06.03 13:09:07.
