data_PCOD9170446
_publ_section_title
;
Structure prediction by ZEFSAII (Michael W. Deem and Ramdas Pophale) SiO2 
 PCOD9170446
Probable space group: C 2/M
;
_chemical_formula_sum "Si O2"
_cell_formula_units_Z 48
_cell_length_a 9.796163
_cell_length_b 27.498565
_cell_length_c 12.369365
_cell_angle_alpha 90.000000
_cell_angle_beta 127.248178
_cell_angle_gamma 90.000000
_cell_volume 2652.394389
_symmetry_space_group_name_H-M "C 2/M"
_symmetry_group_IT_number 12
_symmetry_cell_setting 'monoclinic'
loop_
_space_group_symop_operation_xyz
x,y,z
-x,y,-z
-x,-y,-z
x,-y,z
1/2+x,1/2+y,z
1/2-x,1/2+y,-z
1/2-x,1/2-y,-z
1/2+x,1/2-y,z
loop_
_atom_site_type_symbol
_atom_site_label
_atom_site_fract_x
_atom_site_fract_y
_atom_site_fract_z
Si Si1 0.444492 0.555109 0.592886
Si Si2 0.633213 0.703071 0.963720
Si Si3 0.638900 0.859052 0.787453
Si Si4 0.603374 0.356767 0.290306
Si Si5 0.036288 0.554800 0.395643
Si Si6 0.626983 0.795615 0.460529
O O1 0.500000 0.571005 0.500000
O O2 0.510502 0.500000 0.645132
O O3 0.483099 0.594952 0.703126
O O4 0.239461 0.551856 0.487931
O O5 0.528310 0.685297 0.808735
O O6 0.500000 0.711741 0.000000
O O7 0.750000 0.750000 0.000000
O O8 0.756923 0.658759 0.059332
O O9 0.782093 0.864674 0.761768
O O10 0.538733 0.909657 0.730644
O O11 0.501045 0.816840 0.691332
O O12 0.739282 0.337713 0.443125
O O13 0.963574 0.500000 0.354065
O O14 0.000000 0.573965 0.500000
O O15 0.500000 0.785332 0.500000
O O16 0.750000 0.750000 0.500000
#
# Coordination Sequence:
#
# PCOD9170446 Si02
#       6
#     8   8   8   8   8   8
#     4  10  20  34  54  84 115 140 173 222 277 323
#     4  10  22  39  56  75 109 148 181 222 271 321
#     4  10  18  34  54  79 106 137 182 220 261 318
#     4  10  19  35  54  77 106 142 178 220 267 314
#     4  10  17  31  57  82 108 141 175 217 271 325
#     4  10  19  31  49  74 102 129 173 225 263 308
#
# _framework density 18.096855999999999
#
# number of rings (size 3 to 8) (size 9 to 14) (size 15 to 20)
#    0.000    2.000    3.333    1.500    0.000    0.667 
#    3.000    0.833    0.000    3.000    0.000    3.500 
#    0.000    0.000    0.000    0.000    0.000    0.000 
#
# Total GULP energy -133693.008569 kJ/mol
# GULP energy per Si atom -5570.542024 kJ/mol
# Density = 1.805567 g / cm^3
# Si number density = 18.096856 Si / 1000 Ang^3
#
#
#
# Elastic Constant Matrix: (Units=GPa)
#
#
# Indices 1 2 3 4 5 6 
#
# 1 54.7756 23.0476 21.6292 0.0000 5.4346 0.0000
# 2 23.0476 100.1125 14.9259 0.0000 -0.4167 0.0000
# 3 21.6292 14.9259 47.6971 0.0000 10.8211 0.0000
# 4 0.0000 0.0000 0.0000 41.0357 0.0000 8.9711
# 5 5.4346 -0.4167 10.8211 0.0000 14.6965 0.0000
# 6 0.0000 0.0000 0.0000 8.9711 0.0000 24.6916
#
#
#
# Elastic Compliance Matrix: (Units=1/GPa)
#
#
# Indices 1 2 3 4 5 6 
#
# 1 0.023766 -0.004146 -0.008955 0.000000 -0.002312 0.000000
# 2 -0.004146 0.011332 -0.002505 0.000000 0.003699 0.000000
# 3 -0.008955 -0.002505 0.030104 0.000000 -0.018925 0.000000
# 4 0.000000 0.000000 0.000000 0.026472 0.000000 -0.009618
# 5 -0.002312 0.003699 -0.018925 0.000000 0.082938 0.000000
# 6 0.000000 0.000000 0.000000 -0.009618 0.000000 0.043994
#
#
# Mechanical properties :
#
#
# Convention : Reuss Voigt Hill
#
# Bulk Modulus (GPa) = 29.42088 35.75454 32.58771
# Shear Modulus (GPa) = 19.14610 25.61692 22.38151
#
# Velocity S-wave (km/s) = 3.25619 3.76645 3.52058
# Velocity P-wave (km/s) = 5.51632 6.22215 5.87983
#
# Compressibility (1/GPa) = 0.03398947
#
# Stress axis : x y z
#
# Youngs Moduli (GPa) = 42.07630 88.24451 33.21782
#
# Poissons Ratio (x) = 0.36585 0.29748
# Poissons Ratio (y) = 0.17444 0.08322
# Poissons Ratio (z) = 0.37681 0.22109
#
# Static dielectric constant tensor:
#      x y z
#    x 1.788570 0.000000 0.006020 
#    y 0.000000 1.690780 0.000000 
#    z 0.006020 0.000000 1.611110 
# 
# From -- ./inp_files/123869.got.cif
#   From: 2010.05.17/outbox.cif.g08.bks.cpg/sg12_62_cif.got.tgz:123869.got - 2010.06.03 13:09:07.
