data_PCOD9170324
_publ_section_title
;
Structure prediction by ZEFSAII (Michael W. Deem and Ramdas Pophale) SiO2 
 PCOD9170324
Probable space group: C 2/M
;
_chemical_formula_sum "Si O2"
_cell_formula_units_Z 48
_cell_length_a 17.769055
_cell_length_b 13.211520
_cell_length_c 10.635432
_cell_angle_alpha 90.000000
_cell_angle_beta 55.941179
_cell_angle_gamma 90.000000
_cell_volume 2068.451777
_symmetry_space_group_name_H-M "C 2/M"
_symmetry_group_IT_number 12
_symmetry_cell_setting 'monoclinic'
loop_
_space_group_symop_operation_xyz
x,y,z
-x,y,-z
-x,-y,-z
x,-y,z
1/2+x,1/2+y,z
1/2-x,1/2+y,-z
1/2-x,1/2-y,-z
1/2+x,1/2-y,z
loop_
_atom_site_type_symbol
_atom_site_label
_atom_site_fract_x
_atom_site_fract_y
_atom_site_fract_z
Si Si1 0.716714 0.275026 0.199311
Si Si2 0.245342 0.613931 0.590220
Si Si3 0.459188 0.615052 0.664444
Si Si4 0.393408 0.387916 0.252523
Si Si5 0.044565 0.329106 0.832955
Si Si6 0.639623 0.878948 0.109770
O O1 0.715932 0.307635 0.344295
O O2 0.632869 0.331854 0.210799
O O3 0.694227 0.160285 0.182252
O O4 0.806300 0.322817 0.053714
O O5 0.268893 0.500000 0.611070
O O6 0.295756 0.626177 0.410363
O O7 0.137006 0.623614 0.693584
O O8 0.500000 0.663490 0.500000
O O9 0.434222 0.500000 0.656060
O O10 0.535082 0.611387 0.699350
O O11 0.397249 0.500000 0.187438
O O12 0.423021 0.284883 0.157974
O O13 0.964781 0.341759 0.804921
O O14 0.000000 0.376203 0.000000
O O15 0.643027 0.000000 0.094887
#
# Coordination Sequence:
#
# PCOD9170324 Si02
#       6
#     8   8   8   8   8   8
#     4  11  21  37  60  90 117 153 202 253 303 356
#     4  11  22  39  67  94 120 159 209 261 303 356
#     4  10  17  30  58  88 112 143 193 251 297 344
#     4  10  22  39  60  90 123 162 208 254 305 359
#     4  12  24  40  61  91 126 166 205 249 310 367
#     4  11  24  40  59  89 125 160 200 248 308 370
#
# _framework density 23.205763000000001
#
# number of rings (size 3 to 8) (size 9 to 14) (size 15 to 20)
#    0.000    1.167    5.000    2.500    0.000    1.000 
#    0.000    0.833    0.000    5.500    0.000    0.000 
#    0.000    0.000    0.000    0.000    0.000    0.000 
#
# Total GULP energy -134033.619576 kJ/mol
# GULP energy per Si atom -5584.734149 kJ/mol
# Density = 2.315295 g / cm^3
# Si number density = 23.205763 Si / 1000 Ang^3
#
#
#
# Elastic Constant Matrix: (Units=GPa)
#
#
# Indices 1 2 3 4 5 6 
#
# 1 66.3182 34.4107 18.8788 0.0000 -28.2698 0.0000
# 2 34.4107 137.9394 24.9470 0.0000 -6.5485 0.0000
# 3 18.8788 24.9470 93.5432 0.0000 -37.4794 0.0000
# 4 0.0000 0.0000 0.0000 20.6319 0.0000 -0.9474
# 5 -28.2698 -6.5485 -37.4794 0.0000 36.5321 0.0000
# 6 0.0000 0.0000 0.0000 -0.9474 0.0000 24.4731
#
#
#
# Elastic Compliance Matrix: (Units=1/GPa)
#
#
# Indices 1 2 3 4 5 6 
#
# 1 0.029065 -0.007268 0.007746 0.000000 0.029135 0.000000
# 2 -0.007268 0.009467 -0.004468 0.000000 -0.008511 0.000000
# 3 0.007746 -0.004468 0.021053 0.000000 0.026793 0.000000
# 4 0.000000 0.000000 0.000000 0.048555 0.000000 0.001880
# 5 0.029135 -0.008511 0.026793 0.000000 0.075881 0.000000
# 6 0.000000 0.000000 0.000000 0.001880 0.000000 0.040934
#
#
# Mechanical properties :
#
#
# Convention : Reuss Voigt Hill
#
# Bulk Modulus (GPa) = 19.37823 50.47486 34.92654
# Shear Modulus (GPa) = 19.98911 30.96506 25.47709
#
# Velocity S-wave (km/s) = 2.93812 3.65687 3.31702
# Velocity P-wave (km/s) = 4.45857 6.29511 5.45469
#
# Compressibility (1/GPa) = 0.05160430
#
# Stress axis : x y z
#
# Youngs Moduli (GPa) = 34.40592 105.63310 47.49843
#
# Poissons Ratio (x) = 0.76778 -0.36793
# Poissons Ratio (y) = 0.25007 0.21222
# Poissons Ratio (z) = -0.26651 0.47197
#
# Static dielectric constant tensor:
#      x y z
#    x 1.913820 0.000000 0.017390 
#    y 0.000000 1.943470 0.000000 
#    z 0.017390 0.000000 1.891660 
# 
# From -- ./inp_files/232787.got.cif
#   From: 2010.05.17/outbox.cif.g08.bks.cpg/sg12_117_cif.got.tgz:232787.got - 2010.06.03 13:09:07.
