data_PCOD9170919
_publ_section_title
;
Structure prediction by ZEFSAII (Michael W. Deem and Ramdas Pophale) SiO2 
 PCOD9170919
Probable space group: C 2/M
;
_chemical_formula_sum "Si O2"
_cell_formula_units_Z 44
_cell_length_a 12.286986
_cell_length_b 23.573116
_cell_length_c 7.039807
_cell_angle_alpha 90.000000
_cell_angle_beta 112.939173
_cell_angle_gamma 90.000000
_cell_volume 1877.779581
_symmetry_space_group_name_H-M "C 2/M"
_symmetry_group_IT_number 12
_symmetry_cell_setting 'monoclinic'
loop_
_space_group_symop_operation_xyz
x,y,z
-x,y,-z
-x,-y,-z
x,-y,z
1/2+x,1/2+y,z
1/2-x,1/2+y,-z
1/2-x,1/2-y,-z
1/2+x,1/2-y,z
loop_
_atom_site_type_symbol
_atom_site_label
_atom_site_fract_x
_atom_site_fract_y
_atom_site_fract_z
Si Si1 0.632365 0.276115 0.644412
Si Si2 0.262204 0.832141 0.369467
Si Si3 0.395314 0.935145 0.051128
Si Si4 0.861257 0.898100 0.225660
Si Si5 0.390529 0.564343 0.689131
Si Si6 0.500000 0.105081 0.500000
O O1 0.500000 0.257818 0.500000
O O2 0.706456 0.220141 0.749508
O O3 0.698547 0.303519 0.506912
O O4 0.614982 0.330741 0.764461
O O5 0.179497 0.884855 0.255927
O O6 0.390331 0.858465 0.506698
O O7 0.440250 0.931244 0.295272
O O8 0.381204 0.000000 0.979066
O O9 0.500000 0.907810 0.000000
O O10 0.270192 0.907305 0.933583
O O11 0.867353 0.921966 0.448012
O O12 0.968450 0.929433 0.193470
O O13 0.352305 0.500000 0.706659
#
# Coordination Sequence:
#
# PCOD9170919 Si02
#       6
#     8   8   8   8   8   4
#     4  10  17  36  66  95 129 174 224 284 340 401
#     4  10  21  35  61  95 133 178 220 277 347 395
#     4  11  24  42  65  96 138 185 230 279 341 415
#     4  10  18  35  61  95 122 171 230 280 334 400
#     4  10  18  32  59  94 132 174 221 276 341 406
#     4  12  25  42  64  96 138 178 233 282 338 410
#
# _framework density 23.431930000000001
#
# number of rings (size 3 to 8) (size 9 to 14) (size 15 to 20)
#    0.000    1.636    4.545    4.636    0.000    2.909 
#    0.000    1.818    0.000    4.364    0.000    0.000 
#    0.000    0.000    0.000    0.000    0.000    0.000 
#
# Total GULP energy -122913.233838 kJ/mol
# GULP energy per Si atom -5586.965174 kJ/mol
# Density = 2.337860 g / cm^3
# Si number density = 23.431930 Si / 1000 Ang^3
#
#
#
# Elastic Constant Matrix: (Units=GPa)
#
#
# Indices 1 2 3 4 5 6 
#
# 1 125.5259 32.3566 33.8350 0.0000 30.9971 0.0000
# 2 32.3566 170.9451 12.1019 0.0000 21.9744 0.0000
# 3 33.8350 12.1019 90.0424 0.0000 26.3583 0.0000
# 4 0.0000 0.0000 0.0000 38.3761 0.0000 12.0378
# 5 30.9971 21.9744 26.3583 0.0000 38.7313 0.0000
# 6 0.0000 0.0000 0.0000 12.0378 0.0000 33.2329
#
#
#
# Elastic Compliance Matrix: (Units=1/GPa)
#
#
# Indices 1 2 3 4 5 6 
#
# 1 0.010310 -0.000994 -0.001861 0.000000 -0.006420 0.000000
# 2 -0.000994 0.006410 0.000429 0.000000 -0.003133 0.000000
# 3 -0.001861 0.000429 0.014215 0.000000 -0.008428 0.000000
# 4 0.000000 0.000000 0.000000 0.029398 0.000000 -0.010649
# 5 -0.006420 -0.003133 -0.008428 0.000000 0.038471 0.000000
# 6 0.000000 0.000000 0.000000 -0.010649 0.000000 0.033948
#
#
# Mechanical properties :
#
#
# Convention : Reuss Voigt Hill
#
# Bulk Modulus (GPa) = 38.33949 60.34448 49.34198
# Shear Modulus (GPa) = 34.17684 42.61605 38.39645
#
# Velocity S-wave (km/s) = 3.82325 4.26927 4.05240
# Velocity P-wave (km/s) = 5.99060 7.07893 6.55738
#
# Compressibility (1/GPa) = 0.02608277
#
# Stress axis : x y z
#
# Youngs Moduli (GPa) = 96.99424 155.99561 70.35029
#
# Poissons Ratio (x) = 0.15512 0.13092
# Poissons Ratio (y) = 0.09645 -0.03020
# Poissons Ratio (z) = 0.18051 -0.06697
#
# Static dielectric constant tensor:
#      x y z
#    x 1.909380 0.000000 -0.054600 
#    y 0.000000 1.907340 0.000000 
#    z -0.054600 0.000000 1.885650 
# 
# From -- ./inp_files/53404.got.cif
#   From: 2010.05.17/outbox.cif.g08.bks.cpg/sg12_27_cif.got.tgz:53404.got - 2010.06.03 13:09:07.
