data_PCOD9170297
_publ_section_title
;
Structure prediction by ZEFSAII (Michael W. Deem and Ramdas Pophale) SiO2 
 PCOD9170297
Probable space group: C 2/M
;
_chemical_formula_sum "Si O2"
_cell_formula_units_Z 58
_cell_length_a 20.420895
_cell_length_b 14.674154
_cell_length_c 15.518028
_cell_angle_alpha 90.000000
_cell_angle_beta 35.808657
_cell_angle_gamma 90.000000
_cell_volume 2720.694558
_symmetry_space_group_name_H-M "C 2/M"
_symmetry_group_IT_number 12
_symmetry_cell_setting 'monoclinic'
loop_
_space_group_symop_operation_xyz
x,y,z
-x,y,-z
-x,-y,-z
x,-y,z
1/2+x,1/2+y,z
1/2-x,1/2+y,-z
1/2-x,1/2-y,-z
1/2+x,1/2-y,z
loop_
_atom_site_type_symbol
_atom_site_label
_atom_site_fract_x
_atom_site_fract_y
_atom_site_fract_z
Si Si1 0.030189 0.245937 0.673312
Si Si2 0.545849 0.395270 0.039370
Si Si3 0.879546 0.602446 0.892159
Si Si4 0.866876 0.599539 0.535107
Si Si5 0.287714 0.845212 0.802867
Si Si6 0.500000 0.500000 0.500000
Si Si7 0.166551 0.100607 0.610028
Si Si8 0.350181 0.645177 0.763751
O O1 0.057515 0.313242 0.564667
O O2 0.141377 0.188682 0.578703
O O3 0.973750 0.317943 0.800924
O O4 0.937564 0.171405 0.746479
O O5 0.580579 0.500000 0.984049
O O6 0.654744 0.346096 0.955990
O O7 0.500000 0.354098 0.000000
O O8 0.444486 0.398506 0.213113
O O9 0.923442 0.500000 0.859048
O O10 0.837696 0.615293 0.837918
O O11 0.768020 0.613537 0.069346
O O12 0.922076 0.500000 0.465917
O O13 0.818609 0.603447 0.682413
O O14 0.770238 0.605838 0.565069
O O15 0.325095 0.742141 0.748492
O O16 0.415040 0.578272 0.631450
O O17 0.172299 0.000000 0.559831
#
# Coordination Sequence:
#
# PCOD9170297 Si02
#       8
#     8   8   8   8   8   2   8   8
#     4  11  23  39  59  89 124 163 211 255 306 370
#     4  10  17  30  55  87 118 152 190 241 304 363
#     4  11  22  40  64  92 121 162 202 250 319 370
#     4  11  22  38  58  89 126 164 203 253 319 365
#     4  11  21  37  60  92 127 154 200 258 310 367
#     4  12  24  44  64  84 120 160 212 248 308 356
#     4  10  21  36  59  88 121 164 209 255 307 363
#     4  11  24  41  62  89 118 161 203 256 304 370
#
# _framework density 21.318086999999998
#
# number of rings (size 3 to 8) (size 9 to 14) (size 15 to 20)
#    0.000    1.241    2.069    6.207    0.966    2.759 
#    0.000    3.448    0.000    0.000    0.000    1.448 
#    0.000    0.000    0.000    0.000    0.000    0.000 
#
# Total GULP energy -161618.957396 kJ/mol
# GULP energy per Si atom -5573.067496 kJ/mol
# Density = 2.126957 g / cm^3
# Si number density = 21.318087 Si / 1000 Ang^3
#
#
#
# Elastic Constant Matrix: (Units=GPa)
#
#
# Indices 1 2 3 4 5 6 
#
# 1 23.8189 4.4196 -18.5396 0.0000 -7.9075 0.0000
# 2 4.4196 120.6558 14.8140 0.0000 2.9829 0.0000
# 3 -18.5396 14.8140 84.2460 0.0000 8.0853 0.0000
# 4 0.0000 0.0000 0.0000 38.0605 0.0000 -4.3113
# 5 -7.9075 2.9829 8.0853 0.0000 27.4074 0.0000
# 6 0.0000 0.0000 0.0000 -4.3113 0.0000 13.1880
#
#
#
# Elastic Compliance Matrix: (Units=1/GPa)
#
#
# Indices 1 2 3 4 5 6 
#
# 1 0.056240 -0.003833 0.011787 0.000000 0.013166 0.000000
# 2 -0.003833 0.008739 -0.002246 0.000000 -0.001394 0.000000
# 3 0.011787 -0.002246 0.014932 0.000000 -0.000760 0.000000
# 4 0.000000 0.000000 0.000000 0.027284 0.000000 0.008920
# 5 0.013166 -0.001394 -0.000760 0.000000 0.040661 0.000000
# 6 0.000000 0.000000 0.000000 0.008920 0.000000 0.078742
#
#
# Mechanical properties :
#
#
# Convention : Reuss Voigt Hill
#
# Bulk Modulus (GPa) = 10.94977 25.56761 18.25869
# Shear Modulus (GPa) = 20.35627 30.93295 25.64461
#
# Velocity S-wave (km/s) = 3.09347 3.81336 3.47212
# Velocity P-wave (km/s) = 4.23166 5.60432 4.96565
#
# Compressibility (1/GPa) = 0.09132614
#
# Stress axis : x y z
#
# Youngs Moduli (GPa) = 17.78093 114.43355 66.97130
#
# Poissons Ratio (x) = 0.43859 -0.78938
# Poissons Ratio (y) = 0.06815 0.15044
# Poissons Ratio (z) = -0.20958 0.25705
#
# Static dielectric constant tensor:
#      x y z
#    x 1.827310 0.000000 -0.016840 
#    y 0.000000 1.821250 0.000000 
#    z -0.016840 0.000000 1.787870 
# 
# From -- ./inp_files/289893.got.cif
#   From: 2010.05.17/outbox.cif.g08.bks.cpg/sg12_145_cif.got.tgz:289893.got - 2010.06.03 13:09:07.
