data_PCOD9170553
_publ_section_title
;
Structure prediction by ZEFSAII (Michael W. Deem and Ramdas Pophale) SiO2 
 PCOD9170553
Probable space group: C 2/M
;
_chemical_formula_sum "Si O2"
_cell_formula_units_Z 52
_cell_length_a 16.544100
_cell_length_b 15.704556
_cell_length_c 17.804796
_cell_angle_alpha 90.000000
_cell_angle_beta 143.777177
_cell_angle_gamma 90.000000
_cell_volume 2733.629741
_symmetry_space_group_name_H-M "C 2/M"
_symmetry_group_IT_number 12
_symmetry_cell_setting 'monoclinic'
loop_
_space_group_symop_operation_xyz
x,y,z
-x,y,-z
-x,-y,-z
x,-y,z
1/2+x,1/2+y,z
1/2-x,1/2+y,-z
1/2-x,1/2-y,-z
1/2+x,1/2-y,z
loop_
_atom_site_type_symbol
_atom_site_label
_atom_site_fract_x
_atom_site_fract_y
_atom_site_fract_z
Si Si1 0.200949 0.597108 0.240769
Si Si2 0.642516 0.252826 0.561190
Si Si3 0.293534 0.801158 0.910775
Si Si4 0.464840 0.816518 0.307196
Si Si5 0.733868 0.097424 0.724077
Si Si6 0.927862 0.595381 0.127596
Si Si7 0.000000 0.830521 0.000000
O O1 0.254942 0.500000 0.282719
O O2 0.277767 0.662406 0.354505
O O3 0.202721 0.635901 0.158408
O O4 0.045651 0.593737 0.153102
O O5 0.500000 0.258478 0.500000
O O6 0.593726 0.230564 0.440924
O O7 0.720823 0.169973 0.651169
O O8 0.151353 0.752570 0.797373
O O9 0.416216 0.732693 0.992454
O O10 0.310263 0.848667 0.001875
O O11 0.389222 0.879677 0.309992
O O12 0.490343 0.865936 0.249746
O O13 0.880748 0.114053 0.872857
O O14 0.721129 0.000000 0.689586
O O15 0.879681 0.500000 0.106771
#
# Coordination Sequence:
#
# PCOD9170553 Si02
#       7
#     8   8   8   8   8   8   4
#     4  11  21  36  60  86 111 147 191 237 281 335
#     4  10  19  38  55  81 111 147 191 233 280 332
#     4  11  18  37  57  81 111 149 188 233 282 338
#     4  10  22  35  55  78 116 150 185 228 286 338
#     4  10  19  32  55  81 108 147 191 232 276 329
#     4  11  22  35  54  84 115 147 188 234 286 336
#     4  10  17  32  55  78 112 134 185 238 279 320
#
# _framework density 19.022328000000002
#
# number of rings (size 3 to 8) (size 9 to 14) (size 15 to 20)
#    0.000    1.538    6.154    1.615    0.000    5.538 
#    0.000    0.000    0.000    0.000    0.000    1.077 
#    0.000    0.000    0.000    0.000    0.000    0.000 
#
# Total GULP energy -145039.037510 kJ/mol
# GULP energy per Si atom -5578.424520 kJ/mol
# Density = 1.897903 g / cm^3
# Si number density = 19.022328 Si / 1000 Ang^3
#
#
#
# Elastic Constant Matrix: (Units=GPa)
#
#
# Indices 1 2 3 4 5 6 
#
# 1 18.1506 2.8647 -3.6122 0.0000 -9.7679 0.0000
# 2 2.8647 128.9025 24.1548 0.0000 -5.5011 0.0000
# 3 -3.6122 24.1548 59.1025 0.0000 -3.2612 0.0000
# 4 0.0000 0.0000 0.0000 5.3229 0.0000 1.9006
# 5 -9.7679 -5.5011 -3.2612 0.0000 26.2360 0.0000
# 6 0.0000 0.0000 0.0000 1.9006 0.0000 13.7275
#
#
#
# Elastic Compliance Matrix: (Units=1/GPa)
#
#
# Indices 1 2 3 4 5 6 
#
# 1 0.071157 -0.001651 0.006511 0.000000 0.026956 0.000000
# 2 -0.001651 0.008487 -0.003529 0.000000 0.000726 0.000000
# 3 0.006511 -0.003529 0.018983 0.000000 0.004044 0.000000
# 4 0.000000 0.000000 0.000000 0.197637 0.000000 -0.027363
# 5 0.026956 0.000726 0.004044 0.000000 0.048806 0.000000
# 6 0.000000 0.000000 0.000000 -0.027363 0.000000 0.076635
#
#
# Mechanical properties :
#
#
# Convention : Reuss Voigt Hill
#
# Bulk Modulus (GPa) = 9.87277 28.10780 18.99029
# Shear Modulus (GPa) = 11.04221 21.24049 16.14135
#
# Velocity S-wave (km/s) = 2.41194 3.34519 2.91614
# Velocity P-wave (km/s) = 3.59972 5.45241 4.61989
#
# Compressibility (1/GPa) = 0.10128872
#
# Stress axis : x y z
#
# Youngs Moduli (GPa) = 14.05336 117.82945 52.67804
#
# Poissons Ratio (x) = 0.19455 -0.34299
# Poissons Ratio (y) = 0.02320 0.18592
# Poissons Ratio (z) = -0.09150 0.41586
#
# Static dielectric constant tensor:
#      x y z
#    x 1.670130 0.000000 -0.016090 
#    y 0.000000 1.680250 0.000000 
#    z -0.016090 0.000000 1.682420 
# 
# From -- ./inp_files/270773.got.cif
#   From: 2010.05.17/outbox.cif.g08.bks.cpg/sg12_136_cif.got.tgz:270773.got - 2010.06.03 13:09:07.
