data_PCOD9170607
_publ_section_title
;
Structure prediction by ZEFSAII (Michael W. Deem and Ramdas Pophale) SiO2 
 PCOD9170607
Probable space group: C 2/M
;
_chemical_formula_sum "Si O2"
_cell_formula_units_Z 44
_cell_length_a 27.287277
_cell_length_b 7.989398
_cell_length_c 11.997735
_cell_angle_alpha 90.000000
_cell_angle_beta 129.144789
_cell_angle_gamma 90.000000
_cell_volume 2028.547089
_symmetry_space_group_name_H-M "C 2/M"
_symmetry_group_IT_number 12
_symmetry_cell_setting 'monoclinic'
loop_
_space_group_symop_operation_xyz
x,y,z
-x,y,-z
-x,-y,-z
x,-y,z
1/2+x,1/2+y,z
1/2-x,1/2+y,-z
1/2-x,1/2-y,-z
1/2+x,1/2-y,z
loop_
_atom_site_type_symbol
_atom_site_label
_atom_site_fract_x
_atom_site_fract_y
_atom_site_fract_z
Si Si1 0.584732 0.195530 0.936338
Si Si2 0.647877 0.804526 0.591726
Si Si3 0.439856 0.305118 0.345336
Si Si4 0.374323 0.808043 0.681180
Si Si5 0.789156 0.298598 0.756869
Si Si6 0.500000 0.254281 0.000000
O O1 0.571038 0.216819 0.787568
O O2 0.570934 0.000000 0.948739
O O3 0.657344 0.228169 0.072515
O O4 0.541351 0.311691 0.952619
O O5 0.619264 0.713018 0.656949
O O6 0.620624 0.734438 0.435023
O O7 0.722966 0.783906 0.689047
O O8 0.630837 0.000000 0.579687
O O9 0.500000 0.237654 0.500000
O O10 0.451520 0.500000 0.337819
O O11 0.321327 0.735173 0.687827
O O12 0.439975 0.813096 0.842269
O O13 0.354780 0.000000 0.633757
O O14 0.780058 0.500000 0.734899
#
# Coordination Sequence:
#
# PCOD9170607 Si02
#       6
#     8   8   8   8   8   4
#     4  10  20  36  61  88 113 146 188 231 275 330
#     4  11  22  36  58  85 112 148 192 233 274 326
#     4  11  25  42  58  80 113 150 185 227 282 337
#     4   9  17  30  53  85 116 146 183 228 278 331
#     4   9  19  36  57  84 117 150 184 227 282 334
#     4  10  17  32  59  88 115 142 179 232 285 328
#
# _framework density 21.690401000000001
#
# number of rings (size 3 to 8) (size 9 to 14) (size 15 to 20)
#    0.000    2.000    0.000    5.455    0.000    4.364 
#    0.000    1.364    0.000    3.273    0.000    0.000 
#    0.000    0.000    0.000    0.000    0.000    0.000 
#
# Total GULP energy -122611.954962 kJ/mol
# GULP energy per Si atom -5573.270680 kJ/mol
# Density = 2.164103 g / cm^3
# Si number density = 21.690401 Si / 1000 Ang^3
#
#
#
# Elastic Constant Matrix: (Units=GPa)
#
#
# Indices 1 2 3 4 5 6 
#
# 1 107.3678 4.4701 58.4452 0.0000 -6.7250 0.0000
# 2 4.4701 41.0153 18.5455 0.0000 -3.6221 0.0000
# 3 58.4452 18.5455 130.7053 0.0000 -27.4624 0.0000
# 4 0.0000 0.0000 0.0000 -2.5589 0.0000 50.8909
# 5 -6.7250 -3.6221 -27.4624 0.0000 39.0765 0.0000
# 6 0.0000 0.0000 0.0000 50.8909 0.0000 -505.1501
#
#
#
# Elastic Compliance Matrix: (Units=1/GPa)
#
#
# Indices 1 2 3 4 5 6 
#
# 1 0.012513 0.001261 -0.006215 0.000000 -0.002097 0.000000
# 2 0.001261 0.026181 -0.004368 0.000000 -0.000426 0.000000
# 3 -0.006215 -0.004368 0.012600 0.000000 0.007381 0.000000
# 4 0.000000 0.000000 0.000000 0.389398 0.000000 0.039230
# 5 -0.002097 -0.000426 0.007381 0.000000 0.030378 0.000000
# 6 0.000000 0.000000 0.000000 0.039230 0.000000 0.001973
#
#
# Mechanical properties :
#
#
# Convention : Reuss Voigt Hill
#
# Bulk Modulus (GPa) = 30.62724 49.11222 39.86973
# Shear Modulus (GPa) = 9.94886 -80.55132 -35.30123
#
# Velocity S-wave (km/s) = 2.14399 -6.10061 -4.03861
# Velocity P-wave (km/s) = 4.50331 5.18958 1.82373
#
# Compressibility (1/GPa) = 0.03265067
#
# Stress axis : x y z
#
# Youngs Moduli (GPa) = 79.91761 38.19531 79.36293
#
# Poissons Ratio (x) = -0.04817 0.49322
# Poissons Ratio (y) = -0.10079 0.34668
# Poissons Ratio (z) = 0.49667 0.16685
#
# Static dielectric constant tensor:
#      x y z
#    x 1.766700 0.000000 -0.010850 
#    y 0.000000 1.821210 0.000000 
#    z -0.010850 0.000000 1.771990 
# 
# From -- ./inp_files/163293.got.cif
#   From: 2010.05.17/outbox.cif.g08.bks.cpg/sg12_82_cif.got.tgz:163293.got - 2010.06.03 13:09:07.
