data_PCOD9170212
_publ_section_title
;
Structure prediction by ZEFSAII (Michael W. Deem and Ramdas Pophale) SiO2 
 PCOD9170212
Probable space group: C 2/M
;
_chemical_formula_sum "Si O2"
_cell_formula_units_Z 58
_cell_length_a 20.181774
_cell_length_b 26.560733
_cell_length_c 5.372275
_cell_angle_alpha 90.000000
_cell_angle_beta 84.114127
_cell_angle_gamma 90.000000
_cell_volume 2864.587091
_symmetry_space_group_name_H-M "C 2/M"
_symmetry_group_IT_number 12
_symmetry_cell_setting 'monoclinic'
loop_
_space_group_symop_operation_xyz
x,y,z
-x,y,-z
-x,-y,-z
x,-y,z
1/2+x,1/2+y,z
1/2-x,1/2+y,-z
1/2-x,1/2-y,-z
1/2+x,1/2-y,z
loop_
_atom_site_type_symbol
_atom_site_label
_atom_site_fract_x
_atom_site_fract_y
_atom_site_fract_z
Si Si1 0.246897 0.940718 0.070844
Si Si2 0.103917 0.587731 0.861396
Si Si3 0.067981 0.197201 0.742030
Si Si4 0.423616 0.851801 0.619079
Si Si5 0.917828 0.237873 0.757862
Si Si6 0.460882 0.420962 0.258427
Si Si7 0.000000 0.500000 0.000000
Si Si8 0.309476 0.442057 0.407378
O O1 0.323957 0.935335 0.107048
O O2 0.204786 0.918936 0.317201
O O3 0.229561 0.000000 0.053057
O O4 0.229130 0.917786 0.809687
O O5 0.109423 0.620308 0.605468
O O6 0.084202 0.618911 0.117275
O O7 0.048851 0.544105 0.860073
O O8 0.104351 0.204426 0.466467
O O9 0.048472 0.139176 0.772410
O O10 0.998318 0.228482 0.749018
O O11 0.106304 0.218651 0.965489
O O12 0.500000 0.849450 0.500000
O O13 0.402507 0.794907 0.690800
O O14 0.500000 0.430407 0.500000
O O15 0.386924 0.442023 0.312377
O O16 0.500000 0.439588 0.000000
O O17 0.285583 0.500000 0.440398
#
# Coordination Sequence:
#
# PCOD9170212 Si02
#       8
#     8   8   8   8   8   8   2   8
#     4  10  21  43  62  78 108 167 216 239 269 355
#     4  12  25  38  57  86 121 155 195 247 311 345
#     4  10  17  30  51  79 115 148 187 219 294 362
#     4  12  22  34  52  85 121 145 184 245 301 365
#     4  10  18  31  51  75 119 147 186 221 288 368
#     4  12  21  35  58  96 130 145 189 252 305 352
#     4  12  24  38  56  94 120 154 184 262 324 338
#     4  10  23  40  62  86 117 163 210 235 283 354
#
# _framework density 20.247244999999999
#
# number of rings (size 3 to 8) (size 9 to 14) (size 15 to 20)
#    0.000    1.103    6.207    2.483    1.931    1.655 
#    0.000    0.000    0.000    0.000    0.000   19.310 
#    0.000    0.000    0.000    0.000    0.000    0.000 
#
# Total GULP energy -161459.119248 kJ/mol
# GULP energy per Si atom -5567.555836 kJ/mol
# Density = 2.020116 g / cm^3
# Si number density = 20.247245 Si / 1000 Ang^3
#
#
#
# Elastic Constant Matrix: (Units=GPa)
#
#
# Indices 1 2 3 4 5 6 
#
# 1 27.2361 -5.7448 -4.8943 0.0000 0.7864 0.0000
# 2 -5.7448 62.0467 36.6437 0.0000 2.0045 0.0000
# 3 -4.8943 36.6437 159.5874 0.0000 9.3751 0.0000
# 4 0.0000 0.0000 0.0000 -23.5858 0.0000 -7.3137
# 5 0.7864 2.0045 9.3751 0.0000 28.3255 0.0000
# 6 0.0000 0.0000 0.0000 -7.3137 0.0000 -10.9956
#
#
#
# Elastic Compliance Matrix: (Units=1/GPa)
#
#
# Indices 1 2 3 4 5 6 
#
# 1 0.037527 0.003229 0.000494 0.000000 -0.001434 0.000000
# 2 0.003229 0.018923 -0.004245 0.000000 -0.000024 0.000000
# 3 0.000494 -0.004245 0.007383 0.000000 -0.002157 0.000000
# 4 0.000000 0.000000 0.000000 -0.053416 0.000000 0.035529
# 5 -0.001434 -0.000024 -0.002157 0.000000 0.036059 0.000000
# 6 0.000000 0.000000 0.000000 0.035529 0.000000 -0.114577
#
#
# Mechanical properties :
#
#
# Convention : Reuss Voigt Hill
#
# Bulk Modulus (GPa) = 15.92608 33.43105 24.67856
# Shear Modulus (GPa) = -108.39621 13.60653 -47.39484
#
# Velocity S-wave (km/s) = -7.32479 2.59514 -4.84343
# Velocity P-wave (km/s) = 7.97833 5.05242 4.36617
#
# Compressibility (1/GPa) = 0.06279010
#
# Stress axis : x y z
#
# Youngs Moduli (GPa) = 26.64726 52.84439 135.45296
#
# Poissons Ratio (x) = -0.17066 -0.06686
# Poissons Ratio (y) = -0.08605 0.57495
# Poissons Ratio (z) = -0.01315 0.22431
#
# Static dielectric constant tensor:
#      x y z
#    x 1.746110 0.000000 0.015320 
#    y 0.000000 1.717710 0.000000 
#    z 0.015320 0.000000 1.816320 
# 
# From -- ./inp_files/17694.got.cif
#   From: 2010.05.17/outbox.cif.g08.bks.cpg/sg12_9_cif.got.tgz:17694.got - 2010.06.03 13:09:07.
