data_PCOD9170163
_publ_section_title
;
Structure prediction by ZEFSAII (Michael W. Deem and Ramdas Pophale) SiO2 
 PCOD9170163
Probable space group: C 2/M
;
_chemical_formula_sum "Si O2"
_cell_formula_units_Z 40
_cell_length_a 15.329582
_cell_length_b 23.858832
_cell_length_c 20.043168
_cell_angle_alpha 90.000000
_cell_angle_beta 163.306256
_cell_angle_gamma 90.000000
_cell_volume 2105.789084
_symmetry_space_group_name_H-M "C 2/M"
_symmetry_group_IT_number 12
_symmetry_cell_setting 'monoclinic'
loop_
_space_group_symop_operation_xyz
x,y,z
-x,y,-z
-x,-y,-z
x,-y,z
1/2+x,1/2+y,z
1/2-x,1/2+y,-z
1/2-x,1/2-y,-z
1/2+x,1/2-y,z
loop_
_atom_site_type_symbol
_atom_site_label
_atom_site_fract_x
_atom_site_fract_y
_atom_site_fract_z
Si Si1 0.774661 0.063189 0.254194
Si Si2 0.631632 0.127419 0.950533
Si Si3 0.946465 0.336579 0.670273
Si Si4 0.699281 0.717598 0.822363
Si Si5 0.331512 0.564183 0.586190
O O1 0.055128 0.067619 0.408667
O O2 0.768405 0.000000 0.276799
O O3 0.500000 0.068398 0.000000
O O4 0.678840 0.105453 0.242045
O O5 0.738622 0.185123 0.063275
O O6 0.889623 0.082524 0.161686
O O7 0.584378 0.138529 0.838724
O O8 0.604367 0.311187 0.430049
O O9 0.914598 0.386380 0.592862
O O10 0.135711 0.283003 0.784888
O O11 0.000000 0.707730 0.000000
O O12 0.243835 0.500000 0.534719
#
# Coordination Sequence:
#
# PCOD9170163 Si02
#       5
#     8   8   8   8   8
#     4   8  14  25  42  67  99 129 153 185 237 294
#     4  10  17  30  50  73 100 130 164 204 243 295
#     4  10  21  34  51  76 100 130 171 204 245 301
#     4  10  21  36  51  71 102 133 165 210 252 290
#     4   9  18  31  47  72 106 135 162 201 245 296
#
# _framework density 18.995253999999999
#
# number of rings (size 3 to 8) (size 9 to 14) (size 15 to 20)
#    0.000    2.600    0.000    5.400    0.000    4.800 
#    0.000    2.000    0.000    0.600    0.000    1.400 
#    0.000    0.000    0.000    0.000    0.000    0.000 
#
# Total GULP energy -111447.137859 kJ/mol
# GULP energy per Si atom -5572.356893 kJ/mol
# Density = 1.895202 g / cm^3
# Si number density = 18.995254 Si / 1000 Ang^3
#
#
#
# Elastic Constant Matrix: (Units=GPa)
#
#
# Indices 1 2 3 4 5 6 
#
# 1 13.8484 4.6586 14.8662 -0.0124 -13.5655 -0.0141
# 2 4.6586 150.2587 31.0847 0.1501 -8.9177 -0.0581
# 3 14.8662 31.0847 66.7388 0.2895 -18.7162 -0.1098
# 4 -0.0124 0.1501 0.2895 -16.1416 -0.0036 15.8572
# 5 -13.5655 -8.9177 -18.7162 -0.0036 22.8443 -0.0573
# 6 -0.0141 -0.0581 -0.1098 15.8572 -0.0573 17.8748
#
#
#
# Elastic Compliance Matrix: (Units=1/GPa)
#
#
# Indices 1 2 3 4 5 6 
#
# 1 0.182565 0.003190 -0.014800 -0.000015 0.097533 0.000390
# 2 0.003190 0.007421 -0.003665 0.000005 0.001788 0.000005
# 3 -0.014800 -0.003665 0.022227 0.000273 0.007991 -0.000103
# 4 -0.000015 0.000005 0.000273 -0.033099 0.000285 0.029365
# 5 0.097533 0.001788 0.007991 0.000285 0.108938 0.000228
# 6 0.000390 0.000005 -0.000103 0.029365 0.000228 0.029894
#
#
# Mechanical properties :
#
#
# Convention : Reuss Voigt Hill
#
# Bulk Modulus (GPa) = 5.50470 36.89609 21.20039
# Shear Modulus (GPa) = 12.22341 16.93127 14.57734
#
# Velocity S-wave (km/s) = 2.53948 2.98877 2.77324
# Velocity P-wave (km/s) = 3.39158 5.60146 4.63029
#
# Compressibility (1/GPa) = 0.18166306
#
# Stress axis : x y z
#
# Youngs Moduli (GPa) = 5.47749 134.75818 44.98950
#
# Poissons Ratio (x) = -0.42990 0.66584
# Poissons Ratio (y) = -0.01747 0.16491
# Poissons Ratio (z) = 0.08107 0.49395
#
# Static dielectric constant tensor:
#      x y z
#    x 1.651210 -0.000010 0.013200 
#    y -0.000010 1.706120 -0.000100 
#    z 0.013200 -0.000100 1.710740 
# 
# From -- ./inp_files/272728.got.cif
#   From: 2010.05.17/outbox.cif.g08.bks.cpg/sg12_137_cif.got.tgz:272728.got - 2010.06.03 13:09:07.
