data_PCOD9170718
_publ_section_title
;
Structure prediction by ZEFSAII (Michael W. Deem and Ramdas Pophale) SiO2 
 PCOD9170718
Probable space group: C 2/M
;
_chemical_formula_sum "Si O2"
_cell_formula_units_Z 56
_cell_length_a 15.450649
_cell_length_b 13.056674
_cell_length_c 16.991919
_cell_angle_alpha 90.000000
_cell_angle_beta 131.853950
_cell_angle_gamma 90.000000
_cell_volume 2553.226873
_symmetry_space_group_name_H-M "C 2/M"
_symmetry_group_IT_number 12
_symmetry_cell_setting 'monoclinic'
loop_
_space_group_symop_operation_xyz
x,y,z
-x,y,-z
-x,-y,-z
x,-y,z
1/2+x,1/2+y,z
1/2-x,1/2+y,-z
1/2-x,1/2-y,-z
1/2+x,1/2-y,z
loop_
_atom_site_type_symbol
_atom_site_label
_atom_site_fract_x
_atom_site_fract_y
_atom_site_fract_z
Si Si1 0.492911 0.884754 0.358974
Si Si2 0.581216 0.325269 0.913099
Si Si3 0.405510 0.171327 0.887776
Si Si4 0.282147 0.800468 0.136089
Si Si5 0.430358 0.669473 0.532585
Si Si6 0.831047 0.663414 0.671490
Si Si7 0.905492 0.892922 0.688969
O O1 0.364144 0.854659 0.249380
O O2 0.542808 0.791378 0.441422
O O3 0.574853 0.880672 0.331390
O O4 0.494364 0.000000 0.392440
O O5 0.485880 0.266188 0.907176
O O6 0.638162 0.245399 0.885235
O O7 0.508645 0.397893 0.813866
O O8 0.683441 0.365640 0.030869
O O9 0.294340 0.211126 0.869089
O O10 0.358829 0.127953 0.776825
O O11 0.500000 0.113852 0.000000
O O12 0.500000 0.631441 0.500000
O O13 0.297186 0.641865 0.436162
O O14 0.459263 0.623521 0.635139
O O15 0.839383 0.788133 0.669817
O O16 0.837425 0.000000 0.648999
#
# Coordination Sequence:
#
# PCOD9170718 Si02
#       7
#     8   8   8   8   8   8   8
#     4  11  22  38  58  83 115 152 192 234 289 342
#     4   9  18  33  56  86 113 152 195 228 282 337
#     4   9  17  32  59  87 110 150 191 231 283 338
#     4  10  17  33  59  84 116 154 189 233 281 340
#     4  11  23  39  58  82 113 146 193 239 286 342
#     4  10  21  38  58  82 111 150 189 235 287 337
#     4  10  20  37  58  81 111 149 190 232 285 336
#
# _framework density 21.933029999999999
#
# number of rings (size 3 to 8) (size 9 to 14) (size 15 to 20)
#    0.000    2.000    4.286    2.571    0.000    3.429 
#    0.000    5.714    0.000   12.000    0.000    0.000 
#    0.000    0.000    0.000    0.000    0.000    0.000 
#
# Total GULP energy -156102.320126 kJ/mol
# GULP energy per Si atom -5575.082862 kJ/mol
# Density = 2.188311 g / cm^3
# Si number density = 21.933030 Si / 1000 Ang^3
#
#
#
# Elastic Constant Matrix: (Units=GPa)
#
#
# Indices 1 2 3 4 5 6 
#
# 1 76.3952 -4.7859 27.3250 0.0000 -6.2310 0.0000
# 2 -4.7859 81.6009 5.0631 0.0000 3.0445 0.0000
# 3 27.3250 5.0631 103.4925 0.0000 -3.3879 0.0000
# 4 0.0000 0.0000 0.0000 61.3428 0.0000 -71.3514
# 5 -6.2310 3.0445 -3.3879 0.0000 41.9763 0.0000
# 6 0.0000 0.0000 0.0000 -71.3514 0.0000 86.7213
#
#
#
# Elastic Compliance Matrix: (Units=1/GPa)
#
#
# Indices 1 2 3 4 5 6 
#
# 1 0.014685 0.001034 -0.003869 0.000000 0.001793 0.000000
# 2 0.001034 0.012402 -0.000907 0.000000 -0.000819 0.000000
# 3 -0.003869 -0.000907 0.010740 0.000000 0.000358 0.000000
# 4 0.000000 0.000000 0.000000 0.379190 0.000000 0.311985
# 5 0.001793 -0.000819 0.000358 0.000000 0.024177 0.000000
# 6 0.000000 0.000000 0.000000 0.311985 0.000000 0.268222
#
#
# Mechanical properties :
#
#
# Convention : Reuss Voigt Hill
#
# Bulk Modulus (GPa) = 32.95495 35.18812 34.07154
# Shear Modulus (GPa) = 6.87745 53.60052 30.23898
#
# Velocity S-wave (km/s) = 1.77270 4.94887 3.71711
# Velocity P-wave (km/s) = 4.38724 6.98093 5.83015
#
# Compressibility (1/GPa) = 0.03034446
#
# Stress axis : x y z
#
# Youngs Moduli (GPa) = 68.09788 80.63047 93.10830
#
# Poissons Ratio (x) = -0.08341 0.36025
# Poissons Ratio (y) = -0.07044 0.08442
# Poissons Ratio (z) = 0.26348 0.07311
#
# Static dielectric constant tensor:
#      x y z
#    x 1.764520 0.000000 -0.015080 
#    y 0.000000 1.843030 0.000000 
#    z -0.015080 0.000000 1.837170 
# 
# From -- ./inp_files/270391.got.cif
#   From: 2010.05.17/outbox.cif.g08.bks.cpg/sg12_136_cif.got.tgz:270391.got - 2010.06.03 13:09:07.
