data_PCOD9170308
_publ_section_title
;
Structure prediction by ZEFSAII (Michael W. Deem and Ramdas Pophale) SiO2 
 PCOD9170308
Probable space group: C 2/M
;
_chemical_formula_sum "Si O2"
_cell_formula_units_Z 48
_cell_length_a 21.952097
_cell_length_b 13.963761
_cell_length_c 9.364245
_cell_angle_alpha 90.000000
_cell_angle_beta 65.401718
_cell_angle_gamma 90.000000
_cell_volume 2609.959837
_symmetry_space_group_name_H-M "C 2/M"
_symmetry_group_IT_number 12
_symmetry_cell_setting 'monoclinic'
loop_
_space_group_symop_operation_xyz
x,y,z
-x,y,-z
-x,-y,-z
x,-y,z
1/2+x,1/2+y,z
1/2-x,1/2+y,-z
1/2-x,1/2-y,-z
1/2+x,1/2-y,z
loop_
_atom_site_type_symbol
_atom_site_label
_atom_site_fract_x
_atom_site_fract_y
_atom_site_fract_z
Si Si1 0.663857 0.500000 0.719496
Si Si2 0.074731 0.798344 0.096459
Si Si3 0.145277 0.000000 0.051388
Si Si4 0.584055 0.302260 0.763029
Si Si5 0.283192 0.000000 0.044894
Si Si6 0.693243 0.723191 0.439944
Si Si7 0.689232 0.805369 0.137514
Si Si8 0.228643 0.000000 0.376118
O O1 0.685103 0.500000 0.862571
O O2 0.616171 0.408731 0.739647
O O3 0.726377 0.500000 0.551534
O O4 0.117613 0.738650 0.166088
O O5 0.994962 0.798473 0.187275
O O6 0.093837 0.765353 0.916136
O O7 0.100034 0.906635 0.093587
O O8 0.201460 0.000000 0.116846
O O9 0.624946 0.257022 0.593302
O O10 0.308185 0.908932 0.935256
O O11 0.292217 0.000000 0.207589
O O12 0.750000 0.750000 0.500000
O O13 0.700610 0.789006 0.293735
O O14 0.697975 0.609883 0.387394
O O15 0.750000 0.750000 0.000000
#
# Coordination Sequence:
#
# PCOD9170308 Si02
#       8
#     4   8   4   8   4   8   8   4
#     4   8  17  30  52  86 120 147 178 227 290 352
#     4  10  19  35  58  84 120 154 193 228 289 353
#     4  10  17  30  56  86 117 152 185 223 283 358
#     4   9  19  34  56  86 117 155 187 236 286 351
#     4  12  24  37  57  84 117 153 195 246 292 339
#     4  11  23  37  60  88 121 153 197 242 293 346
#     4  12  23  38  58  83 114 155 196 242 291 340
#     4  10  20  35  55  84 119 149 187 239 290 344
#
# _framework density 18.391089000000001
#
# number of rings (size 3 to 8) (size 9 to 14) (size 15 to 20)
#    0.000    1.667    3.333    1.500    4.667    2.667 
#    0.000    0.000    0.000   11.000    0.000    0.000 
#    0.000    0.000    0.000    0.000    0.000    0.000 
#
# Total GULP energy -133645.992234 kJ/mol
# GULP energy per Si atom -5568.583010 kJ/mol
# Density = 1.834923 g / cm^3
# Si number density = 18.391089 Si / 1000 Ang^3
#
#
#
# Elastic Constant Matrix: (Units=GPa)
#
#
# Indices 1 2 3 4 5 6 
#
# 1 70.1345 9.4578 32.2541 0.0000 13.2330 0.0000
# 2 9.4578 74.7110 35.0018 0.0000 1.4942 0.0000
# 3 32.2541 35.0018 143.1863 0.0000 1.3021 0.0000
# 4 0.0000 0.0000 0.0000 20.5996 0.0000 4.8042
# 5 13.2330 1.4942 1.3021 0.0000 21.4255 0.0000
# 6 0.0000 0.0000 0.0000 4.8042 0.0000 11.4146
#
#
#
# Elastic Compliance Matrix: (Units=1/GPa)
#
#
# Indices 1 2 3 4 5 6 
#
# 1 0.018169 -0.000237 -0.003935 0.000000 -0.010966 0.000000
# 2 -0.000237 0.015134 -0.003640 0.000000 -0.000688 0.000000
# 3 -0.003935 -0.003640 0.008740 0.000000 0.002153 0.000000
# 4 0.000000 0.000000 0.000000 0.053828 0.000000 -0.022655
# 5 -0.010966 -0.000688 0.002153 0.000000 0.053363 0.000000
# 6 0.000000 0.000000 0.000000 -0.022655 0.000000 0.097143
#
#
# Mechanical properties :
#
#
# Convention : Reuss Voigt Hill
#
# Bulk Modulus (GPa) = 37.85096 49.05103 43.45100
# Shear Modulus (GPa) = 18.46325 24.77582 21.61953
#
# Velocity S-wave (km/s) = 3.17191 3.67436 3.43234
# Velocity P-wave (km/s) = 5.83443 6.68806 6.27577
#
# Compressibility (1/GPa) = 0.02641941
#
# Stress axis : x y z
#
# Youngs Moduli (GPa) = 55.03856 66.07667 114.41013
#
# Poissons Ratio (x) = 0.01567 0.45021
# Poissons Ratio (y) = 0.01305 0.41643
# Poissons Ratio (z) = 0.21658 0.24051
#
# Static dielectric constant tensor:
#      x y z
#    x 1.607640 0.000000 0.022370 
#    y 0.000000 1.649510 0.000000 
#    z 0.022370 0.000000 1.678310 
# 
# From -- ./inp_files/85745.got.cif
#   From: 2010.05.17/outbox.cif.g08.bks.cpg/sg12_43_cif.got.tgz:85745.got - 2010.06.03 13:09:07.
