data_PCOD9170241
_publ_section_title
;
Structure prediction by ZEFSAII (Michael W. Deem and Ramdas Pophale) SiO2 
 PCOD9170241
Probable space group: C 2/M
;
_chemical_formula_sum "Si O2"
_cell_formula_units_Z 52
_cell_length_a 8.828181
_cell_length_b 28.530890
_cell_length_c 11.269602
_cell_angle_alpha 90.000000
_cell_angle_beta 81.206291
_cell_angle_gamma 90.000000
_cell_volume 2805.174152
_symmetry_space_group_name_H-M "C 2/M"
_symmetry_group_IT_number 12
_symmetry_cell_setting 'monoclinic'
loop_
_space_group_symop_operation_xyz
x,y,z
-x,y,-z
-x,-y,-z
x,-y,z
1/2+x,1/2+y,z
1/2-x,1/2+y,-z
1/2-x,1/2-y,-z
1/2+x,1/2-y,z
loop_
_atom_site_type_symbol
_atom_site_label
_atom_site_fract_x
_atom_site_fract_y
_atom_site_fract_z
Si Si1 0.183335 0.200020 0.468748
Si Si2 0.209667 0.053399 0.247276
Si Si3 0.274859 0.051800 0.960214
Si Si4 0.863439 0.946149 0.266956
Si Si5 0.628432 0.150666 0.746197
Si Si6 0.129609 0.371872 0.393564
Si Si7 0.000000 0.630074 0.000000
O O1 0.250000 0.250000 0.500000
O O2 0.248341 0.184189 0.331983
O O3 0.258801 0.162652 0.549092
O O4 0.000000 0.199739 0.500000
O O5 0.313768 0.096577 0.275800
O O6 0.032319 0.064791 0.294876
O O7 0.246062 0.000000 0.283868
O O8 0.220948 0.052258 0.102368
O O9 0.146136 0.057194 0.875471
O O10 0.346488 0.000000 0.929953
O O11 0.393385 0.094312 0.938058
O O12 0.732084 0.913031 0.330478
O O13 0.832261 0.000000 0.301487
O O14 0.468396 0.154911 0.695076
O O15 0.597527 0.157600 0.890008
O O16 0.000000 0.389392 0.500000
#
# Coordination Sequence:
#
# PCOD9170241 Si02
#       7
#     8   8   8   8   8   8   4
#     4  11  23  43  69  88 105 137 184 233 279 340
#     4   9  18  30  48  77 114 155 194 232 272 323
#     4   9  16  26  45  73 110 155 199 229 267 320
#     4  10  18  30  47  73 112 155 196 235 274 320
#     4  10  20  35  57  88 116 150 189 229 282 329
#     4  10  21  36  55  80 110 143 189 233 275 332
#     4  10  17  30  52  84 120 152 180 238 277 328
#
# _framework density 18.537174
#
# number of rings (size 3 to 8) (size 9 to 14) (size 15 to 20)
#    0.000    2.154    1.538    3.000    0.000    3.385 
#    0.000    2.308    0.000   12.000    0.000    0.000 
#    0.000    0.000    0.000    0.000    0.000    0.000 
#
# Total GULP energy -144952.194370 kJ/mol
# GULP energy per Si atom -5575.084399 kJ/mol
# Density = 1.849498 g / cm^3
# Si number density = 18.537174 Si / 1000 Ang^3
#
#
#
# Elastic Constant Matrix: (Units=GPa)
#
#
# Indices 1 2 3 4 5 6 
#
# 1 106.4896 37.8406 34.6463 0.0000 -13.0904 0.0000
# 2 37.8406 54.6404 41.7480 0.0000 -15.2390 0.0000
# 3 34.6463 41.7480 82.4975 0.0000 -14.3380 0.0000
# 4 0.0000 0.0000 0.0000 15.6091 0.0000 2.2488
# 5 -13.0904 -15.2390 -14.3380 0.0000 28.7330 0.0000
# 6 0.0000 0.0000 0.0000 2.2488 0.0000 27.8413
#
#
#
# Elastic Compliance Matrix: (Units=1/GPa)
#
#
# Indices 1 2 3 4 5 6 
#
# 1 0.012590 -0.007354 -0.001365 0.000000 0.001154 0.000000
# 2 -0.007354 0.036465 -0.013781 0.000000 0.009113 0.000000
# 3 -0.001365 -0.013781 0.020027 0.000000 0.002063 0.000000
# 4 0.000000 0.000000 0.000000 0.064820 0.000000 -0.005236
# 5 0.001154 0.009113 0.002063 0.000000 0.041192 0.000000
# 6 0.000000 0.000000 0.000000 -0.005236 0.000000 0.036341
#
#
# Mechanical properties :
#
#
# Convention : Reuss Voigt Hill
#
# Bulk Modulus (GPa) = 41.52483 52.45526 46.99004
# Shear Modulus (GPa) = 18.90626 23.06284 20.98455
#
# Velocity S-wave (km/s) = 3.19707 3.53106 3.36821
# Velocity P-wave (km/s) = 6.00648 6.70696 6.36636
#
# Compressibility (1/GPa) = 0.02408198
#
# Stress axis : x y z
#
# Youngs Moduli (GPa) = 79.42909 27.42322 49.93151
#
# Poissons Ratio (x) = 0.20167 0.06817
# Poissons Ratio (y) = 0.58412 0.68811
# Poissons Ratio (z) = 0.10844 0.37792
#
# Static dielectric constant tensor:
#      x y z
#    x 1.661580 0.000000 -0.005710 
#    y 0.000000 1.630340 0.000000 
#    z -0.005710 0.000000 1.685210 
# 
# From -- ./inp_files/123583.got.cif
#   From: 2010.05.17/outbox.cif.g08.bks.cpg/sg12_62_cif.got.tgz:123583.got - 2010.06.03 13:09:07.
