data_PCOD9170298
_publ_section_title
;
Structure prediction by ZEFSAII (Michael W. Deem and Ramdas Pophale) SiO2 
 PCOD9170298
Probable space group: C 2/M
;
_chemical_formula_sum "Si O2"
_cell_formula_units_Z 52
_cell_length_a 11.764895
_cell_length_b 20.571313
_cell_length_c 15.150791
_cell_angle_alpha 90.000000
_cell_angle_beta 48.566986
_cell_angle_gamma 90.000000
_cell_volume 2749.097884
_symmetry_space_group_name_H-M "C 2/M"
_symmetry_group_IT_number 12
_symmetry_cell_setting 'monoclinic'
loop_
_space_group_symop_operation_xyz
x,y,z
-x,y,-z
-x,-y,-z
x,-y,z
1/2+x,1/2+y,z
1/2-x,1/2+y,-z
1/2-x,1/2-y,-z
1/2+x,1/2-y,z
loop_
_atom_site_type_symbol
_atom_site_label
_atom_site_fract_x
_atom_site_fract_y
_atom_site_fract_z
Si Si1 0.377872 0.924910 0.143395
Si Si2 0.952097 0.159458 0.204776
Si Si3 0.193123 0.201638 0.209033
Si Si4 0.628417 0.428934 0.009026
Si Si5 0.067627 0.577669 0.226484
Si Si6 0.000000 0.761288 0.000000
Si Si7 0.887098 0.327640 0.639197
O O1 0.247884 0.869992 0.209992
O O2 0.459513 0.918205 0.196992
O O3 0.326528 0.000000 0.161072
O O4 0.500000 0.914480 0.000000
O O5 0.979676 0.196837 0.098356
O O6 0.776679 0.143838 0.305838
O O7 0.036239 0.198704 0.236811
O O8 0.054486 0.096681 0.135094
O O9 0.161803 0.256886 0.297933
O O10 0.340650 0.223410 0.075958
O O11 0.690076 0.500000 0.996654
O O12 0.771490 0.394304 0.892793
O O13 0.500000 0.432246 0.000000
O O14 0.076809 0.500000 0.247560
O O15 0.040380 0.624700 0.323815
O O16 0.000000 0.321357 0.500000
#
# Coordination Sequence:
#
# PCOD9170298 Si02
#       7
#     8   8   8   8   8   4   8
#     4  10  21  38  62  95 130 161 191 232 300 382
#     4  11  21  36  55  86 119 157 197 248 306 362
#     4  11  23  36  59  88 124 156 198 248 303 368
#     4  10  17  30  55  88 122 149 181 238 311 376
#     4  10  21  39  63  90 126 164 198 245 303 369
#     4  10  20  34  54  88 120 152 186 238 308 372
#     4  11  26  43  60  85 116 164 219 265 300 342
#
# _framework density 18.915295
#
# number of rings (size 3 to 8) (size 9 to 14) (size 15 to 20)
#    0.000    1.538    3.077    2.308    4.308    2.769 
#    0.000    0.000    0.000    0.462    0.000    0.000 
#    0.000    0.000    0.000    0.000    0.000    0.000 
#
# Total GULP energy -144822.090173 kJ/mol
# GULP energy per Si atom -5570.080391 kJ/mol
# Density = 1.887224 g / cm^3
# Si number density = 18.915295 Si / 1000 Ang^3
#
#
#
# Elastic Constant Matrix: (Units=GPa)
#
#
# Indices 1 2 3 4 5 6 
#
# 1 73.6219 24.4441 25.0343 0.0000 9.2305 0.0000
# 2 24.4441 96.4474 42.9024 0.0000 9.6257 0.0000
# 3 25.0343 42.9024 115.2825 0.0000 2.5294 0.0000
# 4 0.0000 0.0000 0.0000 16.7563 0.0000 0.4279
# 5 9.2305 9.6257 2.5294 0.0000 8.9150 0.0000
# 6 0.0000 0.0000 0.0000 0.4279 0.0000 -0.3479
#
#
#
# Elastic Compliance Matrix: (Units=1/GPa)
#
#
# Indices 1 2 3 4 5 6 
#
# 1 0.016929 -0.001557 -0.002766 0.000000 -0.015062 -0.000003
# 2 -0.001557 0.014038 -0.004618 0.000000 -0.012235 -0.000001
# 3 -0.002766 -0.004618 0.010889 0.000000 0.004761 -0.000001
# 4 0.000000 0.000000 0.000000 0.057861 0.000000 0.071180
# 5 -0.015062 -0.012235 0.004761 0.000000 0.139626 0.000016
# 6 -0.000003 -0.000001 -0.000001 0.071180 0.000016 -2.787073
#
#
# Mechanical properties :
#
#
# Convention : Reuss Voigt Hill
#
# Bulk Modulus (GPa) = 41.71124 52.23481 46.97302
# Shear Modulus (GPa) = -1.98267 17.92942 7.97338
#
# Velocity S-wave (km/s) = -1.02492 3.08210 2.05535
# Velocity P-wave (km/s) = 4.54960 6.35145 5.52448
#
# Compressibility (1/GPa) = 0.02397435
#
# Stress axis : x y z
#
# Youngs Moduli (GPa) = 59.07052 71.23469 91.83459
#
# Poissons Ratio (x) = 0.11089 0.25405
# Poissons Ratio (y) = 0.09196 0.42407
# Poissons Ratio (z) = 0.16341 0.32895
#
# Static dielectric constant tensor:
#      x y z
#    x 1.709130 0.000000 0.022620 
#    y 0.000000 1.806030 0.000000 
#    z 0.022620 0.000000 1.647040 
# 
# From -- ./inp_files/207584.got.cif
#   From: 2010.05.17/outbox.cif.g08.bks.cpg/sg12_104_cif.got.tgz:207584.got - 2010.06.03 13:09:07.
