data_PCOD9170103
_publ_section_title
;
Structure prediction by ZEFSAII (Michael W. Deem and Ramdas Pophale) SiO2 
 PCOD9170103
Probable space group: C 2/M
;
_chemical_formula_sum "Si O2"
_cell_formula_units_Z 36
_cell_length_a 16.118235
_cell_length_b 9.773491
_cell_length_c 13.082938
_cell_angle_alpha 90.000000
_cell_angle_beta 116.509771
_cell_angle_gamma 90.000000
_cell_volume 1844.279476
_symmetry_space_group_name_H-M "C 2/M"
_symmetry_group_IT_number 12
_symmetry_cell_setting 'monoclinic'
loop_
_space_group_symop_operation_xyz
x,y,z
-x,y,-z
-x,-y,-z
x,-y,z
1/2+x,1/2+y,z
1/2-x,1/2+y,-z
1/2-x,1/2-y,-z
1/2+x,1/2-y,z
loop_
_atom_site_type_symbol
_atom_site_label
_atom_site_fract_x
_atom_site_fract_y
_atom_site_fract_z
Si Si1 0.387014 0.500000 0.931695
Si Si2 0.786642 0.500000 0.028192
Si Si3 0.492267 0.000000 0.616482
Si Si4 0.651920 0.000000 0.301349
Si Si5 0.901968 0.736687 0.203903
Si Si6 0.702994 0.500000 0.772412
Si Si7 0.054974 0.745518 0.131433
O O1 0.319610 0.500000 0.990793
O O2 0.372151 0.360690 0.861896
O O3 0.500000 0.500000 0.000000
O O4 0.835581 0.635044 0.101421
O O5 0.784184 0.500000 0.904356
O O6 0.500000 0.000000 0.500000
O O7 0.387536 0.000000 0.605344
O O8 0.544343 0.133081 0.691131
O O9 0.757142 0.000000 0.320568
O O10 0.605704 0.128806 0.220474
O O11 0.975651 0.799117 0.164370
O O12 0.851885 0.860374 0.233694
O O13 0.000000 0.696544 0.000000
#
# Coordination Sequence:
#
# PCOD9170103 Si02
#       7
#     4   4   4   4   8   4   8
#     4  10  19  29  44  67 105 151 175 188 230 293
#     4  11  20  32  48  76 117 154 167 189 245 313
#     4   9  21  44  60  68  93 136 180 219 265 324
#     4  10  20  30  52  75  95 128 166 209 263 299
#     4  10  21  33  54  79 103 141 177 206 256 302
#     4  12  19  31  49  84 116 129 162 219 250 297
#     4  10  17  30  45  70 103 138 172 201 234 298
#
# _framework density 19.519817
#
# number of rings (size 3 to 8) (size 9 to 14) (size 15 to 20)
#    0.000    1.778    0.000    7.667    0.000    0.000 
#    0.000    1.667    0.000    0.000    0.000    0.000 
#    0.000    0.000    0.000    0.000    0.000    0.000 
#
# Total GULP energy -100434.199344 kJ/mol
# GULP energy per Si atom -5579.677741 kJ/mol
# Density = 1.947539 g / cm^3
# Si number density = 19.519817 Si / 1000 Ang^3
#
#
#
# Elastic Constant Matrix: (Units=GPa)
#
#
# Indices 1 2 3 4 5 6 
#
# 1 98.0746 16.1783 23.9088 0.0000 -34.3829 0.0000
# 2 16.1783 75.8173 0.6115 0.0000 -8.8755 0.0000
# 3 23.9088 0.6115 70.1034 0.0000 -30.7179 0.0000
# 4 0.0000 0.0000 0.0000 10.3145 0.0000 -8.8415
# 5 -34.3829 -8.8755 -30.7179 0.0000 31.2041 0.0000
# 6 0.0000 0.0000 0.0000 -8.8415 0.0000 20.0825
#
#
#
# Elastic Compliance Matrix: (Units=1/GPa)
#
#
# Indices 1 2 3 4 5 6 
#
# 1 0.017408 -0.001063 0.004123 0.000000 0.022938 0.000000
# 2 -0.001063 0.014024 0.002594 0.000000 0.005371 0.000000
# 3 0.004123 0.002594 0.026642 0.000000 0.031508 0.000000
# 4 0.000000 0.000000 0.000000 0.155715 0.000000 0.068555
# 5 0.022938 0.005371 0.031508 0.000000 0.089867 0.000000
# 6 0.000000 0.000000 0.000000 0.068555 0.000000 0.079976
#
#
# Mechanical properties :
#
#
# Convention : Reuss Voigt Hill
#
# Bulk Modulus (GPa) = 14.41277 36.15470 25.28374
# Shear Modulus (GPa) = 12.64378 25.87333 19.25855
#
# Velocity S-wave (km/s) = 2.54784 3.64468 3.14445
# Velocity P-wave (km/s) = 4.00687 6.02278 5.11512
#
# Compressibility (1/GPa) = 0.06938290
#
# Stress axis : x y z
#
# Youngs Moduli (GPa) = 57.44449 71.30515 37.53498
#
# Poissons Ratio (x) = 0.07577 -0.15477
# Poissons Ratio (y) = 0.06104 -0.09735
# Poissons Ratio (z) = -0.23686 -0.18494
#
# Static dielectric constant tensor:
#      x y z
#    x 1.757090 0.000000 0.000590 
#    y 0.000000 1.759860 0.000000 
#    z 0.000590 0.000000 1.659990 
# 
# From -- ./inp_files/140618.got.cif
#   From: 2010.05.17/outbox.cif.g08.bks.cpg/sg12_71_cif.got.tgz:140618.got - 2010.06.03 13:09:07.
