data_PCOD9170799
_publ_section_title
;
Structure prediction by ZEFSAII (Michael W. Deem and Ramdas Pophale) SiO2 
 PCOD9170799
Probable space group: C 2/M
;
_chemical_formula_sum "Si O2"
_cell_formula_units_Z 44
_cell_length_a 7.164198
_cell_length_b 27.489475
_cell_length_c 9.282910
_cell_angle_alpha 90.000000
_cell_angle_beta 79.113032
_cell_angle_gamma 90.000000
_cell_volume 1795.272606
_symmetry_space_group_name_H-M "C 2/M"
_symmetry_group_IT_number 12
_symmetry_cell_setting 'monoclinic'
loop_
_space_group_symop_operation_xyz
x,y,z
-x,y,-z
-x,-y,-z
x,-y,z
1/2+x,1/2+y,z
1/2-x,1/2+y,-z
1/2-x,1/2-y,-z
1/2+x,1/2-y,z
loop_
_atom_site_type_symbol
_atom_site_label
_atom_site_fract_x
_atom_site_fract_y
_atom_site_fract_z
Si Si1 0.751316 0.212556 0.854537
Si Si2 0.760298 0.000000 0.370191
Si Si3 0.009549 0.420939 0.729864
Si Si4 0.500000 0.162747 0.500000
Si Si5 0.286819 0.372905 0.050457
Si Si6 0.860944 0.797200 0.300591
Si Si7 0.810503 0.000000 0.706016
O O1 0.618777 0.243344 0.771562
O O2 0.915830 0.196547 0.713530
O O3 0.750000 0.250000 0.000000
O O4 0.716086 0.161223 0.932131
O O5 0.630174 0.045458 0.347018
O O6 0.799925 0.000000 0.533510
O O7 0.972600 0.000000 0.272799
O O8 0.048996 0.373252 0.627126
O O9 0.872139 0.409679 0.881679
O O10 0.191363 0.451252 0.756434
O O11 0.313003 0.194440 0.566830
O O12 0.313504 0.335235 0.179942
O O13 0.500000 0.392877 0.000000
#
# Coordination Sequence:
#
# PCOD9170799 Si02
#       7
#     8   4   8   4   8   8   4
#     4   9  16  32  52  73  99 148 193 222 271 331
#     4  10  19  33  58  84 110 146 182 221 280 361
#     4  10  17  34  59  78 112 149 180 228 289 331
#     4  10  18  31  52  80 108 144 190 227 280 330
#     4   8  16  30  54  75 100 146 190 219 268 340
#     4   9  18  29  54  72 106 144 184 237 270 332
#     4  10  19  33  58  84 110 144 182 221 280 362
#
# _framework density 24.508811999999999
#
# number of rings (size 3 to 8) (size 9 to 14) (size 15 to 20)
#    0.000    2.727    1.818    2.182    0.000    0.727 
#    0.000    1.818   60.000    1.091    0.000    0.000 
#    0.000    0.000    0.000    0.000    0.000    0.000 
#
# Total GULP energy -122547.793756 kJ/mol
# GULP energy per Si atom -5570.354262 kJ/mol
# Density = 2.445303 g / cm^3
# Si number density = 24.508812 Si / 1000 Ang^3
#
#
#
# Elastic Constant Matrix: (Units=GPa)
#
#
# Indices 1 2 3 4 5 6 
#
# 1 97.0608 25.4232 44.9242 0.0000 -32.6649 0.0000
# 2 25.4232 64.2103 28.3778 0.0000 -17.8059 0.0000
# 3 44.9242 28.3778 108.8834 0.0000 -42.9641 0.0000
# 4 0.0000 0.0000 0.0000 46.9399 0.0000 -1.5536
# 5 -32.6649 -17.8059 -42.9641 0.0000 51.7005 0.0000
# 6 0.0000 0.0000 0.0000 -1.5536 0.0000 42.6370
#
#
#
# Elastic Compliance Matrix: (Units=1/GPa)
#
#
# Indices 1 2 3 4 5 6 
#
# 1 0.014291 -0.002797 -0.002953 0.000000 0.005612 0.000000
# 2 -0.002797 0.018547 -0.002762 0.000000 0.002325 0.000000
# 3 -0.002953 -0.002762 0.014895 0.000000 0.009561 0.000000
# 4 0.000000 0.000000 0.000000 0.021330 0.000000 0.000777
# 5 0.005612 0.002325 0.009561 0.000000 0.031634 0.000000
# 6 0.000000 0.000000 0.000000 0.000777 0.000000 0.023482
#
#
# Mechanical properties :
#
#
# Convention : Reuss Voigt Hill
#
# Bulk Modulus (GPa) = 32.56467 51.95608 42.26038
# Shear Modulus (GPa) = 33.01662 39.68412 36.35037
#
# Velocity S-wave (km/s) = 3.67431 4.02827 3.85535
# Velocity P-wave (km/s) = 5.59612 6.54835 6.09087
#
# Compressibility (1/GPa) = 0.03070812
#
# Stress axis : x y z
#
# Youngs Moduli (GPa) = 69.97518 53.91766 67.13615
#
# Poissons Ratio (x) = 0.15081 0.19825
# Poissons Ratio (y) = 0.19572 0.18546
# Poissons Ratio (z) = 0.20663 0.14894
#
# Static dielectric constant tensor:
#      x y z
#    x 2.069790 0.000000 -0.046700 
#    y 0.000000 2.000200 0.000000 
#    z -0.046700 0.000000 2.051890 
# 
# From -- ./inp_files/124753.got.cif
#   From: 2010.05.17/outbox.cif.g08.bks.cpg/sg12_63_cif.got.tgz:124753.got - 2010.06.03 13:09:07.
