data_PCOD9170411
_publ_section_title
;
Structure prediction by ZEFSAII (Michael W. Deem and Ramdas Pophale) SiO2 
 PCOD9170411
Probable space group: C 2/M
;
_chemical_formula_sum "Si O2"
_cell_formula_units_Z 44
_cell_length_a 13.439469
_cell_length_b 20.017154
_cell_length_c 9.504098
_cell_angle_alpha 90.000000
_cell_angle_beta 76.337918
_cell_angle_gamma 90.000000
_cell_volume 2484.448919
_symmetry_space_group_name_H-M "C 2/M"
_symmetry_group_IT_number 12
_symmetry_cell_setting 'monoclinic'
loop_
_space_group_symop_operation_xyz
x,y,z
-x,y,-z
-x,-y,-z
x,-y,z
1/2+x,1/2+y,z
1/2-x,1/2+y,-z
1/2-x,1/2-y,-z
1/2+x,1/2-y,z
loop_
_atom_site_type_symbol
_atom_site_label
_atom_site_fract_x
_atom_site_fract_y
_atom_site_fract_z
Si Si1 0.081207 0.752121 0.158522
Si Si2 0.118559 0.632690 0.939015
Si Si3 0.619371 0.803162 0.652733
Si Si4 0.225698 0.923926 0.891322
Si Si5 0.000000 0.130221 0.000000
Si Si6 0.780499 0.302576 0.672538
O O1 0.173036 0.753685 0.237869
O O2 0.998246 0.710969 0.275287
O O3 0.032050 0.819442 0.116227
O O4 0.114009 0.706547 0.014408
O O5 0.145180 0.643649 0.766701
O O6 0.205522 0.592196 0.993190
O O7 0.000000 0.607487 0.000000
O O8 0.677097 0.732499 0.655885
O O9 0.650329 0.820690 0.484686
O O10 0.262025 0.868481 0.768470
O O11 0.244588 0.000000 0.842829
O O12 0.103621 0.911768 0.946138
#
# Coordination Sequence:
#
# PCOD9170411 Si02
#       6
#     8   8   8   8   4   8
#     4  10  17  31  54  83 109 130 171 235 281 314
#     4   9  18  35  57  80 103 136 182 234 279 312
#     4  10  17  32  52  85 104 132 173 234 289 313
#     4  11  23  37  53  77 114 155 187 215 255 332
#     4  12  19  34  58  82 109 146 186 226 270 318
#     4  10  20  31  53  79 111 138 176 223 280 325
#
# _framework density 17.710163000000001
#
# number of rings (size 3 to 8) (size 9 to 14) (size 15 to 20)
#    0.000    1.818    4.545    1.909    0.000    3.273 
#    0.000    0.909    0.000   14.182    0.000    5.091 
#    0.000    0.000    0.000    0.000    0.000    0.000 
#
# Total GULP energy -122520.315715 kJ/mol
# GULP energy per Si atom -5569.105260 kJ/mol
# Density = 1.766985 g / cm^3
# Si number density = 17.710163 Si / 1000 Ang^3
#
#
#
# Elastic Constant Matrix: (Units=GPa)
#
#
# Indices 1 2 3 4 5 6 
#
# 1 75.4674 20.6661 28.3917 0.0000 5.9162 0.0000
# 2 20.6661 60.4771 15.6186 0.0000 9.0784 0.0000
# 3 28.3917 15.6186 96.6337 0.0000 1.2585 0.0000
# 4 0.0000 0.0000 0.0000 8.8979 0.0000 1.8257
# 5 5.9162 9.0784 1.2585 0.0000 19.9589 0.0000
# 6 0.0000 0.0000 0.0000 1.8257 0.0000 14.0480
#
#
#
# Elastic Compliance Matrix: (Units=1/GPa)
#
#
# Indices 1 2 3 4 5 6 
#
# 1 0.016089 -0.004055 -0.004037 0.000000 -0.002670 0.000000
# 2 -0.004055 0.019539 -0.001868 0.000000 -0.007568 0.000000
# 3 -0.004037 -0.001868 0.011819 0.000000 0.001301 0.000000
# 4 0.000000 0.000000 0.000000 0.115465 0.000000 -0.015006
# 5 -0.002670 -0.007568 0.001301 0.000000 0.054255 0.000000
# 6 0.000000 0.000000 0.000000 -0.015006 0.000000 0.073135
#
#
# Mechanical properties :
#
#
# Convention : Reuss Voigt Hill
#
# Bulk Modulus (GPa) = 36.32627 40.21455 38.27041
# Shear Modulus (GPa) = 15.65447 19.77443 17.71445
#
# Velocity S-wave (km/s) = 2.97631 3.34512 3.16609
# Velocity P-wave (km/s) = 5.68923 6.13809 5.91791
#
# Compressibility (1/GPa) = 0.02752829
#
# Stress axis : x y z
#
# Youngs Moduli (GPa) = 62.15369 51.17910 84.60614
#
# Poissons Ratio (x) = 0.20751 0.34156
# Poissons Ratio (y) = 0.25200 0.15807
# Poissons Ratio (z) = 0.25092 0.09562
#
# Static dielectric constant tensor:
#      x y z
#    x 1.664680 0.000000 0.018370 
#    y 0.000000 1.576060 0.000000 
#    z 0.018370 0.000000 1.623840 
# 
# From -- ./inp_files/62712.got.cif
#   From: 2010.05.17/outbox.cif.g08.bks.cpg/sg12_32_cif.got.tgz:62712.got - 2010.06.03 13:09:07.
