data_PCOD9170868
_publ_section_title
;
Structure prediction by ZEFSAII (Michael W. Deem and Ramdas Pophale) SiO2 
 PCOD9170868
Probable space group: C 2/M
;
_chemical_formula_sum "Si O2"
_cell_formula_units_Z 52
_cell_length_a 9.508557
_cell_length_b 21.223533
_cell_length_c 17.929714
_cell_angle_alpha 90.000000
_cell_angle_beta 141.349069
_cell_angle_gamma 90.000000
_cell_volume 2259.901947
_symmetry_space_group_name_H-M "C 2/M"
_symmetry_group_IT_number 12
_symmetry_cell_setting 'monoclinic'
loop_
_space_group_symop_operation_xyz
x,y,z
-x,y,-z
-x,-y,-z
x,-y,z
1/2+x,1/2+y,z
1/2-x,1/2+y,-z
1/2-x,1/2-y,-z
1/2+x,1/2-y,z
loop_
_atom_site_type_symbol
_atom_site_label
_atom_site_fract_x
_atom_site_fract_y
_atom_site_fract_z
Si Si1 0.565333 0.697892 0.441065
Si Si2 0.552675 0.875274 0.361787
Si Si3 0.632262 0.000000 0.772717
Si Si4 0.925533 0.865907 0.762422
Si Si5 0.617827 0.137415 0.969379
Si Si6 0.610999 0.000000 0.932164
Si Si7 0.429571 0.780001 0.767211
Si Si8 0.000741 0.000000 0.790981
O O1 0.500000 0.706065 0.500000
O O2 0.750000 0.750000 0.500000
O O3 0.322083 0.706272 0.304818
O O4 0.712329 0.634371 0.497664
O O5 0.522662 0.940192 0.306922
O O6 0.335980 0.868355 0.324068
O O7 0.534361 0.822718 0.290169
O O8 0.825292 0.000000 0.788872
O O9 0.718506 0.000000 0.893459
O O10 0.955599 0.792676 0.753735
O O11 0.968059 0.932465 0.737299
O O12 0.114122 0.872149 0.906056
O O13 0.510666 0.071019 0.895821
O O14 0.586357 0.193084 0.897256
O O15 0.500000 0.151719 0.000000
O O16 0.759247 0.000000 0.069042
#
# Coordination Sequence:
#
# PCOD9170868 Si02
#       8
#     8   8   4   8   8   4   8   4
#     4  10  21  39  62  89 120 160 204 250 305 368
#     4  10  21  38  63  93 116 157 207 248 309 351
#     4  10  17  35  61  87 124 152 198 261 287 364
#     4  10  21  37  59  84 121 154 200 251 290 361
#     4  11  24  37  56  86 123 166 202 242 303 367
#     4  10  18  38  55  81 121 167 201 238 301 364
#     4  11  22  38  58  88 123 157 197 251 308 360
#     4   8  19  33  55  87 108 159 207 238 294 348
#
# _framework density 23.009848000000002
#
# number of rings (size 3 to 8) (size 9 to 14) (size 15 to 20)
#    0.000    1.846    3.077    0.923    2.154    0.615 
#    0.000    4.231    0.000    0.000    0.000    9.692 
#    0.000    0.000    0.000    0.000    0.000    0.000 
#
# Total GULP energy -144843.195852 kJ/mol
# GULP energy per Si atom -5570.892148 kJ/mol
# Density = 2.295748 g / cm^3
# Si number density = 23.009848 Si / 1000 Ang^3
#
#
#
# Elastic Constant Matrix: (Units=GPa)
#
#
# Indices 1 2 3 4 5 6 
#
# 1 36.1389 3.5781 4.0595 -0.0002 10.6632 -0.0002
# 2 3.5781 198.8595 12.8022 -0.0002 -5.0070 -0.0001
# 3 4.0595 12.8022 53.6776 0.0008 19.3959 0.0002
# 4 -0.0002 -0.0002 0.0008 26.6964 0.0001 3.7682
# 5 10.6632 -5.0070 19.3959 0.0001 30.3021 -0.0001
# 6 -0.0002 -0.0001 0.0002 3.7682 -0.0001 23.8800
#
#
#
# Elastic Compliance Matrix: (Units=1/GPa)
#
#
# Indices 1 2 3 4 5 6 
#
# 1 0.031263 -0.001045 0.002501 0.000000 -0.012775 0.000000
# 2 -0.001045 0.005248 -0.002106 0.000000 0.002583 0.000000
# 3 0.002501 -0.002106 0.025220 -0.000001 -0.017371 0.000000
# 4 0.000000 0.000000 -0.000001 0.038312 0.000000 -0.006046
# 5 -0.012775 0.002583 -0.017371 0.000000 0.049042 0.000000
# 6 0.000000 0.000000 0.000000 -0.006046 0.000000 0.042830
#
#
# Mechanical properties :
#
#
# Convention : Reuss Voigt Hill
#
# Bulk Modulus (GPa) = 16.54796 36.61729 26.58263
# Shear Modulus (GPa) = 23.43480 34.05812 28.74646
#
# Velocity S-wave (km/s) = 3.19481 3.85145 3.53839
# Velocity P-wave (km/s) = 4.56249 5.97717 5.31709
#
# Compressibility (1/GPa) = 0.06043041
#
# Stress axis : x y z
#
# Youngs Moduli (GPa) = 31.98672 190.54524 39.65170
#
# Poissons Ratio (x) = 0.19916 -0.09917
# Poissons Ratio (y) = 0.03343 0.08351
# Poissons Ratio (z) = -0.08000 0.40128
#
# Static dielectric constant tensor:
#      x y z
#    x 1.861700 0.000000 0.012000 
#    y 0.000000 1.928610 0.000000 
#    z 0.012000 0.000000 1.952780 
# 
# From -- ./inp_files/207633.got.cif
#   From: 2010.05.17/outbox.cif.g08.bks.cpg/sg12_104_cif.got.tgz:207633.got - 2010.06.03 13:09:07.
