data_PCOD9170219
_publ_section_title
;
Structure prediction by ZEFSAII (Michael W. Deem and Ramdas Pophale) SiO2 
 PCOD9170219
Probable space group: C 2/M
;
_chemical_formula_sum "Si O2"
_cell_formula_units_Z 64
_cell_length_a 21.093941
_cell_length_b 7.410475
_cell_length_c 21.084098
_cell_angle_alpha 90.000000
_cell_angle_beta 106.664241
_cell_angle_gamma 90.000000
_cell_volume 3157.366947
_symmetry_space_group_name_H-M "C 2/M"
_symmetry_group_IT_number 12
_symmetry_cell_setting 'monoclinic'
loop_
_space_group_symop_operation_xyz
x,y,z
-x,y,-z
-x,-y,-z
x,-y,z
1/2+x,1/2+y,z
1/2-x,1/2+y,-z
1/2-x,1/2-y,-z
1/2+x,1/2-y,z
loop_
_atom_site_type_symbol
_atom_site_label
_atom_site_fract_x
_atom_site_fract_y
_atom_site_fract_z
Si Si1 0.041942 0.279449 0.360630
Si Si2 0.608370 0.779517 0.648468
Si Si3 0.945960 0.717826 0.776743
Si Si4 0.407705 0.780113 0.136194
Si Si5 0.844595 0.790593 0.859711
Si Si6 0.302411 0.779084 0.210441
Si Si7 0.069378 0.292105 0.996288
Si Si8 0.578184 0.211646 0.504675
O O1 0.042868 0.500000 0.362318
O O2 0.067009 0.222020 0.299028
O O3 0.081534 0.215058 0.434236
O O4 0.964645 0.228481 0.346875
O O5 0.664036 0.722068 0.713853
O O6 0.614563 0.715304 0.577478
O O7 0.608257 0.000000 0.646851
O O8 0.945808 0.500000 0.776969
O O9 0.893131 0.775941 0.813616
O O10 0.019862 0.774033 0.818042
O O11 0.350040 0.720362 0.166758
O O12 0.405085 0.000000 0.138073
O O13 0.402782 0.718436 0.061859
O O14 0.772392 0.717396 0.821823
O O15 0.879851 0.709371 0.931318
O O16 0.836200 0.000000 0.873267
O O17 0.301933 0.000000 0.211559
O O18 0.053144 0.500000 0.975700
O O19 0.000000 0.208853 0.000000
O O20 0.500000 0.221213 0.500000
O O21 0.595595 0.000000 0.505682
#
# Coordination Sequence:
#
# PCOD9170219 Si02
#       8
#     8   8   8   8   8   8   8   8
#     4   8  12  19  38  68  93 114 150 198 236 264
#     4   8  11  19  37  61  93 125 149 182 231 278
#     4  10  17  30  52  72  91 122 162 197 230 270
#     4   9  16  29  51  72  88 115 159 196 221 269
#     4  11  23  34  46  69 100 126 152 189 235 283
#     4   9  17  29  44  66  95 128 158 185 226 281
#     4  10  19  34  55  74  90 116 156 195 232 277
#     4   7  10  15  28  59  97 120 138 182 242 275
#
# _framework density 20.270053999999998
#
# number of rings (size 3 to 8) (size 9 to 14) (size 15 to 20)
#    0.000    3.000    2.500    1.875    0.000    0.750 
#    0.000    0.000    0.000    3.000    0.000    0.000 
#    0.000    5.500    0.000    0.000    0.000    0.125 
#
# Total GULP energy -178420.182102 kJ/mol
# GULP energy per Si atom -5575.630691 kJ/mol
# Density = 2.022392 g / cm^3
# Si number density = 20.270054 Si / 1000 Ang^3
#
#
#
# Elastic Constant Matrix: (Units=GPa)
#
#
# Indices 1 2 3 4 5 6 
#
# 1 107.4131 -5.2396 71.0225 0.0000 6.7383 0.0000
# 2 -5.2396 61.3067 -5.2199 0.0000 0.7014 0.0000
# 3 71.0225 -5.2199 203.9265 0.0000 -2.2040 0.0000
# 4 0.0000 0.0000 0.0000 -34.4427 0.0000 -7.5865
# 5 6.7383 0.7014 -2.2040 0.0000 23.6700 0.0000
# 6 0.0000 0.0000 0.0000 -7.5865 0.0000 -10.1812
#
#
#
# Elastic Compliance Matrix: (Units=1/GPa)
#
#
# Indices 1 2 3 4 5 6 
#
# 1 0.012487 0.000740 -0.004373 0.000000 -0.003984 0.000000
# 2 0.000740 0.016396 0.000154 0.000000 -0.000682 0.000000
# 3 -0.004373 0.000154 0.006451 0.000000 0.001841 0.000000
# 4 0.000000 0.000000 0.000000 -0.034735 0.000000 0.025882
# 5 -0.003984 -0.000682 0.001841 0.000000 0.043573 0.000000
# 6 0.000000 0.000000 0.000000 0.025882 0.000000 -0.117506
#
#
# Mechanical properties :
#
#
# Convention : Reuss Voigt Hill
#
# Bulk Modulus (GPa) = 35.23952 54.86358 45.05155
# Shear Modulus (GPa) = -87.84592 16.61476 -35.61558
#
# Velocity S-wave (km/s) = -6.59029 2.86609 -4.19627
# Velocity P-wave (km/s) = 6.36289 6.17072 1.09742
#
# Compressibility (1/GPa) = 0.02837723
#
# Stress axis : x y z
#
# Youngs Moduli (GPa) = 80.08010 60.99172 155.02311
#
# Poissons Ratio (x) = -0.04516 0.67795
# Poissons Ratio (y) = -0.05930 -0.02394
# Poissons Ratio (z) = 0.35021 -0.00942
#
# Static dielectric constant tensor:
#      x y z
#    x 1.667930 0.000000 -0.006150 
#    y 0.000000 1.778810 0.000000 
#    z -0.006150 0.000000 1.744210 
# 
# From -- ./inp_files/319227.got.cif
#   From: 2010.05.17/outbox.cif.g08.bks.cpg/sg12_160_cif.got.tgz:319227.got - 2010.06.03 13:09:07.
