data_PCOD9170723
_publ_section_title
;
Structure prediction by ZEFSAII (Michael W. Deem and Ramdas Pophale) SiO2 
 PCOD9170723
Probable space group: C 2/M
;
_chemical_formula_sum "Si O2"
_cell_formula_units_Z 40
_cell_length_a 12.012958
_cell_length_b 21.634058
_cell_length_c 8.893580
_cell_angle_alpha 90.000000
_cell_angle_beta 68.699879
_cell_angle_gamma 90.000000
_cell_volume 2153.457044
_symmetry_space_group_name_H-M "C 2/M"
_symmetry_group_IT_number 12
_symmetry_cell_setting 'monoclinic'
loop_
_space_group_symop_operation_xyz
x,y,z
-x,y,-z
-x,-y,-z
x,-y,z
1/2+x,1/2+y,z
1/2-x,1/2+y,-z
1/2-x,1/2-y,-z
1/2+x,1/2-y,z
loop_
_atom_site_type_symbol
_atom_site_label
_atom_site_fract_x
_atom_site_fract_y
_atom_site_fract_z
Si Si1 0.777797 0.000000 0.905821
Si Si2 0.870679 0.000000 0.187296
Si Si3 0.000000 0.392122 0.500000
Si Si4 0.452804 0.363092 0.187574
Si Si5 0.884846 0.894684 0.647551
Si Si6 0.740436 0.821569 0.464670
Si Si7 0.104863 0.500000 0.257800
O O1 0.808290 0.941976 0.785621
O O2 0.652357 0.000000 0.061100
O O3 0.866641 0.000000 0.006879
O O4 0.926711 0.063411 0.214263
O O5 0.729025 0.000000 0.293336
O O6 0.888650 0.349407 0.508658
O O7 0.964433 0.438868 0.654078
O O8 0.550498 0.348380 0.266653
O O9 0.327454 0.331548 0.280314
O O10 0.500000 0.350191 0.000000
O O11 0.801099 0.861082 0.568981
O O12 0.000000 0.922018 0.500000
O O13 0.750000 0.750000 0.500000
#
# Coordination Sequence:
#
# PCOD9170723 Si02
#       7
#     4   4   4   8   8   8   4
#     4  10  17  35  61  96 135 150 198 257 316 381
#     4  10  17  33  60 102 126 158 191 244 324 380
#     4  11  22  44  66  82 130 173 210 250 324 389
#     4  11  19  38  67  92 125 161 200 253 312 378
#     4  10  22  35  59  97 129 155 203 259 315 366
#     4  11  26  43  62  88 121 171 217 263 305 362
#     4   9  20  37  63  95 120 171 202 243 320 405
#
# _framework density 18.574786
#
# number of rings (size 3 to 8) (size 9 to 14) (size 15 to 20)
#    0.600    1.000    4.000    1.200    4.200    4.000 
#    0.000    5.000    0.000    0.000    0.000    0.000 
#    0.000    0.000    0.000    0.000    0.000    0.000 
#
# Total GULP energy -111465.917520 kJ/mol
# GULP energy per Si atom -5573.295876 kJ/mol
# Density = 1.853251 g / cm^3
# Si number density = 18.574786 Si / 1000 Ang^3
#
#
#
# Elastic Constant Matrix: (Units=GPa)
#
#
# Indices 1 2 3 4 5 6 
#
# 1 123.9310 50.4572 56.9342 0.0000 -12.7381 0.0000
# 2 50.4572 109.7173 58.1265 0.0000 -20.7871 0.0000
# 3 56.9342 58.1265 160.4866 0.0000 -18.1324 0.0000
# 4 0.0000 0.0000 0.0000 11.3343 0.0000 0.0917
# 5 -12.7381 -20.7871 -18.1324 0.0000 35.7946 0.0000
# 6 0.0000 0.0000 0.0000 0.0917 0.0000 10.5682
#
#
#
# Elastic Compliance Matrix: (Units=1/GPa)
#
#
# Indices 1 2 3 4 5 6 
#
# 1 0.010682 -0.003512 -0.002459 0.000000 0.000516 0.000000
# 2 -0.003512 0.013250 -0.002997 0.000000 0.004927 0.000000
# 3 -0.002459 -0.002997 0.008373 0.000000 0.001626 0.000000
# 4 0.000000 0.000000 0.000000 0.088234 0.000000 -0.000765
# 5 0.000516 0.004927 0.001626 0.000000 0.031806 0.000000
# 6 0.000000 0.000000 0.000000 -0.000765 0.000000 0.094630
#
#
# Mechanical properties :
#
#
# Convention : Reuss Voigt Hill
#
# Bulk Modulus (GPa) = 69.59198 80.57451 75.08324
# Shear Modulus (GPa) = 18.53917 26.78055 22.65986
#
# Velocity S-wave (km/s) = 3.16267 3.80118 3.49653
# Velocity P-wave (km/s) = 7.13329 7.92073 7.53730
#
# Compressibility (1/GPa) = 0.01436947
#
# Stress axis : x y z
#
# Youngs Moduli (GPa) = 93.61952 75.46960 119.43831
#
# Poissons Ratio (x) = 0.26502 0.29372
# Poissons Ratio (y) = 0.32876 0.35792
# Poissons Ratio (z) = 0.23023 0.22616
#
# Static dielectric constant tensor:
#      x y z
#    x 1.678440 0.000000 -0.021430 
#    y 0.000000 1.654460 0.000000 
#    z -0.021430 0.000000 1.675040 
# 
# From -- ./inp_files/50501.got.cif
#   From: 2010.05.17/outbox.cif.g08.bks.cpg/sg12_26_cif.got.tgz:50501.got - 2010.06.03 13:09:07.
