data_PCOD9170361
_publ_section_title
;
Structure prediction by ZEFSAII (Michael W. Deem and Ramdas Pophale) SiO2 
 PCOD9170361
Probable space group: C 2/M
;
_chemical_formula_sum "Si O2"
_cell_formula_units_Z 56
_cell_length_a 15.273152
_cell_length_b 13.814720
_cell_length_c 26.201901
_cell_angle_alpha 90.000000
_cell_angle_beta 28.037174
_cell_angle_gamma 90.000000
_cell_volume 2598.617619
_symmetry_space_group_name_H-M "C 2/M"
_symmetry_group_IT_number 12
_symmetry_cell_setting 'monoclinic'
loop_
_space_group_symop_operation_xyz
x,y,z
-x,y,-z
-x,-y,-z
x,-y,z
1/2+x,1/2+y,z
1/2-x,1/2+y,-z
1/2-x,1/2-y,-z
1/2+x,1/2-y,z
loop_
_atom_site_type_symbol
_atom_site_label
_atom_site_fract_x
_atom_site_fract_y
_atom_site_fract_z
Si Si1 0.803404 0.389227 0.751207
Si Si2 0.393121 0.391680 0.772368
Si Si3 0.468710 0.895375 0.105391
Si Si4 0.554625 0.814247 0.213050
Si Si5 0.956322 0.786366 0.404251
Si Si6 0.076932 0.190393 0.019389
Si Si7 0.292710 0.390221 0.658546
O O1 0.839392 0.500000 0.718312
O O2 0.888694 0.365633 0.763276
O O3 0.582343 0.368830 0.869218
O O4 0.904255 0.305967 0.666945
O O5 0.448105 0.500000 0.759835
O O6 0.177235 0.393976 0.866707
O O7 0.421335 0.301412 0.794896
O O8 0.497692 0.357431 0.666911
O O9 0.581351 0.797297 0.041222
O O10 0.334368 0.890296 0.224034
O O11 0.566346 0.000000 0.055222
O O12 0.343103 0.835758 0.309591
O O13 0.713772 0.849910 0.091730
O O14 0.750000 0.750000 0.500000
O O15 0.011378 0.843737 0.426817
O O16 0.000000 0.195329 0.000000
O O17 0.316126 0.500000 0.630387
#
# Coordination Sequence:
#
# PCOD9170361 Si02
#       7
#     8   8   8   8   8   8   8
#     4  10  20  35  52  77 110 144 185 223 262 322
#     4   9  17  34  56  79 109 143 184 226 265 319
#     4   9  16  30  51  75 103 140 184 224 260 305
#     4  10  20  32  54  80 113 149 178 217 267 319
#     4  10  20  38  61  80 101 135 182 232 281 327
#     4  10  17  31  50  79 109 148 184 218 256 314
#     4  10  20  36  56  80 109 138 176 227 275 320
#
# _framework density 21.549918999999999
#
# number of rings (size 3 to 8) (size 9 to 14) (size 15 to 20)
#    0.000    2.286    5.714    1.714    0.000    5.714 
#    0.000    3.571    0.000    5.143    0.000    0.000 
#    0.000    0.000    0.000    0.000    0.000    0.000 
#
# Total GULP energy -156219.826639 kJ/mol
# GULP energy per Si atom -5579.279523 kJ/mol
# Density = 2.150087 g / cm^3
# Si number density = 21.549919 Si / 1000 Ang^3
#
#
#
# Elastic Constant Matrix: (Units=GPa)
#
#
# Indices 1 2 3 4 5 6 
#
# 1 36.1562 9.6440 12.0292 -0.0016 -21.1161 0.0000
# 2 9.6440 115.4361 0.9617 0.0000 -4.6527 -0.0002
# 3 12.0292 0.9617 59.7407 -0.0128 -15.3191 0.0013
# 4 -0.0016 0.0000 -0.0128 11.3242 0.0022 -2.0732
# 5 -21.1161 -4.6527 -15.3191 0.0022 21.5678 0.0001
# 6 0.0000 -0.0002 0.0013 -2.0732 0.0001 16.9175
#
#
#
# Elastic Compliance Matrix: (Units=1/GPa)
#
#
# Indices 1 2 3 4 5 6 
#
# 1 0.066278 -0.002868 0.003890 0.000001 0.067034 -0.000001
# 2 -0.002868 0.008871 0.000251 0.000000 -0.000715 0.000000
# 3 0.003890 0.000251 0.020715 0.000021 0.018576 0.000001
# 4 0.000001 0.000000 0.000021 0.090333 0.000006 0.011070
# 5 0.067034 -0.000715 0.018576 0.000006 0.125035 -0.000001
# 6 -0.000001 0.000000 0.000001 0.011070 -0.000001 0.060467
#
#
# Mechanical properties :
#
#
# Convention : Reuss Voigt Hill
#
# Bulk Modulus (GPa) = 10.16142 28.51141 19.33641
# Shear Modulus (GPa) = 12.43915 22.54179 17.49047
#
# Velocity S-wave (km/s) = 2.40516 3.23774 2.85200
# Velocity P-wave (km/s) = 3.52684 5.21885 4.45393
#
# Compressibility (1/GPa) = 0.09841147
#
# Stress axis : x y z
#
# Youngs Moduli (GPa) = 15.08793 112.72117 48.27396
#
# Poissons Ratio (x) = 0.32325 -0.18778
# Poissons Ratio (y) = 0.04327 -0.01212
# Poissons Ratio (z) = -0.05869 -0.02831
#
# Static dielectric constant tensor:
#      x y z
#    x 1.836210 0.000000 0.046500 
#    y 0.000000 1.771620 0.000000 
#    z 0.046500 0.000000 1.833050 
# 
# From -- ./inp_files/361397.got.cif
#   From: 2010.05.17/outbox.cif.g08.bks.cpg/sg12_181_cif.got.tgz:361397.got - 2010.06.03 13:09:07.
