data_PCOD9170613
_publ_section_title
;
Structure prediction by ZEFSAII (Michael W. Deem and Ramdas Pophale) SiO2 
 PCOD9170613
Probable space group: C 2/M
;
_chemical_formula_sum "Si O2"
_cell_formula_units_Z 56
_cell_length_a 19.778804
_cell_length_b 18.562307
_cell_length_c 12.103045
_cell_angle_alpha 90.000000
_cell_angle_beta 139.440413
_cell_angle_gamma 90.000000
_cell_volume 2889.344414
_symmetry_space_group_name_H-M "C 2/M"
_symmetry_group_IT_number 12
_symmetry_cell_setting 'monoclinic'
loop_
_space_group_symop_operation_xyz
x,y,z
-x,y,-z
-x,-y,-z
x,-y,z
1/2+x,1/2+y,z
1/2-x,1/2+y,-z
1/2-x,1/2-y,-z
1/2+x,1/2-y,z
loop_
_atom_site_type_symbol
_atom_site_label
_atom_site_fract_x
_atom_site_fract_y
_atom_site_fract_z
Si Si1 0.052450 0.299428 0.446914
Si Si2 0.218125 0.082263 0.505042
Si Si3 0.974163 0.126386 0.593676
Si Si4 0.861153 0.674223 0.072065
Si Si5 0.295381 0.332813 0.731830
Si Si6 0.876261 0.670347 0.842749
Si Si7 0.669144 0.651784 0.978316
O O1 0.050588 0.212446 0.434873
O O2 0.170900 0.323457 0.586880
O O3 0.000000 0.316219 0.500000
O O4 0.978416 0.333525 0.261591
O O5 0.124944 0.088063 0.477551
O O6 0.181730 0.121694 0.348284
O O7 0.316619 0.123401 0.678952
O O8 0.243884 0.000000 0.513853
O O9 0.000000 0.106646 0.500000
O O10 0.075897 0.116251 0.795244
O O11 0.779465 0.639926 0.055539
O O12 0.839969 0.649434 0.921460
O O13 0.845199 0.761120 0.048398
O O14 0.345842 0.253621 0.784144
O O15 0.331782 0.365813 0.893533
O O16 0.000000 0.663421 0.000000
#
# Coordination Sequence:
#
# PCOD9170613 Si02
#       7
#     8   8   8   8   8   8   8
#     4  10  17  32  60  97 127 151 191 258 323 364
#     4  12  27  43  60  86 128 175 210 251 311 376
#     4  10  21  37  60  88 124 162 205 253 309 371
#     4   9  17  30  54  91 121 151 191 252 316 357
#     4  11  22  37  61  94 125 160 207 258 311 371
#     4  11  23  38  64  93 120 158 211 266 314 360
#     4   9  18  31  55  87 124 152 194 250 303 367
#
# _framework density 19.381557999999998
#
# number of rings (size 3 to 8) (size 9 to 14) (size 15 to 20)
#    0.000    1.714    2.857    2.143   10.000    0.571 
#    0.000    1.429    0.000    1.286    0.000    0.000 
#    0.000    0.000    0.000    0.000    0.000    0.000 
#
# Total GULP energy -156414.664626 kJ/mol
# GULP energy per Si atom -5586.238022 kJ/mol
# Density = 1.933744 g / cm^3
# Si number density = 19.381558 Si / 1000 Ang^3
#
#
#
# Elastic Constant Matrix: (Units=GPa)
#
#
# Indices 1 2 3 4 5 6 
#
# 1 85.3482 29.3220 42.5065 0.0000 -9.0116 0.0000
# 2 29.3220 42.3251 35.0399 0.0000 -15.1385 0.0000
# 3 42.5065 35.0399 144.7044 0.0000 -14.3061 0.0000
# 4 0.0000 0.0000 0.0000 -5.8027 0.0000 1.7050
# 5 -9.0116 -15.1385 -14.3061 0.0000 43.7835 0.0000
# 6 0.0000 0.0000 0.0000 1.7050 0.0000 6.8431
#
#
#
# Elastic Compliance Matrix: (Units=1/GPa)
#
#
# Indices 1 2 3 4 5 6 
#
# 1 0.016108 -0.009312 -0.002550 0.000000 -0.000737 0.000000
# 2 -0.009312 0.038038 -0.005544 0.000000 0.009424 0.000000
# 3 -0.002550 -0.005544 0.009053 0.000000 0.000516 0.000000
# 4 0.000000 0.000000 0.000000 -0.160576 0.000000 0.040009
# 5 -0.000737 0.009424 0.000516 0.000000 0.026115 0.000000
# 6 0.000000 0.000000 0.000000 0.040009 0.000000 0.136164
#
#
# Mechanical properties :
#
#
# Convention : Reuss Voigt Hill
#
# Bulk Modulus (GPa) = 35.22626 54.01273 44.61950
# Shear Modulus (GPa) = 45.79769 19.99873 32.89821
#
# Velocity S-wave (km/s) = 4.86629 3.21572 4.12442
# Velocity P-wave (km/s) = 7.05613 6.45882 6.76407
#
# Compressibility (1/GPa) = 0.02838791
#
# Stress axis : x y z
#
# Youngs Moduli (GPa) = 62.08122 26.28938 110.45995
#
# Poissons Ratio (x) = 0.24481 0.28163
# Poissons Ratio (y) = 0.57812 0.61236
# Poissons Ratio (z) = 0.15828 0.14574
#
# Static dielectric constant tensor:
#      x y z
#    x 1.692740 0.000000 -0.011340 
#    y 0.000000 1.641480 0.000000 
#    z -0.011340 0.000000 1.676260 
# 
# From -- ./inp_files/169481.got.cif
#   From: 2010.05.17/outbox.cif.g08.bks.cpg/sg12_85_cif.got.tgz:169481.got - 2010.06.03 13:09:07.
