data_PCOD9170920
_publ_section_title
;
Structure prediction by ZEFSAII (Michael W. Deem and Ramdas Pophale) SiO2 
 PCOD9170920
Probable space group: C 2/M
;
_chemical_formula_sum "Si O2"
_cell_formula_units_Z 44
_cell_length_a 17.113487
_cell_length_b 31.192439
_cell_length_c 11.563283
_cell_angle_alpha 90.000000
_cell_angle_beta 159.870864
_cell_angle_gamma 90.000000
_cell_volume 2124.225491
_symmetry_space_group_name_H-M "C 2/M"
_symmetry_group_IT_number 12
_symmetry_cell_setting 'monoclinic'
loop_
_space_group_symop_operation_xyz
x,y,z
-x,y,-z
-x,-y,-z
x,-y,z
1/2+x,1/2+y,z
1/2-x,1/2+y,-z
1/2-x,1/2-y,-z
1/2+x,1/2-y,z
loop_
_atom_site_type_symbol
_atom_site_label
_atom_site_fract_x
_atom_site_fract_y
_atom_site_fract_z
Si Si1 0.086924 0.698576 0.343110
Si Si2 0.235355 0.047601 0.603972
Si Si3 0.054153 0.127221 0.208476
Si Si4 0.779483 0.151904 0.033748
Si Si5 0.500000 0.416958 0.500000
Si Si6 0.358209 0.272919 0.409393
O O1 0.278810 0.668519 0.555883
O O2 0.173321 0.741075 0.527514
O O3 0.960303 0.671732 0.267945
O O4 0.882421 0.710704 0.972200
O O5 0.170636 0.086024 0.428511
O O6 0.111466 0.055771 0.553687
O O7 0.179041 0.000000 0.480963
O O8 0.500000 0.049627 0.000000
O O9 0.833177 0.136142 0.979968
O O10 0.000000 0.119888 0.000000
O O11 0.825568 0.114362 0.190801
O O12 0.973789 0.187999 0.325998
O O13 0.500000 0.251296 0.500000
#
# Coordination Sequence:
#
# PCOD9170920 Si02
#       6
#     8   8   8   8   4   8
#     4  11  23  41  59  86 126 167 210 264 302 358
#     4  10  22  41  69  98 122 154 201 256 316 379
#     4  11  27  40  60  93 124 168 208 248 312 375
#     4  10  20  39  62  87 122 164 211 252 310 356
#     4  10  17  36  66  96 122 154 202 252 307 366
#     4  10  21  37  61  86 116 169 208 259 310 346
#
# _framework density 20.713431
#
# number of rings (size 3 to 8) (size 9 to 14) (size 15 to 20)
#    0.000    1.636    2.727    3.545    7.636    1.091 
#    0.000    0.000    0.000    0.000    0.000   10.182 
#    0.000    0.000    0.000    0.000    0.000    0.000 
#
# Total GULP energy -123037.775417 kJ/mol
# GULP energy per Si atom -5592.626155 kJ/mol
# Density = 2.066629 g / cm^3
# Si number density = 20.713431 Si / 1000 Ang^3
#
#
#
# Elastic Constant Matrix: (Units=GPa)
#
#
# Indices 1 2 3 4 5 6 
#
# 1 84.3934 12.7133 13.1728 -0.0008 -6.8482 -0.0001
# 2 12.7133 90.0047 13.7001 0.0000 -0.6978 0.0000
# 3 13.1728 13.7001 40.2350 0.0011 -2.4921 0.0001
# 4 -0.0008 0.0000 0.0011 15.2122 0.0000 6.3137
# 5 -6.8482 -0.6978 -2.4921 0.0000 26.1477 -0.0005
# 6 -0.0001 0.0000 0.0001 6.3137 -0.0005 35.4294
#
#
#
# Elastic Compliance Matrix: (Units=1/GPa)
#
#
# Indices 1 2 3 4 5 6 
#
# 1 0.012840 -0.001243 -0.003595 0.000001 0.002987 0.000000
# 2 -0.001243 0.011838 -0.003646 0.000000 -0.000357 0.000000
# 3 -0.003595 -0.003646 0.027370 -0.000002 0.001570 0.000000
# 4 0.000001 0.000000 -0.000002 0.070987 0.000000 -0.012650
# 5 0.002987 -0.000357 0.001570 0.000000 0.039167 0.000001
# 6 0.000000 0.000000 0.000000 -0.012650 0.000001 0.030479
#
#
# Mechanical properties :
#
#
# Convention : Reuss Voigt Hill
#
# Bulk Modulus (GPa) = 28.50727 32.64505 30.57616
# Shear Modulus (GPa) = 22.58926 27.02765 24.80846
#
# Velocity S-wave (km/s) = 3.30595 3.61617 3.46453
# Velocity P-wave (km/s) = 5.32588 5.76456 5.54955
#
# Compressibility (1/GPa) = 0.03507878
#
# Stress axis : x y z
#
# Youngs Moduli (GPa) = 77.88071 84.47112 36.53653
#
# Poissons Ratio (x) = 0.10502 0.13137
# Poissons Ratio (y) = 0.09683 0.13321
# Poissons Ratio (z) = 0.28002 0.30799
#
# Static dielectric constant tensor:
#      x y z
#    x 1.802110 0.000000 -0.000160 
#    y 0.000000 1.747020 0.000000 
#    z -0.000160 0.000000 1.720350 
# 
# From -- ./inp_files/161278.got.cif
#   From: 2010.05.17/outbox.cif.g08.bks.cpg/sg12_81_cif.got.tgz:161278.got - 2010.06.03 13:09:07.
