data_PCOD9170863
_publ_section_title
;
Structure prediction by ZEFSAII (Michael W. Deem and Ramdas Pophale) SiO2 
 PCOD9170863
Probable space group: C 2/M
;
_chemical_formula_sum "Si O2"
_cell_formula_units_Z 48
_cell_length_a 17.706864
_cell_length_b 14.932792
_cell_length_c 18.368062
_cell_angle_alpha 90.000000
_cell_angle_beta 148.581974
_cell_angle_gamma 90.000000
_cell_volume 2531.719115
_symmetry_space_group_name_H-M "C 2/M"
_symmetry_group_IT_number 12
_symmetry_cell_setting 'monoclinic'
loop_
_space_group_symop_operation_xyz
x,y,z
-x,y,-z
-x,-y,-z
x,-y,z
1/2+x,1/2+y,z
1/2-x,1/2+y,-z
1/2-x,1/2-y,-z
1/2+x,1/2-y,z
loop_
_atom_site_type_symbol
_atom_site_label
_atom_site_fract_x
_atom_site_fract_y
_atom_site_fract_z
Si Si1 0.675984 0.732841 0.773140
Si Si2 0.809486 0.281310 0.727877
Si Si3 0.648441 0.321821 0.456855
Si Si4 0.749897 0.347530 0.038148
Si Si5 0.592605 0.102011 0.966317
Si Si6 0.579108 0.402444 0.252634
O O1 0.711515 0.735098 0.717553
O O2 0.508525 0.717661 0.653029
O O3 0.722302 0.822475 0.855247
O O4 0.770673 0.649981 0.882876
O O5 0.728274 0.338671 0.598729
O O6 0.853990 0.184313 0.732011
O O7 0.954581 0.335521 0.867417
O O8 0.750000 0.250000 0.500000
O O9 0.620375 0.395391 0.371912
O O10 0.871950 0.396812 0.091386
O O11 0.750000 0.250000 0.000000
O O12 0.594257 0.391729 0.898394
O O13 0.573306 0.000000 0.974235
O O14 0.623662 0.500000 0.260842
#
# Coordination Sequence:
#
# PCOD9170863 Si02
#       6
#     8   8   8   8   8   8
#     4  11  21  38  63  88 125 161 200 249 316 363
#     4  11  23  39  60  92 128 160 198 252 310 372
#     4  10  21  39  62  86 114 162 206 248 296 358
#     4  10  17  35  60  86 115 157 206 246 292 352
#     4  11  22  38  62  90 123 163 207 255 302 358
#     4  11  21  38  62  89 120 161 206 249 298 359
#
# _framework density 18.959448999999999
#
# number of rings (size 3 to 8) (size 9 to 14) (size 15 to 20)
#    0.000    1.333    6.667    2.500    0.000    2.000 
#    0.000    2.500    0.000   12.000    0.000    0.000 
#    0.000    0.000    0.000    0.000    0.000    0.000 
#
# Total GULP energy -133815.235085 kJ/mol
# GULP energy per Si atom -5575.634795 kJ/mol
# Density = 1.891630 g / cm^3
# Si number density = 18.959449 Si / 1000 Ang^3
#
#
#
# Elastic Constant Matrix: (Units=GPa)
#
#
# Indices 1 2 3 4 5 6 
#
# 1 117.6208 25.2084 30.7955 -0.0001 1.0225 0.0000
# 2 25.2084 93.6762 16.2917 -0.0006 11.6781 -0.0004
# 3 30.7955 16.2917 81.3822 -0.0002 18.4963 -0.0002
# 4 -0.0001 -0.0006 -0.0002 6.4316 -0.0006 -1.8420
# 5 1.0225 11.6781 18.4963 -0.0006 27.4977 -0.0004
# 6 0.0000 -0.0004 -0.0002 -1.8420 -0.0004 1.5958
#
#
#
# Elastic Compliance Matrix: (Units=1/GPa)
#
#
# Indices 1 2 3 4 5 6 
#
# 1 0.010064 -0.002421 -0.004099 0.000000 0.003411 0.000000
# 2 -0.002421 0.011987 -0.000410 0.000002 -0.004725 0.000003
# 3 -0.004099 -0.000410 0.016345 -0.000001 -0.010668 -0.000002
# 4 0.000000 0.000002 -0.000001 0.232269 0.000009 0.268110
# 5 0.003411 -0.004725 -0.010668 0.000009 0.045423 0.000019
# 6 0.000000 0.000003 -0.000002 0.268110 0.000019 0.936138
#
#
# Mechanical properties :
#
#
# Convention : Reuss Voigt Hill
#
# Bulk Modulus (GPa) = 40.75356 48.58560 44.66958
# Shear Modulus (GPa) = 3.92383 21.79725 12.86054
#
# Velocity S-wave (km/s) = 1.44017 3.39437 2.60728
# Velocity P-wave (km/s) = 4.93024 6.40656 5.71626
#
# Compressibility (1/GPa) = 0.02453774
#
# Stress axis : x y z
#
# Youngs Moduli (GPa) = 99.36164 83.42527 61.17896
#
# Poissons Ratio (x) = 0.20194 0.25077
# Poissons Ratio (y) = 0.24052 0.02507
# Poissons Ratio (z) = 0.40729 0.03418
#
# Static dielectric constant tensor:
#      x y z
#    x 1.680350 0.000000 -0.038780 
#    y 0.000000 1.661430 0.000000 
#    z -0.038780 0.000000 1.691100 
# 
# From -- ./inp_files/278223.got.cif
#   From: 2010.05.17/outbox.cif.g08.bks.cpg/sg12_140_cif.got.tgz:278223.got - 2010.06.03 13:09:07.
