data_PCOD9170981
_publ_section_title
;
Structure prediction by ZEFSAII (Michael W. Deem and Ramdas Pophale) SiO2 
 PCOD9170981
Probable space group: C 2/M
;
_chemical_formula_sum "Si O2"
_cell_formula_units_Z 56
_cell_length_a 28.385961
_cell_length_b 30.888157
_cell_length_c 5.239929
_cell_angle_alpha 90.000000
_cell_angle_beta 96.475051
_cell_angle_gamma 90.000000
_cell_volume 4565.010554
_symmetry_space_group_name_H-M "C 2/M"
_symmetry_group_IT_number 12
_symmetry_cell_setting 'monoclinic'
loop_
_space_group_symop_operation_xyz
x,y,z
-x,y,-z
-x,-y,-z
x,-y,z
1/2+x,1/2+y,z
1/2-x,1/2+y,-z
1/2-x,1/2-y,-z
1/2+x,1/2-y,z
loop_
_atom_site_type_symbol
_atom_site_label
_atom_site_fract_x
_atom_site_fract_y
_atom_site_fract_z
Si Si1 0.445984 0.791738 0.877969
Si Si2 0.754136 0.808574 0.761397
Si Si3 0.840176 0.357459 0.300241
Si Si4 0.031220 0.550254 0.275565
Si Si5 0.102810 0.266169 0.655026
Si Si6 0.303101 0.283070 0.291316
Si Si7 0.111005 0.617352 0.172737
O O1 0.435120 0.770815 0.595987
O O2 0.421478 0.839184 0.856093
O O3 0.500000 0.796531 0.000000
O O4 0.420619 0.763776 0.082242
O O5 0.714522 0.845279 0.774368
O O6 0.725031 0.763005 0.734722
O O7 0.781737 0.809985 0.512050
O O8 0.790382 0.805477 0.017327
O O9 0.868357 0.311642 0.321923
O O10 0.849838 0.376827 0.583848
O O11 0.863812 0.385071 0.087193
O O12 0.043570 0.500000 0.334606
O O13 0.076829 0.578955 0.241596
O O14 0.000000 0.565878 0.500000
O O15 0.000000 0.551936 0.000000
O O16 0.142135 0.229381 0.638068
#
# Coordination Sequence:
#
# PCOD9170981 Si02
#       7
#     8   8   8   8   8   8   8
#     4  10  18  26  36  48  64  85 109 137 168 202
#     4   9  15  23  35  50  65  83 103 121 150 186
#     4   9  17  26  37  53  69  83 101 126 155 199
#     4  10  20  32  44  56  68  84 110 140 169 207
#     4   9  17  26  34  48  65  83 108 132 158 191
#     4   9  15  23  35  47  64  85 103 126 150 182
#     4  10  18  28  40  52  68  85 103 131 169 204
#
# _framework density 12.267222
#
# number of rings (size 3 to 8) (size 9 to 14) (size 15 to 20)
#    0.000    2.571    0.000    3.429    0.000    9.143 
#    0.000    0.000    0.000    0.000    0.000    0.000 
#    0.000    0.000    0.000    0.000    0.000    0.000 
#
# Total GULP energy -155904.545370 kJ/mol
# GULP energy per Si atom -5568.019477 kJ/mol
# Density = 1.223930 g / cm^3
# Si number density = 12.267222 Si / 1000 Ang^3
#
#
#
# Elastic Constant Matrix: (Units=GPa)
#
#
# Indices 1 2 3 4 5 6 
#
# 1 38.6865 20.3626 21.4494 0.0000 -4.3441 0.0000
# 2 20.3626 19.3944 12.0609 0.0000 0.3062 0.0000
# 3 21.4494 12.0609 83.2765 0.0000 -4.6864 0.0000
# 4 0.0000 0.0000 0.0000 5.3782 0.0000 -5.4120
# 5 -4.3441 0.3062 -4.6864 0.0000 22.4929 0.0000
# 6 0.0000 0.0000 0.0000 -5.4120 0.0000 13.6260
#
#
#
# Elastic Compliance Matrix: (Units=1/GPa)
#
#
# Indices 1 2 3 4 5 6 
#
# 1 0.064390 -0.063626 -0.006700 0.000000 0.011906 0.000000
# 2 -0.063626 0.119677 -0.001748 0.000000 -0.014282 0.000000
# 3 -0.006700 -0.001748 0.014081 0.000000 0.001664 0.000000
# 4 0.000000 0.000000 0.000000 0.309732 0.000000 0.123020
# 5 0.011906 -0.014282 0.001664 0.000000 0.047299 0.000000
# 6 0.000000 0.000000 0.000000 0.123020 0.000000 0.122251
#
#
# Mechanical properties :
#
#
# Convention : Reuss Voigt Hill
#
# Bulk Modulus (GPa) = 18.51898 27.67816 23.09857
# Shear Modulus (GPa) = 5.95538 14.13172 10.04355
#
# Velocity S-wave (km/s) = 2.20573 3.39778 2.86445
# Velocity P-wave (km/s) = 4.64931 6.16481 5.45990
#
# Compressibility (1/GPa) = 0.05399865
#
# Stress axis : x y z
#
# Youngs Moduli (GPa) = 15.53033 8.35584 71.01921
#
# Poissons Ratio (x) = 0.53165 0.47582
# Poissons Ratio (y) = 0.98814 0.12417
# Poissons Ratio (z) = 0.10405 0.01461
#
# Static dielectric constant tensor:
#      x y z
#    x 1.400540 0.000000 -0.007130 
#    y 0.000000 1.373290 0.000000 
#    z -0.007130 0.000000 1.416150 
# 
# From -- ./inp_files/26327.got.cif
#   From: 2010.05.17/outbox.cif.g08.bks.cpg/sg12_14_cif.got.tgz:26327.got - 2010.06.03 13:09:07.
