data_PCOD9170414
_publ_section_title
;
Structure prediction by ZEFSAII (Michael W. Deem and Ramdas Pophale) SiO2 
 PCOD9170414
Probable space group: C 2/M
;
_chemical_formula_sum "Si O2"
_cell_formula_units_Z 46
_cell_length_a 13.433886
_cell_length_b 20.511054
_cell_length_c 12.895035
_cell_angle_alpha 90.000000
_cell_angle_beta 141.552358
_cell_angle_gamma 90.000000
_cell_volume 2209.338856
_symmetry_space_group_name_H-M "C 2/M"
_symmetry_group_IT_number 12
_symmetry_cell_setting 'monoclinic'
loop_
_space_group_symop_operation_xyz
x,y,z
-x,y,-z
-x,-y,-z
x,-y,z
1/2+x,1/2+y,z
1/2-x,1/2+y,-z
1/2-x,1/2-y,-z
1/2+x,1/2-y,z
loop_
_atom_site_type_symbol
_atom_site_label
_atom_site_fract_x
_atom_site_fract_y
_atom_site_fract_z
Si Si1 0.255082 0.146143 0.964922
Si Si2 0.741594 0.818845 0.399849
Si Si3 0.500000 0.000000 0.500000
Si Si4 0.036547 0.769823 0.913513
Si Si5 0.003806 0.373858 0.653588
Si Si6 0.000000 0.736543 0.500000
Si Si7 0.187803 0.426021 0.183049
O O1 0.332051 0.211432 0.976956
O O2 0.385470 0.120654 0.154001
O O3 0.101937 0.170422 0.901479
O O4 0.221861 0.095758 0.847156
O O5 0.613725 0.763410 0.263782
O O6 0.670830 0.847686 0.449676
O O7 0.906704 0.783550 0.504087
O O8 0.726610 0.877702 0.306780
O O9 0.495006 0.941404 0.585546
O O10 0.000000 0.789012 0.000000
O O11 0.081092 0.316523 0.644298
O O12 0.220090 0.500000 0.237773
O O13 0.000000 0.419168 0.000000
#
# Coordination Sequence:
#
# PCOD9170414 Si02
#       7
#     8   8   2   8   8   4   8
#     4  10  19  32  59  87 120 144 181 244 302 343
#     4  11  21  37  61  86 119 149 197 250 297 348
#     4  10  24  40  60  84 124 160 210 232 262 356
#     4  10  17  31  54  91 117 141 179 238 307 344
#     4  10  22  38  59  86 115 161 198 239 286 343
#     4  11  24  39  57  86 115 158 206 240 289 348
#     4  11  21  35  59  92 114 149 193 239 298 355
#
# _framework density 20.820709000000001
#
# number of rings (size 3 to 8) (size 9 to 14) (size 15 to 20)
#    0.000    1.565    5.217    1.565    7.304    0.000 
#    0.000    0.435    0.000    0.522    0.000    0.000 
#    0.000    0.000    0.000    0.000    0.000    0.000 
#
# Total GULP energy -128145.714350 kJ/mol
# GULP energy per Si atom -5571.552798 kJ/mol
# Density = 2.077332 g / cm^3
# Si number density = 20.820709 Si / 1000 Ang^3
#
#
#
# Elastic Constant Matrix: (Units=GPa)
#
#
# Indices 1 2 3 4 5 6 
#
# 1 113.2707 61.2770 19.3321 0.0000 -24.5010 0.0000
# 2 61.2770 158.9738 39.3974 0.0000 -14.1100 0.0000
# 3 19.3321 39.3974 19.6739 0.0000 -16.4978 0.0000
# 4 0.0000 0.0000 0.0000 -9.5879 0.0000 24.8784
# 5 -24.5010 -14.1100 -16.4978 0.0000 28.1317 0.0000
# 6 0.0000 0.0000 0.0000 24.8784 0.0000 -10.4814
#
#
#
# Elastic Compliance Matrix: (Units=1/GPa)
#
#
# Indices 1 2 3 4 5 6 
#
# 1 0.014488 -0.008831 0.020295 0.000000 0.020091 0.000000
# 2 -0.008831 0.023557 -0.068941 0.000000 -0.036306 0.000000
# 3 0.020295 -0.068941 0.304528 0.000000 0.161687 0.000000
# 4 0.000000 0.000000 0.000000 0.020217 0.000000 0.047987
# 5 0.020091 -0.036306 0.161687 0.000000 0.129656 0.000000
# 6 0.000000 0.000000 0.000000 0.047987 0.000000 0.018494
#
#
# Mechanical properties :
#
#
# Convention : Reuss Voigt Hill
#
# Bulk Modulus (GPa) = 4.39330 59.10351 31.74841
# Shear Modulus (GPa) = 7.12488 13.07326 10.09907
#
# Velocity S-wave (km/s) = 1.85188 2.50851 2.20477
# Velocity P-wave (km/s) = 2.58597 6.06948 4.66508
#
# Compressibility (1/GPa) = 0.22761913
#
# Stress axis : x y z
#
# Youngs Moduli (GPa) = 69.02491 42.45016 3.28377
#
# Poissons Ratio (x) = 0.37486 -0.06664
# Poissons Ratio (y) = 0.60954 0.22639
# Poissons Ratio (z) = -1.40087 2.92657
#
# Static dielectric constant tensor:
#      x y z
#    x 1.817080 0.000000 0.023320 
#    y 0.000000 1.703630 0.000000 
#    z 0.023320 0.000000 1.806380 
# 
# From -- ./inp_files/134127.got.cif
#   From: 2010.05.17/outbox.cif.g08.bks.cpg/sg12_68_cif.got.tgz:134127.got - 2010.06.03 13:09:07.
