data_PCOD9170490
_publ_section_title
;
Structure prediction by ZEFSAII (Michael W. Deem and Ramdas Pophale) SiO2 
 PCOD9170490
Probable space group: C 2/M
;
_chemical_formula_sum "Si O2"
_cell_formula_units_Z 52
_cell_length_a 19.405526
_cell_length_b 19.813836
_cell_length_c 14.959973
_cell_angle_alpha 90.000000
_cell_angle_beta 33.561265
_cell_angle_gamma 90.000000
_cell_volume 3179.911830
_symmetry_space_group_name_H-M "C 2/M"
_symmetry_group_IT_number 12
_symmetry_cell_setting 'monoclinic'
loop_
_space_group_symop_operation_xyz
x,y,z
-x,y,-z
-x,-y,-z
x,-y,z
1/2+x,1/2+y,z
1/2-x,1/2+y,-z
1/2-x,1/2-y,-z
1/2+x,1/2-y,z
loop_
_atom_site_type_symbol
_atom_site_label
_atom_site_fract_x
_atom_site_fract_y
_atom_site_fract_z
Si Si1 0.429234 0.808450 0.770055
Si Si2 0.500000 0.781828 0.500000
Si Si3 0.124221 0.922430 0.305438
Si Si4 0.655413 0.346455 0.100332
Si Si5 0.640547 0.785243 0.672449
Si Si6 0.750058 0.198443 0.739687
Si Si7 0.440820 0.688906 0.976685
O O1 0.456739 0.821039 0.635791
O O2 0.394821 0.728018 0.815494
O O3 0.548372 0.823088 0.703661
O O4 0.305313 0.844492 0.939283
O O5 0.383328 0.736407 0.593814
O O6 0.100754 0.899532 0.228955
O O7 0.225937 0.869258 0.231067
O O8 0.000000 0.914991 0.500000
O O9 0.163716 0.000000 0.267394
O O10 0.618719 0.355451 0.036581
O O11 0.750000 0.750000 0.500000
O O12 0.699795 0.819940 0.695619
O O13 0.554535 0.727364 0.807494
O O14 0.655913 0.252010 0.888113
O O15 0.500000 0.654838 0.000000
#
# Coordination Sequence:
#
# PCOD9170490 Si02
#       7
#     8   4   8   8   8   8   8
#     4  10  18  28  48  74  98 132 161 192 262 304
#     4  12  16  26  49  74 101 130 152 196 256 308
#     4  11  22  33  49  72  96 135 179 207 237 284
#     4  10  17  32  50  67 100 133 160 206 245 300
#     4  10  19  26  42  70 100 130 159 188 243 300
#     4  11  18  32  46  69 110 130 152 205 246 299
#     4   9  19  30  48  76 104 128 155 196 262 312
#
# _framework density 16.352654999999999
#
# number of rings (size 3 to 8) (size 9 to 14) (size 15 to 20)
#    0.000    1.692    5.385    1.846    2.154    0.000 
#    0.000    0.000    0.000   12.000    0.000    0.538 
#    0.000    0.000    0.000    0.000    0.000    0.000 
#
# Total GULP energy -144811.882782 kJ/mol
# GULP energy per Si atom -5569.687799 kJ/mol
# Density = 1.631544 g / cm^3
# Si number density = 16.352655 Si / 1000 Ang^3
#
#
#
# Elastic Constant Matrix: (Units=GPa)
#
#
# Indices 1 2 3 4 5 6 
#
# 1 144.8684 22.3885 39.5055 -0.0001 14.0299 0.0001
# 2 22.3885 34.4992 18.3243 -0.0001 4.9672 0.0001
# 3 39.5055 18.3243 100.7978 -0.0001 5.5154 0.0001
# 4 -0.0001 -0.0001 -0.0001 8.0465 0.0001 2.0276
# 5 14.0299 4.9672 5.5154 0.0001 34.8132 -0.0001
# 6 0.0001 0.0001 0.0001 2.0276 -0.0001 6.1462
#
#
#
# Elastic Compliance Matrix: (Units=1/GPa)
#
#
# Indices 1 2 3 4 5 6 
#
# 1 0.008399 -0.003786 -0.002469 0.000000 -0.002453 0.000000
# 2 -0.003786 0.034266 -0.004601 0.000000 -0.002635 0.000000
# 3 -0.002469 -0.004601 0.011737 0.000000 -0.000208 0.000000
# 4 0.000000 0.000000 0.000000 0.135544 -0.000001 -0.044715
# 5 -0.002453 -0.002635 -0.000208 -0.000001 0.030122 0.000001
# 6 0.000000 0.000000 0.000000 -0.044715 0.000001 0.177454
#
#
# Mechanical properties :
#
#
# Convention : Reuss Voigt Hill
#
# Bulk Modulus (GPa) = 30.59159 48.95580 39.77370
# Shear Modulus (GPa) = 11.62436 23.13099 17.37767
#
# Velocity S-wave (km/s) = 2.66908 3.76508 3.26342
# Velocity P-wave (km/s) = 5.31476 6.99311 6.21089
#
# Compressibility (1/GPa) = 0.03268873
#
# Stress axis : x y z
#
# Youngs Moduli (GPa) = 119.06389 29.18319 85.20417
#
# Poissons Ratio (x) = 0.11048 0.21039
# Poissons Ratio (y) = 0.45074 0.39207
# Poissons Ratio (z) = 0.29400 0.13429
#
# Static dielectric constant tensor:
#      x y z
#    x 1.639730 0.000000 0.019990 
#    y 0.000000 1.508650 0.000000 
#    z 0.019990 0.000000 1.577440 
# 
# From -- ./inp_files/235051.got.cif
#   From: 2010.05.17/outbox.cif.g08.bks.cpg/sg12_118_cif.got.tgz:235051.got - 2010.06.03 13:09:07.
