data_PCOD9170097
_publ_section_title
;
Structure prediction by ZEFSAII (Michael W. Deem and Ramdas Pophale) SiO2 
 PCOD9170097
Probable space group: C 2/M
;
_chemical_formula_sum "Si O2"
_cell_formula_units_Z 56
_cell_length_a 22.793267
_cell_length_b 24.892626
_cell_length_c 19.977661
_cell_angle_alpha 90.000000
_cell_angle_beta 18.846220
_cell_angle_gamma 90.000000
_cell_volume 3661.539909
_symmetry_space_group_name_H-M "C 2/M"
_symmetry_group_IT_number 12
_symmetry_cell_setting 'monoclinic'
loop_
_space_group_symop_operation_xyz
x,y,z
-x,y,-z
-x,-y,-z
x,-y,z
1/2+x,1/2+y,z
1/2-x,1/2+y,-z
1/2-x,1/2-y,-z
1/2+x,1/2-y,z
loop_
_atom_site_type_symbol
_atom_site_label
_atom_site_fract_x
_atom_site_fract_y
_atom_site_fract_z
Si Si1 0.188768 0.579445 0.712427
Si Si2 0.753580 0.794765 0.621112
Si Si3 0.782585 0.788070 0.739435
Si Si4 0.423574 0.441629 0.744283
Si Si5 0.713864 0.914163 0.840302
Si Si6 0.136457 0.823482 0.143563
Si Si7 0.589946 0.249685 0.074782
O O1 0.198021 0.643243 0.690256
O O2 0.357862 0.557288 0.489287
O O3 0.225602 0.567072 0.750963
O O4 0.980810 0.565718 0.922653
O O5 0.725534 0.772257 0.726173
O O6 0.617279 0.765329 0.718178
O O7 0.962242 0.798378 0.371599
O O8 0.721918 0.849081 0.824121
O O9 0.000000 0.789286 0.500000
O O10 0.699891 0.751242 0.886401
O O11 0.353151 0.500000 0.842086
O O12 0.363824 0.432048 0.731313
O O13 0.361833 0.387434 0.848191
O O14 0.112480 0.803307 0.093805
O O15 0.315030 0.796701 0.982814
#
# Coordination Sequence:
#
# PCOD9170097 Si02
#       7
#     8   8   8   8   8   8   8
#     4   9  18  28  45  64  87 117 152 194 224 258
#     4  10  17  30  48  68  93 125 154 180 232 286
#     4  11  17  29  48  72  98 123 152 187 234 281
#     4  11  21  33  45  60  87 123 163 195 223 265
#     4  10  17  30  44  63  91 120 155 187 226 264
#     4  10  21  33  46  68  94 124 158 194 236 275
#     4  11  19  31  49  69  95 124 152 194 234 285
#
# _framework density 15.294110999999999
#
# number of rings (size 3 to 8) (size 9 to 14) (size 15 to 20)
#    0.000    1.714    4.286    3.000    0.000    1.714 
#    0.000    1.429    0.000    0.000    0.000    0.000 
#    0.000    2.857    0.000    0.000    0.000    0.143 
#
# Total GULP energy -156067.899883 kJ/mol
# GULP energy per Si atom -5573.853567 kJ/mol
# Density = 1.525930 g / cm^3
# Si number density = 15.294111 Si / 1000 Ang^3
#
#
#
# Elastic Constant Matrix: (Units=GPa)
#
#
# Indices 1 2 3 4 5 6 
#
# 1 68.1592 25.5196 9.6018 -0.0317 -5.2137 0.0260
# 2 25.5196 60.2984 5.8458 -0.0382 3.6631 0.0366
# 3 9.6018 5.8458 42.3340 -0.0601 -9.8033 0.0699
# 4 -0.0317 -0.0382 -0.0601 -1.1329 0.0291 2.1015
# 5 -5.2137 3.6631 -9.8033 0.0291 28.0947 -0.0197
# 6 0.0260 0.0366 0.0699 2.1015 -0.0197 -18.5423
#
#
#
# Elastic Compliance Matrix: (Units=1/GPa)
#
#
# Indices 1 2 3 4 5 6 
#
# 1 0.018134 -0.007677 -0.002221 -0.000052 0.003591 -0.000008
# 2 -0.007677 0.020339 -0.002189 -0.000545 -0.004840 -0.000036
# 3 -0.002221 -0.002189 0.026542 -0.001119 0.009136 -0.000044
# 4 -0.000052 -0.000545 -0.001119 -1.117577 0.000739 -0.126668
# 5 0.003591 -0.004840 0.009136 0.000739 0.040079 0.000071
# 6 -0.000008 -0.000036 -0.000044 -0.126668 0.000071 -0.068287
#
#
# Mechanical properties :
#
#
# Convention : Reuss Voigt Hill
#
# Bulk Modulus (GPa) = 24.48583 28.08068 26.28325
# Shear Modulus (GPa) = -4.79394 10.33886 2.77246
#
# Velocity S-wave (km/s) = -1.77237 2.60283 1.34785
# Velocity P-wave (km/s) = 3.44330 5.23768 4.43224
#
# Compressibility (1/GPa) = 0.04083995
#
# Stress axis : x y z
#
# Youngs Moduli (GPa) = 55.14612 49.16582 37.67645
#
# Poissons Ratio (x) = 0.37747 0.08369
# Poissons Ratio (y) = 0.42338 0.08247
# Poissons Ratio (z) = 0.12249 0.10761
#
# Static dielectric constant tensor:
#      x y z
#    x 1.523190 -0.000010 -0.022630 
#    y -0.000010 1.525100 0.000030 
#    z -0.022630 0.000030 1.548260 
# 
# From -- ./inp_files/286611.got.cif
#   From: 2010.05.17/outbox.cif.g08.bks.cpg/sg12_144_cif.got.tgz:286611.got - 2010.06.03 13:09:07.
