data_PCOD9170239
_publ_section_title
;
Structure prediction by ZEFSAII (Michael W. Deem and Ramdas Pophale) SiO2 
 PCOD9170239
Probable space group: C 2/M
;
_chemical_formula_sum "Si O2"
_cell_formula_units_Z 58
_cell_length_a 18.194402
_cell_length_b 13.684972
_cell_length_c 15.957276
_cell_angle_alpha 90.000000
_cell_angle_beta 44.656882
_cell_angle_gamma 90.000000
_cell_volume 2792.601914
_symmetry_space_group_name_H-M "C 2/M"
_symmetry_group_IT_number 12
_symmetry_cell_setting 'monoclinic'
loop_
_space_group_symop_operation_xyz
x,y,z
-x,y,-z
-x,-y,-z
x,-y,z
1/2+x,1/2+y,z
1/2-x,1/2+y,-z
1/2-x,1/2-y,-z
1/2+x,1/2-y,z
loop_
_atom_site_type_symbol
_atom_site_label
_atom_site_fract_x
_atom_site_fract_y
_atom_site_fract_z
Si Si1 0.293753 0.614435 0.457874
Si Si2 0.000000 0.000000 0.500000
Si Si3 0.699694 0.614893 0.999034
Si Si4 0.418542 0.114058 0.924916
Si Si5 0.784145 0.738086 0.614427
Si Si6 0.494618 0.724341 0.756034
Si Si7 0.308982 0.767817 0.142144
Si Si8 0.414662 0.311528 0.650790
O O1 0.213345 0.647639 0.450788
O O2 0.270776 0.669089 0.563917
O O3 0.401406 0.660604 0.335579
O O4 0.306209 0.733454 0.240919
O O5 0.972413 0.913041 0.589832
O O6 0.683875 0.500000 0.997465
O O7 0.600536 0.660900 0.127956
O O8 0.807727 0.626073 0.963753
O O9 0.706866 0.675873 0.906814
O O10 0.500543 0.177654 0.805581
O O11 0.442519 0.000000 0.912293
O O12 0.399328 0.167154 0.029096
O O13 0.887669 0.755527 0.586270
O O14 0.799877 0.000000 0.465012
O O15 0.464468 0.748896 0.685018
O O16 0.204526 0.834240 0.223807
#
# Coordination Sequence:
#
# PCOD9170239 Si02
#       8
#     8   2   8   8   8   8   8   8
#     4  11  24  40  63  85 115 160 200 243 302 360
#     4  12  24  28  60 104 118 142 194 254 314 328
#     4  10  17  30  52  83 117 159 195 237 300 362
#     4  10  18  32  54  82 120 160 195 233 305 365
#     4   9  22  42  55  83 122 155 194 244 297 364
#     4  11  20  35  56  93 125 148 197 259 295 336
#     4   9  18  34  53  79 115 156 191 239 288 354
#     4  10  21  34  55  89 126 148 185 253 295 344
#
# _framework density 20.769162000000001
#
# number of rings (size 3 to 8) (size 9 to 14) (size 15 to 20)
#    0.828    1.103    2.759    2.069    5.793    1.103 
#    0.000    6.207    0.000    4.966    0.000    8.207 
#    0.000    0.000    0.000    0.000    0.000    0.000 
#
# Total GULP energy -161449.860976 kJ/mol
# GULP energy per Si atom -5567.236585 kJ/mol
# Density = 2.072189 g / cm^3
# Si number density = 20.769162 Si / 1000 Ang^3
#
#
#
# Elastic Constant Matrix: (Units=GPa)
#
#
# Indices 1 2 3 4 5 6 
#
# 1 60.9351 4.5394 21.1065 0.0000 11.2941 0.0000
# 2 4.5394 102.3570 40.5854 0.0000 5.9320 0.0000
# 3 21.1065 40.5854 122.3973 0.0000 29.1243 0.0000
# 4 0.0000 0.0000 0.0000 20.6343 0.0000 -6.5211
# 5 11.2941 5.9320 29.1243 0.0000 27.9380 0.0000
# 6 0.0000 0.0000 0.0000 -6.5211 0.0000 13.8279
#
#
#
# Elastic Compliance Matrix: (Units=1/GPa)
#
#
# Indices 1 2 3 4 5 6 
#
# 1 0.018050 0.000276 -0.001933 0.000000 -0.005340 0.000000
# 2 0.000276 0.011337 -0.004266 0.000000 0.001928 0.000000
# 3 -0.001933 -0.004266 0.012656 0.000000 -0.011506 0.000000
# 4 0.000000 0.000000 0.000000 0.056951 0.000000 0.026857
# 5 -0.005340 0.001928 -0.011506 0.000000 0.049537 0.000000
# 6 0.000000 0.000000 0.000000 0.026857 0.000000 0.084983
#
#
# Mechanical properties :
#
#
# Convention : Reuss Voigt Hill
#
# Bulk Modulus (GPa) = 33.11700 46.46133 39.78917
# Shear Modulus (GPa) = 19.57518 27.11060 23.34289
#
# Velocity S-wave (km/s) = 3.07337 3.61685 3.35613
# Velocity P-wave (km/s) = 5.34547 6.31356 5.84958
#
# Compressibility (1/GPa) = 0.03019597
#
# Stress axis : x y z
#
# Youngs Moduli (GPa) = 55.40244 88.20616 79.01587
#
# Poissons Ratio (x) = -0.02431 0.15276
# Poissons Ratio (y) = -0.01527 0.33704
# Poissons Ratio (z) = 0.10711 0.37625
#
# Static dielectric constant tensor:
#      x y z
#    x 1.815630 0.000000 -0.014660 
#    y 0.000000 1.665390 0.000000 
#    z -0.014660 0.000000 1.815260 
# 
# From -- ./inp_files/233431.got.cif
#   From: 2010.05.17/outbox.cif.g08.bks.cpg/sg12_117_cif.got.tgz:233431.got - 2010.06.03 13:09:07.
