data_PCOD9170709
_publ_section_title
;
Structure prediction by ZEFSAII (Michael W. Deem and Ramdas Pophale) SiO2 
 PCOD9170709
Probable space group: C 2/M
;
_chemical_formula_sum "Si O2"
_cell_formula_units_Z 64
_cell_length_a 25.637510
_cell_length_b 18.059205
_cell_length_c 19.173925
_cell_angle_alpha 90.000000
_cell_angle_beta 158.508748
_cell_angle_gamma 90.000000
_cell_volume 3252.314651
_symmetry_space_group_name_H-M "C 2/M"
_symmetry_group_IT_number 12
_symmetry_cell_setting 'monoclinic'
loop_
_space_group_symop_operation_xyz
x,y,z
-x,y,-z
-x,-y,-z
x,-y,z
1/2+x,1/2+y,z
1/2-x,1/2+y,-z
1/2-x,1/2-y,-z
1/2+x,1/2-y,z
loop_
_atom_site_type_symbol
_atom_site_label
_atom_site_fract_x
_atom_site_fract_y
_atom_site_fract_z
Si Si1 0.119529 0.854371 0.836319
Si Si2 0.678806 0.085241 0.027602
Si Si3 0.355492 0.205559 0.218447
Si Si4 0.893750 0.325860 0.639941
Si Si5 0.913504 0.085457 0.965138
Si Si6 0.334416 0.185134 0.403620
Si Si7 0.403963 0.651390 0.679445
Si Si8 0.166140 0.815200 0.688035
O O1 0.108826 0.769803 0.794295
O O2 0.977039 0.876700 0.698827
O O3 0.187130 0.900868 0.857767
O O4 0.241623 0.850036 0.046766
O O5 0.542929 0.131587 0.832226
O O6 0.642592 0.000000 0.984619
O O7 0.734313 0.116574 0.170479
O O8 0.504961 0.169020 0.421868
O O9 0.294444 0.252104 0.206249
O O10 0.836868 0.326290 0.489509
O O11 0.764519 0.362129 0.522724
O O12 0.917090 0.241155 0.693402
O O13 0.776865 0.134918 0.775852
O O14 0.877448 0.000000 0.937072
O O15 0.000000 0.085600 0.000000
O O16 0.009128 0.119109 0.146518
O O17 0.314217 0.272265 0.359574
O O18 0.000000 0.831294 0.500000
#
# Coordination Sequence:
#
# PCOD9170709 Si02
#       8
#     8   8   8   8   8   8   8   8
#     4  10  17  33  58  84 115 150 190 248 295 344
#     4  11  23  39  59  90 125 159 200 244 304 369
#     4   9  16  31  56  85 113 141 190 245 298 335
#     4  11  22  37  63  97 115 153 202 261 305 344
#     4  11  24  38  53  78 121 166 193 230 296 370
#     4  11  18  36  59  88 113 150 203 248 294 353
#     4  11  22  39  62  87 123 153 209 253 295 359
#     4   9  20  35  62  89 113 155 196 250 302 343
#
# _framework density 19.678291999999999
#
# number of rings (size 3 to 8) (size 9 to 14) (size 15 to 20)
#    0.000    1.625    3.750    3.000    0.000    1.750 
#    0.000    0.000    0.000    4.125    0.000    3.500 
#    0.000    0.000    0.000    0.000    0.000    0.000 
#
# Total GULP energy -178506.576544 kJ/mol
# GULP energy per Si atom -5578.330517 kJ/mol
# Density = 1.963350 g / cm^3
# Si number density = 19.678292 Si / 1000 Ang^3
#
#
#
# Elastic Constant Matrix: (Units=GPa)
#
#
# Indices 1 2 3 4 5 6 
#
# 1 68.0006 20.8377 30.2713 -0.0001 10.2342 -0.0001
# 2 20.8377 71.0984 41.4480 0.0010 -2.6850 0.0005
# 3 30.2713 41.4480 96.2949 0.0015 -0.4345 0.0009
# 4 -0.0001 0.0010 0.0015 11.5095 0.0006 -1.3513
# 5 10.2342 -2.6850 -0.4345 0.0006 32.2716 0.0003
# 6 -0.0001 0.0005 0.0009 -1.3513 0.0003 14.4756
#
#
#
# Elastic Compliance Matrix: (Units=1/GPa)
#
#
# Indices 1 2 3 4 5 6 
#
# 1 0.018603 -0.003019 -0.004577 0.000001 -0.006212 0.000001
# 2 -0.003019 0.019335 -0.007362 -0.000001 0.002467 0.000000
# 3 -0.004577 -0.007362 0.014997 -0.000001 0.001041 -0.000001
# 4 0.000001 -0.000001 -0.000001 0.087847 -0.000002 0.008200
# 5 -0.006212 0.002467 0.001041 -0.000002 0.033176 -0.000001
# 6 0.000001 0.000000 -0.000001 0.008200 -0.000001 0.069847
#
#
# Mechanical properties :
#
#
# Convention : Reuss Voigt Hill
#
# Bulk Modulus (GPa) = 43.44100 46.72311 45.08206
# Shear Modulus (GPa) = 17.76865 21.17381 19.47123
#
# Velocity S-wave (km/s) = 3.00818 3.28380 3.14901
# Velocity P-wave (km/s) = 5.84714 6.17842 6.01506
#
# Compressibility (1/GPa) = 0.02301973
#
# Stress axis : x y z
#
# Youngs Moduli (GPa) = 53.75423 51.72021 66.67963
#
# Poissons Ratio (x) = 0.15613 0.30518
# Poissons Ratio (y) = 0.16227 0.49090
# Poissons Ratio (z) = 0.24602 0.38077
#
# Static dielectric constant tensor:
#      x y z
#    x 1.765040 0.000000 0.000140 
#    y 0.000000 1.686970 0.000000 
#    z 0.000140 0.000000 1.728180 
# 
# From -- ./inp_files/328639.got.cif
#   From: 2010.05.17/outbox.cif.g08.bks.cpg/sg12_165_cif.got.tgz:328639.got - 2010.06.03 13:09:07.
