data_PCOD9170272
_publ_section_title
;
Structure prediction by ZEFSAII (Michael W. Deem and Ramdas Pophale) SiO2 
 PCOD9170272
Probable space group: C 2/M
;
_chemical_formula_sum "Si O2"
_cell_formula_units_Z 52
_cell_length_a 23.153835
_cell_length_b 12.625463
_cell_length_c 13.460660
_cell_angle_alpha 90.000000
_cell_angle_beta 48.000948
_cell_angle_gamma 90.000000
_cell_volume 2924.263680
_symmetry_space_group_name_H-M "C 2/M"
_symmetry_group_IT_number 12
_symmetry_cell_setting 'monoclinic'
loop_
_space_group_symop_operation_xyz
x,y,z
-x,y,-z
-x,-y,-z
x,-y,z
1/2+x,1/2+y,z
1/2-x,1/2+y,-z
1/2-x,1/2-y,-z
1/2+x,1/2-y,z
loop_
_atom_site_type_symbol
_atom_site_label
_atom_site_fract_x
_atom_site_fract_y
_atom_site_fract_z
Si Si1 0.127045 0.784476 0.578682
Si Si2 0.873016 0.000000 0.980484
Si Si3 0.794780 0.781728 0.082498
Si Si4 0.789059 0.767385 0.317345
Si Si5 0.516573 0.124114 0.594915
Si Si6 0.158231 0.624771 0.140261
Si Si7 0.446777 0.500000 0.283104
Si Si8 0.686880 0.500000 0.724557
O O1 0.146277 0.752398 0.671436
O O2 0.212458 0.798363 0.432112
O O3 0.080312 0.695179 0.574454
O O4 0.077526 0.892396 0.633365
O O5 0.839485 0.114726 0.986517
O O6 0.844514 0.000000 0.127583
O O7 0.964252 0.000000 0.853463
O O8 0.815038 0.756098 0.173298
O O9 0.704843 0.817276 0.175602
O O10 0.812044 0.682314 0.992963
O O11 0.767578 0.892610 0.349427
O O12 0.500000 0.154516 0.500000
O O13 0.433797 0.136233 0.744549
O O14 0.538850 0.000000 0.569698
O O15 0.176370 0.500000 0.122415
O O16 0.389812 0.500000 0.254009
#
# Coordination Sequence:
#
# PCOD9170272 Si02
#       8
#     8   4   8   8   8   8   4   4
#     4  10  20  36  53  80 111 144 178 224 268 330
#     4  10  17  30  54  78  99 137 177 223 273 310
#     4  10  19  34  56  79 104 142 180 226 267 321
#     4   9  19  34  55  80 106 142 186 223 273 315
#     4  10  21  36  58  81 105 139 181 229 269 311
#     4  10  20  35  52  79 109 138 180 222 267 321
#     4  10  19  32  49  76 114 139 168 216 271 330
#     4   8  17  30  52  78 101 132 184 231 263 306
#
# _framework density 17.782253999999998
#
# number of rings (size 3 to 8) (size 9 to 14) (size 15 to 20)
#    0.000    2.308    0.769    2.077    1.077    0.000 
#    2.769    2.692    0.000    1.846    0.000    0.000 
#    0.000    0.000    0.000    0.000    0.000    0.000 
#
# Total GULP energy -144846.342582 kJ/mol
# GULP energy per Si atom -5571.013176 kJ/mol
# Density = 1.774178 g / cm^3
# Si number density = 17.782254 Si / 1000 Ang^3
#
#
#
# Elastic Constant Matrix: (Units=GPa)
#
#
# Indices 1 2 3 4 5 6 
#
# 1 88.9476 42.4412 28.0618 0.0000 13.8987 0.0000
# 2 42.4412 54.0429 24.3751 0.0000 4.3683 0.0000
# 3 28.0618 24.3751 42.3058 0.0000 -0.4260 0.0000
# 4 0.0000 0.0000 0.0000 21.5155 0.0000 -1.9346
# 5 13.8987 4.3683 -0.4260 0.0000 26.5693 0.0000
# 6 0.0000 0.0000 0.0000 -1.9346 0.0000 29.6725
#
#
#
# Elastic Compliance Matrix: (Units=1/GPa)
#
#
# Indices 1 2 3 4 5 6 
#
# 1 0.020704 -0.012576 -0.006576 0.000000 -0.008868 0.000000
# 2 -0.012576 0.033151 -0.010749 0.000000 0.000956 0.000000
# 3 -0.006576 -0.010749 0.034251 0.000000 0.005757 0.000000
# 4 0.000000 0.000000 0.000000 0.046752 0.000000 0.003048
# 5 -0.008868 0.000956 0.005757 0.000000 0.042211 0.000000
# 6 0.000000 0.000000 0.000000 0.003048 0.000000 0.033900
#
#
# Mechanical properties :
#
#
# Convention : Reuss Voigt Hill
#
# Bulk Modulus (GPa) = 35.33246 41.67250 38.50248
# Shear Modulus (GPa) = 17.84401 21.57935 19.71168
#
# Velocity S-wave (km/s) = 3.17120 3.48736 3.33303
# Velocity P-wave (km/s) = 5.77246 6.30090 6.04246
#
# Compressibility (1/GPa) = 0.02830259
#
# Stress axis : x y z
#
# Youngs Moduli (GPa) = 48.30046 30.16500 29.19650
#
# Poissons Ratio (x) = 0.37936 0.19201
# Poissons Ratio (y) = 0.60744 0.31383
# Poissons Ratio (z) = 0.31764 0.32424
#
# Static dielectric constant tensor:
#      x y z
#    x 1.626750 0.000000 0.002390 
#    y 0.000000 1.621220 0.000000 
#    z 0.002390 0.000000 1.597040 
# 
# From -- ./inp_files/232368.got.cif
#   From: 2010.05.17/outbox.cif.g08.bks.cpg/sg12_117_cif.got.tgz:232368.got - 2010.06.03 13:09:07.
