data_PCOD9170059
_publ_section_title
;
Structure prediction by ZEFSAII (Michael W. Deem and Ramdas Pophale) SiO2 
 PCOD9170059
Probable space group: C 2/M
;
_chemical_formula_sum "Si O2"
_cell_formula_units_Z 44
_cell_length_a 16.345230
_cell_length_b 14.248682
_cell_length_c 21.255176
_cell_angle_alpha 90.000000
_cell_angle_beta 156.022050
_cell_angle_gamma 90.000000
_cell_volume 2011.722842
_symmetry_space_group_name_H-M "C 2/M"
_symmetry_group_IT_number 12
_symmetry_cell_setting 'monoclinic'
loop_
_space_group_symop_operation_xyz
x,y,z
-x,y,-z
-x,-y,-z
x,-y,z
1/2+x,1/2+y,z
1/2-x,1/2+y,-z
1/2-x,1/2-y,-z
1/2+x,1/2-y,z
loop_
_atom_site_type_symbol
_atom_site_label
_atom_site_fract_x
_atom_site_fract_y
_atom_site_fract_z
Si Si1 0.884788 0.401562 0.352829
Si Si2 0.639531 0.609134 0.725352
Si Si3 0.500000 0.237484 0.000000
Si Si4 0.490355 0.390358 0.219739
Si Si5 0.833672 0.251393 0.489454
Si Si6 0.904222 0.894847 0.025321
O O1 0.938102 0.500000 0.359317
O O2 0.648296 0.398873 0.196733
O O3 0.000000 0.397543 0.500000
O O4 0.974227 0.318465 0.376658
O O5 0.667056 0.500000 0.729902
O O6 0.839939 0.669789 0.852929
O O7 0.601838 0.616985 0.775063
O O8 0.439493 0.651643 0.550753
O O9 0.624433 0.307312 0.040874
O O10 0.567488 0.500000 0.269773
O O11 0.658329 0.308257 0.330136
O O12 0.346118 0.380473 0.057496
O O13 0.750000 0.250000 0.500000
O O14 0.836609 0.000000 0.957204
#
# Coordination Sequence:
#
# PCOD9170059 Si02
#       6
#     8   8   4   8   8   8
#     4  10  17  29  53  82 105 129 162 208 272 331
#     4  10  22  37  53  74 104 145 186 215 245 298
#     4  12  22  36  54  74 106 146 184 216 250 298
#     4   9  18  35  58  83 107 132 166 213 271 325
#     4  10  18  31  53  80 104 129 167 216 265 309
#     4  10  20  33  53  81 109 132 165 217 269 316
#
# _framework density 21.8718
#
# number of rings (size 3 to 8) (size 9 to 14) (size 15 to 20)
#    0.000    2.000    3.636    1.091    0.000    1.455 
#    0.000    0.000    0.000    6.000    0.000    0.000 
#    0.000    0.000    0.000    0.000    0.000    0.000 
#
# Total GULP energy -122500.126914 kJ/mol
# GULP energy per Si atom -5568.187587 kJ/mol
# Density = 2.182202 g / cm^3
# Si number density = 21.871800 Si / 1000 Ang^3
#
#
#
# Elastic Constant Matrix: (Units=GPa)
#
#
# Indices 1 2 3 4 5 6 
#
# 1 43.4586 17.4619 -6.2004 0.0027 -7.0920 0.0006
# 2 17.4619 147.1150 24.6100 0.0064 -11.1000 0.0015
# 3 -6.2004 24.6100 51.3292 0.0111 -10.7987 0.0021
# 4 0.0027 0.0064 0.0111 24.1290 0.0011 -3.9870
# 5 -7.0920 -11.1000 -10.7987 0.0011 19.4577 0.0002
# 6 0.0006 0.0015 0.0021 -3.9870 0.0002 29.5328
#
#
#
# Elastic Compliance Matrix: (Units=1/GPa)
#
#
# Indices 1 2 3 4 5 6 
#
# 1 0.027549 -0.003626 0.007635 -0.000007 0.012210 -0.000002
# 2 -0.003626 0.007981 -0.004058 0.000000 0.000979 0.000000
# 3 0.007635 -0.004058 0.025416 -0.000013 0.014573 -0.000004
# 4 -0.000007 0.000000 -0.000013 0.042390 -0.000012 0.005723
# 5 0.012210 0.000979 0.014573 -0.000012 0.064490 -0.000003
# 6 -0.000002 0.000000 -0.000004 0.005723 -0.000003 0.034633
#
#
# Mechanical properties :
#
#
# Convention : Reuss Voigt Hill
#
# Bulk Modulus (GPa) = 16.43452 34.84951 25.64202
# Shear Modulus (GPa) = 22.43766 28.35932 25.39849
#
# Velocity S-wave (km/s) = 3.20640 3.60476 3.41140
# Velocity P-wave (km/s) = 4.60851 5.77008 5.22169
#
# Compressibility (1/GPa) = 0.06084752
#
# Stress axis : x y z
#
# Youngs Moduli (GPa) = 36.29863 125.30481 39.34508
#
# Poissons Ratio (x) = 0.45435 -0.30041
# Poissons Ratio (y) = 0.13162 0.15968
# Poissons Ratio (z) = -0.27715 0.50854
#
# Static dielectric constant tensor:
#      x y z
#    x 1.759240 0.000000 -0.037130 
#    y 0.000000 1.862500 0.000000 
#    z -0.037130 0.000000 1.826280 
# 
# From -- ./inp_files/182376.got.cif
#   From: 2010.05.17/outbox.cif.g08.bks.cpg/sg12_92_cif.got.tgz:182376.got - 2010.06.03 13:09:07.
