data_PCOD9170189
_publ_section_title
;
Structure prediction by ZEFSAII (Michael W. Deem and Ramdas Pophale) SiO2 
 PCOD9170189
Probable space group: C 2/M
;
_chemical_formula_sum "Si O2"
_cell_formula_units_Z 64
_cell_length_a 20.524049
_cell_length_b 19.624235
_cell_length_c 8.866105
_cell_angle_alpha 90.000000
_cell_angle_beta 82.515103
_cell_angle_gamma 90.000000
_cell_volume 3540.562549
_symmetry_space_group_name_H-M "C 2/M"
_symmetry_group_IT_number 12
_symmetry_cell_setting 'monoclinic'
loop_
_space_group_symop_operation_xyz
x,y,z
-x,y,-z
-x,-y,-z
x,-y,z
1/2+x,1/2+y,z
1/2-x,1/2+y,-z
1/2-x,1/2-y,-z
1/2+x,1/2-y,z
loop_
_atom_site_type_symbol
_atom_site_label
_atom_site_fract_x
_atom_site_fract_y
_atom_site_fract_z
Si Si1 0.777108 0.236999 0.743700
Si Si2 0.307340 0.421267 0.269726
Si Si3 0.764216 0.358363 0.972365
Si Si4 0.846865 0.792596 0.413731
Si Si5 0.106323 0.576262 0.964155
Si Si6 0.663485 0.075815 0.462500
Si Si7 0.964511 0.575945 0.704490
Si Si8 0.085731 0.332909 0.691180
O O1 0.794213 0.299344 0.852798
O O2 0.828396 0.217520 0.595814
O O3 0.713338 0.262775 0.670135
O O4 0.759287 0.176323 0.864745
O O5 0.327827 0.500000 0.262281
O O6 0.294716 0.392031 0.105641
O O7 0.350810 0.370493 0.357552
O O8 0.234140 0.417772 0.365658
O O9 0.820903 0.412484 0.990972
O O10 0.908292 0.746281 0.345668
O O11 0.101764 0.500000 0.897330
O O12 0.093287 0.638968 0.857188
O O13 0.054972 0.579186 0.115308
O O14 0.604124 0.082314 0.361921
O O15 0.647972 0.133222 0.587355
O O16 0.659542 0.000000 0.530687
O O17 0.991217 0.500000 0.665800
O O18 0.019323 0.631499 0.654227
#
# Coordination Sequence:
#
# PCOD9170189 Si02
#       8
#     8   8   8   8   8   8   8   8
#     4   9  18  32  49  70  97 128 170 216 256 302
#     4  10  20  35  53  73 101 132 167 212 264 315
#     4  10  17  30  51  71  95 135 171 206 258 304
#     4  10  20  33  49  73  98 131 174 212 266 301
#     4  11  21  32  46  71 103 139 177 211 243 285
#     4  10  19  32  49  70  98 137 176 210 249 296
#     4  10  21  35  48  68 103 144 180 210 242 286
#     4  12  21  32  47  68  99 141 177 213 247 293
#
# _framework density 18.076224
#
# number of rings (size 3 to 8) (size 9 to 14) (size 15 to 20)
#    0.000    1.750    2.500    4.500    0.000    2.000 
#    0.000    0.625    0.000    0.000    0.000    0.000 
#    0.000    4.000    0.000    1.000    0.000    0.500 
#
# Total GULP energy -178539.483322 kJ/mol
# GULP energy per Si atom -5579.358854 kJ/mol
# Density = 1.803508 g / cm^3
# Si number density = 18.076224 Si / 1000 Ang^3
#
#
#
# Elastic Constant Matrix: (Units=GPa)
#
#
# Indices 1 2 3 4 5 6 
#
# 1 33.4058 29.5415 6.8696 0.0000 -0.0171 0.0000
# 2 29.5415 127.9912 40.8400 0.0000 -7.6672 0.0000
# 3 6.8696 40.8400 112.7056 0.0000 -7.5691 0.0000
# 4 0.0000 0.0000 0.0000 18.4901 0.0000 -2.9030
# 5 -0.0171 -7.6672 -7.5691 0.0000 15.0202 0.0000
# 6 0.0000 0.0000 0.0000 -2.9030 0.0000 22.4246
#
#
#
# Elastic Compliance Matrix: (Units=1/GPa)
#
#
# Indices 1 2 3 4 5 6 
#
# 1 0.037968 -0.009261 0.000753 0.000000 -0.004305 0.000000
# 2 -0.009261 0.011226 -0.003228 0.000000 0.004093 0.000000
# 3 0.000753 -0.003228 0.010232 0.000000 0.003509 0.000000
# 4 0.000000 0.000000 0.000000 0.055205 0.000000 0.007147
# 5 -0.004305 0.004093 0.003509 0.000000 0.070430 0.000000
# 6 0.000000 0.000000 0.000000 0.007147 0.000000 0.045519
#
#
# Mechanical properties :
#
#
# Convention : Reuss Voigt Hill
#
# Bulk Modulus (GPa) = 27.81499 47.62274 37.71887
# Shear Modulus (GPa) = 18.79426 24.31041 21.55234
#
# Velocity S-wave (km/s) = 3.22797 3.67124 3.45672
# Velocity P-wave (km/s) = 5.41425 6.66134 6.06991
#
# Compressibility (1/GPa) = 0.03595183
#
# Stress axis : x y z
#
# Youngs Moduli (GPa) = 26.33799 89.07904 97.72926
#
# Poissons Ratio (x) = 0.82499 -0.07355
# Poissons Ratio (y) = 0.24393 0.31552
# Poissons Ratio (z) = -0.01982 0.28759
#
# Static dielectric constant tensor:
#      x y z
#    x 1.615980 0.000000 0.017350 
#    y 0.000000 1.679300 0.000000 
#    z 0.017350 0.000000 1.677420 
# 
# From -- ./inp_files/87961.got.cif
#   From: 2010.05.17/outbox.cif.g08.bks.cpg/sg12_44_cif.got.tgz:87961.got - 2010.06.03 13:09:07.
