data_PCOD9170391
_publ_section_title
;
Structure prediction by ZEFSAII (Michael W. Deem and Ramdas Pophale) SiO2 
 PCOD9170391
Probable space group: C 2/M
;
_chemical_formula_sum "Si O2"
_cell_formula_units_Z 58
_cell_length_a 22.169422
_cell_length_b 19.511677
_cell_length_c 23.144077
_cell_angle_alpha 90.000000
_cell_angle_beta 161.580661
_cell_angle_gamma 90.000000
_cell_volume 3163.251418
_symmetry_space_group_name_H-M "C 2/M"
_symmetry_group_IT_number 12
_symmetry_cell_setting 'monoclinic'
loop_
_space_group_symop_operation_xyz
x,y,z
-x,y,-z
-x,-y,-z
x,-y,z
1/2+x,1/2+y,z
1/2-x,1/2+y,-z
1/2-x,1/2-y,-z
1/2+x,1/2-y,z
loop_
_atom_site_type_symbol
_atom_site_label
_atom_site_fract_x
_atom_site_fract_y
_atom_site_fract_z
Si Si1 0.434841 0.690396 0.808809
Si Si2 0.495049 0.204244 0.773437
Si Si3 0.000000 0.000000 0.000000
Si Si4 0.398959 0.421269 0.675634
Si Si5 0.963446 0.186064 0.645530
Si Si6 0.224737 0.873931 0.153551
Si Si7 0.492967 0.243228 0.556951
Si Si8 0.443037 0.077653 0.236598
O O1 0.539470 0.753578 0.871448
O O2 0.435652 0.627145 0.764137
O O3 0.218034 0.712984 0.622914
O O4 0.541681 0.666987 0.962996
O O5 0.267141 0.191680 0.568984
O O6 0.523549 0.254568 0.744921
O O7 0.593068 0.132934 0.846626
O O8 0.842821 0.939463 0.872492
O O9 0.454242 0.500000 0.735216
O O10 0.494769 0.385586 0.706780
O O11 0.169566 0.419759 0.456763
O O12 0.040445 0.204945 0.652513
O O13 0.362971 0.820810 0.310636
O O14 0.333315 0.899831 0.194399
O O15 0.500000 0.275592 0.500000
O O16 0.394176 0.000000 0.176520
#
# Coordination Sequence:
#
# PCOD9170391 Si02
#       8
#     8   8   2   8   8   8   8   8
#     4  10  21  35  55  79 104 134 179 224 265 313
#     4   8  14  30  52  76 102 129 167 225 272 311
#     4  12  28  40  46  72 116 150 178 228 244 280
#     4   9  17  31  55  82 107 135 164 214 284 329
#     4   8  14  29  52  76 102 128 172 223 262 311
#     4  12  23  38  51  71 104 143 183 218 252 300
#     4  11  21  38  56  72  98 144 188 219 254 306
#     4  10  17  31  53  75 104 140 172 210 264 326
#
# _framework density 18.335564999999999
#
# number of rings (size 3 to 8) (size 9 to 14) (size 15 to 20)
#    0.000    2.207    3.448    2.483    0.966    0.552 
#    0.000    1.034    0.000    0.414    0.000    0.000 
#    0.000    0.000    0.000   13.517    0.000    1.103 
#
# Total GULP energy -161587.085602 kJ/mol
# GULP energy per Si atom -5571.968469 kJ/mol
# Density = 1.829383 g / cm^3
# Si number density = 18.335565 Si / 1000 Ang^3
#
#
#
# Elastic Constant Matrix: (Units=GPa)
#
#
# Indices 1 2 3 4 5 6 
#
# 1 71.5880 12.0185 3.5875 -0.0104 7.5175 0.0122
# 2 12.0185 61.0925 0.7095 0.0552 11.1819 0.0139
# 3 3.5875 0.7095 58.8505 0.0810 0.3775 -0.0072
# 4 -0.0104 0.0552 0.0810 7.2644 0.0403 9.4680
# 5 7.5175 11.1819 0.3775 0.0403 17.3401 -0.0034
# 6 0.0122 0.0139 -0.0072 9.4680 -0.0034 22.3263
#
#
#
# Elastic Compliance Matrix: (Units=1/GPa)
#
#
# Indices 1 2 3 4 5 6 
#
# 1 0.014885 -0.001974 -0.000851 0.000190 -0.005162 -0.000088
# 2 -0.001974 0.018822 -0.000034 -0.000149 -0.011281 0.000051
# 3 -0.000851 -0.000034 0.017045 -0.000445 0.000021 0.000195
# 4 0.000190 -0.000149 -0.000445 0.307789 -0.000717 -0.130526
# 5 -0.005162 -0.011281 0.000021 -0.000717 0.067184 0.000324
# 6 -0.000088 0.000051 0.000195 -0.130526 0.000324 0.100143
#
#
# Mechanical properties :
#
#
# Convention : Reuss Voigt Hill
#
# Bulk Modulus (GPa) = 22.20485 24.90690 23.55588
# Shear Modulus (GPa) = 9.14752 21.06719 15.10735
#
# Velocity S-wave (km/s) = 2.23602 3.39334 2.87354
# Velocity P-wave (km/s) = 4.33623 5.38204 4.88719
#
# Compressibility (1/GPa) = 0.04503521
#
# Stress axis : x y z
#
# Youngs Moduli (GPa) = 67.18197 53.12879 58.66833
#
# Poissons Ratio (x) = 0.10486 0.04991
# Poissons Ratio (y) = 0.13260 0.00200
# Poissons Ratio (z) = 0.05715 0.00181
#
# Static dielectric constant tensor:
#      x y z
#    x 1.639690 -0.000010 0.000740 
#    y -0.000010 1.621660 -0.000030 
#    z 0.000740 -0.000030 1.689130 
# 
# From -- ./inp_files/322963.got.cif
#   From: 2010.05.17/outbox.cif.g08.bks.cpg/sg12_162_cif.got.tgz:322963.got - 2010.06.03 13:09:07.
