data_PCOD9170504
_publ_section_title
;
Structure prediction by ZEFSAII (Michael W. Deem and Ramdas Pophale) SiO2 
 PCOD9170504
Probable space group: C 2/M
;
_chemical_formula_sum "Si O2"
_cell_formula_units_Z 36
_cell_length_a 5.389611
_cell_length_b 19.672855
_cell_length_c 13.941970
_cell_angle_alpha 90.000000
_cell_angle_beta 79.674382
_cell_angle_gamma 90.000000
_cell_volume 1454.313308
_symmetry_space_group_name_H-M "C 2/M"
_symmetry_group_IT_number 12
_symmetry_cell_setting 'monoclinic'
loop_
_space_group_symop_operation_xyz
x,y,z
-x,y,-z
-x,-y,-z
x,-y,z
1/2+x,1/2+y,z
1/2-x,1/2+y,-z
1/2-x,1/2-y,-z
1/2+x,1/2-y,z
loop_
_atom_site_type_symbol
_atom_site_label
_atom_site_fract_x
_atom_site_fract_y
_atom_site_fract_z
Si Si1 0.265609 0.673942 0.458489
Si Si2 0.349923 0.500000 0.610832
Si Si3 0.208902 0.848607 0.058880
Si Si4 0.231030 0.500000 0.915283
Si Si5 0.095119 0.500000 0.250249
Si Si6 0.041471 0.120897 0.737750
O O1 0.500000 0.644050 0.500000
O O2 0.250000 0.750000 0.500000
O O3 0.316132 0.672418 0.342436
O O4 0.000000 0.639326 0.500000
O O5 0.500000 0.500000 0.500000
O O6 0.044512 0.500000 0.637189
O O7 0.417324 0.566794 0.671348
O O8 0.136435 0.836543 0.176266
O O9 0.147137 0.929015 0.070452
O O10 0.500000 0.839971 0.000000
O O11 0.000000 0.818130 0.000000
O O12 0.111294 0.500000 0.818846
O O13 0.000000 0.500000 0.000000
O O14 0.255397 0.569161 0.228172
#
# Coordination Sequence:
#
# PCOD9170504 Si02
#       6
#     8   4   8   4   4   8
#     4  10  24  44  68  96 119 157 213 269 326 374
#     4  11  24  36  52  87 131 177 217 247 324 377
#     4  11  22  35  55  87 122 170 220 258 311 365
#     4  10  17  32  51  74 120 167 219 250 278 355
#     4  11  22  37  52  90 129 180 217 245 329 367
#     4  11  23  37  61  87 130 173 210 269 310 380
#
# _framework density 24.753951000000001
#
# number of rings (size 3 to 8) (size 9 to 14) (size 15 to 20)
#    0.000    1.333    2.222    4.333    6.222    0.889 
#    0.000    0.000    0.000    0.000    0.000   18.667 
#    0.000    0.000    0.000    0.000    0.000    0.000 
#
# Total GULP energy -100231.635462 kJ/mol
# GULP energy per Si atom -5568.424192 kJ/mol
# Density = 2.469761 g / cm^3
# Si number density = 24.753951 Si / 1000 Ang^3
#
#
#
# Elastic Constant Matrix: (Units=GPa)
#
#
# Indices 1 2 3 4 5 6 
#
# 1 158.2683 1.2077 87.4436 0.0000 -23.5823 0.0000
# 2 1.2077 73.0304 29.7573 0.0000 2.4057 0.0000
# 3 87.4436 29.7573 252.5034 0.0000 -53.8951 0.0000
# 4 0.0000 0.0000 0.0000 7.1927 0.0000 -5.4071
# 5 -23.5823 2.4057 -53.8951 0.0000 53.8747 0.0000
# 6 0.0000 0.0000 0.0000 -5.4071 0.0000 -7.2500
#
#
#
# Elastic Compliance Matrix: (Units=1/GPa)
#
#
# Indices 1 2 3 4 5 6 
#
# 1 0.007908 0.000944 -0.002696 0.000000 0.000723 0.000000
# 2 0.000944 0.014881 -0.002714 0.000000 -0.002966 0.000000
# 3 -0.002696 -0.002714 0.006342 0.000000 0.005285 0.000000
# 4 0.000000 0.000000 0.000000 0.089084 0.000000 -0.066439
# 5 0.000723 -0.002966 0.005285 0.000000 0.024298 0.000000
# 6 0.000000 0.000000 0.000000 -0.066439 0.000000 -0.088381
#
#
# Mechanical properties :
#
#
# Convention : Reuss Voigt Hill
#
# Bulk Modulus (GPa) = 49.50522 80.06880 64.78701
# Shear Modulus (GPa) = 71.63707 35.12305 53.38006
#
# Velocity S-wave (km/s) = 5.38539 3.77090 4.64877
# Velocity P-wave (km/s) = 7.66240 7.16768 7.41916
#
# Compressibility (1/GPa) = 0.02019989
#
# Stress axis : x y z
#
# Youngs Moduli (GPa) = 126.45070 67.20110 157.68441
#
# Poissons Ratio (x) = -0.06342 0.42505
# Poissons Ratio (y) = -0.11934 0.42789
# Poissons Ratio (z) = 0.34086 0.18236
#
# Static dielectric constant tensor:
#      x y z
#    x 2.081880 0.000000 -0.058460 
#    y 0.000000 3.590390 0.000000 
#    z -0.058460 0.000000 2.112090 
# 
# From -- ./inp_files/191755.got.cif
#   From: 2010.05.17/outbox.cif.g08.bks.cpg/sg12_96_cif.got.tgz:191755.got - 2010.06.03 13:09:07.
