data_PCOD9170185
_publ_section_title
;
Structure prediction by ZEFSAII (Michael W. Deem and Ramdas Pophale) SiO2 
 PCOD9170185
Probable space group: C 2/M
;
_chemical_formula_sum "Si O2"
_cell_formula_units_Z 64
_cell_length_a 22.263955
_cell_length_b 23.304840
_cell_length_c 9.278379
_cell_angle_alpha 90.000000
_cell_angle_beta 54.912164
_cell_angle_gamma 90.000000
_cell_volume 3939.291510
_symmetry_space_group_name_H-M "C 2/M"
_symmetry_group_IT_number 12
_symmetry_cell_setting 'monoclinic'
loop_
_space_group_symop_operation_xyz
x,y,z
-x,y,-z
-x,-y,-z
x,-y,z
1/2+x,1/2+y,z
1/2-x,1/2+y,-z
1/2-x,1/2-y,-z
1/2+x,1/2-y,z
loop_
_atom_site_type_symbol
_atom_site_label
_atom_site_fract_x
_atom_site_fract_y
_atom_site_fract_z
Si Si1 0.719395 0.226734 0.307313
Si Si2 0.777474 0.346287 0.223922
Si Si3 0.227449 0.434767 0.181661
Si Si4 0.420885 0.255273 0.668863
Si Si5 0.808175 0.387116 0.475026
Si Si6 0.101178 0.370291 0.171333
Si Si7 0.311761 0.661033 0.942162
Si Si8 0.530051 0.932075 0.795429
O O1 0.768704 0.280357 0.286817
O O2 0.638859 0.248701 0.375961
O O3 0.710138 0.174439 0.428543
O O4 0.756830 0.202378 0.108780
O O5 0.770726 0.387347 0.370171
O O6 0.718895 0.351007 0.175686
O O7 0.853503 0.358775 0.037846
O O8 0.228934 0.500000 0.129547
O O9 0.217493 0.430857 0.366842
O O10 0.158025 0.401876 0.202310
O O11 0.300454 0.399216 0.038284
O O12 0.500000 0.270661 0.500000
O O13 0.422334 0.191878 0.737150
O O14 0.386628 0.303667 0.821515
O O15 0.894491 0.397848 0.331635
O O16 0.031391 0.408915 0.229769
O O17 0.543069 0.000000 0.755651
O O18 0.500000 0.924598 0.000000
#
# Coordination Sequence:
#
# PCOD9170185 Si02
#       8
#     8   8   8   8   8   8   8   8
#     4  10  17  33  49  73 102 130 165 210 257 309
#     4  10  17  30  51  70  94 132 166 210 253 300
#     4  10  21  35  52  71  96 131 180 220 249 302
#     4  11  18  30  54  80 103 129 166 210 257 312
#     4  11  20  32  46  71  96 133 173 211 252 295
#     4  11  19  34  51  71  97 139 175 203 253 307
#     4   9  18  34  54  74 102 131 171 212 263 307
#     4  11  23  34  44  65 104 141 174 210 245 290
#
# _framework density 16.246576000000001
#
# number of rings (size 3 to 8) (size 9 to 14) (size 15 to 20)
#    0.000    1.625    6.250    2.625    0.000    0.000 
#    0.000    1.875    0.000    0.375    0.000    0.000 
#    0.000    4.000    0.000    0.000    0.000    0.000 
#
# Total GULP energy -178228.192543 kJ/mol
# GULP energy per Si atom -5569.631017 kJ/mol
# Density = 1.620960 g / cm^3
# Si number density = 16.246576 Si / 1000 Ang^3
#
#
#
# Elastic Constant Matrix: (Units=GPa)
#
#
# Indices 1 2 3 4 5 6 
#
# 1 44.3049 19.7157 33.5229 0.0000 4.2662 0.0000
# 2 19.7157 79.7247 41.7926 0.0000 -3.2509 0.0000
# 3 33.5229 41.7926 95.8191 0.0000 -6.4435 0.0000
# 4 0.0000 0.0000 0.0000 16.4609 0.0000 2.7002
# 5 4.2662 -3.2509 -6.4435 0.0000 23.7164 0.0000
# 6 0.0000 0.0000 0.0000 2.7002 0.0000 13.4380
#
#
#
# Elastic Compliance Matrix: (Units=1/GPa)
#
#
# Indices 1 2 3 4 5 6 
#
# 1 0.032995 -0.002800 -0.010947 0.000000 -0.009293 0.000000
# 2 -0.002800 0.016501 -0.006144 0.000000 0.001096 0.000000
# 3 -0.010947 -0.006144 0.017339 0.000000 0.005838 0.000000
# 4 0.000000 0.000000 0.000000 0.062821 0.000000 -0.012623
# 5 -0.009293 0.001096 0.005838 0.000000 0.045573 0.000000
# 6 0.000000 0.000000 0.000000 -0.012623 0.000000 0.076952
#
#
# Mechanical properties :
#
#
# Convention : Reuss Voigt Hill
#
# Bulk Modulus (GPa) = 36.96509 45.54570 41.25540
# Shear Modulus (GPa) = 16.61246 19.04424 17.82835
#
# Velocity S-wave (km/s) = 3.20116 3.42746 3.31624
# Velocity P-wave (km/s) = 6.03864 6.61499 6.33338
#
# Compressibility (1/GPa) = 0.02705255
#
# Stress axis : x y z
#
# Youngs Moduli (GPa) = 30.30791 60.60274 57.67499
#
# Poissons Ratio (x) = 0.16968 0.63138
# Poissons Ratio (y) = 0.08486 0.35434
# Poissons Ratio (z) = 0.33179 0.37233
#
# Static dielectric constant tensor:
#      x y z
#    x 1.541040 0.000000 0.022320 
#    y 0.000000 1.570670 0.000000 
#    z 0.022320 0.000000 1.568690 
# 
# From -- ./inp_files/99647.got.cif
#   From: 2010.05.17/outbox.cif.g08.bks.cpg/sg12_50_cif.got.tgz:99647.got - 2010.06.03 13:09:07.
