data_PCOD9170109
_publ_section_title
;
Structure prediction by ZEFSAII (Michael W. Deem and Ramdas Pophale) SiO2 
 PCOD9170109
Probable space group: C 2/M
;
_chemical_formula_sum "Si O2"
_cell_formula_units_Z 52
_cell_length_a 26.287386
_cell_length_b 7.585329
_cell_length_c 21.969011
_cell_angle_alpha 90.000000
_cell_angle_beta 153.268013
_cell_angle_gamma 90.000000
_cell_volume 1970.465570
_symmetry_space_group_name_H-M "C 2/M"
_symmetry_group_IT_number 12
_symmetry_cell_setting 'monoclinic'
loop_
_space_group_symop_operation_xyz
x,y,z
-x,y,-z
-x,-y,-z
x,-y,z
1/2+x,1/2+y,z
1/2-x,1/2+y,-z
1/2-x,1/2-y,-z
1/2+x,1/2-y,z
loop_
_atom_site_type_symbol
_atom_site_label
_atom_site_fract_x
_atom_site_fract_y
_atom_site_fract_z
Si Si1 0.091314 0.211211 0.368182
Si Si2 0.625841 0.299436 0.804215
Si Si3 0.562652 0.307256 0.503513
Si Si4 0.169324 0.500000 0.549684
Si Si5 0.672377 0.207899 0.058064
Si Si6 0.628178 0.704703 0.140302
Si Si7 0.584371 0.210714 0.225139
O O1 0.957306 0.268569 0.231899
O O2 0.126619 0.238284 0.336644
O O3 0.153830 0.342983 0.480483
O O4 0.100760 0.000000 0.392909
O O5 0.654037 0.500000 0.852076
O O6 0.537601 0.302252 0.653697
O O7 0.737256 0.215477 0.893413
O O8 0.500000 0.289185 0.500000
O O9 0.618111 0.500000 0.559176
O O10 0.644702 0.150569 0.576501
O O11 0.698825 0.220571 0.158847
O O12 0.668532 0.000000 0.041225
O O13 0.545352 0.277326 0.915904
O O14 0.619954 0.500000 0.116344
O O15 0.646994 0.710584 0.233431
O O16 0.500000 0.786125 0.000000
O O17 0.588359 0.000000 0.223257
#
# Coordination Sequence:
#
# PCOD9170109 Si02
#       7
#     8   8   8   4   8   8   8
#     4  10  19  31  46  65  94 131 162 198 232 271
#     4   8  16  30  45  65  96 126 149 189 238 281
#     4   9  17  30  50  73  96 128 155 189 234 286
#     4  10  17  30  46  68  95 124 155 190 232 272
#     4   9  17  30  46  63  89 125 161 198 242 280
#     4   9  17  29  43  61  85 116 158 206 246 277
#     4  10  18  29  45  65  87 125 171 204 234 275
#
# _framework density 26.389703000000001
#
# number of rings (size 3 to 8) (size 9 to 14) (size 15 to 20)
#    0.000    2.769    0.769    2.538    0.000    3.077 
#    5.538    0.000    0.000    0.000    0.000    0.000 
#    0.000    4.923    9.538    0.462    0.000    0.308 
#
# Total GULP energy -144828.125421 kJ/mol
# GULP energy per Si atom -5570.312516 kJ/mol
# Density = 2.632964 g / cm^3
# Si number density = 26.389703 Si / 1000 Ang^3
#
#
#
# Elastic Constant Matrix: (Units=GPa)
#
#
# Indices 1 2 3 4 5 6 
#
# 1 150.2586 29.4999 11.8682 0.0000 13.4092 0.0000
# 2 29.4999 123.3780 -7.7109 0.0000 8.8436 0.0000
# 3 11.8682 -7.7109 55.8864 0.0000 -7.0747 0.0000
# 4 0.0000 0.0000 0.0000 113.5949 0.0000 84.7003
# 5 13.4092 8.8436 -7.0747 0.0000 55.0026 0.0000
# 6 0.0000 0.0000 0.0000 84.7003 0.0000 127.6101
#
#
#
# Elastic Compliance Matrix: (Units=1/GPa)
#
#
# Indices 1 2 3 4 5 6 
#
# 1 0.007315 -0.001749 -0.002018 0.000000 -0.001762 0.000000
# 2 -0.001749 0.008671 0.001469 0.000000 -0.000779 0.000000
# 3 -0.002018 0.001469 0.018864 0.000000 0.002682 0.000000
# 4 0.000000 0.000000 0.000000 0.017429 0.000000 -0.011568
# 5 -0.001762 -0.000779 0.002682 0.000000 0.019081 0.000000
# 6 0.000000 0.000000 0.000000 -0.011568 0.000000 0.015515
#
#
# Mechanical properties :
#
#
# Convention : Reuss Voigt Hill
#
# Bulk Modulus (GPa) = 33.05206 44.09305 38.57255
# Shear Modulus (GPa) = 49.23450 78.96592 64.10021
#
# Velocity S-wave (km/s) = 4.32403 5.47613 4.93382
# Velocity P-wave (km/s) = 6.12221 7.53184 6.86331
#
# Compressibility (1/GPa) = 0.03025530
#
# Stress axis : x y z
#
# Youngs Moduli (GPa) = 136.70285 115.32724 53.01052
#
# Poissons Ratio (x) = 0.20169 0.10696
# Poissons Ratio (y) = 0.23908 -0.07788
# Poissons Ratio (z) = 0.27584 -0.16944
#
# Static dielectric constant tensor:
#      x y z
#    x 2.100910 0.000000 0.089830 
#    y 0.000000 2.055680 0.000000 
#    z 0.089830 0.000000 2.297410 
# 
# From -- ./inp_files/327007.got.cif
#   From: 2010.05.17/outbox.cif.g08.bks.cpg/sg12_164_cif.got.tgz:327007.got - 2010.06.03 13:09:07.
