data_PCOD9170158
_publ_section_title
;
Structure prediction by ZEFSAII (Michael W. Deem and Ramdas Pophale) SiO2 
 PCOD9170158
Probable space group: C 2/M
;
_chemical_formula_sum "Si O2"
_cell_formula_units_Z 60
_cell_length_a 22.089094
_cell_length_b 25.429431
_cell_length_c 9.499805
_cell_angle_alpha 90.000000
_cell_angle_beta 38.302842
_cell_angle_gamma 90.000000
_cell_volume 3307.450791
_symmetry_space_group_name_H-M "C 2/M"
_symmetry_group_IT_number 12
_symmetry_cell_setting 'monoclinic'
loop_
_space_group_symop_operation_xyz
x,y,z
-x,y,-z
-x,-y,-z
x,-y,z
1/2+x,1/2+y,z
1/2-x,1/2+y,-z
1/2-x,1/2-y,-z
1/2+x,1/2-y,z
loop_
_atom_site_type_symbol
_atom_site_label
_atom_site_fract_x
_atom_site_fract_y
_atom_site_fract_z
Si Si1 0.186590 0.133276 0.974596
Si Si2 0.616892 0.344938 0.799482
Si Si3 0.384285 0.221750 0.225457
Si Si4 0.606989 0.184965 0.473315
Si Si5 0.704669 0.061446 0.019098
Si Si6 0.156489 0.217919 0.230212
Si Si7 0.248874 0.144891 0.299559
Si Si8 0.500000 0.103797 0.500000
O O1 0.146827 0.127472 0.890543
O O2 0.293810 0.158933 0.764034
O O3 0.211249 0.083559 0.027880
O O4 0.122372 0.177480 0.172505
O O5 0.646643 0.282439 0.744199
O O6 0.675246 0.368910 0.560971
O O7 0.500000 0.347158 0.000000
O O8 0.370574 0.201457 0.409036
O O9 0.333049 0.181486 0.212903
O O10 0.500000 0.221262 0.000000
O O11 0.588369 0.238076 0.421008
O O12 0.524403 0.142502 0.587220
O O13 0.597348 0.071706 0.283503
O O14 0.717188 0.000000 0.970442
O O15 0.712961 0.096024 0.861637
O O16 0.192544 0.181624 0.291683
O O17 0.250000 0.250000 0.000000
#
# Coordination Sequence:
#
# PCOD9170158 Si02
#       8
#     8   8   8   8   8   8   8   4
#     4   9  19  35  55  78 109 150 193 242 288 338
#     4  11  22  35  57  87 121 156 191 239 300 357
#     4  11  20  29  52  85 125 161 188 220 286 366
#     4  10  17  30  49  80 117 160 185 218 277 346
#     4  10  22  41  64  83 109 155 202 251 302 339
#     4   9  17  29  50  74 109 156 191 226 274 334
#     4  11  20  37  57  81 120 157 198 248 285 342
#     4  10  21  34  58  90 124 150 195 238 276 364
#
# _framework density 18.140861000000001
#
# number of rings (size 3 to 8) (size 9 to 14) (size 15 to 20)
#    0.000    1.867    2.667    3.800    0.000    2.133 
#    0.000    2.667    0.000    3.600    0.000    0.000 
#    0.000    0.000    0.000    0.000    0.000    0.000 
#
# Total GULP energy -167270.624567 kJ/mol
# GULP energy per Si atom -5575.687486 kJ/mol
# Density = 1.809957 g / cm^3
# Si number density = 18.140861 Si / 1000 Ang^3
#
#
#
# Elastic Constant Matrix: (Units=GPa)
#
#
# Indices 1 2 3 4 5 6 
#
# 1 86.8893 33.6166 30.1900 0.0000 15.2545 0.0000
# 2 33.6166 102.1254 39.8754 0.0000 5.7119 0.0000
# 3 30.1900 39.8754 59.5523 0.0000 21.7995 0.0000
# 4 0.0000 0.0000 0.0000 19.3157 0.0000 -0.6432
# 5 15.2545 5.7119 21.7995 0.0000 27.2067 0.0000
# 6 0.0000 0.0000 0.0000 -0.6432 0.0000 14.8560
#
#
#
# Elastic Compliance Matrix: (Units=1/GPa)
#
#
# Indices 1 2 3 4 5 6 
#
# 1 0.014845 -0.003194 -0.003659 0.000000 -0.004721 0.000000
# 2 -0.003194 0.014708 -0.010973 0.000000 0.007495 0.000000
# 3 -0.003659 -0.010973 0.034527 0.000000 -0.023309 0.000000
# 4 0.000000 0.000000 0.000000 0.051846 0.000000 0.002245
# 5 -0.004721 0.007495 -0.023309 0.000000 0.056506 0.000000
# 6 0.000000 0.000000 0.000000 0.002245 0.000000 0.067410
#
#
# Mechanical properties :
#
#
# Convention : Reuss Voigt Hill
#
# Bulk Modulus (GPa) = 35.17581 50.65900 42.91740
# Shear Modulus (GPa) = 17.54575 21.93469 19.74022
#
# Velocity S-wave (km/s) = 3.11335 3.48103 3.30231
# Velocity P-wave (km/s) = 5.68827 6.64400 6.18462
#
# Compressibility (1/GPa) = 0.02842863
#
# Stress axis : x y z
#
# Youngs Moduli (GPa) = 67.36442 67.98805 28.96304
#
# Poissons Ratio (x) = 0.21714 0.10597
# Poissons Ratio (y) = 0.21515 0.31781
# Poissons Ratio (z) = 0.24647 0.74604
#
# Static dielectric constant tensor:
#      x y z
#    x 1.616410 0.000000 -0.015600 
#    y 0.000000 1.605540 0.000000 
#    z -0.015600 0.000000 1.714620 
# 
# From -- ./inp_files/99987.got.cif
#   From: 2010.05.17/outbox.cif.g08.bks.cpg/sg12_50_cif.got.tgz:99987.got - 2010.06.03 13:09:07.
