data_PCOD9170617
_publ_section_title
;
Structure prediction by ZEFSAII (Michael W. Deem and Ramdas Pophale) SiO2 
 PCOD9170617
Probable space group: C 2/M
;
_chemical_formula_sum "Si O2"
_cell_formula_units_Z 64
_cell_length_a 25.192464
_cell_length_b 31.104351
_cell_length_c 9.242698
_cell_angle_alpha 90.000000
_cell_angle_beta 29.046870
_cell_angle_gamma 90.000000
_cell_volume 3516.430889
_symmetry_space_group_name_H-M "C 2/M"
_symmetry_group_IT_number 12
_symmetry_cell_setting 'monoclinic'
loop_
_space_group_symop_operation_xyz
x,y,z
-x,y,-z
-x,-y,-z
x,-y,z
1/2+x,1/2+y,z
1/2-x,1/2+y,-z
1/2-x,1/2-y,-z
1/2+x,1/2-y,z
loop_
_atom_site_type_symbol
_atom_site_label
_atom_site_fract_x
_atom_site_fract_y
_atom_site_fract_z
Si Si1 0.794859 0.845310 0.560504
Si Si2 0.092898 0.901663 0.173041
Si Si3 0.178645 0.283083 0.264544
Si Si4 0.062413 0.071140 0.715796
Si Si5 0.691210 0.322155 0.794929
Si Si6 0.269597 0.548062 0.926524
Si Si7 0.130130 0.631899 0.198086
Si Si8 0.969736 0.224261 0.234500
O O1 0.878722 0.885706 0.363701
O O2 0.764856 0.832508 0.469137
O O3 0.865051 0.807021 0.465547
O O4 0.689811 0.857153 0.904617
O O5 0.151285 0.938153 0.129208
O O6 0.000000 0.881933 0.500000
O O7 0.029983 0.918072 0.182209
O O8 0.175875 0.865602 0.922649
O O9 0.237311 0.290585 0.278864
O O10 0.163779 0.328470 0.221030
O O11 0.063002 0.261578 0.578160
O O12 0.250000 0.250000 0.000000
O O13 0.156665 0.048896 0.395589
O O14 0.000000 0.050262 0.000000
O O15 0.571233 0.302599 0.053050
O O16 0.226059 0.500000 0.050827
O O17 0.181991 0.586392 0.123544
O O18 0.000000 0.629327 0.500000
O O19 0.000000 0.239120 0.000000
#
# Coordination Sequence:
#
# PCOD9170617 Si02
#       8
#     8   8   8   8   8   8   8   8
#     4  10  19  39  60  88 123 160 203 239 294 361
#     4  10  19  32  60  89 122 156 193 231 297 362
#     4  12  26  38  57  90 125 159 209 247 291 346
#     4  10  17  32  61  94 126 153 186 238 300 369
#     4  11  22  37  63  85 121 169 196 237 303 355
#     4  10  23  41  61  88 121 155 201 249 301 366
#     4  11  25  43  63  87 116 156 205 260 299 346
#     4  10  22  37  59  88 123 163 199 240 295 354
#
# _framework density 18.200271999999998
#
# number of rings (size 3 to 8) (size 9 to 14) (size 15 to 20)
#    0.000    1.500    5.000    0.375    3.500    5.750 
#    0.000    0.000    0.000    0.000    0.000    0.875 
#    0.000    0.000    0.000    0.000    0.000    0.000 
#
# Total GULP energy -178592.012293 kJ/mol
# GULP energy per Si atom -5581.000384 kJ/mol
# Density = 1.815885 g / cm^3
# Si number density = 18.200272 Si / 1000 Ang^3
#
#
#
# Elastic Constant Matrix: (Units=GPa)
#
#
# Indices 1 2 3 4 5 6 
#
# 1 101.6392 33.8445 42.1098 -0.0002 11.7102 0.0000
# 2 33.8445 110.3202 40.6072 0.0000 6.6346 0.0001
# 3 42.1098 40.6072 105.5294 -0.0008 3.8406 -0.0002
# 4 -0.0002 0.0000 -0.0008 6.8812 0.0003 -7.0124
# 5 11.7102 6.6346 3.8406 0.0003 23.1822 0.0001
# 6 0.0000 0.0001 -0.0002 -7.0124 0.0001 -11.7112
#
#
#
# Elastic Compliance Matrix: (Units=1/GPa)
#
#
# Indices 1 2 3 4 5 6 
#
# 1 0.012851 -0.002111 -0.004126 0.000000 -0.005204 0.000000
# 2 -0.002111 0.011037 -0.003349 0.000000 -0.001538 0.000000
# 3 -0.004126 -0.003349 0.012375 0.000001 0.000993 -0.000001
# 4 0.000000 0.000000 0.000001 0.090252 -0.000001 -0.054041
# 5 -0.005204 -0.001538 0.000993 -0.000001 0.046041 0.000001
# 6 0.000000 0.000000 -0.000001 -0.054041 0.000001 -0.053030
#
#
# Mechanical properties :
#
#
# Convention : Reuss Voigt Hill
#
# Bulk Modulus (GPa) = 58.50925 61.17908 59.84416
# Shear Modulus (GPa) = 34.62729 17.06559 25.84644
#
# Velocity S-wave (km/s) = 4.36658 3.06544 3.77253
# Velocity P-wave (km/s) = 7.59210 6.79828 7.20613
#
# Compressibility (1/GPa) = 0.01709132
#
# Stress axis : x y z
#
# Youngs Moduli (GPa) = 77.81735 90.60282 80.80751
#
# Poissons Ratio (x) = 0.19122 0.33344
# Poissons Ratio (y) = 0.16424 0.27062
# Poissons Ratio (z) = 0.32110 0.30342
#
# Static dielectric constant tensor:
#      x y z
#    x 1.629590 0.000000 0.015160 
#    y 0.000000 1.639570 0.000000 
#    z 0.015160 0.000000 1.622100 
# 
# From -- ./inp_files/100206.got.cif
#   From: 2010.05.17/outbox.cif.g08.bks.cpg/sg12_51_cif.got.tgz:100206.got - 2010.06.03 13:09:07.
