data_PCOD9170084
_publ_section_title
;
Structure prediction by ZEFSAII (Michael W. Deem and Ramdas Pophale) SiO2 
 PCOD9170084
Probable space group: C 2/M
;
_chemical_formula_sum "Si O2"
_cell_formula_units_Z 64
_cell_length_a 10.433370
_cell_length_b 18.162981
_cell_length_c 24.299726
_cell_angle_alpha 90.000000
_cell_angle_beta 34.102548
_cell_angle_gamma 90.000000
_cell_volume 2581.813933
_symmetry_space_group_name_H-M "C 2/M"
_symmetry_group_IT_number 12
_symmetry_cell_setting 'monoclinic'
loop_
_space_group_symop_operation_xyz
x,y,z
-x,y,-z
-x,-y,-z
x,-y,z
1/2+x,1/2+y,z
1/2-x,1/2+y,-z
1/2-x,1/2-y,-z
1/2+x,1/2-y,z
loop_
_atom_site_type_symbol
_atom_site_label
_atom_site_fract_x
_atom_site_fract_y
_atom_site_fract_z
Si Si1 0.495353 0.616438 0.873147
Si Si2 0.002416 0.421287 0.064585
Si Si3 0.026609 0.270318 0.169703
Si Si4 0.866580 0.810158 0.757390
Si Si5 0.799570 0.410087 0.453078
Si Si6 0.321298 0.084633 0.858170
Si Si7 0.782200 0.914990 0.325130
Si Si8 0.702090 0.586619 0.364828
O O1 0.421495 0.700679 0.887618
O O2 0.691179 0.599574 0.847490
O O3 0.582370 0.589235 0.782018
O O4 0.271908 0.579230 0.977538
O O5 0.903844 0.500000 0.118226
O O6 0.847728 0.356966 0.142440
O O7 0.000000 0.417076 0.000000
O O8 0.753922 0.278475 0.253833
O O9 0.066298 0.247879 0.219119
O O10 0.196245 0.339964 0.100607
O O11 0.078395 0.865730 0.681570
O O12 0.819201 0.500000 0.447156
O O13 0.548543 0.386468 0.562710
O O14 0.792047 0.384782 0.391772
O O15 0.026950 0.386008 0.403731
O O16 0.593569 0.089415 0.750614
O O17 0.270167 0.000000 0.893144
O O18 0.775105 0.000000 0.345300
O O19 0.665214 0.500000 0.388286
#
# Coordination Sequence:
#
# PCOD9170084 Si02
#       8
#     8   8   8   8   8   8   8   8
#     4  11  21  37  58  85 119 160 198 238 297 362
#     4  11  21  36  61  91 119 151 199 253 295 352
#     4  11  24  42  60  87 116 160 203 246 300 362
#     4  11  24  41  59  84 118 161 198 245 303 364
#     4   8  13  23  45  84 121 150 193 245 293 348
#     4  11  21  37  62  89 121 158 202 251 301 353
#     4  10  17  29  56  86 116 149 197 249 294 346
#     4   8  14  25  47  83 122 153 189 245 298 344
#
# _framework density 24.788774
#
# number of rings (size 3 to 8) (size 9 to 14) (size 15 to 20)
#    0.000    1.875    5.000    2.250    0.000    1.500 
#    2.250    0.000    0.000    5.250    6.500    3.500 
#    0.000    0.000    0.000    0.000    0.000    0.000 
#
# Total GULP energy -178661.179688 kJ/mol
# GULP energy per Si atom -5583.161865 kJ/mol
# Density = 2.473235 g / cm^3
# Si number density = 24.788774 Si / 1000 Ang^3
#
#
#
# Elastic Constant Matrix: (Units=GPa)
#
#
# Indices 1 2 3 4 5 6 
#
# 1 137.1506 32.7953 12.4431 0.0721 -25.7275 -0.0211
# 2 32.7953 112.8544 4.4092 0.1067 -4.0994 -0.0449
# 3 12.4431 4.4092 76.5080 0.2047 -30.7236 -0.0969
# 4 0.0721 0.1067 0.2047 78.6237 -0.1287 -32.5135
# 5 -25.7275 -4.0994 -30.7236 -0.1287 39.9209 0.0379
# 6 -0.0211 -0.0449 -0.0969 -32.5135 0.0379 32.5515
#
#
#
# Elastic Compliance Matrix: (Units=1/GPa)
#
#
# Indices 1 2 3 4 5 6 
#
# 1 0.008980 -0.002423 0.001307 0.000003 0.006544 0.000002
# 2 -0.002423 0.009550 -0.000564 -0.000011 -0.001015 0.000000
# 3 0.001307 -0.000564 0.019112 -0.000015 0.015494 0.000024
# 4 0.000003 -0.000011 -0.000015 0.021669 0.000039 0.021644
# 5 0.006544 -0.001015 0.015494 0.000039 0.041087 0.000040
# 6 0.000002 0.000000 0.000024 0.021644 0.000040 0.052339
#
#
# Mechanical properties :
#
#
# Convention : Reuss Voigt Hill
#
# Bulk Modulus (GPa) = 29.16863 47.31201 38.24032
# Shear Modulus (GPa) = 29.84637 48.67690 39.26163
#
# Velocity S-wave (km/s) = 3.47367 4.43614 3.98408
# Velocity P-wave (km/s) = 5.28024 6.73547 6.05176
#
# Compressibility (1/GPa) = 0.03428340
#
# Stress axis : x y z
#
# Youngs Moduli (GPa) = 111.36336 104.70960 52.32236
#
# Poissons Ratio (x) = 0.25369 -0.06840
# Poissons Ratio (y) = 0.26981 0.02950
# Poissons Ratio (z) = -0.14557 0.05903
#
# Static dielectric constant tensor:
#      x y z
#    x 2.014830 0.000000 0.011920 
#    y 0.000000 2.062600 0.000000 
#    z 0.011920 0.000000 1.971930 
# 
# From -- ./inp_files/374449.got.cif
#   From: 2010.05.17/outbox.cif.g08.bks.cpg/sg12_188_cif.got.tgz:374449.got - 2010.06.03 13:09:07.
