data_PCOD9170403
_publ_section_title
;
Structure prediction by ZEFSAII (Michael W. Deem and Ramdas Pophale) SiO2 
 PCOD9170403
Probable space group: C 2/M
;
_chemical_formula_sum "Si O2"
_cell_formula_units_Z 64
_cell_length_a 19.665077
_cell_length_b 10.753296
_cell_length_c 21.821946
_cell_angle_alpha 90.000000
_cell_angle_beta 126.682500
_cell_angle_gamma 90.000000
_cell_volume 3700.687635
_symmetry_space_group_name_H-M "C 2/M"
_symmetry_group_IT_number 12
_symmetry_cell_setting 'monoclinic'
loop_
_space_group_symop_operation_xyz
x,y,z
-x,y,-z
-x,-y,-z
x,-y,z
1/2+x,1/2+y,z
1/2-x,1/2+y,-z
1/2-x,1/2-y,-z
1/2+x,1/2-y,z
loop_
_atom_site_type_symbol
_atom_site_label
_atom_site_fract_x
_atom_site_fract_y
_atom_site_fract_z
Si Si1 0.535927 0.853618 0.609085
Si Si2 0.706175 0.800440 0.379571
Si Si3 0.108314 0.641940 0.786340
Si Si4 0.429847 0.849510 0.914654
Si Si5 0.842576 0.135137 0.355073
Si Si6 0.153744 0.637479 0.485642
Si Si7 0.734577 0.355461 0.822788
Si Si8 0.445842 0.851615 0.782577
O O1 0.562982 0.851762 0.695296
O O2 0.597063 0.755353 0.608648
O O3 0.439062 0.805248 0.553269
O O4 0.543528 0.000000 0.594126
O O5 0.774468 0.866363 0.372760
O O6 0.763345 0.691220 0.437997
O O7 0.670696 0.864105 0.421807
O O8 0.625217 0.777320 0.293390
O O9 0.142369 0.500000 0.810622
O O10 0.176778 0.752147 0.824249
O O11 0.036226 0.660185 0.798554
O O12 0.333324 0.820637 0.880744
O O13 0.446822 0.812213 0.853698
O O14 0.434931 0.000000 0.917363
O O15 0.500000 0.802330 0.000000
O O16 0.792086 0.146473 0.263469
O O17 0.887348 0.000000 0.378116
O O18 0.143507 0.500000 0.503793
O O19 0.722777 0.500000 0.836758
O O20 0.422465 0.000000 0.766680
#
# Coordination Sequence:
#
# PCOD9170403 Si02
#       8
#     8   8   8   8   8   8   8   8
#     4   9  18  34  53  71  99 136 173 214 256 302
#     4  11  20  32  53  74  98 133 173 215 262 306
#     4   9  17  30  53  77  99 135 179 210 243 303
#     4   9  17  30  53  84 109 131 166 213 258 300
#     4  10  19  32  52  76 100 131 171 213 259 307
#     4  10  21  36  51  71 100 134 173 220 263 299
#     4   9  17  31  52  77 107 135 163 209 260 302
#     4  10  17  31  54  75  99 134 176 215 250 303
#
# _framework density 17.294084000000002
#
# number of rings (size 3 to 8) (size 9 to 14) (size 15 to 20)
#    0.000    2.375    2.500    1.125    0.000    1.000 
#    0.000    6.875    0.000    1.125    0.000    0.000 
#    0.000    0.000    0.000    0.000    0.000    0.000 
#
# Total GULP energy -178168.102889 kJ/mol
# GULP energy per Si atom -5567.753215 kJ/mol
# Density = 1.725472 g / cm^3
# Si number density = 17.294084 Si / 1000 Ang^3
#
#
#
# Elastic Constant Matrix: (Units=GPa)
#
#
# Indices 1 2 3 4 5 6 
#
# 1 104.1942 52.6061 54.6203 0.0000 15.0292 0.0000
# 2 52.6061 66.9340 40.0585 0.0000 13.8247 0.0000
# 3 54.6203 40.0585 103.9431 0.0000 8.2577 0.0000
# 4 0.0000 0.0000 0.0000 30.6415 0.0000 1.7336
# 5 15.0292 13.8247 8.2577 0.0000 16.5141 0.0000
# 6 0.0000 0.0000 0.0000 1.7336 0.0000 20.5467
#
#
#
# Elastic Compliance Matrix: (Units=1/GPa)
#
#
# Indices 1 2 3 4 5 6 
#
# 1 0.018221 -0.010016 -0.005273 0.000000 -0.005561 0.000000
# 2 -0.010016 0.028052 -0.004588 0.000000 -0.012074 0.000000
# 3 -0.005273 -0.004588 0.014031 0.000000 0.001624 0.000000
# 4 0.000000 0.000000 0.000000 0.032792 0.000000 -0.002767
# 5 -0.005561 -0.012074 0.001624 0.000000 0.074910 0.000000
# 6 0.000000 0.000000 0.000000 -0.002767 0.000000 0.048903
#
#
# Mechanical properties :
#
#
# Convention : Reuss Voigt Hill
#
# Bulk Modulus (GPa) = 48.66498 63.29344 55.97921
# Shear Modulus (GPa) = 18.97440 22.05956 20.51698
#
# Velocity S-wave (km/s) = 3.31594 3.57537 3.44809
# Velocity P-wave (km/s) = 6.54686 7.32954 6.94922
#
# Compressibility (1/GPa) = 0.02054866
#
# Stress axis : x y z
#
# Youngs Moduli (GPa) = 54.88287 35.64818 71.27237
#
# Poissons Ratio (x) = 0.35706 0.37580
# Poissons Ratio (y) = 0.54972 0.32703
# Poissons Ratio (z) = 0.28938 0.16357
#
# Static dielectric constant tensor:
#      x y z
#    x 1.588480 0.000000 -0.008590 
#    y 0.000000 1.608180 0.000000 
#    z -0.008590 0.000000 1.589980 
# 
# From -- ./inp_files/315741.got.cif
#   From: 2010.05.17/outbox.cif.g08.bks.cpg/sg12_158_cif.got.tgz:315741.got - 2010.06.03 13:09:07.
