data_PCOD9170333
_publ_section_title
;
Structure prediction by ZEFSAII (Michael W. Deem and Ramdas Pophale) SiO2 
 PCOD9170333
Probable space group: C 2/M
;
_chemical_formula_sum "Si O2"
_cell_formula_units_Z 64
_cell_length_a 13.010710
_cell_length_b 21.329084
_cell_length_c 19.291210
_cell_angle_alpha 90.000000
_cell_angle_beta 46.999314
_cell_angle_gamma 90.000000
_cell_volume 3915.212018
_symmetry_space_group_name_H-M "C 2/M"
_symmetry_group_IT_number 12
_symmetry_cell_setting 'monoclinic'
loop_
_space_group_symop_operation_xyz
x,y,z
-x,y,-z
-x,-y,-z
x,-y,z
1/2+x,1/2+y,z
1/2-x,1/2+y,-z
1/2-x,1/2-y,-z
1/2+x,1/2-y,z
loop_
_atom_site_type_symbol
_atom_site_label
_atom_site_fract_x
_atom_site_fract_y
_atom_site_fract_z
Si Si1 0.874860 0.360783 0.107243
Si Si2 0.574517 0.575498 0.242466
Si Si3 0.374435 0.241252 0.612937
Si Si4 0.834110 0.361577 0.283476
Si Si5 0.128038 0.211235 0.892857
Si Si6 0.908221 0.180164 0.251767
Si Si7 0.571030 0.427945 0.400392
Si Si8 0.941435 0.293656 0.738977
O O1 0.732280 0.398754 0.158417
O O2 0.905556 0.365312 0.175292
O O3 0.855543 0.286296 0.104599
O O4 0.000000 0.382253 0.000000
O O5 0.570127 0.500000 0.239561
O O6 0.469145 0.612226 0.240988
O O7 0.539013 0.596367 0.338183
O O8 0.500000 0.245416 0.500000
O O9 0.282409 0.305148 0.663679
O O10 0.252093 0.191415 0.649533
O O11 0.433040 0.222362 0.661534
O O12 0.737441 0.422105 0.335660
O O13 0.944990 0.345515 0.291410
O O14 0.092078 0.196081 0.829658
O O15 0.285039 0.186446 0.834291
O O16 0.000000 0.189729 0.000000
O O17 0.006229 0.231339 0.245039
O O18 0.500000 0.397464 0.500000
O O19 0.526148 0.500000 0.418627
#
# Coordination Sequence:
#
# PCOD9170333 Si02
#       8
#     8   8   8   8   8   8   8   8
#     4  10  18  31  50  75 104 130 160 202 253 297
#     4  10  20  34  53  73 102 135 168 207 242 295
#     4  10  20  31  45  70 101 128 159 203 249 297
#     4  10  18  30  48  71  99 131 159 199 250 302
#     4  10  19  31  50  74 102 130 159 209 252 294
#     4  10  19  33  49  72 100 128 167 202 244 306
#     4   9  18  32  50  73  99 129 168 209 247 294
#     4  10  17  31  45  69  98 126 160 198 244 300
#
# _framework density 16.346496999999999
#
# number of rings (size 3 to 8) (size 9 to 14) (size 15 to 20)
#    0.000    2.125    5.000    1.125    0.000    4.750 
#    0.000    0.000    0.000    3.750    0.000    0.000 
#    0.000    0.000    0.000    0.000    0.000    0.000 
#
# Total GULP energy -178152.407351 kJ/mol
# GULP energy per Si atom -5567.262730 kJ/mol
# Density = 1.630929 g / cm^3
# Si number density = 16.346497 Si / 1000 Ang^3
#
#
#
# Elastic Constant Matrix: (Units=GPa)
#
#
# Indices 1 2 3 4 5 6 
#
# 1 103.5503 23.4702 42.8808 0.0000 -3.6817 -0.0002
# 2 23.4702 47.9583 12.2789 0.0000 0.5773 -0.0001
# 3 42.8808 12.2789 138.0462 0.0000 -3.8184 -0.0001
# 4 0.0000 0.0000 0.0000 4.9005 0.0000 -7.6017
# 5 -3.6817 0.5773 -3.8184 0.0000 8.2691 0.0001
# 6 -0.0002 -0.0001 -0.0001 -7.6017 0.0001 18.9423
#
#
#
# Elastic Compliance Matrix: (Units=1/GPa)
#
#
# Indices 1 2 3 4 5 6 
#
# 1 0.012351 -0.005265 -0.003247 0.000000 0.004367 0.000000
# 2 -0.005265 0.023629 -0.000584 0.000000 -0.004264 0.000000
# 3 -0.003247 -0.000584 0.008373 0.000000 0.002461 0.000000
# 4 0.000000 0.000000 0.000000 0.540599 -0.000002 0.216948
# 5 0.004367 -0.004264 0.002461 -0.000002 0.124311 -0.000001
# 6 0.000000 0.000000 0.000000 0.216948 -0.000001 0.139855
#
#
# Mechanical properties :
#
#
# Convention : Reuss Voigt Hill
#
# Bulk Modulus (GPa) = 38.22804 49.64607 43.93705
# Shear Modulus (GPa) = 5.70756 20.48402 13.09579
#
# Velocity S-wave (km/s) = 1.87061 3.54378 2.83351
# Velocity P-wave (km/s) = 5.30117 6.86888 6.13530
#
# Compressibility (1/GPa) = 0.02615881
#
# Stress axis : x y z
#
# Youngs Moduli (GPa) = 80.96800 42.32059 119.43616
#
# Poissons Ratio (x) = 0.22283 0.38784
# Poissons Ratio (y) = 0.42633 0.06977
# Poissons Ratio (z) = 0.26292 0.02472
#
# Static dielectric constant tensor:
#      x y z
#    x 1.543070 0.000000 -0.002710 
#    y 0.000000 1.583900 0.000000 
#    z -0.002710 0.000000 1.583170 
# 
# From -- ./inp_files/265516.got.cif
#   From: 2010.05.17/outbox.cif.g08.bks.cpg/sg12_133_cif.got.tgz:265516.got - 2010.06.03 13:09:07.
