data_PCOD9170072
_publ_section_title
;
Structure prediction by ZEFSAII (Michael W. Deem and Ramdas Pophale) SiO2 
 PCOD9170072
Probable space group: C 2/M
;
_chemical_formula_sum "Si O2"
_cell_formula_units_Z 40
_cell_length_a 23.575578
_cell_length_b 7.484400
_cell_length_c 11.776312
_cell_angle_alpha 90.000000
_cell_angle_beta 92.999201
_cell_angle_gamma 90.000000
_cell_volume 2075.072936
_symmetry_space_group_name_H-M "C 2/M"
_symmetry_group_IT_number 12
_symmetry_cell_setting 'monoclinic'
loop_
_space_group_symop_operation_xyz
x,y,z
-x,y,-z
-x,-y,-z
x,-y,z
1/2+x,1/2+y,z
1/2-x,1/2+y,-z
1/2-x,1/2-y,-z
1/2+x,1/2-y,z
loop_
_atom_site_type_symbol
_atom_site_label
_atom_site_fract_x
_atom_site_fract_y
_atom_site_fract_z
Si Si1 0.564126 0.217874 0.034515
Si Si2 0.868735 0.705985 0.173700
Si Si3 0.246545 0.213311 0.134881
Si Si4 0.577500 0.000000 0.393666
Si Si5 0.364534 0.295572 0.743890
Si Si6 0.445262 0.000000 0.341577
O O1 0.587373 0.290724 0.154070
O O2 0.566293 0.000000 0.040217
O O3 0.500000 0.266662 0.000000
O O4 0.603047 0.285081 0.934978
O O5 0.855668 0.500000 0.138229
O O6 0.806508 0.779355 0.193433
O O7 0.915129 0.670718 0.276834
O O8 0.191424 0.280283 0.197039
O O9 0.240693 0.000000 0.145810
O O10 0.250000 0.250000 0.000000
O O11 0.612499 0.170246 0.353104
O O12 0.513251 0.000000 0.334843
O O13 0.569502 0.000000 0.527805
O O14 0.355237 0.500000 0.705690
#
# Coordination Sequence:
#
# PCOD9170072 Si02
#       6
#     8   8   8   4   8   4
#     4  10  17  29  54  84 115 148 185 235 295 355
#     4   8  16  31  54  81 108 150 191 236 288 342
#     4  10  19  32  53  81 117 154 187 230 285 353
#     4  11  22  41  65  87 111 154 213 244 302 343
#     4  11  23  35  55  89 121 156 191 243 296 356
#     4   9  20  39  65  87 103 156 209 254 292 347
#
# _framework density 19.276433000000001
#
# number of rings (size 3 to 8) (size 9 to 14) (size 15 to 20)
#    0.600    1.600    3.000    1.200    1.400    0.400 
#    0.000    3.000    0.000    2.400    0.000    0.000 
#    0.000    0.000    0.000    0.000    0.000    0.000 
#
# Total GULP energy -111387.409127 kJ/mol
# GULP energy per Si atom -5569.370456 kJ/mol
# Density = 1.923256 g / cm^3
# Si number density = 19.276433 Si / 1000 Ang^3
#
#
#
# Elastic Constant Matrix: (Units=GPa)
#
#
# Indices 1 2 3 4 5 6 
#
# 1 65.3496 17.6433 0.7520 0.0000 -24.4342 0.0000
# 2 17.6433 74.8886 19.4585 0.0000 -15.0091 0.0000
# 3 0.7520 19.4585 62.6308 0.0000 -18.9080 0.0000
# 4 0.0000 0.0000 0.0000 2.1726 0.0000 8.7930
# 5 -24.4342 -15.0091 -18.9080 0.0000 33.9188 0.0000
# 6 0.0000 0.0000 0.0000 8.7930 0.0000 -58.1006
#
#
#
# Elastic Compliance Matrix: (Units=1/GPa)
#
#
# Indices 1 2 3 4 5 6 
#
# 1 0.023160 -0.003364 0.006438 0.000000 0.018784 0.000000
# 2 -0.003364 0.015667 -0.004167 0.000000 0.002186 0.000000
# 3 0.006438 -0.004167 0.021675 0.000000 0.014877 0.000000
# 4 0.000000 0.000000 0.000000 0.285442 0.000000 0.043199
# 5 0.018784 0.002186 0.014877 0.000000 0.052274 0.000000
# 6 0.000000 0.000000 0.000000 0.043199 0.000000 -0.010674
#
#
# Mechanical properties :
#
#
# Convention : Reuss Voigt Hill
#
# Bulk Modulus (GPa) = 17.14843 30.95296 24.05070
# Shear Modulus (GPa) = 12.21988 6.59917 9.40953
#
# Velocity S-wave (km/s) = 2.52052 1.85226 2.21178
# Velocity P-wave (km/s) = 4.16966 4.54607 4.36193
#
# Compressibility (1/GPa) = 0.05831438
#
# Stress axis : x y z
#
# Youngs Moduli (GPa) = 43.17826 63.82980 46.13577
#
# Poissons Ratio (x) = 0.21475 -0.29702
# Poissons Ratio (y) = 0.14527 0.19225
# Poissons Ratio (z) = -0.27798 0.26599
#
# Static dielectric constant tensor:
#      x y z
#    x 1.744080 0.000000 -0.012920 
#    y 0.000000 1.728120 0.000000 
#    z -0.012920 0.000000 1.634070 
# 
# From -- ./inp_files/171445.got.cif
#   From: 2010.05.17/outbox.cif.g08.bks.cpg/sg12_86_cif.got.tgz:171445.got - 2010.06.03 13:09:07.
