data_PCOD9170353
_publ_section_title
;
Structure prediction by ZEFSAII (Michael W. Deem and Ramdas Pophale) SiO2 
 PCOD9170353
Probable space group: C 2/M
;
_chemical_formula_sum "Si O2"
_cell_formula_units_Z 64
_cell_length_a 17.851552
_cell_length_b 25.766780
_cell_length_c 18.267266
_cell_angle_alpha 90.000000
_cell_angle_beta 150.345718
_cell_angle_gamma 90.000000
_cell_volume 4157.277415
_symmetry_space_group_name_H-M "C 2/M"
_symmetry_group_IT_number 12
_symmetry_cell_setting 'monoclinic'
loop_
_space_group_symop_operation_xyz
x,y,z
-x,y,-z
-x,-y,-z
x,-y,z
1/2+x,1/2+y,z
1/2-x,1/2+y,-z
1/2-x,1/2-y,-z
1/2+x,1/2-y,z
loop_
_atom_site_type_symbol
_atom_site_label
_atom_site_fract_x
_atom_site_fract_y
_atom_site_fract_z
Si Si1 0.284575 0.559998 0.122875
Si Si2 0.396056 0.267303 0.342365
Si Si3 0.117269 0.151127 0.891079
Si Si4 0.627789 0.701687 0.050872
Si Si5 0.532661 0.103241 0.113682
Si Si6 0.158045 0.114928 0.675087
Si Si7 0.078895 0.296867 0.903309
Si Si8 0.578508 0.269753 0.348982
O O1 0.325453 0.500000 0.154336
O O2 0.352071 0.594059 0.113986
O O3 0.341563 0.587407 0.245860
O O4 0.100790 0.565719 0.971931
O O5 0.500000 0.253757 0.500000
O O6 0.277373 0.222594 0.219224
O O7 0.315423 0.322945 0.290379
O O8 0.507164 0.276631 0.368224
O O9 0.961193 0.177765 0.730682
O O10 0.143178 0.159108 0.999570
O O11 0.248886 0.185686 0.964039
O O12 0.500000 0.686558 0.000000
O O13 0.573753 0.752113 0.959194
O O14 0.708665 0.089376 0.260132
O O15 0.511473 0.154418 0.143449
O O16 0.500000 0.114102 0.000000
O O17 0.000000 0.110247 0.500000
O O18 0.011433 0.274663 0.771586
O O19 0.750000 0.250000 0.500000
#
# Coordination Sequence:
#
# PCOD9170353 Si02
#       8
#     8   8   8   8   8   8   8   8
#     4  10  20  36  56  71  91 128 174 221 257 286
#     4  11  21  32  44  72 110 136 167 192 234 297
#     4  10  19  36  50  69 100 129 169 208 250 293
#     4  11  19  30  49  71  97 133 166 200 240 296
#     4   9  18  30  48  74  95 126 169 203 242 295
#     4  10  20  31  48  72 108 139 160 200 245 300
#     4  10  17  31  50  65  97 138 165 198 240 289
#     4  11  21  30  46  72 102 137 166 198 235 290
#
# _framework density 15.394690000000001
#
# number of rings (size 3 to 8) (size 9 to 14) (size 15 to 20)
#    0.000    1.750    3.750    3.375    7.000    2.500 
#    0.000    0.000    0.000    0.375    0.000    0.000 
#    0.000    0.500    0.000    0.125    0.000    0.000 
#
# Total GULP energy -178341.306550 kJ/mol
# GULP energy per Si atom -5573.165830 kJ/mol
# Density = 1.535965 g / cm^3
# Si number density = 15.394690 Si / 1000 Ang^3
#
#
#
# Elastic Constant Matrix: (Units=GPa)
#
#
# Indices 1 2 3 4 5 6 
#
# 1 75.7092 30.2206 26.2306 0.0000 -6.0353 0.0000
# 2 30.2206 68.8569 27.9523 0.0000 -6.5644 0.0000
# 3 26.2306 27.9523 89.9626 0.0000 -0.7830 0.0000
# 4 0.0000 0.0000 0.0000 7.9323 0.0000 0.1159
# 5 -6.0353 -6.5644 -0.7830 0.0000 25.1847 0.0000
# 6 0.0000 0.0000 0.0000 0.1159 0.0000 6.8470
#
#
#
# Elastic Compliance Matrix: (Units=1/GPa)
#
#
# Indices 1 2 3 4 5 6 
#
# 1 0.016815 -0.005916 -0.003044 0.000000 0.002393 0.000000
# 2 -0.005916 0.019151 -0.004195 0.000000 0.003443 0.000000
# 3 -0.003044 -0.004195 0.013294 0.000000 -0.001410 0.000000
# 4 0.000000 0.000000 0.000000 0.126098 0.000000 -0.002135
# 5 0.002393 0.003443 -0.001410 0.000000 0.041134 0.000000
# 6 0.000000 0.000000 0.000000 -0.002135 0.000000 0.146086
#
#
# Mechanical properties :
#
#
# Convention : Reuss Voigt Hill
#
# Bulk Modulus (GPa) = 43.57352 44.81509 44.19430
# Shear Modulus (GPa) = 12.60909 18.00114 15.30511
#
# Velocity S-wave (km/s) = 2.86502 3.42322 3.15648
# Velocity P-wave (km/s) = 6.26978 6.69317 6.48493
#
# Compressibility (1/GPa) = 0.02294972
#
# Stress axis : x y z
#
# Youngs Moduli (GPa) = 59.46945 52.21694 75.21912
#
# Poissons Ratio (x) = 0.30893 0.22895
# Poissons Ratio (y) = 0.35184 0.31557
# Poissons Ratio (z) = 0.18101 0.21907
#
# Static dielectric constant tensor:
#      x y z
#    x 1.525940 0.000000 0.019180 
#    y 0.000000 1.503510 0.000000 
#    z 0.019180 0.000000 1.554460 
# 
# From -- ./inp_files/279380.got.cif
#   From: 2010.05.17/outbox.cif.g08.bks.cpg/sg12_140_cif.got.tgz:279380.got - 2010.06.03 13:09:07.
