data_PCOD9170664
_publ_section_title
;
Structure prediction by ZEFSAII (Michael W. Deem and Ramdas Pophale) SiO2 
 PCOD9170664
Probable space group: C 2/M
;
_chemical_formula_sum "Si O2"
_cell_formula_units_Z 56
_cell_length_a 20.075822
_cell_length_b 18.676197
_cell_length_c 11.680748
_cell_angle_alpha 90.000000
_cell_angle_beta 135.912483
_cell_angle_gamma 90.000000
_cell_volume 3047.120288
_symmetry_space_group_name_H-M "C 2/M"
_symmetry_group_IT_number 12
_symmetry_cell_setting 'monoclinic'
loop_
_space_group_symop_operation_xyz
x,y,z
-x,y,-z
-x,-y,-z
x,-y,z
1/2+x,1/2+y,z
1/2-x,1/2+y,-z
1/2-x,1/2-y,-z
1/2+x,1/2-y,z
loop_
_atom_site_type_symbol
_atom_site_label
_atom_site_fract_x
_atom_site_fract_y
_atom_site_fract_z
Si Si1 0.138679 0.394766 0.598067
Si Si2 0.055526 0.192330 0.177057
Si Si3 0.790597 0.304099 0.648562
Si Si4 0.279898 0.579924 0.578560
Si Si5 0.108614 0.257682 0.875445
Si Si6 0.696158 0.742853 0.746842
Si Si7 0.430437 0.079253 0.236735
O O1 0.230767 0.420429 0.642591
O O2 0.150775 0.309754 0.624308
O O3 0.127140 0.420613 0.713814
O O4 0.041826 0.414245 0.411558
O O5 0.112699 0.262444 0.201901
O O6 0.128925 0.131954 0.309566
O O7 0.983501 0.220658 0.183988
O O8 0.000000 0.161663 0.000000
O O9 0.750000 0.250000 0.500000
O O10 0.797259 0.380620 0.597824
O O11 0.724258 0.309854 0.678718
O O12 0.302162 0.500000 0.570229
O O13 0.127478 0.228975 0.769776
O O14 0.097286 0.344949 0.856860
O O15 0.202648 0.238967 0.066348
O O16 0.416011 0.000000 0.164496
#
# Coordination Sequence:
#
# PCOD9170664 Si02
#       7
#     8   8   8   8   8   8   8
#     4  10  17  33  54  79 111 140 182 231 273 321
#     4  11  20  36  58  82 108 142 186 237 271 312
#     4  10  19  35  56  77 110 142 185 222 264 322
#     4  11  22  34  54  80 114 149 179 220 278 331
#     4  10  21  34  57  81 111 144 186 228 270 327
#     4  10  19  36  55  82 106 144 189 228 268 318
#     4  10  20  31  52  84 115 140 174 228 288 329
#
# _framework density 18.378008000000001
#
# number of rings (size 3 to 8) (size 9 to 14) (size 15 to 20)
#    0.000    1.714    4.286    2.571    2.000    0.286 
#    0.000    0.714    0.000    6.000    0.000    0.000 
#    0.000    0.000    0.000    0.000    0.000    0.000 
#
# Total GULP energy -155945.756689 kJ/mol
# GULP energy per Si atom -5569.491310 kJ/mol
# Density = 1.833618 g / cm^3
# Si number density = 18.378008 Si / 1000 Ang^3
#
#
#
# Elastic Constant Matrix: (Units=GPa)
#
#
# Indices 1 2 3 4 5 6 
#
# 1 126.9759 44.6547 4.2663 0.0000 -5.0476 0.0000
# 2 44.6547 88.9247 8.8240 0.0000 5.5061 0.0000
# 3 4.2663 8.8240 21.5439 0.0000 -2.1162 0.0000
# 4 0.0000 0.0000 0.0000 12.7124 0.0000 -7.8399
# 5 -5.0476 5.5061 -2.1162 0.0000 22.2488 0.0000
# 6 0.0000 0.0000 0.0000 -7.8399 0.0000 129.0115
#
#
#
# Elastic Compliance Matrix: (Units=1/GPa)
#
#
# Indices 1 2 3 4 5 6 
#
# 1 0.009832 -0.005212 0.000539 0.000000 0.003572 0.000000
# 2 -0.005212 0.014744 -0.005533 0.000000 -0.005357 0.000000
# 3 0.000539 -0.005533 0.049182 0.000000 0.006169 0.000000
# 4 0.000000 0.000000 0.000000 0.081726 0.000000 0.004966
# 5 0.003572 -0.005357 0.006169 0.000000 0.047669 0.000000
# 6 0.000000 0.000000 0.000000 0.004966 0.000000 0.008053
#
#
# Mechanical properties :
#
#
# Convention : Reuss Voigt Hill
#
# Bulk Modulus (GPa) = 18.74571 39.21496 28.98034
# Shear Modulus (GPa) = 20.04804 44.77450 32.41127
#
# Velocity S-wave (km/s) = 3.30642 4.94125 4.20407
# Velocity P-wave (km/s) = 4.97983 7.34431 6.27446
#
# Compressibility (1/GPa) = 0.05334553
#
# Stress axis : x y z
#
# Youngs Moduli (GPa) = 101.70485 67.82643 20.33252
#
# Poissons Ratio (x) = 0.35351 -0.01095
# Poissons Ratio (y) = 0.53009 0.11250
# Poissons Ratio (z) = -0.05477 0.37527
#
# Static dielectric constant tensor:
#      x y z
#    x 1.674670 0.000000 -0.003080 
#    y 0.000000 1.658140 0.000000 
#    z -0.003080 0.000000 1.660830 
# 
# From -- ./inp_files/158352.got.cif
#   From: 2010.05.17/outbox.cif.g08.bks.cpg/sg12_80_cif.got.tgz:158352.got - 2010.06.03 13:09:07.
