data_PCOD9170213
_publ_section_title
;
Structure prediction by ZEFSAII (Michael W. Deem and Ramdas Pophale) SiO2 
 PCOD9170213
Probable space group: C 2/M
;
_chemical_formula_sum "Si O2"
_cell_formula_units_Z 64
_cell_length_a 20.020447
_cell_length_b 20.466174
_cell_length_c 18.783934
_cell_angle_alpha 90.000000
_cell_angle_beta 25.383318
_cell_angle_gamma 90.000000
_cell_volume 3299.303046
_symmetry_space_group_name_H-M "C 2/M"
_symmetry_group_IT_number 12
_symmetry_cell_setting 'monoclinic'
loop_
_space_group_symop_operation_xyz
x,y,z
-x,y,-z
-x,-y,-z
x,-y,z
1/2+x,1/2+y,z
1/2-x,1/2+y,-z
1/2-x,1/2-y,-z
1/2+x,1/2-y,z
loop_
_atom_site_type_symbol
_atom_site_label
_atom_site_fract_x
_atom_site_fract_y
_atom_site_fract_z
Si Si1 0.266453 0.426983 0.006659
Si Si2 0.304744 0.299980 0.387254
Si Si3 0.324417 0.712393 0.995456
Si Si4 0.493865 0.398077 0.589540
Si Si5 0.373127 0.429625 0.395690
Si Si6 0.612744 0.261502 0.448171
Si Si7 0.356952 0.927247 0.027479
Si Si8 0.357728 0.205097 0.099222
O O1 0.243066 0.500000 0.059947
O O2 0.258830 0.361504 0.060373
O O3 0.444851 0.426189 0.804487
O O4 0.150653 0.419828 0.050595
O O5 0.250000 0.250000 0.500000
O O6 0.488014 0.289792 0.194383
O O7 0.287798 0.371215 0.438297
O O8 0.201895 0.284076 0.417060
O O9 0.250000 0.750000 0.000000
O O10 0.292679 0.752561 0.097300
O O11 0.500000 0.413943 0.500000
O O12 0.618187 0.424759 0.526770
O O13 0.516057 0.319893 0.578301
O O14 0.324888 0.422926 0.775411
O O15 0.309284 0.500000 0.436943
O O16 0.500000 0.226749 0.500000
O O17 0.734705 0.301557 0.281186
O O18 0.420995 0.863056 0.004987
O O19 0.417722 0.000000 0.986689
O O20 0.500000 0.241388 0.000000
#
# Coordination Sequence:
#
# PCOD9170213 Si02
#       8
#     8   8   8   8   8   8   8   8
#     4   8  16  32  54  81 106 138 184 231 274 324
#     4  11  22  37  59  86 112 144 195 237 276 339
#     4  11  22  35  61  86 112 153 186 234 284 334
#     4  10  17  30  51  81 110 142 188 224 274 323
#     4   9  18  31  52  81 113 141 179 235 281 323
#     4  11  22  37  56  82 112 154 186 239 284 328
#     4  10  19  32  52  78 112 151 187 227 273 337
#     4  12  23  38  52  80 121 149 193 227 284 344
#
# _framework density 19.398036999999999
#
# number of rings (size 3 to 8) (size 9 to 14) (size 15 to 20)
#    0.000    1.750    6.250    1.125    1.750    1.250 
#    0.000    0.000    0.000    3.000    0.000    0.000 
#    0.000    0.000    0.000    0.000    0.000    0.000 
#
# Total GULP energy -178346.125153 kJ/mol
# GULP energy per Si atom -5573.316411 kJ/mol
# Density = 1.935389 g / cm^3
# Si number density = 19.398037 Si / 1000 Ang^3
#
#
#
# Elastic Constant Matrix: (Units=GPa)
#
#
# Indices 1 2 3 4 5 6 
#
# 1 126.8072 69.0874 8.4077 0.0056 -9.7748 -0.0064
# 2 69.0874 150.3248 7.1999 0.0141 5.2361 -0.0122
# 3 8.4077 7.1999 21.2697 0.0080 1.6084 -0.0076
# 4 0.0056 0.0141 0.0080 15.3204 -0.0069 -5.9600
# 5 -9.7748 5.2361 1.6084 -0.0069 20.2993 0.0048
# 6 -0.0064 -0.0122 -0.0076 -5.9600 0.0048 21.5898
#
#
#
# Elastic Compliance Matrix: (Units=1/GPa)
#
#
# Indices 1 2 3 4 5 6 
#
# 1 0.011628 -0.005439 -0.003305 0.000005 0.007264 -0.000001
# 2 -0.005439 0.009356 -0.000640 -0.000008 -0.004982 0.000002
# 3 -0.003305 -0.000640 0.048939 -0.000022 -0.005304 0.000011
# 4 0.000005 -0.000008 -0.000022 0.073126 0.000026 0.020187
# 5 0.007264 -0.004982 -0.005304 0.000026 0.054466 -0.000007
# 6 -0.000001 0.000002 0.000011 0.020187 -0.000007 0.051891
#
#
# Mechanical properties :
#
#
# Convention : Reuss Voigt Hill
#
# Bulk Modulus (GPa) = 19.54821 51.97685 35.76253
# Shear Modulus (GPa) = 17.52993 25.68903 21.60948
#
# Velocity S-wave (km/s) = 3.00942 3.64306 3.34129
# Velocity P-wave (km/s) = 4.70901 6.67449 5.77597
#
# Compressibility (1/GPa) = 0.05115559
#
# Stress axis : x y z
#
# Youngs Moduli (GPa) = 85.99682 106.88162 20.43344
#
# Poissons Ratio (x) = 0.58133 0.06753
# Poissons Ratio (y) = 0.46774 0.01309
# Poissons Ratio (z) = 0.28420 0.06845
#
# Static dielectric constant tensor:
#      x y z
#    x 1.680420 0.000000 -0.020310 
#    y 0.000000 1.714870 0.000010 
#    z -0.020310 0.000010 1.752810 
# 
# From -- ./inp_files/89590.got.cif
#   From: 2010.05.17/outbox.cif.g08.bks.cpg/sg12_45_cif.got.tgz:89590.got - 2010.06.03 13:09:07.
