data_PCOD9170858
_publ_section_title
;
Structure prediction by ZEFSAII (Michael W. Deem and Ramdas Pophale) SiO2 
 PCOD9170858
Probable space group: C 2/M
;
_chemical_formula_sum "Si O2"
_cell_formula_units_Z 44
_cell_length_a 11.599634
_cell_length_b 22.289522
_cell_length_c 7.093672
_cell_angle_alpha 90.000000
_cell_angle_beta 90.563541
_cell_angle_gamma 90.000000
_cell_volume 1833.982291
_symmetry_space_group_name_H-M "C 2/M"
_symmetry_group_IT_number 12
_symmetry_cell_setting 'monoclinic'
loop_
_space_group_symop_operation_xyz
x,y,z
-x,y,-z
-x,-y,-z
x,-y,z
1/2+x,1/2+y,z
1/2-x,1/2+y,-z
1/2-x,1/2-y,-z
1/2+x,1/2-y,z
loop_
_atom_site_type_symbol
_atom_site_label
_atom_site_fract_x
_atom_site_fract_y
_atom_site_fract_z
Si Si1 0.621121 0.000000 0.295527
Si Si2 0.012183 0.381400 0.772047
Si Si3 0.749169 0.170579 0.825486
Si Si4 0.835452 0.910920 0.344588
Si Si5 0.087473 0.933491 0.224696
Si Si6 0.695813 0.799769 0.253331
O O1 0.523135 0.053219 0.297249
O O2 0.723484 0.051944 0.281723
O O3 0.925989 0.329835 0.697792
O O4 0.143001 0.363997 0.728043
O O5 0.000000 0.385202 0.000000
O O6 0.848772 0.122621 0.865532
O O7 0.790050 0.229197 0.713895
O O8 0.702887 0.192320 0.026497
O O9 0.868583 0.929306 0.557663
O O10 0.798311 0.841496 0.333097
O O11 0.950183 0.925334 0.228458
O O12 0.118148 0.000000 0.154291
#
# Coordination Sequence:
#
# PCOD9170858 Si02
#       6
#     4   8   8   8   8   8
#     4  10  17  35  59  77 112 163 188 226 289 358
#     4   9  19  35  57  84 117 154 185 234 296 350
#     4  10  22  38  60  91 120 146 198 249 284 346
#     4  10  20  40  62  81 117 163 196 232 296 355
#     4  11  22  39  60  87 120 154 192 251 292 337
#     4   9  21  40  62  85 115 159 193 235 300 346
#
# _framework density 23.991509000000001
#
# number of rings (size 3 to 8) (size 9 to 14) (size 15 to 20)
#    0.000    2.182    1.818    0.818    3.818    1.455 
#    6.545    5.455    0.000    0.000    0.000    0.000 
#    0.000    0.000    0.000    0.000    0.000    0.000 
#
# Total GULP energy -122625.871820 kJ/mol
# GULP energy per Si atom -5573.903265 kJ/mol
# Density = 2.393690 g / cm^3
# Si number density = 23.991509 Si / 1000 Ang^3
#
#
#
# Elastic Constant Matrix: (Units=GPa)
#
#
# Indices 1 2 3 4 5 6 
#
# 1 107.9769 101.2042 27.8800 0.0000 24.3897 0.0000
# 2 101.2042 238.5213 22.5418 0.0000 18.6348 0.0000
# 3 27.8800 22.5418 49.1783 0.0000 4.1363 0.0000
# 4 0.0000 0.0000 0.0000 10.1896 0.0000 10.4463
# 5 24.3897 18.6348 4.1363 0.0000 20.9612 0.0000
# 6 0.0000 0.0000 0.0000 10.4463 0.0000 54.8668
#
#
#
# Elastic Compliance Matrix: (Units=1/GPa)
#
#
# Indices 1 2 3 4 5 6 
#
# 1 0.022017 -0.007236 -0.007679 0.000000 -0.017671 0.000000
# 2 -0.007236 0.007038 0.000706 0.000000 0.002023 0.000000
# 3 -0.007679 0.000706 0.024065 0.000000 0.003559 0.000000
# 4 0.000000 0.000000 0.000000 0.121942 0.000000 -0.023217
# 5 -0.017671 0.002023 0.003559 0.000000 0.065767 0.000000
# 6 0.000000 0.000000 0.000000 -0.023217 0.000000 0.022646
#
#
# Mechanical properties :
#
#
# Convention : Reuss Voigt Hill
#
# Bulk Modulus (GPa) = 40.48241 77.65873 59.07057
# Shear Modulus (GPa) = 16.65966 33.47356 25.06661
#
# Velocity S-wave (km/s) = 2.63800 3.73932 3.23586
# Velocity P-wave (km/s) = 5.11752 7.14723 6.21578
#
# Compressibility (1/GPa) = 0.02470209
#
# Stress axis : x y z
#
# Youngs Moduli (GPa) = 45.41916 142.09050 41.55467
#
# Poissons Ratio (x) = 1.02811 0.31910
# Poissons Ratio (y) = 0.32863 -0.02933
# Poissons Ratio (z) = 0.34878 -0.10030
#
# Static dielectric constant tensor:
#      x y z
#    x 1.843600 0.000000 -0.011440 
#    y 0.000000 1.858180 0.000000 
#    z -0.011440 0.000000 2.043080 
# 
# From -- ./inp_files/49366.got.cif
#   From: 2010.05.17/outbox.cif.g08.bks.cpg/sg12_25_cif.got.tgz:49366.got - 2010.06.03 13:09:07.
