data_PCOD9170701
_publ_section_title
;
Structure prediction by ZEFSAII (Michael W. Deem and Ramdas Pophale) SiO2 
 PCOD9170701
Probable space group: C 2/M
;
_chemical_formula_sum "Si O2"
_cell_formula_units_Z 50
_cell_length_a 17.125585
_cell_length_b 14.139160
_cell_length_c 11.885455
_cell_angle_alpha 90.000000
_cell_angle_beta 57.245695
_cell_angle_gamma 90.000000
_cell_volume 2420.360115
_symmetry_space_group_name_H-M "C 2/M"
_symmetry_group_IT_number 12
_symmetry_cell_setting 'monoclinic'
loop_
_space_group_symop_operation_xyz
x,y,z
-x,y,-z
-x,-y,-z
x,-y,z
1/2+x,1/2+y,z
1/2-x,1/2+y,-z
1/2-x,1/2-y,-z
1/2+x,1/2-y,z
loop_
_atom_site_type_symbol
_atom_site_label
_atom_site_fract_x
_atom_site_fract_y
_atom_site_fract_z
Si Si1 0.500000 0.500000 0.500000
Si Si2 0.403603 0.310218 0.559411
Si Si3 0.112615 0.892276 0.191530
Si Si4 0.893963 0.612934 0.042172
Si Si5 0.703934 0.108382 0.104821
Si Si6 0.948383 0.886688 0.157550
Si Si7 0.229325 0.767957 0.737362
O O1 0.436213 0.413176 0.491537
O O2 0.500000 0.253507 0.500000
O O3 0.371308 0.332928 0.711585
O O4 0.312018 0.259841 0.587011
O O5 0.022683 0.861999 0.194394
O O6 0.096436 0.000000 0.248445
O O7 0.200082 0.891834 0.041555
O O8 0.871817 0.500000 0.068078
O O9 0.826017 0.676870 0.170186
O O10 0.872805 0.639680 0.927766
O O11 0.000000 0.625929 0.000000
O O12 0.725583 0.170421 0.196121
O O13 0.683976 0.000000 0.152908
O O14 0.852471 0.833504 0.246655
O O15 0.935243 0.000000 0.166093
O O16 0.000000 0.861798 0.000000
#
# Coordination Sequence:
#
# PCOD9170701 Si02
#       7
#     2   8   8   8   8   8   8
#     4   8  20  40  56  76  98 136 204 246 254 308
#     4  10  21  35  57  77 100 137 195 233 266 306
#     4  10  17  33  57  79 107 144 179 224 271 316
#     4  10  22  33  45  73 114 148 174 208 267 335
#     4  10  20  33  54  80 110 142 180 215 272 334
#     4  10  20  33  52  84 120 143 172 219 275 334
#     4  12  21  32  55  81 111 141 176 227 272 327
#
# _framework density 20.658083999999999
#
# number of rings (size 3 to 8) (size 9 to 14) (size 15 to 20)
#    0.480    1.280    4.000    1.440    1.120    0.000 
#    0.000    0.800    0.000    1.920    0.000    0.000 
#    0.000    0.000    0.000    0.000    0.000    0.000 
#
# Total GULP energy -139231.662865 kJ/mol
# GULP energy per Si atom -5569.266515 kJ/mol
# Density = 2.061106 g / cm^3
# Si number density = 20.658084 Si / 1000 Ang^3
#
#
#
# Elastic Constant Matrix: (Units=GPa)
#
#
# Indices 1 2 3 4 5 6 
#
# 1 126.5492 29.5908 12.9000 0.0000 -31.2250 0.0000
# 2 29.5908 66.4351 16.2633 0.0000 -18.3881 0.0000
# 3 12.9000 16.2633 35.9570 0.0000 -26.5850 0.0000
# 4 0.0000 0.0000 0.0000 24.3008 0.0000 -15.1847
# 5 -31.2250 -18.3881 -26.5850 0.0000 38.2367 0.0000
# 6 0.0000 0.0000 0.0000 -15.1847 0.0000 28.6737
#
#
#
# Elastic Compliance Matrix: (Units=1/GPa)
#
#
# Indices 1 2 3 4 5 6 
#
# 1 0.010879 -0.003122 0.006107 0.000000 0.011628 0.000000
# 2 -0.003122 0.018471 -0.005251 0.000000 0.002682 0.000000
# 3 0.006107 -0.005251 0.061355 0.000000 0.045120 0.000000
# 4 0.000000 0.000000 0.000000 0.061503 0.000000 0.032570
# 5 0.011628 0.002682 0.045120 0.000000 0.068310 0.000000
# 6 0.000000 0.000000 0.000000 0.032570 0.000000 0.052123
#
#
# Mechanical properties :
#
#
# Convention : Reuss Voigt Hill
#
# Bulk Modulus (GPa) = 11.60473 38.49438 25.04956
# Shear Modulus (GPa) = 16.34538 29.58806 22.96672
#
# Velocity S-wave (km/s) = 2.81594 3.78865 3.33792
# Velocity P-wave (km/s) = 4.02522 6.14922 5.19689
#
# Compressibility (1/GPa) = 0.08617175
#
# Stress axis : x y z
#
# Youngs Moduli (GPa) = 91.92236 54.13998 16.29855
#
# Poissons Ratio (x) = 0.16902 -0.09953
# Poissons Ratio (y) = 0.28697 0.08559
# Poissons Ratio (z) = -0.56133 0.28430
#
# Static dielectric constant tensor:
#      x y z
#    x 1.902170 0.000000 0.154570 
#    y 0.000000 1.779990 0.000000 
#    z 0.154570 0.000000 1.976750 
# 
# From -- ./inp_files/224623.got.cif
#   From: 2010.05.17/outbox.cif.g08.bks.cpg/sg12_113_cif.got.tgz:224623.got - 2010.06.03 13:09:07.
