data_PCOD9170431
_publ_section_title
;
Structure prediction by ZEFSAII (Michael W. Deem and Ramdas Pophale) SiO2 
 PCOD9170431
Probable space group: C 2/M
;
_chemical_formula_sum "Si O2"
_cell_formula_units_Z 40
_cell_length_a 16.889042
_cell_length_b 21.429507
_cell_length_c 11.102788
_cell_angle_alpha 90.000000
_cell_angle_beta 35.753207
_cell_angle_gamma 90.000000
_cell_volume 2347.910188
_symmetry_space_group_name_H-M "C 2/M"
_symmetry_group_IT_number 12
_symmetry_cell_setting 'monoclinic'
loop_
_space_group_symop_operation_xyz
x,y,z
-x,y,-z
-x,-y,-z
x,-y,z
1/2+x,1/2+y,z
1/2-x,1/2+y,-z
1/2-x,1/2-y,-z
1/2+x,1/2-y,z
loop_
_atom_site_type_symbol
_atom_site_label
_atom_site_fract_x
_atom_site_fract_y
_atom_site_fract_z
Si Si1 0.691241 0.190998 0.000028
Si Si2 0.351879 0.739444 0.197163
Si Si3 0.342586 0.427575 0.725701
Si Si4 0.882767 0.326315 0.395128
Si Si5 0.866160 0.572018 0.233517
O O1 0.675257 0.215780 0.882514
O O2 0.782738 0.128223 0.882167
O O3 0.750000 0.250000 0.000000
O O4 0.540573 0.175685 0.234203
O O5 0.223992 0.694599 0.373173
O O6 0.365510 0.779728 0.302181
O O7 0.500000 0.708394 0.000000
O O8 0.500000 0.417521 0.500000
O O9 0.326370 0.500000 0.789713
O O10 0.256915 0.423466 0.707626
O O11 0.845598 0.391995 0.382054
O O12 0.893261 0.500000 0.225701
O O13 0.000000 0.597543 0.000000
#
# Coordination Sequence:
#
# PCOD9170431 Si02
#       5
#     8   8   8   8   8
#     4  11  22  32  51  80 109 144 182 223 269 327
#     4   9  19  33  49  74 104 136 175 219 271 318
#     4  10  21  34  51  78 114 143 173 226 280 320
#     4  10  18  33  54  75 103 139 173 224 272 319
#     4  10  17  31  56  80 101 131 178 226 266 320
#
# _framework density 17.036427
#
# number of rings (size 3 to 8) (size 9 to 14) (size 15 to 20)
#    0.000    2.000    4.000    0.600    2.800    1.600 
#    0.000    0.000    0.000    1.800    0.000    2.800 
#    0.000    0.000    0.000    0.000    0.000    0.000 
#
# Total GULP energy -111410.421949 kJ/mol
# GULP energy per Si atom -5570.521097 kJ/mol
# Density = 1.699765 g / cm^3
# Si number density = 17.036427 Si / 1000 Ang^3
#
#
#
# Elastic Constant Matrix: (Units=GPa)
#
#
# Indices 1 2 3 4 5 6 
#
# 1 32.6080 21.6343 28.6364 0.0002 -21.3651 -0.0002
# 2 21.6343 115.7590 62.7351 0.0002 -14.0944 -0.0002
# 3 28.6364 62.7351 123.4143 0.0007 -24.7815 -0.0006
# 4 0.0002 0.0002 0.0007 31.6305 -0.0004 2.1467
# 5 -21.3651 -14.0944 -24.7815 -0.0004 23.5398 0.0004
# 6 -0.0002 -0.0002 -0.0006 2.1467 0.0004 23.6835
#
#
#
# Elastic Compliance Matrix: (Units=1/GPa)
#
#
# Indices 1 2 3 4 5 6 
#
# 1 0.080486 -0.005592 -0.002329 0.000001 0.067250 -0.000001
# 2 -0.005592 0.012329 -0.005715 0.000000 -0.003709 0.000000
# 3 -0.002329 -0.005715 0.013234 0.000000 0.008397 0.000000
# 4 0.000001 0.000000 0.000000 0.031811 0.000001 -0.002883
# 5 0.067250 -0.003709 0.008397 0.000001 0.110137 -0.000001
# 6 -0.000001 0.000000 0.000000 -0.002883 -0.000001 0.042485
#
#
# Mechanical properties :
#
#
# Convention : Reuss Voigt Hill
#
# Bulk Modulus (GPa) = 12.69393 55.31033 34.00213
# Shear Modulus (GPa) = 14.53440 26.35578 20.44509
#
# Velocity S-wave (km/s) = 2.92402 3.93749 3.46798
# Velocity P-wave (km/s) = 4.34362 7.29439 6.00313
#
# Compressibility (1/GPa) = 0.07877781
#
# Stress axis : x y z
#
# Youngs Moduli (GPa) = 12.42459 81.10943 75.56196
#
# Poissons Ratio (x) = 0.45353 0.17601
# Poissons Ratio (y) = 0.06947 0.43180
# Poissons Ratio (z) = 0.02894 0.46350
#
# Static dielectric constant tensor:
#      x y z
#    x 1.581760 0.000000 -0.011650 
#    y 0.000000 1.607150 0.000000 
#    z -0.011650 0.000000 1.616080 
# 
# From -- ./inp_files/48509.got.cif
#   From: 2010.05.17/outbox.cif.g08.bks.cpg/sg12_25_cif.got.tgz:48509.got - 2010.06.03 13:09:07.
