data_PCOD9170869
_publ_section_title
;
Structure prediction by ZEFSAII (Michael W. Deem and Ramdas Pophale) SiO2 
 PCOD9170869
Probable space group: C 2/M
;
_chemical_formula_sum "Si O2"
_cell_formula_units_Z 40
_cell_length_a 16.661867
_cell_length_b 20.620671
_cell_length_c 5.028811
_cell_angle_alpha 90.000000
_cell_angle_beta 91.510263
_cell_angle_gamma 90.000000
_cell_volume 1727.193039
_symmetry_space_group_name_H-M "C 2/M"
_symmetry_group_IT_number 12
_symmetry_cell_setting 'monoclinic'
loop_
_space_group_symop_operation_xyz
x,y,z
-x,y,-z
-x,-y,-z
x,-y,z
1/2+x,1/2+y,z
1/2-x,1/2+y,-z
1/2-x,1/2-y,-z
1/2+x,1/2-y,z
loop_
_atom_site_type_symbol
_atom_site_label
_atom_site_fract_x
_atom_site_fract_y
_atom_site_fract_z
Si Si1 0.827207 0.608400 0.884419
Si Si2 0.587718 0.224301 0.877417
Si Si3 0.415311 0.093186 0.388306
Si Si4 0.345119 0.575775 0.890443
Si Si5 0.089148 0.142009 0.621963
O O1 0.845332 0.582879 0.594029
O O2 0.739654 0.594836 0.984962
O O3 0.852816 0.684424 0.920697
O O4 0.889306 0.573690 0.092405
O O5 0.577241 0.170898 0.647131
O O6 0.618196 0.290763 0.755968
O O7 0.500000 0.235130 0.000000
O O8 0.500000 0.069416 0.500000
O O9 0.346946 0.500000 0.824990
O O10 0.407835 0.592229 0.131646
O O11 0.360560 0.616699 0.625004
O O12 0.000000 0.151840 0.500000
#
# Coordination Sequence:
#
# PCOD9170869 Si02
#       5
#     8   8   8   8   8
#     4  10  22  37  66  97 134 174 210 261 334 391
#     4  10  21  38  69 102 141 162 203 263 338 400
#     4  10  17  35  61  99 135 173 200 248 317 402
#     4  12  28  49  66  91 132 181 230 276 319 373
#     4  12  27  44  71  98 126 170 224 278 336 395
#
# _framework density 23.158961000000001
#
# number of rings (size 3 to 8) (size 9 to 14) (size 15 to 20)
#    1.200    0.000    2.000    4.800    2.800    4.000 
#    0.000    0.000    0.000    6.600    0.000    0.000 
#    0.000    0.000    0.000    0.000    0.000    0.000 
#
# Total GULP energy -111700.647324 kJ/mol
# GULP energy per Si atom -5585.032366 kJ/mol
# Density = 2.310625 g / cm^3
# Si number density = 23.158961 Si / 1000 Ang^3
#
#
#
# Elastic Constant Matrix: (Units=GPa)
#
#
# Indices 1 2 3 4 5 6 
#
# 1 37.0513 9.3446 1.3706 0.0000 -7.4967 0.0000
# 2 9.3446 123.1056 21.6014 0.0000 -19.6929 0.0000
# 3 1.3706 21.6014 110.1924 0.0000 -26.4593 0.0000
# 4 0.0000 0.0000 0.0000 -46.7538 0.0000 -4.0623
# 5 -7.4967 -19.6929 -26.4593 0.0000 44.9094 0.0000
# 6 0.0000 0.0000 0.0000 -4.0623 0.0000 31.5845
#
#
#
# Elastic Compliance Matrix: (Units=1/GPa)
#
#
# Indices 1 2 3 4 5 6 
#
# 1 0.028294 -0.001591 0.001079 0.000000 0.004661 0.000000
# 2 -0.001591 0.008907 -0.000993 0.000000 0.003055 0.000000
# 3 0.001079 -0.000993 0.010710 0.000000 0.006055 0.000000
# 4 0.000000 0.000000 0.000000 -0.021152 0.000000 -0.002721
# 5 0.004661 0.003055 0.006055 0.000000 0.027952 0.000000
# 6 0.000000 0.000000 0.000000 -0.002721 0.000000 0.031311
#
#
# Mechanical properties :
#
#
# Convention : Reuss Voigt Hill
#
# Bulk Modulus (GPa) = 22.27104 37.22029 29.74566
# Shear Modulus (GPa) = 48.07735 21.81687 34.94711
#
# Velocity S-wave (km/s) = 4.56123 3.07261 3.88881
# Velocity P-wave (km/s) = 6.11369 5.35672 5.74768
#
# Compressibility (1/GPa) = 0.04490136
#
# Stress axis : x y z
#
# Youngs Moduli (GPa) = 35.34301 112.27355 93.36974
#
# Poissons Ratio (x) = 0.17868 -0.10077
# Poissons Ratio (y) = 0.05625 0.09268
# Poissons Ratio (z) = -0.03814 0.11145
#
# Static dielectric constant tensor:
#      x y z
#    x 1.877240 0.000000 0.044300 
#    y 0.000000 1.903890 0.000000 
#    z 0.044300 0.000000 1.841470 
# 
# From -- ./inp_files/15209.got.cif
#   From: 2010.05.17/outbox.cif.g08.bks.cpg/sg12_8_cif.got.tgz:15209.got - 2010.06.03 13:09:07.
