data_PCOD9170327
_publ_section_title
;
Structure prediction by ZEFSAII (Michael W. Deem and Ramdas Pophale) SiO2 
 PCOD9170327
Probable space group: C 2/M
;
_chemical_formula_sum "Si O2"
_cell_formula_units_Z 44
_cell_length_a 14.017063
_cell_length_b 13.262241
_cell_length_c 20.806020
_cell_angle_alpha 90.000000
_cell_angle_beta 147.396029
_cell_angle_gamma 90.000000
_cell_volume 2084.078400
_symmetry_space_group_name_H-M "C 2/M"
_symmetry_group_IT_number 12
_symmetry_cell_setting 'monoclinic'
loop_
_space_group_symop_operation_xyz
x,y,z
-x,y,-z
-x,-y,-z
x,-y,z
1/2+x,1/2+y,z
1/2-x,1/2+y,-z
1/2-x,1/2-y,-z
1/2+x,1/2-y,z
loop_
_atom_site_type_symbol
_atom_site_label
_atom_site_fract_x
_atom_site_fract_y
_atom_site_fract_z
Si Si1 0.825747 0.194905 0.872377
Si Si2 0.548040 0.114203 0.299920
Si Si3 0.151880 0.113266 0.823525
Si Si4 0.083770 0.884075 0.436716
Si Si5 0.000000 0.726692 0.500000
Si Si6 0.127538 0.202005 0.251640
O O1 0.644227 0.134882 0.780442
O O2 0.794148 0.299863 0.892743
O O3 0.855351 0.213816 0.814267
O O4 0.000000 0.143976 0.000000
O O5 0.703734 0.128056 0.441038
O O6 0.588061 0.192671 0.265768
O O7 0.560476 0.000000 0.283249
O O8 0.009919 0.128325 0.684753
O O9 0.035924 0.131759 0.821191
O O10 0.221579 0.000000 0.860225
O O11 0.012116 0.802069 0.445904
O O12 0.046656 0.000000 0.436706
O O13 0.817667 0.666799 0.387621
#
# Coordination Sequence:
#
# PCOD9170327 Si02
#       6
#     8   8   8   8   4   8
#     4  11  24  41  59  82 115 156 197 233 278 341
#     4   9  21  38  59  87 117 148 187 237 287 339
#     4  10  22  39  58  85 120 151 186 238 289 336
#     4   9  17  32  56  87 118 146 183 232 288 342
#     4  10  17  30  59  86 114 150 180 236 284 340
#     4  10  22  36  59  87 115 149 193 233 287 337
#
# _framework density 21.112449000000002
#
# number of rings (size 3 to 8) (size 9 to 14) (size 15 to 20)
#    0.000    2.182    1.818    0.273    2.545    8.000 
#    0.000    2.273    0.000    0.000    0.000    0.000 
#    0.000    0.000    0.000    0.000    0.000    0.000 
#
# Total GULP energy -122891.120347 kJ/mol
# GULP energy per Si atom -5585.960016 kJ/mol
# Density = 2.106440 g / cm^3
# Si number density = 21.112449 Si / 1000 Ang^3
#
#
#
# Elastic Constant Matrix: (Units=GPa)
#
#
# Indices 1 2 3 4 5 6 
#
# 1 83.4735 -18.9104 14.3547 0.0000 4.8741 0.0000
# 2 -18.9104 28.4063 -11.6810 0.0002 -4.1406 0.0001
# 3 14.3547 -11.6810 60.7917 0.0009 13.1603 0.0002
# 4 0.0000 0.0002 0.0009 7.6527 0.0002 1.4386
# 5 4.8741 -4.1406 13.1603 0.0002 15.3221 0.0000
# 6 0.0000 0.0001 0.0002 1.4386 0.0000 3.1304
#
#
#
# Elastic Compliance Matrix: (Units=1/GPa)
#
#
# Indices 1 2 3 4 5 6 
#
# 1 0.014273 0.008757 -0.001495 0.000000 -0.000890 0.000000
# 2 0.008757 0.043903 0.005408 -0.000002 0.004433 0.000000
# 3 -0.001495 0.005408 0.021402 -0.000002 -0.016445 -0.000001
# 4 0.000000 -0.000002 -0.000002 0.143029 0.000000 -0.065729
# 5 -0.000890 0.004433 -0.016445 0.000000 0.080871 0.000001
# 6 0.000000 0.000000 -0.000001 -0.065729 0.000001 0.349656
#
#
# Mechanical properties :
#
#
# Convention : Reuss Voigt Hill
#
# Bulk Modulus (GPa) = 9.53116 15.57758 12.55437
# Shear Modulus (GPa) = 7.54414 17.81492 12.67953
#
# Velocity S-wave (km/s) = 1.89237 2.90799 2.45331
# Velocity P-wave (km/s) = 3.04943 4.32084 3.73956
#
# Compressibility (1/GPa) = 0.10491899
#
# Stress axis : x y z
#
# Youngs Moduli (GPa) = 70.06351 22.77729 46.72483
#
# Poissons Ratio (x) = -0.19946 0.06985
# Poissons Ratio (y) = -0.61355 -0.25270
# Poissons Ratio (z) = 0.10474 -0.12319
#
# Static dielectric constant tensor:
#      x y z
#    x 1.744490 0.000000 0.015270 
#    y 0.000000 1.772800 0.000000 
#    z 0.015270 0.000000 1.773520 
# 
# From -- ./inp_files/143165.got.cif
#   From: 2010.05.17/outbox.cif.g08.bks.cpg/sg12_72_cif.got.tgz:143165.got - 2010.06.03 13:09:07.
