data_PCOD9170576
_publ_section_title
;
Structure prediction by ZEFSAII (Michael W. Deem and Ramdas Pophale) SiO2 
 PCOD9170576
Probable space group: C 2/M
;
_chemical_formula_sum "Si O2"
_cell_formula_units_Z 40
_cell_length_a 10.629025
_cell_length_b 31.588475
_cell_length_c 6.448982
_cell_angle_alpha 90.000000
_cell_angle_beta 94.399495
_cell_angle_gamma 90.000000
_cell_volume 2158.895815
_symmetry_space_group_name_H-M "C 2/M"
_symmetry_group_IT_number 12
_symmetry_cell_setting 'monoclinic'
loop_
_space_group_symop_operation_xyz
x,y,z
-x,y,-z
-x,-y,-z
x,-y,z
1/2+x,1/2+y,z
1/2-x,1/2+y,-z
1/2-x,1/2-y,-z
1/2+x,1/2-y,z
loop_
_atom_site_type_symbol
_atom_site_label
_atom_site_fract_x
_atom_site_fract_y
_atom_site_fract_z
Si Si1 0.313313 0.622054 0.799127
Si Si2 0.849985 0.683681 0.482432
Si Si3 0.137252 0.953197 0.906375
Si Si4 0.000000 0.078904 0.500000
Si Si5 0.307668 0.268243 0.218705
Si Si6 0.500000 0.688850 0.000000
O O1 0.204774 0.643438 0.648912
O O2 0.416942 0.605744 0.648092
O O3 0.382598 0.659565 0.929605
O O4 0.289649 0.584247 0.962327
O O5 0.777330 0.694435 0.689763
O O6 0.818104 0.726735 0.357988
O O7 0.000000 0.679556 0.500000
O O8 0.099490 0.945493 0.661280
O O9 0.194227 0.000000 0.938885
O O10 0.000000 0.953684 0.000000
O O11 0.449409 0.284053 0.185443
O O12 0.250000 0.250000 0.000000
#
# Coordination Sequence:
#
# PCOD9170576 Si02
#       6
#     8   8   8   4   8   4
#     4  11  21  35  56  82 116 148 188 238 285 343
#     4  11  25  39  55  84 113 156 202 232 283 340
#     4   9  18  32  53  85 117 145 179 233 297 350
#     4  10  17  32  56  86 114 148 180 232 296 348
#     4  11  23  39  58  79 114 153 193 246 286 333
#     4  12  20  38  57  84 114 148 189 234 294 332
#
# _framework density 18.527989999999999
#
# number of rings (size 3 to 8) (size 9 to 14) (size 15 to 20)
#    0.000    1.400    5.000    2.700    2.800    0.800 
#    0.000    0.000    0.000    0.600    0.000    1.400 
#    0.000    0.000    0.000    0.000    0.000    0.000 
#
# Total GULP energy -111409.080969 kJ/mol
# GULP energy per Si atom -5570.454048 kJ/mol
# Density = 1.848582 g / cm^3
# Si number density = 18.527990 Si / 1000 Ang^3
#
#
#
# Elastic Constant Matrix: (Units=GPa)
#
#
# Indices 1 2 3 4 5 6 
#
# 1 69.6042 30.0282 24.4377 0.0000 7.2233 0.0000
# 2 30.0282 110.6945 44.7606 0.0000 8.1911 0.0000
# 3 24.4377 44.7606 94.9962 0.0000 0.9896 0.0000
# 4 0.0000 0.0000 0.0000 6.6798 0.0000 -0.8007
# 5 7.2233 8.1911 0.9896 0.0000 28.1471 0.0000
# 6 0.0000 0.0000 0.0000 -0.8007 0.0000 6.2242
#
#
#
# Elastic Compliance Matrix: (Units=1/GPa)
#
#
# Indices 1 2 3 4 5 6 
#
# 1 0.017111 -0.003247 -0.002837 0.000000 -0.003347 0.000000
# 2 -0.003247 0.012047 -0.004815 0.000000 -0.002503 0.000000
# 3 -0.002837 -0.004815 0.013508 0.000000 0.001654 0.000000
# 4 0.000000 0.000000 0.000000 0.152050 0.000000 0.019561
# 5 -0.003347 -0.002503 0.001654 0.000000 0.037057 0.000000
# 6 0.000000 0.000000 0.000000 0.019561 0.000000 0.163179
#
#
# Mechanical properties :
#
#
# Convention : Reuss Voigt Hill
#
# Bulk Modulus (GPa) = 47.91983 52.63866 50.27924
# Shear Modulus (GPa) = 11.80064 19.94811 15.87437
#
# Velocity S-wave (km/s) = 2.52644 3.28479 2.93025
# Velocity P-wave (km/s) = 5.86772 6.54664 6.21646
#
# Compressibility (1/GPa) = 0.02086819
#
# Stress axis : x y z
#
# Youngs Moduli (GPa) = 58.44159 83.00907 74.02983
#
# Poissons Ratio (x) = 0.26952 0.21003
# Poissons Ratio (y) = 0.18975 0.35645
# Poissons Ratio (z) = 0.16580 0.39968
#
# Static dielectric constant tensor:
#      x y z
#    x 1.662780 0.000000 -0.012780 
#    y 0.000000 1.682350 0.000000 
#    z -0.012780 0.000000 1.751010 
# 
# From -- ./inp_files/8203.got.cif
#   From: 2010.05.17/outbox.cif.g08.bks.cpg/sg12_5_cif.got.tgz:8203.got - 2010.06.03 13:09:07.
