data_PCOD9170749
_publ_section_title
;
Structure prediction by ZEFSAII (Michael W. Deem and Ramdas Pophale) SiO2 
 PCOD9170749
Probable space group: C 2/M
;
_chemical_formula_sum "Si O2"
_cell_formula_units_Z 52
_cell_length_a 22.113309
_cell_length_b 19.878316
_cell_length_c 5.294519
_cell_angle_alpha 90.000000
_cell_angle_beta 105.363567
_cell_angle_gamma 90.000000
_cell_volume 2244.170352
_symmetry_space_group_name_H-M "C 2/M"
_symmetry_group_IT_number 12
_symmetry_cell_setting 'monoclinic'
loop_
_space_group_symop_operation_xyz
x,y,z
-x,y,-z
-x,-y,-z
x,-y,z
1/2+x,1/2+y,z
1/2-x,1/2+y,-z
1/2-x,1/2-y,-z
1/2+x,1/2-y,z
loop_
_atom_site_type_symbol
_atom_site_label
_atom_site_fract_x
_atom_site_fract_y
_atom_site_fract_z
Si Si1 0.500000 0.870371 0.000000
Si Si2 0.303713 0.209434 0.415032
Si Si3 0.071584 0.918010 0.049799
Si Si4 0.565450 0.787103 0.443062
Si Si5 0.145664 0.081612 0.636022
Si Si6 0.094489 0.571250 0.737104
Si Si7 0.787521 0.371797 0.885799
O O1 0.449853 0.814996 0.849418
O O2 0.535276 0.920161 0.853493
O O3 0.250000 0.250000 0.500000
O O4 0.368956 0.251249 0.467511
O O5 0.311650 0.151728 0.637742
O O6 0.285965 0.182410 0.116895
O O7 0.114853 0.898743 0.334677
O O8 0.069156 0.000000 0.043310
O O9 0.102252 0.895707 0.821497
O O10 0.000000 0.893668 0.000000
O O11 0.500000 0.763894 0.500000
O O12 0.585508 0.858310 0.588171
O O13 0.216914 0.103550 0.762727
O O14 0.145343 0.000000 0.638064
O O15 0.091888 0.500000 0.594738
O O16 0.160754 0.576173 0.954189
#
# Coordination Sequence:
#
# PCOD9170749 Si02
#       7
#     4   8   8   8   8   8   8
#     4  10  17  34  52  80 120 154 202 232 275 342
#     4  11  23  42  64  85 109 149 199 252 304 346
#     4   9  17  30  50  78 107 148 195 229 267 332
#     4   9  20  36  57  85 117 154 201 247 291 355
#     4  10  19  32  53  82 118 153 184 227 289 350
#     4  10  20  32  51  82 124 165 195 230 282 343
#     4  11  22  39  57  87 118 150 197 242 289 350
#
# _framework density 23.171147000000001
#
# number of rings (size 3 to 8) (size 9 to 14) (size 15 to 20)
#    0.000    2.000    1.538    2.538    0.000    5.231 
#    0.000    1.538    0.000    3.692    2.000    0.000 
#    0.000    0.000    0.000    0.000    0.000    0.000 
#
# Total GULP energy -144899.710169 kJ/mol
# GULP energy per Si atom -5573.065776 kJ/mol
# Density = 2.311841 g / cm^3
# Si number density = 23.171147 Si / 1000 Ang^3
#
#
#
# Elastic Constant Matrix: (Units=GPa)
#
#
# Indices 1 2 3 4 5 6 
#
# 1 139.0512 2.6746 3.0820 0.0000 5.2286 0.0000
# 2 2.6746 28.4212 -3.1317 0.0000 -3.4792 0.0000
# 3 3.0820 -3.1317 87.2884 0.0000 -0.3180 0.0000
# 4 0.0000 0.0000 0.0000 4.9206 0.0000 6.4700
# 5 5.2286 -3.4792 -0.3180 0.0000 49.2430 0.0000
# 6 0.0000 0.0000 0.0000 6.4700 0.0000 12.4338
#
#
#
# Elastic Compliance Matrix: (Units=1/GPa)
#
#
# Indices 1 2 3 4 5 6 
#
# 1 0.007245 -0.000815 -0.000288 0.000000 -0.000829 0.000000
# 2 -0.000815 0.035728 0.001320 0.000000 0.002619 0.000000
# 3 -0.000288 0.001320 0.011515 0.000000 0.000198 0.000000
# 4 0.000000 0.000000 0.000000 0.643539 0.000000 -0.334870
# 5 -0.000829 0.002619 0.000198 0.000000 0.020582 0.000000
# 6 0.000000 0.000000 0.000000 -0.334870 0.000000 0.254678
#
#
# Mechanical properties :
#
#
# Convention : Reuss Voigt Hill
#
# Bulk Modulus (GPa) = 18.20785 28.89008 23.54897
# Shear Modulus (GPa) = 5.04460 30.12853 17.58656
#
# Velocity S-wave (km/s) = 1.47710 3.60982 2.75796
# Velocity P-wave (km/s) = 3.28392 5.46531 4.50854
#
# Compressibility (1/GPa) = 0.05492135
#
# Stress axis : x y z
#
# Youngs Moduli (GPa) = 138.02967 27.98941 86.84682
#
# Poissons Ratio (x) = 0.02281 0.02502
# Poissons Ratio (y) = 0.11249 -0.11465
# Poissons Ratio (z) = 0.03976 -0.03695
#
# Static dielectric constant tensor:
#      x y z
#    x 1.954350 0.000000 0.071300 
#    y 0.000000 2.459630 0.000000 
#    z 0.071300 0.000000 1.959480 
# 
# From -- ./inp_files/21716.got.cif
#   From: 2010.05.17/outbox.cif.g08.bks.cpg/sg12_11_cif.got.tgz:21716.got - 2010.06.03 13:09:07.
