data_PCOD9170633
_publ_section_title
;
Structure prediction by ZEFSAII (Michael W. Deem and Ramdas Pophale) SiO2 
 PCOD9170633
Probable space group: C 2/M
;
_chemical_formula_sum "Si O2"
_cell_formula_units_Z 56
_cell_length_a 16.625788
_cell_length_b 24.736771
_cell_length_c 10.944673
_cell_angle_alpha 90.000000
_cell_angle_beta 135.065455
_cell_angle_gamma 90.000000
_cell_volume 3179.188890
_symmetry_space_group_name_H-M "C 2/M"
_symmetry_group_IT_number 12
_symmetry_cell_setting 'monoclinic'
loop_
_space_group_symop_operation_xyz
x,y,z
-x,y,-z
-x,-y,-z
x,-y,z
1/2+x,1/2+y,z
1/2-x,1/2+y,-z
1/2-x,1/2-y,-z
1/2+x,1/2-y,z
loop_
_atom_site_type_symbol
_atom_site_label
_atom_site_fract_x
_atom_site_fract_y
_atom_site_fract_z
Si Si1 0.365459 0.283743 0.864262
Si Si2 0.272409 0.348608 0.552670
Si Si3 0.433119 0.696400 0.548152
Si Si4 0.872937 0.855239 0.095014
Si Si5 0.041696 0.062381 0.184847
Si Si6 0.682672 0.200542 0.994278
Si Si7 0.538531 0.178544 0.407539
O O1 0.314485 0.297583 0.679325
O O2 0.500000 0.288965 0.000000
O O3 0.327916 0.331660 0.917388
O O4 0.339505 0.226351 0.897729
O O5 0.319012 0.333879 0.467978
O O6 0.347630 0.400207 0.675000
O O7 0.139843 0.352388 0.445421
O O8 0.500000 0.676351 0.500000
O O9 0.526634 0.685238 0.754152
O O10 0.417178 0.760379 0.517015
O O11 0.937429 0.911413 0.148790
O O12 0.770276 0.849001 0.079040
O O13 0.062569 0.000000 0.237003
O O14 0.000000 0.066353 0.000000
O O15 0.569713 0.185952 0.797821
O O16 0.750000 0.250000 0.000000
O O17 0.500000 0.156647 0.500000
#
# Coordination Sequence:
#
# PCOD9170633 Si02
#       7
#     8   8   8   8   8   8   8
#     4  11  16  29  48  71 101 139 169 199 251 312
#     4  11  20  33  51  74 109 138 173 222 265 306
#     4  10  20  31  46  73 106 141 176 207 254 313
#     4  10  17  33  49  70 103 134 170 220 255 297
#     4  10  19  33  57  80  96 128 179 231 272 301
#     4  10  19  30  45  69 103 144 177 200 243 317
#     4  11  20  29  46  73 106 146 173 196 256 321
#
# _framework density 17.614554999999999
#
# number of rings (size 3 to 8) (size 9 to 14) (size 15 to 20)
#    0.000    1.571    7.143    2.143    2.000    0.000 
#    0.000    0.000    0.000    8.143    0.000    0.000 
#    0.000    0.571    0.000    0.571    0.000    0.000 
#
# Total GULP energy -156009.118882 kJ/mol
# GULP energy per Si atom -5571.754246 kJ/mol
# Density = 1.757446 g / cm^3
# Si number density = 17.614555 Si / 1000 Ang^3
#
#
#
# Elastic Constant Matrix: (Units=GPa)
#
#
# Indices 1 2 3 4 5 6 
#
# 1 108.8087 46.7371 36.5460 0.0000 16.7206 0.0000
# 2 46.7371 74.1612 21.2895 0.0000 12.3470 0.0000
# 3 36.5460 21.2895 61.9949 0.0000 15.7658 0.0000
# 4 0.0000 0.0000 0.0000 13.3966 0.0000 -0.2429
# 5 16.7206 12.3470 15.7658 0.0000 33.6308 0.0000
# 6 0.0000 0.0000 0.0000 -0.2429 0.0000 15.6490
#
#
#
# Elastic Compliance Matrix: (Units=1/GPa)
#
#
# Indices 1 2 3 4 5 6 
#
# 1 0.014438 -0.007183 -0.005552 0.000000 -0.001939 0.000000
# 2 -0.007183 0.018904 -0.001590 0.000000 -0.002624 0.000000
# 3 -0.005552 -0.001590 0.021684 0.000000 -0.006821 0.000000
# 4 0.000000 0.000000 0.000000 0.074667 0.000000 0.001159
# 5 -0.001939 -0.002624 -0.006821 0.000000 0.034860 0.000000
# 6 0.000000 0.000000 0.000000 0.001159 0.000000 0.063920
#
#
# Mechanical properties :
#
#
# Convention : Reuss Voigt Hill
#
# Bulk Modulus (GPa) = 37.91218 50.45667 44.18442
# Shear Modulus (GPa) = 18.80306 21.89475 20.34890
#
# Velocity S-wave (km/s) = 3.27076 3.52943 3.40256
# Velocity P-wave (km/s) = 5.98613 6.73174 6.36985
#
# Compressibility (1/GPa) = 0.02637675
#
# Stress axis : x y z
#
# Youngs Moduli (GPa) = 69.26056 52.89866 46.11712
#
# Poissons Ratio (x) = 0.37995 0.25603
# Poissons Ratio (y) = 0.49747 0.07335
# Poissons Ratio (z) = 0.38451 0.08413
#
# Static dielectric constant tensor:
#      x y z
#    x 1.715490 0.000000 -0.023070 
#    y 0.000000 1.578570 0.000000 
#    z -0.023070 0.000000 1.664530 
# 
# From -- ./inp_files/160343.got.cif
#   From: 2010.05.17/outbox.cif.g08.bks.cpg/sg12_81_cif.got.tgz:160343.got - 2010.06.03 13:09:07.
