data_PCOD9170879
_publ_section_title
;
Structure prediction by ZEFSAII (Michael W. Deem and Ramdas Pophale) SiO2 
 PCOD9170879
Probable space group: C 2/M
;
_chemical_formula_sum "Si O2"
_cell_formula_units_Z 58
_cell_length_a 9.477515
_cell_length_b 30.191641
_cell_length_c 12.266967
_cell_angle_alpha 90.000000
_cell_angle_beta 76.526326
_cell_angle_gamma 90.000000
_cell_volume 3413.483207
_symmetry_space_group_name_H-M "C 2/M"
_symmetry_group_IT_number 12
_symmetry_cell_setting 'monoclinic'
loop_
_space_group_symop_operation_xyz
x,y,z
-x,y,-z
-x,-y,-z
x,-y,z
1/2+x,1/2+y,z
1/2-x,1/2+y,-z
1/2-x,1/2-y,-z
1/2+x,1/2-y,z
loop_
_atom_site_type_symbol
_atom_site_label
_atom_site_fract_x
_atom_site_fract_y
_atom_site_fract_z
Si Si1 0.955630 0.550398 0.688818
Si Si2 0.404538 0.146183 0.760826
Si Si3 0.500000 0.500000 0.500000
Si Si4 0.390369 0.228709 0.920673
Si Si5 0.930296 0.780459 0.693713
Si Si6 0.762887 0.434403 0.508144
Si Si7 0.313434 0.660122 0.394922
Si Si8 0.144282 0.295397 0.610574
O O1 0.950087 0.500000 0.734791
O O2 0.921298 0.593020 0.771417
O O3 0.842084 0.552974 0.608134
O O4 0.113325 0.558339 0.605442
O O5 0.381148 0.180264 0.864852
O O6 0.270444 0.154569 0.703488
O O7 0.549092 0.163293 0.671676
O O8 0.622837 0.462511 0.506822
O O9 0.433286 0.263180 0.817299
O O10 0.500000 0.225031 0.000000
O O11 0.250000 0.250000 0.000000
O O12 0.022349 0.824818 0.655553
O O13 0.026462 0.742872 0.619099
O O14 0.768165 0.783826 0.677094
O O15 0.709526 0.384470 0.533596
O O16 0.226875 0.695268 0.484035
#
# Coordination Sequence:
#
# PCOD9170879 Si02
#       8
#     8   8   2   8   8   8   8   8
#     4  10  17  36  52  77 106 151 182 216 255 320
#     4  10  21  35  58  80 104 141 193 217 274 330
#     4  12  20  30  44  76 108 150 202 204 242 294
#     4  11  22  40  58  75 102 137 180 243 286 324
#     4  11  23  35  52  76 104 141 188 214 276 330
#     4  10  20  30  51  73 116 152 184 207 252 309
#     4  11  21  34  50  79 115 149 174 219 255 324
#     4  11  21  35  49  75 112 148 173 217 255 328
#
# _framework density 16.991443
#
# number of rings (size 3 to 8) (size 9 to 14) (size 15 to 20)
#    0.000    1.379    2.759    5.793    1.931    2.207 
#    0.000    0.000    0.000    0.414    0.000    0.000 
#    2.069    3.034    0.000    0.000    0.000    0.000 
#
# Total GULP energy -161497.799379 kJ/mol
# GULP energy per Si atom -5568.889634 kJ/mol
# Density = 1.695277 g / cm^3
# Si number density = 16.991443 Si / 1000 Ang^3
#
#
#
# Elastic Constant Matrix: (Units=GPa)
#
#
# Indices 1 2 3 4 5 6 
#
# 1 103.8986 31.0144 12.9088 0.0000 5.6452 0.0000
# 2 31.0144 105.7176 21.4769 0.0000 -6.1487 0.0000
# 3 12.9088 21.4769 59.1821 0.0000 -3.3132 0.0000
# 4 0.0000 0.0000 0.0000 20.1012 0.0000 0.5507
# 5 5.6452 -6.1487 -3.3132 0.0000 23.2868 0.0000
# 6 0.0000 0.0000 0.0000 0.5507 0.0000 30.5829
#
#
#
# Elastic Compliance Matrix: (Units=1/GPa)
#
#
# Indices 1 2 3 4 5 6 
#
# 1 0.010940 -0.003128 -0.001457 0.000000 -0.003685 0.000000
# 2 -0.003128 0.011218 -0.003206 0.000000 0.003264 0.000000
# 3 -0.001457 -0.003206 0.018498 0.000000 0.002139 0.000000
# 4 0.000000 0.000000 0.000000 0.049773 0.000000 -0.000896
# 5 -0.003685 0.003264 0.002139 0.000000 0.045002 0.000000
# 6 0.000000 0.000000 0.000000 -0.000896 0.000000 0.032714
#
#
# Mechanical properties :
#
#
# Convention : Reuss Voigt Hill
#
# Bulk Modulus (GPa) = 39.88280 44.39982 42.14131
# Shear Modulus (GPa) = 26.03017 28.35406 27.19211
#
# Velocity S-wave (km/s) = 3.91827 4.08944 4.00477
# Velocity P-wave (km/s) = 6.63277 6.96315 6.79997
#
# Compressibility (1/GPa) = 0.02507346
#
# Stress axis : x y z
#
# Youngs Moduli (GPa) = 91.41019 89.14360 54.05975
#
# Poissons Ratio (x) = 0.27881 0.07879
# Poissons Ratio (y) = 0.28590 0.17331
# Poissons Ratio (z) = 0.13323 0.28579
#
# Static dielectric constant tensor:
#      x y z
#    x 1.563850 0.000000 -0.005210 
#    y 0.000000 1.647830 0.000000 
#    z -0.005210 0.000000 1.577570 
# 
# From -- ./inp_files/125227.got.cif
#   From: 2010.05.17/outbox.cif.g08.bks.cpg/sg12_63_cif.got.tgz:125227.got - 2010.06.03 13:09:07.
