data_PCOD9170067
_publ_section_title
;
Structure prediction by ZEFSAII (Michael W. Deem and Ramdas Pophale) SiO2 
 PCOD9170067
Probable space group: C 2/M
;
_chemical_formula_sum "Si O2"
_cell_formula_units_Z 56
_cell_length_a 26.395757
_cell_length_b 17.694281
_cell_length_c 8.549129
_cell_angle_alpha 90.000000
_cell_angle_beta 57.311218
_cell_angle_gamma 90.000000
_cell_volume 3360.494383
_symmetry_space_group_name_H-M "C 2/M"
_symmetry_group_IT_number 12
_symmetry_cell_setting 'monoclinic'
loop_
_space_group_symop_operation_xyz
x,y,z
-x,y,-z
-x,-y,-z
x,-y,z
1/2+x,1/2+y,z
1/2-x,1/2+y,-z
1/2-x,1/2-y,-z
1/2+x,1/2-y,z
loop_
_atom_site_type_symbol
_atom_site_label
_atom_site_fract_x
_atom_site_fract_y
_atom_site_fract_z
Si Si1 0.337220 0.128206 0.268859
Si Si2 0.792922 0.913812 0.394260
Si Si3 0.941086 0.703295 0.515079
Si Si4 0.460697 0.086071 0.211503
Si Si5 0.665580 0.174152 0.076008
Si Si6 0.264618 0.315207 0.149866
Si Si7 0.838792 0.771005 0.482322
O O1 0.275034 0.091778 0.426614
O O2 0.392600 0.088144 0.261237
O O3 0.338978 0.214035 0.333961
O O4 0.341557 0.131263 0.075232
O O5 0.789416 0.876747 0.228026
O O6 0.829931 0.855622 0.439626
O O7 0.813461 0.000000 0.359792
O O8 0.963158 0.638023 0.359708
O O9 0.894624 0.671132 0.721373
O O10 0.899081 0.757927 0.481035
O O11 0.000000 0.736327 0.500000
O O12 0.479358 0.000000 0.213493
O O13 0.500000 0.115630 0.000000
O O14 0.722477 0.148431 0.086321
O O15 0.684101 0.261177 0.005806
O O16 0.218236 0.259416 0.321332
#
# Coordination Sequence:
#
# PCOD9170067 Si02
#       7
#     8   8   8   8   8   8   8
#     4  10  17  31  52  75 101 139 178 202 238 294
#     4  11  19  31  50  76 106 135 170 208 253 305
#     4  10  21  34  53  78  97 129 178 215 249 297
#     4  10  21  36  51  71 107 143 170 204 245 290
#     4  10  17  29  54  71 102 129 166 212 248 289
#     4   9  17  31  51  74  99 138 167 199 262 296
#     4   9  17  33  52  71 102 133 171 215 245 295
#
# _framework density 16.664214999999999
#
# number of rings (size 3 to 8) (size 9 to 14) (size 15 to 20)
#    0.000    2.143    2.857    3.000    0.000    0.286 
#    0.000    2.857    0.000    0.429    0.000    1.000 
#    0.000    0.000    0.000    0.000    0.000    0.000 
#
# Total GULP energy -156129.374998 kJ/mol
# GULP energy per Si atom -5576.049107 kJ/mol
# Density = 1.662629 g / cm^3
# Si number density = 16.664215 Si / 1000 Ang^3
#
#
#
# Elastic Constant Matrix: (Units=GPa)
#
#
# Indices 1 2 3 4 5 6 
#
# 1 82.6163 24.5140 13.4558 0.0000 11.5833 0.0000
# 2 24.5140 87.0958 17.0619 0.0000 7.2707 0.0000
# 3 13.4558 17.0619 84.5737 0.0000 7.9977 0.0000
# 4 0.0000 0.0000 0.0000 15.8899 0.0000 1.7160
# 5 11.5833 7.2707 7.9977 0.0000 27.7831 0.0000
# 6 0.0000 0.0000 0.0000 1.7160 0.0000 9.4313
#
#
#
# Elastic Compliance Matrix: (Units=1/GPa)
#
#
# Indices 1 2 3 4 5 6 
#
# 1 0.013915 -0.003314 -0.001109 0.000000 -0.004615 0.000000
# 2 -0.003314 0.012915 -0.001942 0.000000 -0.001439 0.000000
# 3 -0.001109 -0.001942 0.012645 0.000000 -0.002669 0.000000
# 4 0.000000 0.000000 0.000000 0.064195 0.000000 -0.011680
# 5 -0.004615 -0.001439 -0.002669 0.000000 0.039062 0.000000
# 6 0.000000 0.000000 0.000000 -0.011680 0.000000 0.108155
#
#
# Mechanical properties :
#
#
# Convention : Reuss Voigt Hill
#
# Bulk Modulus (GPa) = 37.39075 40.48325 38.93700
# Shear Modulus (GPa) = 18.34648 23.90445 21.12546
#
# Velocity S-wave (km/s) = 3.32166 3.79156 3.56436
# Velocity P-wave (km/s) = 6.09899 6.59653 6.35263
#
# Compressibility (1/GPa) = 0.02674458
#
# Stress axis : x y z
#
# Youngs Moduli (GPa) = 71.86399 77.42949 79.08469
#
# Poissons Ratio (x) = 0.25661 0.08770
# Poissons Ratio (y) = 0.23816 0.15359
# Poissons Ratio (z) = 0.07969 0.15038
#
# Static dielectric constant tensor:
#      x y z
#    x 1.581690 0.000000 0.012890 
#    y 0.000000 1.560490 0.000000 
#    z 0.012890 0.000000 1.582670 
# 
# From -- ./inp_files/87304.got.cif
#   From: 2010.05.17/outbox.cif.g08.bks.cpg/sg12_44_cif.got.tgz:87304.got - 2010.06.03 13:09:07.
