data_PCOD9170736
_publ_section_title
;
Structure prediction by ZEFSAII (Michael W. Deem and Ramdas Pophale) SiO2 
 PCOD9170736
Probable space group: C 2/M
;
_chemical_formula_sum "Si O2"
_cell_formula_units_Z 64
_cell_length_a 18.175310
_cell_length_b 25.619474
_cell_length_c 17.881086
_cell_angle_alpha 90.000000
_cell_angle_beta 149.694564
_cell_angle_gamma 90.000000
_cell_volume 4201.471116
_symmetry_space_group_name_H-M "C 2/M"
_symmetry_group_IT_number 12
_symmetry_cell_setting 'monoclinic'
loop_
_space_group_symop_operation_xyz
x,y,z
-x,y,-z
-x,-y,-z
x,-y,z
1/2+x,1/2+y,z
1/2-x,1/2+y,-z
1/2-x,1/2-y,-z
1/2+x,1/2-y,z
loop_
_atom_site_type_symbol
_atom_site_label
_atom_site_fract_x
_atom_site_fract_y
_atom_site_fract_z
Si Si1 0.432794 0.846572 0.613817
Si Si2 0.440828 0.345619 0.128188
Si Si3 0.390136 0.939213 0.471964
Si Si4 0.341589 0.803655 0.073056
Si Si5 0.127192 0.746229 0.550905
Si Si6 0.971475 0.747695 0.888215
Si Si7 0.944245 0.937919 0.866557
Si Si8 0.327749 0.694446 0.548044
O O1 0.443347 0.902838 0.586170
O O2 0.565358 0.818612 0.772203
O O3 0.388807 0.808531 0.506938
O O4 0.302903 0.846305 0.560480
O O5 0.456758 0.302944 0.074973
O O6 0.474675 0.401076 0.121437
O O7 0.557575 0.323362 0.289854
O O8 0.288079 0.345486 0.038217
O O9 0.500000 0.931782 0.500000
O O10 0.227379 0.926695 0.298917
O O11 0.390787 0.000000 0.494148
O O12 0.450309 0.793965 0.098963
O O13 0.250000 0.750000 0.000000
O O14 0.296250 0.750196 0.723945
O O15 0.103477 0.793216 0.471050
O O16 0.000000 0.748025 0.500000
O O17 0.000000 0.737561 0.000000
O O18 0.967080 0.000000 0.874925
O O19 0.000000 0.926296 0.000000
O O20 0.250000 0.750000 0.500000
#
# Coordination Sequence:
#
# PCOD9170736 Si02
#       8
#     8   8   8   8   8   8   8   8
#     4  11  19  35  52  67  99 139 172 208 245 295
#     4  11  20  34  51  71  96 138 172 200 248 300
#     4  10  21  35  52  76 103 134 174 217 253 288
#     4  10  22  34  49  71  98 132 170 207 250 295
#     4  11  21  30  48  71  96 133 167 198 247 299
#     4  11  21  32  45  70 103 128 163 206 243 296
#     4  10  21  36  52  74 105 136 171 215 253 291
#     4  10  17  34  50  64  96 130 170 208 241 293
#
# _framework density 15.232760000000001
#
# number of rings (size 3 to 8) (size 9 to 14) (size 15 to 20)
#    0.000    1.500    5.000    3.000    7.000    0.000 
#    0.000    0.000    0.000    0.000    0.000    0.000 
#    0.000    6.000    0.000    0.000    0.000    0.000 
#
# Total GULP energy -178159.983282 kJ/mol
# GULP energy per Si atom -5567.499478 kJ/mol
# Density = 1.519809 g / cm^3
# Si number density = 15.232760 Si / 1000 Ang^3
#
#
#
# Elastic Constant Matrix: (Units=GPa)
#
#
# Indices 1 2 3 4 5 6 
#
# 1 86.5524 31.0710 32.6613 0.0000 10.4662 0.0000
# 2 31.0710 52.1622 26.6083 0.0000 -2.7805 0.0000
# 3 32.6613 26.6083 93.3341 0.0000 0.7493 0.0000
# 4 0.0000 0.0000 0.0000 14.6333 0.0000 -1.7480
# 5 10.4662 -2.7805 0.7493 0.0000 28.1779 0.0000
# 6 0.0000 0.0000 0.0000 -1.7480 0.0000 28.5559
#
#
#
# Elastic Compliance Matrix: (Units=1/GPa)
#
#
# Indices 1 2 3 4 5 6 
#
# 1 0.016768 -0.008655 -0.003344 0.000000 -0.006994 0.000000
# 2 -0.008655 0.027062 -0.004735 0.000000 0.006011 0.000000
# 3 -0.003344 -0.004735 0.013231 0.000000 0.000423 0.000000
# 4 0.000000 0.000000 0.000000 0.068841 0.000000 0.004214
# 5 -0.006994 0.006011 0.000423 0.000000 0.038668 0.000000
# 6 0.000000 0.000000 0.000000 0.004214 0.000000 0.035277
#
#
# Mechanical properties :
#
#
# Convention : Reuss Voigt Hill
#
# Bulk Modulus (GPa) = 42.38476 45.85887 44.12181
# Shear Modulus (GPa) = 20.73142 23.72063 22.22602
#
# Velocity S-wave (km/s) = 3.69314 3.95043 3.82395
# Velocity P-wave (km/s) = 6.78755 7.13994 6.96597
#
# Compressibility (1/GPa) = 0.02359339
#
# Stress axis : x y z
#
# Youngs Moduli (GPa) = 59.63576 36.95208 75.58087
#
# Poissons Ratio (x) = 0.31983 0.25277
# Poissons Ratio (y) = 0.51616 0.35784
# Poissons Ratio (z) = 0.19944 0.17495
#
# Static dielectric constant tensor:
#      x y z
#    x 1.549740 0.000000 -0.001180 
#    y 0.000000 1.519100 0.000000 
#    z -0.001180 0.000000 1.584320 
# 
# From -- ./inp_files/279403.got.cif
#   From: 2010.05.17/outbox.cif.g08.bks.cpg/sg12_140_cif.got.tgz:279403.got - 2010.06.03 13:09:07.
