data_PCOD9170177
_publ_section_title
;
Structure prediction by ZEFSAII (Michael W. Deem and Ramdas Pophale) SiO2 
 PCOD9170177
Probable space group: C 2/M
;
_chemical_formula_sum "Si O2"
_cell_formula_units_Z 60
_cell_length_a 10.871141
_cell_length_b 26.584308
_cell_length_c 12.177708
_cell_angle_alpha 90.000000
_cell_angle_beta 57.513619
_cell_angle_gamma 90.000000
_cell_volume 2968.663578
_symmetry_space_group_name_H-M "C 2/M"
_symmetry_group_IT_number 12
_symmetry_cell_setting 'monoclinic'
loop_
_space_group_symop_operation_xyz
x,y,z
-x,y,-z
-x,-y,-z
x,-y,z
1/2+x,1/2+y,z
1/2-x,1/2+y,-z
1/2-x,1/2-y,-z
1/2+x,1/2-y,z
loop_
_atom_site_type_symbol
_atom_site_label
_atom_site_fract_x
_atom_site_fract_y
_atom_site_fract_z
Si Si1 0.298763 0.670097 0.995168
Si Si2 0.743059 0.556412 0.731604
Si Si3 0.663779 0.141381 0.469635
Si Si4 0.000000 0.095095 0.000000
Si Si5 0.069902 0.554390 0.671370
Si Si6 0.646924 0.785056 0.663379
Si Si7 0.682188 0.745446 0.210084
Si Si8 0.004975 0.625592 0.869482
O O1 0.279787 0.713388 0.096863
O O2 0.160255 0.635328 0.086241
O O3 0.434198 0.633816 0.943035
O O4 0.296508 0.696422 0.877376
O O5 0.720715 0.500000 0.689618
O O6 0.743830 0.610186 0.665024
O O7 0.623838 0.562523 0.883224
O O8 0.907058 0.553929 0.699858
O O9 0.500000 0.151515 0.500000
O O10 0.649340 0.097105 0.565801
O O11 0.709314 0.190278 0.520298
O O12 0.136210 0.500000 0.626873
O O13 0.059578 0.572282 0.801110
O O14 0.490870 0.758436 0.712336
O O15 0.757837 0.757551 0.694238
O O16 0.596346 0.831523 0.765227
O O17 0.000000 0.631453 0.000000
#
# Coordination Sequence:
#
# PCOD9170177 Si02
#       8
#     8   8   8   4   8   8   8   8
#     4  10  20  32  54  80 121 156 190 228 293 346
#     4  10  20  35  58  86 116 148 189 238 296 358
#     4   9  19  36  58  80 110 155 195 245 290 347
#     4  12  21  34  58  92 122 148 182 242 297 360
#     4   9  17  31  52  81 110 145 193 240 284 342
#     4  10  20  34  58  84 117 153 203 249 293 342
#     4  10  20  35  57  87 117 160 203 244 286 352
#     4  10  17  30  50  78 114 151 187 234 286 347
#
# _framework density 20.211114999999999
#
# number of rings (size 3 to 8) (size 9 to 14) (size 15 to 20)
#    0.000    2.133    2.667    1.400    1.867    1.867 
#    0.000    0.667    0.000    0.000    0.000    0.933 
#    0.000    0.000    0.000    0.000    0.000    0.000 
#
# Total GULP energy -167032.029870 kJ/mol
# GULP energy per Si atom -5567.734329 kJ/mol
# Density = 2.016511 g / cm^3
# Si number density = 20.211115 Si / 1000 Ang^3
#
#
#
# Elastic Constant Matrix: (Units=GPa)
#
#
# Indices 1 2 3 4 5 6 
#
# 1 69.6253 32.6817 17.4473 0.0000 18.1779 0.0000
# 2 32.6817 55.5259 15.4097 0.0000 8.8736 0.0000
# 3 17.4473 15.4097 78.9732 0.0000 12.8048 0.0000
# 4 0.0000 0.0000 0.0000 -4.3652 0.0000 8.1613
# 5 18.1779 8.8736 12.8048 0.0000 22.9654 0.0000
# 6 0.0000 0.0000 0.0000 8.1613 0.0000 12.1157
#
#
#
# Elastic Compliance Matrix: (Units=1/GPa)
#
#
# Indices 1 2 3 4 5 6 
#
# 1 0.023511 -0.011433 -0.000728 0.000000 -0.013786 0.000000
# 2 -0.011433 0.025333 -0.002526 0.000000 0.000670 0.000000
# 3 -0.000728 -0.002526 0.014363 0.000000 -0.006456 0.000000
# 4 0.000000 0.000000 0.000000 -0.101392 0.000000 0.068299
# 5 -0.013786 0.000670 -0.006456 0.000000 0.057797 0.000000
# 6 0.000000 0.000000 0.000000 0.068299 0.000000 0.036530
#
#
# Mechanical properties :
#
#
# Convention : Reuss Voigt Hill
#
# Bulk Modulus (GPa) = 29.55672 37.24464 33.40068
# Shear Modulus (GPa) = 51.65614 15.38223 33.51919
#
# Velocity S-wave (km/s) = 5.06100 2.76176 4.07683
# Velocity P-wave (km/s) = 6.98623 5.35141 6.22274
#
# Compressibility (1/GPa) = 0.03383326
#
# Stress axis : x y z
#
# Youngs Moduli (GPa) = 42.53339 39.47449 69.62322
#
# Poissons Ratio (x) = 0.45131 0.05069
# Poissons Ratio (y) = 0.48628 0.17585
# Poissons Ratio (z) = 0.03097 0.09970
#
# Static dielectric constant tensor:
#      x y z
#    x 1.741590 0.000000 0.021610 
#    y 0.000000 1.775470 0.000000 
#    z 0.021610 0.000000 1.742610 
# 
# From -- ./inp_files/208631.got.cif
#   From: 2010.05.17/outbox.cif.g08.bks.cpg/sg12_105_cif.got.tgz:208631.got - 2010.06.03 13:09:07.
