data_PCOD9170531
_publ_section_title
;
Structure prediction by ZEFSAII (Michael W. Deem and Ramdas Pophale) SiO2 
 PCOD9170531
Probable space group: C 2/M
;
_chemical_formula_sum "Si O2"
_cell_formula_units_Z 56
_cell_length_a 15.197185
_cell_length_b 20.258023
_cell_length_c 23.201672
_cell_angle_alpha 90.000000
_cell_angle_beta 155.803707
_cell_angle_gamma 90.000000
_cell_volume 2927.650891
_symmetry_space_group_name_H-M "C 2/M"
_symmetry_group_IT_number 12
_symmetry_cell_setting 'monoclinic'
loop_
_space_group_symop_operation_xyz
x,y,z
-x,y,-z
-x,-y,-z
x,-y,z
1/2+x,1/2+y,z
1/2-x,1/2+y,-z
1/2-x,1/2-y,-z
1/2+x,1/2-y,z
loop_
_atom_site_type_symbol
_atom_site_label
_atom_site_fract_x
_atom_site_fract_y
_atom_site_fract_z
Si Si1 0.365368 0.574542 0.175898
Si Si2 0.418129 0.178105 0.156932
Si Si3 0.547011 0.719811 0.130328
Si Si4 0.051731 0.424684 0.153759
Si Si5 0.764590 0.632293 0.354926
Si Si6 0.346046 0.323864 0.266409
Si Si7 0.666381 0.270715 0.546354
O O1 0.373668 0.500000 0.205851
O O2 0.567443 0.586191 0.254839
O O3 0.375653 0.634615 0.226674
O O4 0.140250 0.580074 0.007727
O O5 0.474364 0.228907 0.137741
O O6 0.454687 0.105639 0.153696
O O7 0.603863 0.194201 0.312729
O O8 0.171408 0.189530 0.024494
O O9 0.697206 0.667351 0.254111
O O10 0.676504 0.764114 0.162732
O O11 0.117085 0.500000 0.198140
O O12 0.244769 0.378340 0.249047
O O13 0.789070 0.693770 0.414421
O O14 0.000000 0.600134 0.500000
O O15 0.550755 0.291496 0.418948
O O16 0.500000 0.289041 0.500000
#
# Coordination Sequence:
#
# PCOD9170531 Si02
#       7
#     8   8   8   8   8   8   8
#     4  11  24  37  53  80 118 153 178 216 274 343
#     4   9  16  29  53  75 103 141 190 230 261 315
#     4   9  16  30  53  77 101 144 180 230 273 314
#     4  10  19  33  52  77 113 151 184 220 267 332
#     4  10  18  35  58  81 109 140 186 230 273 317
#     4  11  20  34  53  80 113 144 179 225 286 331
#     4  10  17  32  53  80 107 137 182 237 276 312
#
# _framework density 19.127963000000001
#
# number of rings (size 3 to 8) (size 9 to 14) (size 15 to 20)
#    0.000    2.000    7.143    0.857    2.000    2.000 
#    0.000    2.143    0.000    0.000    0.000    0.000 
#    0.000    1.143    0.000    0.429    0.000    0.000 
#
# Total GULP energy -156142.807553 kJ/mol
# GULP energy per Si atom -5576.528841 kJ/mol
# Density = 1.908443 g / cm^3
# Si number density = 19.127963 Si / 1000 Ang^3
#
#
#
# Elastic Constant Matrix: (Units=GPa)
#
#
# Indices 1 2 3 4 5 6 
#
# 1 23.5313 11.8814 6.4449 0.0055 7.1915 -0.0020
# 2 11.8814 37.5384 20.1607 -0.0010 7.0404 -0.0011
# 3 6.4449 20.1607 99.7007 0.0605 11.4084 -0.0037
# 4 0.0055 -0.0010 0.0605 -7.6823 0.0257 -1.2815
# 5 7.1915 7.0404 11.4084 0.0257 15.3367 -0.0018
# 6 -0.0020 -0.0011 -0.0037 -1.2815 -0.0018 20.6263
#
#
#
# Elastic Compliance Matrix: (Units=1/GPa)
#
#
# Indices 1 2 3 4 5 6 
#
# 1 0.055769 -0.014703 0.001736 -0.000014 -0.020692 0.000002
# 2 -0.014703 0.035259 -0.005592 -0.000075 -0.005132 -0.000006
# 3 0.001736 -0.005592 0.011857 0.000071 -0.007067 0.000006
# 4 -0.000014 -0.000075 0.000071 -0.128833 0.000204 -0.008004
# 5 -0.020692 -0.005132 -0.007067 0.000204 0.082518 0.000016
# 6 0.000002 -0.000006 0.000006 -0.008004 0.000016 0.047984
#
#
# Mechanical properties :
#
#
# Convention : Reuss Voigt Hill
#
# Bulk Modulus (GPa) = 15.20534 26.41604 20.81069
# Shear Modulus (GPa) = 30.56331 13.80838 22.18584
#
# Velocity S-wave (km/s) = 4.00163 2.68973 3.40937
# Velocity P-wave (km/s) = 5.41454 4.84627 5.13827
#
# Compressibility (1/GPa) = 0.06576636
#
# Stress axis : x y z
#
# Youngs Moduli (GPa) = 17.93115 28.36169 84.33679
#
# Poissons Ratio (x) = 0.41700 -0.14639
# Poissons Ratio (y) = 0.26364 0.47162
# Poissons Ratio (z) = -0.03113 0.15860
#
# Static dielectric constant tensor:
#      x y z
#    x 1.729020 0.000000 0.027940 
#    y 0.000000 1.657660 0.000000 
#    z 0.027940 0.000000 1.686620 
# 
# From -- ./inp_files/364705.got.cif
#   From: 2010.05.17/outbox.cif.g08.bks.cpg/sg12_183_cif.got.tgz:364705.got - 2010.06.03 13:09:07.
