data_PCOD9170631
_publ_section_title
;
Structure prediction by ZEFSAII (Michael W. Deem and Ramdas Pophale) SiO2 
 PCOD9170631
Probable space group: C 2/M
;
_chemical_formula_sum "Si O2"
_cell_formula_units_Z 56
_cell_length_a 31.912317
_cell_length_b 20.760886
_cell_length_c 6.533723
_cell_angle_alpha 90.000000
_cell_angle_beta 122.136446
_cell_angle_gamma 90.000000
_cell_volume 3665.535605
_symmetry_space_group_name_H-M "C 2/M"
_symmetry_group_IT_number 12
_symmetry_cell_setting 'monoclinic'
loop_
_space_group_symop_operation_xyz
x,y,z
-x,y,-z
-x,-y,-z
x,-y,z
1/2+x,1/2+y,z
1/2-x,1/2+y,-z
1/2-x,1/2-y,-z
1/2+x,1/2-y,z
loop_
_atom_site_type_symbol
_atom_site_label
_atom_site_fract_x
_atom_site_fract_y
_atom_site_fract_z
Si Si1 0.201455 0.843791 0.873034
Si Si2 0.782765 0.073180 0.731734
Si Si3 0.110225 0.841013 0.350531
Si Si4 0.596852 0.426722 0.966199
Si Si5 0.734839 0.185384 0.338313
Si Si6 0.057235 0.806855 0.604233
Si Si7 0.143853 0.755030 0.054969
O O1 0.155455 0.864571 0.610402
O O2 0.240429 0.812685 0.820493
O O3 0.226259 0.901661 0.061803
O O4 0.177986 0.796983 0.985444
O O5 0.842947 0.074926 0.875515
O O6 0.756811 0.123481 0.511831
O O7 0.767165 0.000000 0.655451
O O8 0.084632 0.898039 0.157495
O O9 0.071840 0.808111 0.404494
O O10 0.133467 0.792701 0.240848
O O11 0.581104 0.500000 0.890871
O O12 0.575152 0.375575 0.748473
O O13 0.750000 0.250000 0.500000
O O14 0.675484 0.191044 0.172763
O O15 0.000000 0.798530 0.500000
O O16 0.091224 0.753997 0.806029
#
# Coordination Sequence:
#
# PCOD9170631 Si02
#       7
#     8   8   8   8   8   8   8
#     4  11  17  31  48  71  98 125 160 200 242 289
#     4  11  22  32  45  73 104 132 167 200 242 296
#     4  10  17  33  48  66  90 122 158 205 246 284
#     4  10  19  32  45  64  88 122 171 202 236 291
#     4  12  19  31  53  74  98 128 166 205 240 289
#     4  10  21  35  48  65  90 120 158 209 258 287
#     4  10  20  31  48  76  88 120 165 199 244 290
#
# _framework density 15.277441
#
# number of rings (size 3 to 8) (size 9 to 14) (size 15 to 20)
#    0.000    1.429    8.571    0.429    0.000    4.286 
#    0.000    0.714    0.000    0.000    0.000    0.000 
#    0.000    0.571    0.000    3.429    0.000    1.000 
#
# Total GULP energy -155946.664770 kJ/mol
# GULP energy per Si atom -5569.523742 kJ/mol
# Density = 1.524267 g / cm^3
# Si number density = 15.277441 Si / 1000 Ang^3
#
#
#
# Elastic Constant Matrix: (Units=GPa)
#
#
# Indices 1 2 3 4 5 6 
#
# 1 98.1247 34.7903 46.8089 0.0000 -1.1189 0.0000
# 2 34.7903 57.3762 26.9635 0.0000 0.8318 0.0000
# 3 46.8089 26.9635 72.1623 0.0000 -16.6236 0.0000
# 4 0.0000 0.0000 0.0000 17.7113 0.0000 2.0837
# 5 -1.1189 0.8318 -16.6236 0.0000 27.9451 0.0000
# 6 0.0000 0.0000 0.0000 2.0837 0.0000 11.8977
#
#
#
# Elastic Compliance Matrix: (Units=1/GPa)
#
#
# Indices 1 2 3 4 5 6 
#
# 1 0.016876 -0.005400 -0.010124 0.000000 -0.005186 0.000000
# 2 -0.005400 0.023830 -0.006506 0.000000 -0.004796 0.000000
# 3 -0.010124 -0.006506 0.026428 0.000000 0.015510 0.000000
# 4 0.000000 0.000000 0.000000 0.057649 0.000000 -0.010096
# 5 -0.005186 -0.004796 0.015510 0.000000 0.044946 0.000000
# 6 0.000000 0.000000 0.000000 -0.010096 0.000000 0.085818
#
#
# Mechanical properties :
#
#
# Convention : Reuss Voigt Hill
#
# Bulk Modulus (GPa) = 43.33731 49.42093 46.37912
# Shear Modulus (GPa) = 16.27082 19.45085 17.86083
#
# Velocity S-wave (km/s) = 3.26701 3.57203 3.42292
# Velocity P-wave (km/s) = 6.53143 7.03077 6.78569
#
# Compressibility (1/GPa) = 0.02307481
#
# Stress axis : x y z
#
# Youngs Moduli (GPa) = 59.25599 41.96348 37.83808
#
# Poissons Ratio (x) = 0.22661 0.38306
# Poissons Ratio (y) = 0.31999 0.24618
# Poissons Ratio (z) = 0.59989 0.27302
#
# Static dielectric constant tensor:
#      x y z
#    x 1.540010 0.000000 -0.001560 
#    y 0.000000 1.513790 0.000000 
#    z -0.001560 0.000000 1.557720 
# 
# From -- ./inp_files/32274.got.cif
#   From: 2010.05.17/outbox.cif.g08.bks.cpg/sg12_17_cif.got.tgz:32274.got - 2010.06.03 13:09:07.
