data_PCOD9170237
_publ_section_title
;
Structure prediction by ZEFSAII (Michael W. Deem and Ramdas Pophale) SiO2 
 PCOD9170237
Probable space group: C 2/M
;
_chemical_formula_sum "Si O2"
_cell_formula_units_Z 50
_cell_length_a 18.504000
_cell_length_b 7.969338
_cell_length_c 20.942625
_cell_angle_alpha 90.000000
_cell_angle_beta 135.875522
_cell_angle_gamma 90.000000
_cell_volume 2150.132313
_symmetry_space_group_name_H-M "C 2/M"
_symmetry_group_IT_number 12
_symmetry_cell_setting 'monoclinic'
loop_
_space_group_symop_operation_xyz
x,y,z
-x,y,-z
-x,-y,-z
x,-y,z
1/2+x,1/2+y,z
1/2-x,1/2+y,-z
1/2-x,1/2-y,-z
1/2+x,1/2-y,z
loop_
_atom_site_type_symbol
_atom_site_label
_atom_site_fract_x
_atom_site_fract_y
_atom_site_fract_z
Si Si1 0.000000 0.500000 0.500000
Si Si2 0.954290 0.693075 0.282610
Si Si3 0.375387 0.686355 0.473294
Si Si4 0.165834 0.192548 0.384205
Si Si5 0.865170 0.298491 0.091770
Si Si6 0.080587 0.296427 0.190584
Si Si7 0.288260 0.691383 0.272971
O O1 0.947549 0.350171 0.512598
O O2 0.982067 0.500000 0.288215
O O3 0.897032 0.761137 0.182850
O O4 0.870585 0.706372 0.284981
O O5 0.064367 0.781530 0.364132
O O6 0.423745 0.500000 0.511694
O O7 0.272507 0.702713 0.452786
O O8 0.324914 0.687855 0.369520
O O9 0.115272 0.237550 0.282878
O O10 0.197253 0.000000 0.403056
O O11 0.867352 0.500000 0.094353
O O12 0.960951 0.244075 0.107029
O O13 0.750000 0.250000 0.000000
O O14 0.085673 0.500000 0.193208
O O15 0.170682 0.239882 0.199553
O O16 0.289197 0.500000 0.249320
#
# Coordination Sequence:
#
# PCOD9170237 Si02
#       7
#     2   8   8   8   8   8   8
#     4  12  22  36  60  90 108 152 188 202 278 342
#     4  10  20  32  51  77 106 139 177 229 276 321
#     4  10  21  37  57  85 116 142 179 231 265 317
#     4  10  17  30  52  80 103 134 185 222 264 318
#     4   9  18  32  48  70 101 141 180 222 277 329
#     4   8  16  31  49  70 103 134 172 227 273 312
#     4   9  18  33  54  80 105 135 175 227 277 312
#
# _framework density 23.254382
#
# number of rings (size 3 to 8) (size 9 to 14) (size 15 to 20)
#    0.000    2.560    0.800    4.080    1.120    3.840 
#    0.000    0.800    0.000    5.760    0.000    0.000 
#    0.000    0.000    0.000    0.000    0.000    0.000 
#
# Total GULP energy -139385.638210 kJ/mol
# GULP energy per Si atom -5575.425528 kJ/mol
# Density = 2.320145 g / cm^3
# Si number density = 23.254382 Si / 1000 Ang^3
#
#
#
# Elastic Constant Matrix: (Units=GPa)
#
#
# Indices 1 2 3 4 5 6 
#
# 1 137.7202 33.5749 40.5321 0.0000 43.4766 0.0000
# 2 33.5749 99.4633 26.4519 0.0000 21.0131 0.0000
# 3 40.5321 26.4519 142.8107 0.0000 47.1176 0.0000
# 4 0.0000 0.0000 0.0000 22.8541 0.0000 6.5951
# 5 43.4766 21.0131 47.1176 0.0000 38.6871 0.0000
# 6 0.0000 0.0000 0.0000 6.5951 0.0000 34.0116
#
#
#
# Elastic Compliance Matrix: (Units=1/GPa)
#
#
# Indices 1 2 3 4 5 6 
#
# 1 0.011641 -0.001334 0.001706 0.000000 -0.014436 0.000000
# 2 -0.001334 0.011511 -0.000310 0.000000 -0.004376 0.000000
# 3 0.001706 -0.000310 0.011957 0.000000 -0.016312 0.000000
# 4 0.000000 0.000000 0.000000 0.046349 0.000000 -0.008987
# 5 -0.014436 -0.004376 -0.016312 0.000000 0.064314 0.000000
# 6 0.000000 0.000000 0.000000 -0.008987 0.000000 0.031144
#
#
# Mechanical properties :
#
#
# Convention : Reuss Voigt Hill
#
# Bulk Modulus (GPa) = 28.38114 64.56801 46.47457
# Shear Modulus (GPa) = 26.51989 37.73958 32.12974
#
# Velocity S-wave (km/s) = 3.38068 4.03290 3.72111
# Velocity P-wave (km/s) = 5.24117 7.03647 6.20410
#
# Compressibility (1/GPa) = 0.03523467
#
# Stress axis : x y z
#
# Youngs Moduli (GPa) = 85.90056 86.87290 83.63173
#
# Poissons Ratio (x) = 0.11585 -0.14266
# Poissons Ratio (y) = 0.11455 0.02590
# Poissons Ratio (z) = -0.14653 0.02691
#
# Static dielectric constant tensor:
#      x y z
#    x 2.004590 0.000000 -0.047910 
#    y 0.000000 1.743710 0.000000 
#    z -0.047910 0.000000 1.922930 
# 
# From -- ./inp_files/362660.got.cif
#   From: 2010.05.17/outbox.cif.g08.bks.cpg/sg12_182_cif.got.tgz:362660.got - 2010.06.03 13:09:07.
