data_PCOD9170438
_publ_section_title
;
Structure prediction by ZEFSAII (Michael W. Deem and Ramdas Pophale) SiO2 
 PCOD9170438
Probable space group: C 2/M
;
_chemical_formula_sum "Si O2"
_cell_formula_units_Z 58
_cell_length_a 15.030143
_cell_length_b 31.551123
_cell_length_c 5.487568
_cell_angle_alpha 90.000000
_cell_angle_beta 68.260008
_cell_angle_gamma 90.000000
_cell_volume 2417.212213
_symmetry_space_group_name_H-M "C 2/M"
_symmetry_group_IT_number 12
_symmetry_cell_setting 'monoclinic'
loop_
_space_group_symop_operation_xyz
x,y,z
-x,y,-z
-x,-y,-z
x,-y,z
1/2+x,1/2+y,z
1/2-x,1/2+y,-z
1/2-x,1/2-y,-z
1/2+x,1/2-y,z
loop_
_atom_site_type_symbol
_atom_site_label
_atom_site_fract_x
_atom_site_fract_y
_atom_site_fract_z
Si Si1 0.061346 0.251484 0.687788
Si Si2 0.000000 0.500000 0.000000
Si Si3 0.694350 0.671531 0.553268
Si Si4 0.869032 0.439986 0.382392
Si Si5 0.245050 0.545697 0.005017
Si Si6 0.490148 0.389068 0.260109
Si Si7 0.939184 0.347440 0.311533
Si Si8 0.192242 0.141495 0.055625
O O1 0.144369 0.216874 0.602616
O O2 0.100491 0.299526 0.648815
O O3 0.000000 0.246332 0.500000
O O4 0.000000 0.246086 0.000000
O O5 0.030848 0.462948 0.769535
O O6 0.610236 0.635079 0.638490
O O7 0.737773 0.662683 0.773161
O O8 0.738520 0.662260 0.245605
O O9 0.820324 0.453050 0.685297
O O10 0.876033 0.389571 0.375192
O O11 0.811842 0.453767 0.194695
O O12 0.297008 0.500000 0.959858
O O13 0.297732 0.590734 0.956300
O O14 0.500000 0.413901 0.500000
O O15 0.500000 0.413802 0.000000
O O16 0.575697 0.353741 0.174200
O O17 0.000000 0.350580 0.500000
O O18 0.000000 0.350428 0.000000
#
# Coordination Sequence:
#
# PCOD9170438 Si02
#       8
#     8   2   8   8   8   8   8   8
#     4  10  18  30  53  88 124 151 186 241 297 341
#     4  12  24  42  72  94 112 146 188 258 300 350
#     4  10  17  31  56  86 113 149 200 245 274 320
#     4  12  25  41  65  89 119 144 191 244 298 360
#     4  12  25  43  59  86 115 156 195 236 293 362
#     4   8  14  25  46  76 102 133 180 233 268 300
#     4  10  21  36  57  87 122 151 177 234 312 354
#     4  10  20  33  55  79 116 154 193 239 283 333
#
# _framework density 23.994582000000001
#
# number of rings (size 3 to 8) (size 9 to 14) (size 15 to 20)
#    0.000    1.655    2.069    4.966    0.000    0.552 
#    0.000    0.000    0.000   12.414    0.000    0.000 
#    0.000    0.000    0.000    0.000    0.000    0.000 
#
# Total GULP energy -161692.044093 kJ/mol
# GULP energy per Si atom -5575.587727 kJ/mol
# Density = 2.393997 g / cm^3
# Si number density = 23.994582 Si / 1000 Ang^3
#
#
#
# Elastic Constant Matrix: (Units=GPa)
#
#
# Indices 1 2 3 4 5 6 
#
# 1 46.4415 22.9087 44.1336 0.0000 24.0742 0.0000
# 2 22.9087 175.0019 50.6076 0.0000 15.5844 0.0000
# 3 44.1336 50.6076 214.9652 0.0000 50.0720 0.0000
# 4 0.0000 0.0000 0.0000 -4.0784 0.0000 -58.9819
# 5 24.0742 15.5844 50.0720 0.0000 44.0430 0.0000
# 6 0.0000 0.0000 0.0000 -58.9819 0.0000 -10.6291
#
#
#
# Elastic Compliance Matrix: (Units=1/GPa)
#
#
# Indices 1 2 3 4 5 6 
#
# 1 0.032495 -0.002178 -0.002994 0.000000 -0.013588 0.000000
# 2 -0.002178 0.006294 -0.001079 0.000000 0.000190 0.000000
# 3 -0.002994 -0.001079 0.006870 0.000000 -0.005792 0.000000
# 4 0.000000 0.000000 0.000000 0.003094 0.000000 -0.017168
# 5 -0.013588 0.000190 -0.005792 0.000000 0.036650 0.000000
# 6 0.000000 0.000000 0.000000 -0.017168 0.000000 0.001187
#
#
# Mechanical properties :
#
#
# Convention : Reuss Voigt Hill
#
# Bulk Modulus (GPa) = 30.15837 74.63427 52.39632
# Shear Modulus (GPa) = 45.39488 27.11767 36.25628
#
# Velocity S-wave (km/s) = 4.35429 3.36543 3.89140
# Velocity P-wave (km/s) = 6.15434 6.80247 6.48651
#
# Compressibility (1/GPa) = 0.03315829
#
# Stress axis : x y z
#
# Youngs Moduli (GPa) = 30.77350 158.87048 145.56807
#
# Poissons Ratio (x) = 0.34603 0.43578
# Poissons Ratio (y) = 0.06703 0.15706
# Poissons Ratio (z) = 0.09213 0.17141
#
# Static dielectric constant tensor:
#      x y z
#    x 2.091590 0.000000 -0.015660 
#    y 0.000000 1.868190 0.000000 
#    z -0.015660 0.000000 1.999670 
# 
# From -- ./inp_files/22771.got.cif
#   From: 2010.05.17/outbox.cif.g08.bks.cpg/sg12_12_cif.got.tgz:22771.got - 2010.06.03 13:09:07.
