data_PCOD9170519
_publ_section_title
;
Structure prediction by ZEFSAII (Michael W. Deem and Ramdas Pophale) SiO2 
 PCOD9170519
Probable space group: C 2/M
;
_chemical_formula_sum "Si O2"
_cell_formula_units_Z 44
_cell_length_a 12.675819
_cell_length_b 18.386376
_cell_length_c 13.245744
_cell_angle_alpha 90.000000
_cell_angle_beta 125.639706
_cell_angle_gamma 90.000000
_cell_volume 2508.864825
_symmetry_space_group_name_H-M "C 2/M"
_symmetry_group_IT_number 12
_symmetry_cell_setting 'monoclinic'
loop_
_space_group_symop_operation_xyz
x,y,z
-x,y,-z
-x,-y,-z
x,-y,z
1/2+x,1/2+y,z
1/2-x,1/2+y,-z
1/2-x,1/2-y,-z
1/2+x,1/2-y,z
loop_
_atom_site_type_symbol
_atom_site_label
_atom_site_fract_x
_atom_site_fract_y
_atom_site_fract_z
Si Si1 0.972417 0.686513 0.761743
Si Si2 0.929798 0.916847 0.071626
Si Si3 0.500000 0.194302 0.000000
Si Si4 0.398444 0.086764 0.535469
Si Si5 0.835604 0.162552 0.700902
Si Si6 0.760820 0.805695 0.881786
O O1 0.946661 0.625629 0.664098
O O2 0.873043 0.754164 0.697233
O O3 0.116064 0.718825 0.822632
O O4 0.972143 0.657303 0.877026
O O5 0.031064 0.881310 0.205429
O O6 0.901615 0.000000 0.080742
O O7 0.803462 0.867917 0.984308
O O8 0.000000 0.915069 0.000000
O O9 0.625140 0.246176 0.051798
O O10 0.500000 0.099632 0.500000
O O11 0.261556 0.123309 0.428924
O O12 0.385786 0.000000 0.540268
O O13 0.766272 0.163164 0.771587
#
# Coordination Sequence:
#
# PCOD9170519 Si02
#       6
#     8   8   4   8   8   8
#     4  11  21  35  59  82 114 148 188 228 281 329
#     4   9  16  27  48  78 113 147 176 219 279 332
#     4  10  20  34  54  84 110 148 182 236 270 322
#     4  11  23  38  57  83 115 148 184 233 289 336
#     4  10  19  35  54  82 113 146 186 229 274 334
#     4  10  17  32  52  83 114 140 184 229 276 322
#
# _framework density 17.537811999999999
#
# number of rings (size 3 to 8) (size 9 to 14) (size 15 to 20)
#    0.000    1.818    6.364    1.636    0.000    1.455 
#    0.000    0.455    0.000    0.000    0.000    5.091 
#    0.000    0.000    0.000    0.000    0.000    0.000 
#
# Total GULP energy -122630.041501 kJ/mol
# GULP energy per Si atom -5574.092796 kJ/mol
# Density = 1.749790 g / cm^3
# Si number density = 17.537812 Si / 1000 Ang^3
#
#
#
# Elastic Constant Matrix: (Units=GPa)
#
#
# Indices 1 2 3 4 5 6 
#
# 1 54.9588 33.9834 45.8289 0.0000 -1.5940 0.0000
# 2 33.9834 75.2998 54.8981 0.0000 -10.8536 0.0000
# 3 45.8289 54.8981 123.0559 0.0000 -13.0846 0.0000
# 4 0.0000 0.0000 0.0000 22.7740 0.0000 -9.4455
# 5 -1.5940 -10.8536 -13.0846 0.0000 31.7950 0.0000
# 6 0.0000 0.0000 0.0000 -9.4455 0.0000 14.2749
#
#
#
# Elastic Compliance Matrix: (Units=1/GPa)
#
#
# Indices 1 2 3 4 5 6 
#
# 1 0.029787 -0.008391 -0.007839 0.000000 -0.004597 0.000000
# 2 -0.008391 0.022371 -0.006367 0.000000 0.004596 0.000000
# 3 -0.007839 -0.006367 0.014236 0.000000 0.003292 0.000000
# 4 0.000000 0.000000 0.000000 0.060518 0.000000 0.040044
# 5 -0.004597 0.004596 0.003292 0.000000 0.034145 0.000000
# 6 0.000000 0.000000 0.000000 0.040044 0.000000 0.096549
#
#
# Mechanical properties :
#
#
# Convention : Reuss Voigt Hill
#
# Bulk Modulus (GPa) = 47.16576 58.08169 52.62372
# Shear Modulus (GPa) = 16.13596 21.67573 18.90585
#
# Velocity S-wave (km/s) = 3.03655 3.51941 3.28686
# Velocity P-wave (km/s) = 6.26469 7.05017 6.66900
#
# Compressibility (1/GPa) = 0.02120182
#
# Stress axis : x y z
#
# Youngs Moduli (GPa) = 33.57153 44.70029 70.24351
#
# Poissons Ratio (x) = 0.37507 0.55063
# Poissons Ratio (y) = 0.28169 0.44722
# Poissons Ratio (z) = 0.26316 0.28459
#
# Static dielectric constant tensor:
#      x y z
#    x 1.599510 0.000000 -0.007320 
#    y 0.000000 1.585210 0.000000 
#    z -0.007320 0.000000 1.615230 
# 
# From -- ./inp_files/206356.got.cif
#   From: 2010.05.17/outbox.cif.g08.bks.cpg/sg12_104_cif.got.tgz:206356.got - 2010.06.03 13:09:07.
