data_PCOD9170341
_publ_section_title
;
Structure prediction by ZEFSAII (Michael W. Deem and Ramdas Pophale) SiO2 
 PCOD9170341
Probable space group: C 2/M
;
_chemical_formula_sum "Si O2"
_cell_formula_units_Z 48
_cell_length_a 5.403231
_cell_length_b 32.804448
_cell_length_c 17.584544
_cell_angle_alpha 90.000000
_cell_angle_beta 107.461324
_cell_angle_gamma 90.000000
_cell_volume 2973.234787
_symmetry_space_group_name_H-M "C 2/M"
_symmetry_group_IT_number 12
_symmetry_cell_setting 'monoclinic'
loop_
_space_group_symop_operation_xyz
x,y,z
-x,y,-z
-x,-y,-z
x,-y,z
1/2+x,1/2+y,z
1/2-x,1/2+y,-z
1/2-x,1/2-y,-z
1/2+x,1/2-y,z
loop_
_atom_site_type_symbol
_atom_site_label
_atom_site_fract_x
_atom_site_fract_y
_atom_site_fract_z
Si Si1 0.707046 0.950479 0.956038
Si Si2 0.977644 0.549333 0.230894
Si Si3 0.377765 0.265466 0.345265
Si Si4 0.930481 0.926951 0.677848
Si Si5 0.300573 0.500000 0.551894
Si Si6 0.500000 0.786691 0.500000
Si Si7 0.961726 0.153010 0.582267
O O1 0.615784 0.940264 0.862721
O O2 0.710895 0.000000 0.960223
O O3 0.500000 0.936463 0.000000
O O4 0.000000 0.936506 0.000000
O O5 0.971446 0.500000 0.239152
O O6 0.273411 0.563779 0.270002
O O7 0.776377 0.567924 0.273202
O O8 0.105626 0.242848 0.304924
O O9 0.523740 0.242650 0.429699
O O10 0.340067 0.312950 0.365072
O O11 0.855476 0.960576 0.608243
O O12 0.920721 0.883015 0.637194
O O13 0.500000 0.500000 0.500000
O O14 0.000000 0.500000 0.500000
O O15 0.280545 0.817816 0.454108
O O16 0.000000 0.136153 0.500000
#
# Coordination Sequence:
#
# PCOD9170341 Si02
#       7
#     8   8   8   8   4   4   8
#     4   9  17  30  55  82  95 113 152 197 235 295
#     4  11  21  40  53  69 102 132 159 199 259 317
#     4  10  17  31  49  67  89 113 147 208 263 313
#     4  12  25  35  52  68  94 136 171 212 273 276
#     4  12  24  40  50  60  84 128 194 232 246 272
#     4  10  18  32  50  67  92 117 156 222 268 304
#     4  11  21  32  48  69  91 119 176 225 242 292
#
# _framework density 16.144033
#
# number of rings (size 3 to 8) (size 9 to 14) (size 15 to 20)
#    0.000    1.333    4.167    3.500    3.500    2.667 
#    0.000    0.000    0.000    0.000    0.000    0.000 
#    0.000    0.000    0.000    0.000    0.000  233.333 
#
# Total GULP energy -133708.265854 kJ/mol
# GULP energy per Si atom -5571.177744 kJ/mol
# Density = 1.610729 g / cm^3
# Si number density = 16.144033 Si / 1000 Ang^3
#
#
#
# Elastic Constant Matrix: (Units=GPa)
#
#
# Indices 1 2 3 4 5 6 
#
# 1 140.4863 18.4774 63.0803 0.0000 -2.5295 0.0000
# 2 18.4774 59.6257 28.4897 0.0000 -6.1441 0.0000
# 3 63.0803 28.4897 90.7202 0.0000 -4.9792 0.0000
# 4 0.0000 0.0000 0.0000 34.5106 0.0000 -16.7077
# 5 -2.5295 -6.1441 -4.9792 0.0000 27.9966 0.0000
# 6 0.0000 0.0000 0.0000 -16.7077 0.0000 20.1836
#
#
#
# Elastic Compliance Matrix: (Units=1/GPa)
#
#
# Indices 1 2 3 4 5 6 
#
# 1 0.010356 0.000244 -0.007294 0.000000 -0.000308 0.000000
# 2 0.000244 0.020037 -0.006281 0.000000 0.003302 0.000000
# 3 -0.007294 -0.006281 0.018132 0.000000 0.001187 0.000000
# 4 0.000000 0.000000 0.000000 0.048355 0.000000 0.040028
# 5 -0.000308 0.003302 0.001187 0.000000 0.036627 0.000000
# 6 0.000000 0.000000 0.000000 0.040028 0.000000 0.082680
#
#
# Mechanical properties :
#
#
# Convention : Reuss Voigt Hill
#
# Bulk Modulus (GPa) = 45.73884 56.76967 51.25426
# Shear Modulus (GPa) = 19.98910 28.59051 24.28981
#
# Velocity S-wave (km/s) = 3.52259 4.21285 3.88309
# Velocity P-wave (km/s) = 6.70358 7.67496 7.20566
#
# Compressibility (1/GPa) = 0.02186325
#
# Stress axis : x y z
#
# Youngs Moduli (GPa) = 96.56571 49.90770 55.14976
#
# Poissons Ratio (x) = -0.01220 0.40227
# Poissons Ratio (y) = -0.02360 0.34640
# Poissons Ratio (z) = 0.70437 0.31347
#
# Static dielectric constant tensor:
#      x y z
#    x 1.780420 0.000000 -0.047290 
#    y 0.000000 1.531570 0.000000 
#    z -0.047290 0.000000 1.527210 
# 
# From -- ./inp_files/192434.got.cif
#   From: 2010.05.17/outbox.cif.g08.bks.cpg/sg12_97_cif.got.tgz:192434.got - 2010.06.03 13:09:07.
