data_PCOD9170173
_publ_section_title
;
Structure prediction by ZEFSAII (Michael W. Deem and Ramdas Pophale) SiO2 
 PCOD9170173
Probable space group: C 2/M
;
_chemical_formula_sum "Si O2"
_cell_formula_units_Z 56
_cell_length_a 15.526954
_cell_length_b 19.303258
_cell_length_c 19.315753
_cell_angle_alpha 90.000000
_cell_angle_beta 150.988266
_cell_angle_gamma 90.000000
_cell_volume 2807.761219
_symmetry_space_group_name_H-M "C 2/M"
_symmetry_group_IT_number 12
_symmetry_cell_setting 'monoclinic'
loop_
_space_group_symop_operation_xyz
x,y,z
-x,y,-z
-x,-y,-z
x,-y,z
1/2+x,1/2+y,z
1/2-x,1/2+y,-z
1/2-x,1/2-y,-z
1/2+x,1/2-y,z
loop_
_atom_site_type_symbol
_atom_site_label
_atom_site_fract_x
_atom_site_fract_y
_atom_site_fract_z
Si Si1 0.575287 0.175654 0.900255
Si Si2 0.622277 0.579706 0.256376
Si Si3 0.262274 0.421266 0.922650
Si Si4 0.028058 0.726998 0.408988
Si Si5 0.444272 0.696655 0.209014
Si Si6 0.092816 0.579786 0.658006
Si Si7 0.311029 0.306766 0.361922
O O1 0.640507 0.130223 0.881147
O O2 0.557416 0.254119 0.859807
O O3 0.374916 0.156580 0.780681
O O4 0.736683 0.173095 0.068271
O O5 0.617700 0.500000 0.276420
O O6 0.567158 0.631469 0.278226
O O7 0.803224 0.590100 0.340900
O O8 0.463428 0.588714 0.088601
O O9 0.212462 0.500000 0.906282
O O10 0.231119 0.414333 0.819280
O O11 0.004500 0.760600 0.317916
O O12 0.035248 0.644334 0.416636
O O13 0.855948 0.751301 0.333387
O O14 0.183848 0.764096 0.562179
O O15 0.025077 0.500000 0.612100
O O16 0.500000 0.348282 0.500000
#
# Coordination Sequence:
#
# PCOD9170173 Si02
#       7
#     8   8   8   8   8   8   8
#     4  10  18  33  51  80 107 135 182 222 272 314
#     4   9  18  30  48  77 114 148 172 212 271 323
#     4   9  17  29  48  77 110 143 177 214 266 320
#     4   9  19  36  50  81 103 139 184 217 270 314
#     4  10  19  30  54  82 106 136 177 234 261 315
#     4  10  17  30  50  76 112 146 180 214 255 322
#     4   8  21  37  51  72 103 141 177 221 271 324
#
# _framework density 19.944716
#
# number of rings (size 3 to 8) (size 9 to 14) (size 15 to 20)
#    0.857    1.714    1.429    1.286    0.000    2.857 
#    2.571    1.429    0.000    3.000    0.000    4.000 
#    0.000    0.000    0.000    0.000    0.000    0.000 
#
# Total GULP energy -156009.554458 kJ/mol
# GULP energy per Si atom -5571.769802 kJ/mol
# Density = 1.989932 g / cm^3
# Si number density = 19.944716 Si / 1000 Ang^3
#
#
#
# Elastic Constant Matrix: (Units=GPa)
#
#
# Indices 1 2 3 4 5 6 
#
# 1 72.4352 45.3956 49.3492 -0.0114 3.4609 -0.0001
# 2 45.3956 98.4780 36.2952 -0.0263 -3.4288 -0.0075
# 3 49.3492 36.2952 100.2924 -0.0264 16.9250 -0.0082
# 4 -0.0114 -0.0263 -0.0264 9.5172 -0.0151 -2.3051
# 5 3.4609 -3.4288 16.9250 -0.0151 41.7756 -0.0026
# 6 -0.0001 -0.0075 -0.0082 -2.3051 -0.0026 32.7820
#
#
#
# Elastic Compliance Matrix: (Units=1/GPa)
#
#
# Indices 1 2 3 4 5 6 
#
# 1 0.025521 -0.008100 -0.009829 -0.000018 0.001203 -0.000005
# 2 -0.008100 0.014619 -0.001740 0.000031 0.002576 0.000005
# 3 -0.009829 -0.001740 0.016448 0.000021 -0.005992 0.000005
# 4 -0.000018 0.000031 0.000021 0.106893 0.000035 0.007516
# 5 0.001203 0.002576 -0.005992 0.000035 0.026477 0.000004
# 6 -0.000005 0.000005 0.000005 0.007516 0.000004 0.031033
#
#
# Mechanical properties :
#
#
# Convention : Reuss Voigt Hill
#
# Bulk Modulus (GPa) = 57.96942 59.25396 58.61169
# Shear Modulus (GPa) = 18.79139 26.15935 22.47537
#
# Velocity S-wave (km/s) = 3.07282 3.62552 3.36055
# Velocity P-wave (km/s) = 6.45893 6.87746 6.67148
#
# Compressibility (1/GPa) = 0.01725048
#
# Stress axis : x y z
#
# Youngs Moduli (GPa) = 39.18385 68.40319 60.79664
#
# Poissons Ratio (x) = 0.55405 0.59759
# Poissons Ratio (y) = 0.31738 0.10577
# Poissons Ratio (z) = 0.38515 0.11901
#
# Static dielectric constant tensor:
#      x y z
#    x 1.704330 0.000000 0.045240 
#    y 0.000000 1.697150 0.000000 
#    z 0.045240 0.000000 1.798340 
# 
# From -- ./inp_files/317187.got.cif
#   From: 2010.05.17/outbox.cif.g08.bks.cpg/sg12_159_cif.got.tgz:317187.got - 2010.06.03 13:09:07.
