data_PCOD9170233
_publ_section_title
;
Structure prediction by ZEFSAII (Michael W. Deem and Ramdas Pophale) SiO2 
 PCOD9170233
Probable space group: C 2/M
;
_chemical_formula_sum "Si O2"
_cell_formula_units_Z 56
_cell_length_a 20.286401
_cell_length_b 8.723515
_cell_length_c 18.174580
_cell_angle_alpha 90.000000
_cell_angle_beta 67.646831
_cell_angle_gamma 90.000000
_cell_volume 2974.647995
_symmetry_space_group_name_H-M "C 2/M"
_symmetry_group_IT_number 12
_symmetry_cell_setting 'monoclinic'
loop_
_space_group_symop_operation_xyz
x,y,z
-x,y,-z
-x,-y,-z
x,-y,z
1/2+x,1/2+y,z
1/2-x,1/2+y,-z
1/2-x,1/2-y,-z
1/2+x,1/2-y,z
loop_
_atom_site_type_symbol
_atom_site_label
_atom_site_fract_x
_atom_site_fract_y
_atom_site_fract_z
Si Si1 0.576367 0.815166 0.573759
Si Si2 0.586053 0.322288 0.974657
Si Si3 0.354163 0.683761 0.593826
Si Si4 0.922437 0.683639 0.706159
Si Si5 0.600140 0.817356 0.817023
Si Si6 0.943374 0.815719 0.853745
Si Si7 0.305490 0.813841 0.360008
O O1 0.588280 0.745639 0.488549
O O2 0.502107 0.773899 0.644030
O O3 0.641614 0.762273 0.597982
O O4 0.578073 0.000000 0.567350
O O5 0.607597 0.500000 0.959543
O O6 0.617539 0.229584 0.893156
O O7 0.500000 0.317308 0.000000
O O8 0.596498 0.267146 0.053852
O O9 0.355916 0.500000 0.594573
O O10 0.369794 0.748196 0.667859
O O11 0.275905 0.737220 0.600499
O O12 0.917913 0.500000 0.709714
O O13 0.912270 0.749630 0.791867
O O14 0.524952 0.741684 0.826460
O O15 0.659469 0.770024 0.732798
O O16 0.591049 0.000000 0.816195
O O17 0.943579 0.000000 0.852502
O O18 0.305155 0.000000 0.362742
#
# Coordination Sequence:
#
# PCOD9170233 Si02
#       7
#     8   8   8   8   8   8   8
#     4  10  20  38  58  76 103 138 178 222 268 311
#     4   8  16  29  45  73 110 139 165 212 268 308
#     4  11  23  37  54  78 108 140 178 219 263 317
#     4  11  22  37  57  78 106 141 177 219 266 315
#     4  10  17  30  52  78 106 140 178 213 257 312
#     4  10  19  32  51  77 109 139 172 216 266 311
#     4   9  19  36  55  77 108 143 175 216 266 310
#
# _framework density 18.825758
#
# number of rings (size 3 to 8) (size 9 to 14) (size 15 to 20)
#    0.000    2.143    1.429    3.429    0.000    6.000 
#    0.000    3.571    0.000    0.857    0.000    0.000 
#    0.000    0.000    0.000    0.000    0.000    0.000 
#
# Total GULP energy -156267.034975 kJ/mol
# GULP energy per Si atom -5580.965535 kJ/mol
# Density = 1.878291 g / cm^3
# Si number density = 18.825758 Si / 1000 Ang^3
#
#
#
# Elastic Constant Matrix: (Units=GPa)
#
#
# Indices 1 2 3 4 5 6 
#
# 1 44.0913 2.0953 -4.7407 0.0000 10.8083 0.0000
# 2 2.0953 25.7855 9.6440 0.0001 3.4018 0.0002
# 3 -4.7407 9.6440 82.4474 0.0000 23.0781 0.0000
# 4 0.0000 0.0001 0.0000 27.1938 0.0000 12.6683
# 5 10.8083 3.4018 23.0781 0.0000 25.3197 0.0000
# 6 0.0000 0.0002 0.0000 12.6683 0.0000 16.8443
#
#
#
# Elastic Compliance Matrix: (Units=1/GPa)
#
#
# Indices 1 2 3 4 5 6 
#
# 1 0.027922 -0.002492 0.006900 0.000000 -0.017873 0.000000
# 2 -0.002492 0.040821 -0.004941 0.000000 0.000083 0.000000
# 3 0.006900 -0.004941 0.018449 0.000000 -0.019098 0.000000
# 4 0.000000 0.000000 0.000000 0.056605 0.000000 -0.042572
# 5 -0.017873 0.000083 -0.019098 0.000000 0.064520 0.000000
# 6 0.000000 0.000000 0.000000 -0.042572 0.000000 0.091385
#
#
# Mechanical properties :
#
#
# Convention : Reuss Voigt Hill
#
# Bulk Modulus (GPa) = 11.61088 18.48016 15.04552
# Shear Modulus (GPa) = 15.17553 23.55992 19.36772
#
# Velocity S-wave (km/s) = 2.84228 3.54145 3.21095
# Velocity P-wave (km/s) = 4.11732 5.15366 4.66436
#
# Compressibility (1/GPa) = 0.08612614
#
# Stress axis : x y z
#
# Youngs Moduli (GPa) = 35.81421 24.49713 54.20239
#
# Poissons Ratio (x) = 0.06104 -0.37399
# Poissons Ratio (y) = 0.08923 0.26784
# Poissons Ratio (z) = -0.24712 0.12105
#
# Static dielectric constant tensor:
#      x y z
#    x 1.652840 0.000000 0.018180 
#    y 0.000000 1.633710 0.000000 
#    z 0.018180 0.000000 1.657490 
# 
# From -- ./inp_files/280876.got.cif
#   From: 2010.05.17/outbox.cif.g08.bks.cpg/sg12_141_cif.got.tgz:280876.got - 2010.06.03 13:09:07.
