data_PCOD9170139
_publ_section_title
;
Structure prediction by ZEFSAII (Michael W. Deem and Ramdas Pophale) SiO2 
 PCOD9170139
Probable space group: C 2/M
;
_chemical_formula_sum "Si O2"
_cell_formula_units_Z 60
_cell_length_a 26.021598
_cell_length_b 17.685585
_cell_length_c 12.628607
_cell_angle_alpha 90.000000
_cell_angle_beta 38.452735
_cell_angle_gamma 90.000000
_cell_volume 3614.162116
_symmetry_space_group_name_H-M "C 2/M"
_symmetry_group_IT_number 12
_symmetry_cell_setting 'monoclinic'
loop_
_space_group_symop_operation_xyz
x,y,z
-x,y,-z
-x,-y,-z
x,-y,z
1/2+x,1/2+y,z
1/2-x,1/2+y,-z
1/2-x,1/2-y,-z
1/2+x,1/2-y,z
loop_
_atom_site_type_symbol
_atom_site_label
_atom_site_fract_x
_atom_site_fract_y
_atom_site_fract_z
Si Si1 0.486479 0.189947 0.285537
Si Si2 0.694968 0.839311 0.481827
Si Si3 0.673049 0.089870 0.187440
Si Si4 0.648570 0.910058 0.986590
Si Si5 0.500000 0.825662 0.500000
Si Si6 0.691186 0.588050 0.865497
Si Si7 0.800707 0.306954 0.283316
Si Si8 0.051840 0.804316 0.015203
O O1 0.397782 0.152739 0.409511
O O2 0.496612 0.214932 0.391544
O O3 0.496535 0.259209 0.188470
O O4 0.558650 0.129587 0.142477
O O5 0.755284 0.897502 0.326662
O O6 0.727802 0.755140 0.397722
O O7 0.699552 0.844401 0.600929
O O8 0.584711 0.125931 0.358811
O O9 0.748696 0.117528 0.137787
O O10 0.665891 0.000000 0.216704
O O11 0.688634 0.102177 0.037677
O O12 0.696822 0.866936 0.815588
O O13 0.641669 0.000000 0.979181
O O14 0.674782 0.500000 0.908516
O O15 0.607792 0.634866 0.985066
O O16 0.883984 0.257021 0.136691
O O17 0.000000 0.835392 0.000000
#
# Coordination Sequence:
#
# PCOD9170139 Si02
#       8
#     8   8   8   8   4   8   8   8
#     4  10  19  32  51  76  99 133 165 200 250 294
#     4  10  18  33  52  72 100 130 165 206 252 293
#     4   9  17  31  49  71 104 135 158 197 252 298
#     4   9  19  33  50  74 102 133 165 195 241 300
#     4  10  17  30  48  78 103 124 166 204 240 296
#     4  10  21  34  51  77 100 128 169 209 249 293
#     4   9  19  33  52  72  97 137 166 201 247 297
#     4  10  19  35  54  70  99 136 167 203 250 298
#
# _framework density 16.601358000000001
#
# number of rings (size 3 to 8) (size 9 to 14) (size 15 to 20)
#    0.000    2.400    2.667    0.200    0.000    1.867 
#    2.400    3.333    0.000    0.000    0.000    0.467 
#    0.000    0.000    0.000    0.000    0.000    0.000 
#
# Total GULP energy -167132.065572 kJ/mol
# GULP energy per Si atom -5571.068852 kJ/mol
# Density = 1.656357 g / cm^3
# Si number density = 16.601358 Si / 1000 Ang^3
#
#
#
# Elastic Constant Matrix: (Units=GPa)
#
#
# Indices 1 2 3 4 5 6 
#
# 1 98.7583 28.1477 20.2892 0.0000 9.3669 0.0000
# 2 28.1477 34.0705 13.4891 0.0000 6.4160 0.0000
# 3 20.2892 13.4891 52.7027 0.0000 18.8855 0.0000
# 4 0.0000 0.0000 0.0000 8.1762 0.0000 4.3810
# 5 9.3669 6.4160 18.8855 0.0000 26.6950 0.0000
# 6 0.0000 0.0000 0.0000 4.3810 0.0000 22.2720
#
#
#
# Elastic Compliance Matrix: (Units=1/GPa)
#
#
# Indices 1 2 3 4 5 6 
#
# 1 0.013569 -0.010141 -0.002405 0.000000 -0.000622 0.000000
# 2 -0.010141 0.040374 -0.005663 0.000000 -0.002139 0.000000
# 3 -0.002405 -0.005663 0.027542 0.000000 -0.017279 0.000000
# 4 0.000000 0.000000 0.000000 0.136716 0.000000 -0.026893
# 5 -0.000622 -0.002139 -0.017279 0.000000 0.050417 0.000000
# 6 0.000000 0.000000 0.000000 -0.026893 0.000000 0.050189
#
#
# Mechanical properties :
#
#
# Convention : Reuss Voigt Hill
#
# Bulk Modulus (GPa) = 22.18954 34.37594 28.28274
# Shear Modulus (GPa) = 13.50447 19.66902 16.58674
#
# Velocity S-wave (km/s) = 2.85521 3.44580 3.16431
# Velocity P-wave (km/s) = 4.92593 6.04839 5.51579
#
# Compressibility (1/GPa) = 0.04506629
#
# Stress axis : x y z
#
# Youngs Moduli (GPa) = 73.69616 24.76848 36.30863
#
# Poissons Ratio (x) = 0.25117 0.08733
# Poissons Ratio (y) = 0.74735 0.20562
# Poissons Ratio (z) = 0.17726 0.14027
#
# Static dielectric constant tensor:
#      x y z
#    x 1.576450 0.000000 0.011550 
#    y 0.000000 1.537540 0.000000 
#    z 0.011550 0.000000 1.555200 
# 
# From -- ./inp_files/157910.got.cif
#   From: 2010.05.17/outbox.cif.g08.bks.cpg/sg12_79_cif.got.tgz:157910.got - 2010.06.03 13:09:07.
