data_PCOD9170905
_publ_section_title
;
Structure prediction by ZEFSAII (Michael W. Deem and Ramdas Pophale) SiO2 
 PCOD9170905
Probable space group: C 2/M
;
_chemical_formula_sum "Si O2"
_cell_formula_units_Z 46
_cell_length_a 27.806834
_cell_length_b 19.819224
_cell_length_c 9.115497
_cell_angle_alpha 90.000000
_cell_angle_beta 151.858345
_cell_angle_gamma 90.000000
_cell_volume 2369.415448
_symmetry_space_group_name_H-M "C 2/M"
_symmetry_group_IT_number 12
_symmetry_cell_setting 'monoclinic'
loop_
_space_group_symop_operation_xyz
x,y,z
-x,y,-z
-x,-y,-z
x,-y,z
1/2+x,1/2+y,z
1/2-x,1/2+y,-z
1/2-x,1/2-y,-z
1/2+x,1/2-y,z
loop_
_atom_site_type_symbol
_atom_site_label
_atom_site_fract_x
_atom_site_fract_y
_atom_site_fract_z
Si Si1 0.210875 0.580136 0.662317
Si Si2 0.500000 0.000000 0.500000
Si Si3 0.145839 0.179415 0.108406
Si Si4 0.953837 0.743984 0.614975
Si Si5 0.000000 0.649124 0.000000
Si Si6 0.649993 0.878170 0.814222
Si Si7 0.288416 0.303728 0.391189
O O1 0.212709 0.500000 0.661602
O O2 0.304364 0.613803 0.828628
O O3 0.102600 0.606592 0.303928
O O4 0.211692 0.606365 0.831604
O O5 0.575375 0.940362 0.638134
O O6 0.217035 0.240937 0.244203
O O7 0.154313 0.174978 0.307285
O O8 0.030990 0.200495 0.763040
O O9 0.908724 0.691954 0.376686
O O10 0.863993 0.777782 0.467767
O O11 0.013458 0.696485 0.893745
O O12 0.720614 0.863647 0.143136
#
# Coordination Sequence:
#
# PCOD9170905 Si02
#       7
#     8   2   8   8   4   8   8
#     4  11  23  41  60  88 130 168 205 255 312 384
#     4  12  24  44  60  90 136 168 204 256 308 402
#     4  11  21  38  64  93 127 163 207 262 318 370
#     4  11  20  39  67  96 125 162 211 266 317 370
#     4  10  17  36  62  92 121 160 198 260 318 365
#     4  11  24  41  63  93 128 167 206 258 320 374
#     4  11  21  40  62  95 129 161 210 266 313 374
#
# _framework density 19.414071
#
# number of rings (size 3 to 8) (size 9 to 14) (size 15 to 20)
#    0.000    1.043    6.087    2.870    0.000    1.391 
#    7.826    0.000    1.913    2.087    0.000    0.000 
#    0.000    0.000    0.000    0.000    0.000    0.000 
#
# Total GULP energy -128318.922525 kJ/mol
# GULP energy per Si atom -5579.083588 kJ/mol
# Density = 1.936988 g / cm^3
# Si number density = 19.414071 Si / 1000 Ang^3
#
#
#
# Elastic Constant Matrix: (Units=GPa)
#
#
# Indices 1 2 3 4 5 6 
#
# 1 77.9353 43.4915 40.1711 0.0000 19.9297 0.0000
# 2 43.4915 69.4000 23.4362 0.0000 2.3392 0.0000
# 3 40.1711 23.4362 43.3452 0.0000 0.5324 0.0000
# 4 0.0000 0.0000 0.0000 21.5708 0.0000 15.7190
# 5 19.9297 2.3392 0.5324 0.0000 29.5138 0.0000
# 6 0.0000 0.0000 0.0000 15.7190 0.0000 38.4750
#
#
#
# Elastic Compliance Matrix: (Units=1/GPa)
#
#
# Indices 1 2 3 4 5 6 
#
# 1 0.048699 -0.017574 -0.035252 0.000000 -0.030856 0.000000
# 2 -0.017574 0.024014 0.003181 0.000000 0.009907 0.000000
# 3 -0.035252 0.003181 0.053744 0.000000 0.022583 0.000000
# 4 0.000000 0.000000 0.000000 0.066012 0.000000 -0.026969
# 5 -0.030856 0.009907 0.022583 0.000000 0.053526 0.000000
# 6 0.000000 0.000000 0.000000 -0.026969 0.000000 0.037009
#
#
# Mechanical properties :
#
#
# Convention : Reuss Voigt Hill
#
# Bulk Modulus (GPa) = 36.80853 44.98644 40.89748
# Shear Modulus (GPa) = 12.77627 23.48403 18.13015
#
# Velocity S-wave (km/s) = 2.56812 3.48176 3.05924
# Velocity P-wave (km/s) = 5.27205 6.27582 5.79571
#
# Compressibility (1/GPa) = 0.02716762
#
# Stress axis : x y z
#
# Youngs Moduli (GPa) = 20.53413 41.64169 18.60683
#
# Poissons Ratio (x) = 0.73182 0.65593
# Poissons Ratio (y) = 0.36087 -0.05920
# Poissons Ratio (z) = 0.72387 -0.13248
#
# Static dielectric constant tensor:
#      x y z
#    x 1.695020 0.000000 0.000380 
#    y 0.000000 1.631790 0.000000 
#    z 0.000380 0.000000 1.716480 
# 
# From -- ./inp_files/106614.got.cif
#   From: 2010.05.17/outbox.cif.g08.bks.cpg/sg12_54_cif.got.tgz:106614.got - 2010.06.03 13:09:07.
