data_PCOD9170855
_publ_section_title
;
Structure prediction by ZEFSAII (Michael W. Deem and Ramdas Pophale) SiO2 
 PCOD9170855
Probable space group: C 2/M
;
_chemical_formula_sum "Si O2"
_cell_formula_units_Z 56
_cell_length_a 19.962719
_cell_length_b 18.920971
_cell_length_c 12.591545
_cell_angle_alpha 90.000000
_cell_angle_beta 145.260837
_cell_angle_gamma 90.000000
_cell_volume 2710.167244
_symmetry_space_group_name_H-M "C 2/M"
_symmetry_group_IT_number 12
_symmetry_cell_setting 'monoclinic'
loop_
_space_group_symop_operation_xyz
x,y,z
-x,y,-z
-x,-y,-z
x,-y,z
1/2+x,1/2+y,z
1/2-x,1/2+y,-z
1/2-x,1/2-y,-z
1/2+x,1/2-y,z
loop_
_atom_site_type_symbol
_atom_site_label
_atom_site_fract_x
_atom_site_fract_y
_atom_site_fract_z
Si Si1 0.882356 0.673339 0.897925
Si Si2 0.985709 0.895350 0.302402
Si Si3 0.673543 0.383280 0.727664
Si Si4 0.473807 0.231134 0.229455
Si Si5 0.865856 0.714184 0.292067
Si Si6 0.591292 0.577550 0.214811
Si Si7 0.238873 0.697935 0.634165
O O1 0.803521 0.613682 0.850639
O O2 0.803816 0.725288 0.720983
O O3 0.931008 0.723363 0.054991
O O4 0.000000 0.643909 0.000000
O O5 0.867249 0.914477 0.212813
O O6 0.981036 0.811707 0.274807
O O7 0.086851 0.908813 0.521543
O O8 0.021603 0.923955 0.235188
O O9 0.653736 0.297920 0.713175
O O10 0.373036 0.198442 0.176415
O O11 0.605857 0.202301 0.417119
O O12 0.779632 0.677927 0.264272
O O13 0.000000 0.699058 0.500000
O O14 0.647637 0.500000 0.274228
O O15 0.683651 0.641295 0.326988
O O16 0.500000 0.588281 0.000000
#
# Coordination Sequence:
#
# PCOD9170855 Si02
#       7
#     8   8   8   8   8   8   8
#     4  11  21  28  45  85 118 142 170 205 274 343
#     4  10  17  35  58  74 108 147 174 229 272 320
#     4   9  17  32  50  81 110 138 174 217 275 327
#     4  10  18  29  53  82 111 143 173 214 273 338
#     4   8  13  29  47  76 108 138 173 207 259 329
#     4  11  25  39  52  76 105 144 194 229 262 311
#     4  10  19  34  51  75 114 146 172 217 268 324
#
# _framework density 20.662931
#
# number of rings (size 3 to 8) (size 9 to 14) (size 15 to 20)
#    0.000    2.143    5.714    2.143    2.000    7.429 
#    0.000    1.429    0.000    3.857    0.000    3.000 
#    0.000    0.000    0.000    0.000    0.000    0.000 
#
# Total GULP energy -156051.992926 kJ/mol
# GULP energy per Si atom -5573.285462 kJ/mol
# Density = 2.061590 g / cm^3
# Si number density = 20.662931 Si / 1000 Ang^3
#
#
#
# Elastic Constant Matrix: (Units=GPa)
#
#
# Indices 1 2 3 4 5 6 
#
# 1 178.5908 27.6946 38.2932 0.0000 10.3408 0.0000
# 2 27.6946 44.3061 7.2083 0.0000 2.9504 0.0000
# 3 38.2932 7.2083 70.8147 0.0000 2.2768 0.0000
# 4 0.0000 0.0000 0.0000 68.7857 0.0000 -65.4146
# 5 10.3408 2.9504 2.2768 0.0000 36.5239 0.0000
# 6 0.0000 0.0000 0.0000 -65.4146 0.0000 52.6698
#
#
#
# Elastic Compliance Matrix: (Units=1/GPa)
#
#
# Indices 1 2 3 4 5 6 
#
# 1 0.006979 -0.003720 -0.003348 0.000000 -0.001467 0.000000
# 2 -0.003720 0.025041 -0.000507 0.000000 -0.000938 0.000000
# 3 -0.003348 -0.000507 0.015984 0.000000 -0.000007 0.000000
# 4 0.000000 0.000000 0.000000 -0.080272 0.000000 -0.099695
# 5 -0.001467 -0.000938 -0.000007 0.000000 0.027871 0.000000
# 6 0.000000 0.000000 0.000000 -0.099695 0.000000 -0.104833
#
#
# Mechanical properties :
#
#
# Convention : Reuss Voigt Hill
#
# Bulk Modulus (GPa) = 30.43888 48.90043 39.66966
# Shear Modulus (GPa) = -60.14742 46.29691 -6.92526
#
# Velocity S-wave (km/s) = -5.40112 4.73861 -1.83271
# Velocity P-wave (km/s) = 4.91253 7.32505 3.84210
#
# Compressibility (1/GPa) = 0.03285272
#
# Stress axis : x y z
#
# Youngs Moduli (GPa) = 143.28490 39.93526 62.56357
#
# Poissons Ratio (x) = 0.14856 0.20947
# Poissons Ratio (y) = 0.53303 0.03173
# Poissons Ratio (z) = 0.47974 0.02025
#
# Static dielectric constant tensor:
#      x y z
#    x 1.862080 0.000000 -0.013770 
#    y 0.000000 1.710880 0.000000 
#    z -0.013770 0.000000 1.767730 
# 
# From -- ./inp_files/160095.got.cif
#   From: 2010.05.17/outbox.cif.g08.bks.cpg/sg12_81_cif.got.tgz:160095.got - 2010.06.03 13:09:07.
