data_PCOD9170196
_publ_section_title
;
Structure prediction by ZEFSAII (Michael W. Deem and Ramdas Pophale) SiO2 
 PCOD9170196
Probable space group: C 2/M
;
_chemical_formula_sum "Si O2"
_cell_formula_units_Z 56
_cell_length_a 19.407555
_cell_length_b 24.905945
_cell_length_c 11.132819
_cell_angle_alpha 90.000000
_cell_angle_beta 151.094654
_cell_angle_gamma 90.000000
_cell_volume 2601.077907
_symmetry_space_group_name_H-M "C 2/M"
_symmetry_group_IT_number 12
_symmetry_cell_setting 'monoclinic'
loop_
_space_group_symop_operation_xyz
x,y,z
-x,y,-z
-x,-y,-z
x,-y,z
1/2+x,1/2+y,z
1/2-x,1/2+y,-z
1/2-x,1/2-y,-z
1/2+x,1/2-y,z
loop_
_atom_site_type_symbol
_atom_site_label
_atom_site_fract_x
_atom_site_fract_y
_atom_site_fract_z
Si Si1 0.675562 0.722620 0.503770
Si Si2 0.914303 0.565923 0.251687
Si Si3 0.310435 0.402296 0.470214
Si Si4 0.370809 0.560578 0.082814
Si Si5 0.660370 0.588712 0.216982
Si Si6 0.604813 0.712178 0.051905
Si Si7 0.448845 0.062067 0.046496
O O1 0.750000 0.750000 0.500000
O O2 0.719986 0.660769 0.580645
O O3 0.504037 0.720261 0.224842
O O4 0.749591 0.754706 0.724914
O O5 0.912978 0.500000 0.247198
O O6 0.977818 0.585339 0.221998
O O7 0.000000 0.583113 0.500000
O O8 0.749825 0.583695 0.014743
O O9 0.478870 0.410316 0.704659
O O10 0.270487 0.418934 0.547036
O O11 0.220854 0.434819 0.236488
O O12 0.403791 0.500000 0.169410
O O13 0.293801 0.559484 0.833740
O O14 0.500000 0.569337 0.000000
O O15 0.645187 0.651144 0.152587
O O16 0.500000 0.730707 0.000000
O O17 0.496124 0.000000 0.119426
O O18 0.500000 0.088554 0.000000
#
# Coordination Sequence:
#
# PCOD9170196 Si02
#       7
#     8   8   8   8   8   8   8
#     4  10  17  30  51  74 117 159 196 250 310 354
#     4   9  20  40  60  81 115 167 214 239 288 370
#     4  11  20  33  52  85 123 151 198 254 302 363
#     4  10  20  33  57  83 114 161 204 242 290 359
#     4   9  16  30  47  77 119 148 188 242 292 344
#     4   9  15  29  46  72 109 152 195 248 298 352
#     4  10  23  39  56  84 126 160 192 253 309 353
#
# _framework density 21.529536
#
# number of rings (size 3 to 8) (size 9 to 14) (size 15 to 20)
#    0.000    2.286    5.714    0.429    2.000    5.429 
#    0.000    2.143    0.000    0.000    0.000    1.000 
#    4.286    0.000    0.000    0.000    0.000    0.000 
#
# Total GULP energy -155873.118240 kJ/mol
# GULP energy per Si atom -5566.897080 kJ/mol
# Density = 2.148053 g / cm^3
# Si number density = 21.529536 Si / 1000 Ang^3
#
#
#
# Elastic Constant Matrix: (Units=GPa)
#
#
# Indices 1 2 3 4 5 6 
#
# 1 109.8132 2.8555 21.8650 0.0000 -2.0849 0.0000
# 2 2.8555 57.3121 16.5091 0.0000 7.9894 0.0000
# 3 21.8650 16.5091 93.5674 0.0000 -12.9905 0.0000
# 4 0.0000 0.0000 0.0000 27.8163 0.0000 -0.6825
# 5 -2.0849 7.9894 -12.9905 0.0000 27.7306 0.0000
# 6 0.0000 0.0000 0.0000 -0.6825 0.0000 0.4557
#
#
#
# Elastic Compliance Matrix: (Units=1/GPa)
#
#
# Indices 1 2 3 4 5 6 
#
# 1 0.009557 0.000262 -0.002343 0.000000 -0.000454 0.000000
# 2 0.000262 0.019879 -0.004664 0.000000 -0.007893 0.000000
# 3 -0.002343 -0.004664 0.013070 0.000000 0.007290 0.000000
# 4 0.000000 0.000000 0.000000 0.037322 0.000000 0.055898
# 5 -0.000454 -0.007893 0.007290 0.000000 0.041716 0.000000
# 6 0.000000 0.000000 0.000000 0.055898 0.000000 2.278321
#
#
# Mechanical properties :
#
#
# Convention : Reuss Voigt Hill
#
# Bulk Modulus (GPa) = 34.46345 38.12798 36.29571
# Shear Modulus (GPa) = 2.06353 25.83139 13.94746
#
# Velocity S-wave (km/s) = 0.98008 3.46759 2.54801
# Velocity P-wave (km/s) = 4.16209 5.81208 5.05486
#
# Compressibility (1/GPa) = 0.02901625
#
# Stress axis : x y z
#
# Youngs Moduli (GPa) = 104.63111 50.30393 76.51049
#
# Poissons Ratio (x) = -0.01318 0.17924
# Poissons Ratio (y) = -0.02741 0.35688
# Poissons Ratio (z) = 0.24512 0.23464
#
# Static dielectric constant tensor:
#      x y z
#    x 1.821980 0.000000 -0.010280 
#    y 0.000000 1.762990 0.000000 
#    z -0.010280 0.000000 1.913910 
# 
# From -- ./inp_files/170325.got.cif
#   From: 2010.05.17/outbox.cif.g08.bks.cpg/sg12_86_cif.got.tgz:170325.got - 2010.06.03 13:09:07.
