data_PCOD9170379
_publ_section_title
;
Structure prediction by ZEFSAII (Michael W. Deem and Ramdas Pophale) SiO2 
 PCOD9170379
Probable space group: C 2/M
;
_chemical_formula_sum "Si O2"
_cell_formula_units_Z 48
_cell_length_a 19.535031
_cell_length_b 16.686724
_cell_length_c 15.391627
_cell_angle_alpha 90.000000
_cell_angle_beta 157.106898
_cell_angle_gamma 90.000000
_cell_volume 1951.793560
_symmetry_space_group_name_H-M "C 2/M"
_symmetry_group_IT_number 12
_symmetry_cell_setting 'monoclinic'
loop_
_space_group_symop_operation_xyz
x,y,z
-x,y,-z
-x,-y,-z
x,-y,z
1/2+x,1/2+y,z
1/2-x,1/2+y,-z
1/2-x,1/2-y,-z
1/2+x,1/2-y,z
loop_
_atom_site_type_symbol
_atom_site_label
_atom_site_fract_x
_atom_site_fract_y
_atom_site_fract_z
Si Si1 0.802045 0.131722 0.765396
Si Si2 0.175124 0.407386 0.975587
Si Si3 0.829691 0.161419 0.606880
Si Si4 0.402677 0.410758 0.512522
Si Si5 0.286279 0.407925 0.926040
Si Si6 0.847290 0.314487 0.882901
O O1 0.749079 0.128053 0.602795
O O2 0.821712 0.224167 0.818867
O O3 0.707037 0.094395 0.736971
O O4 0.000000 0.095848 0.000000
O O5 0.117473 0.500000 0.925224
O O6 0.388339 0.406250 0.231698
O O7 0.153278 0.386685 0.848105
O O8 0.111367 0.341683 0.970435
O O9 0.750000 0.250000 0.500000
O O10 0.809819 0.113439 0.494472
O O11 0.042327 0.150670 0.870055
O O12 0.353628 0.500000 0.430898
O O13 0.332411 0.355135 0.355379
O O14 0.346053 0.500000 0.012701
O O15 0.000000 0.348693 0.000000
#
# Coordination Sequence:
#
# PCOD9170379 Si02
#       6
#     8   8   8   8   8   8
#     4   9  19  32  51  78 111 142 175 230 281 323
#     4   9  19  35  54  78 108 141 186 236 272 324
#     4  10  17  31  52  77 109 143 173 228 280 319
#     4  10  20  34  54  79 107 146 189 225 272 336
#     4   9  19  35  56  80 106 145 193 236 278 327
#     4  11  21  33  51  80 114 147 178 224 283 343
#
# _framework density 24.592763999999999
#
# number of rings (size 3 to 8) (size 9 to 14) (size 15 to 20)
#    0.000    2.333    1.667    2.500    0.000    7.000 
#    0.000    0.000    0.000    0.000    0.000    0.000 
#    0.000    6.667    0.000    0.000    0.000    0.000 
#
# Total GULP energy -133901.666103 kJ/mol
# GULP energy per Si atom -5579.236088 kJ/mol
# Density = 2.453679 g / cm^3
# Si number density = 24.592764 Si / 1000 Ang^3
#
#
#
# Elastic Constant Matrix: (Units=GPa)
#
#
# Indices 1 2 3 4 5 6 
#
# 1 193.4648 25.1757 20.4560 0.0000 -21.0045 0.0000
# 2 25.1757 66.0564 1.9099 0.0000 22.6989 0.0000
# 3 20.4560 1.9099 44.4840 0.0000 15.2369 0.0001
# 4 0.0000 0.0000 0.0000 12.5648 0.0000 -9.2108
# 5 -21.0045 22.6989 15.2369 0.0000 35.4924 0.0001
# 6 0.0000 0.0000 0.0001 -9.2108 0.0001 18.7492
#
#
#
# Elastic Compliance Matrix: (Units=1/GPa)
#
#
# Indices 1 2 3 4 5 6 
#
# 1 0.008466 -0.007579 -0.008141 0.000000 0.013352 0.000000
# 2 -0.007579 0.026817 0.011425 0.000000 -0.026541 0.000000
# 3 -0.008141 0.011425 0.035038 0.000000 -0.027167 0.000000
# 4 0.000000 0.000000 0.000000 0.124380 0.000000 0.061103
# 5 0.013352 -0.026541 -0.027167 0.000000 0.064714 0.000000
# 6 0.000000 0.000000 0.000000 0.061103 0.000000 0.083353
#
#
# Mechanical properties :
#
#
# Convention : Reuss Voigt Hill
#
# Bulk Modulus (GPa) = 16.19948 44.34316 30.27132
# Shear Modulus (GPa) = 13.44320 30.45886 21.95103
#
# Velocity S-wave (km/s) = 2.34055 3.52309 2.99085
# Velocity P-wave (km/s) = 3.72903 5.88385 4.92572
#
# Compressibility (1/GPa) = 0.06173039
#
# Stress axis : x y z
#
# Youngs Moduli (GPa) = 118.12447 37.28960 28.54010
#
# Poissons Ratio (x) = 0.28263 0.23235
# Poissons Ratio (y) = 0.89530 -0.32607
# Poissons Ratio (z) = 0.96165 -0.42603
#
# Static dielectric constant tensor:
#      x y z
#    x 2.043450 0.000000 -0.038450 
#    y 0.000000 1.938340 0.000000 
#    z -0.038450 0.000000 2.023390 
# 
# From -- ./inp_files/226912.got.cif
#   From: 2010.05.17/outbox.cif.g08.bks.cpg/sg12_114_cif.got.tgz:226912.got - 2010.06.03 13:09:07.
