data_PCOD9170175
_publ_section_title
;
Structure prediction by ZEFSAII (Michael W. Deem and Ramdas Pophale) SiO2 
 PCOD9170175
Probable space group: C 2/M
;
_chemical_formula_sum "Si O2"
_cell_formula_units_Z 64
_cell_length_a 28.034924
_cell_length_b 11.841117
_cell_length_c 21.576044
_cell_angle_alpha 90.000000
_cell_angle_beta 31.724672
_cell_angle_gamma 90.000000
_cell_volume 3766.307852
_symmetry_space_group_name_H-M "C 2/M"
_symmetry_group_IT_number 12
_symmetry_cell_setting 'monoclinic'
loop_
_space_group_symop_operation_xyz
x,y,z
-x,y,-z
-x,-y,-z
x,-y,z
1/2+x,1/2+y,z
1/2-x,1/2+y,-z
1/2-x,1/2-y,-z
1/2+x,1/2-y,z
loop_
_atom_site_type_symbol
_atom_site_label
_atom_site_fract_x
_atom_site_fract_y
_atom_site_fract_z
Si Si1 0.095642 0.365667 0.870060
Si Si2 0.900629 0.132209 0.690941
Si Si3 0.786690 0.133371 0.700475
Si Si4 0.630331 0.788731 0.694153
Si Si5 0.303881 0.368543 0.929165
Si Si6 0.196118 0.626730 0.492744
Si Si7 0.997661 0.874442 0.233487
Si Si8 0.919138 0.796420 0.448872
O O1 0.094940 0.500000 0.882441
O O2 0.185491 0.318891 0.804823
O O3 0.108326 0.347695 0.782855
O O4 0.000000 0.318941 0.000000
O O5 0.847902 0.177001 0.689317
O O6 0.834957 0.133093 0.822997
O O7 0.990211 0.200959 0.610293
O O8 0.017398 0.000000 0.774545
O O9 0.840394 0.149273 0.577090
O O10 0.778480 0.000000 0.721898
O O11 0.715555 0.705136 0.609473
O O12 0.660282 0.865675 0.603094
O O13 0.544278 0.717529 0.765404
O O14 0.267392 0.500000 0.980384
O O15 0.396774 0.360430 0.866402
O O16 0.250000 0.250000 0.000000
O O17 0.218960 0.500000 0.451187
O O18 0.118652 0.677826 0.534019
O O19 0.944239 0.862878 0.358137
O O20 0.928666 0.000000 0.650054
#
# Coordination Sequence:
#
# PCOD9170175 Si02
#       8
#     8   8   8   8   8   8   8   8
#     4  10  21  35  50  75 108 137 168 211 264 319
#     4   9  18  31  50  78 105 130 171 217 261 310
#     4  10  18  30  51  76 102 134 169 209 259 311
#     4  10  19  34  52  76  99 137 172 210 262 307
#     4   9  18  34  53  77 105 137 173 220 270 319
#     4  10  20  32  51  78 106 133 169 212 261 319
#     4   9  18  31  51  77 104 131 171 217 259 309
#     4  10  17  30  50  77 103 131 161 209 266 312
#
# _framework density 16.992768999999999
#
# number of rings (size 3 to 8) (size 9 to 14) (size 15 to 20)
#    0.000    2.375    1.250    3.000    0.000    2.000 
#    0.000    7.500    0.000    3.750    0.000    0.000 
#    0.000    0.000    0.000    0.000    0.000    0.000 
#
# Total GULP energy -178174.217319 kJ/mol
# GULP energy per Si atom -5567.944291 kJ/mol
# Density = 1.695409 g / cm^3
# Si number density = 16.992769 Si / 1000 Ang^3
#
#
#
# Elastic Constant Matrix: (Units=GPa)
#
#
# Indices 1 2 3 4 5 6 
#
# 1 92.8020 12.9804 23.5270 0.0000 -15.9140 0.0000
# 2 12.9804 56.7213 16.4396 -0.0002 -14.3631 0.0001
# 3 23.5270 16.4396 67.4625 -0.0001 -11.8541 0.0000
# 4 0.0000 -0.0002 -0.0001 14.7210 0.0000 -0.2837
# 5 -15.9140 -14.3631 -11.8541 0.0000 15.4697 0.0000
# 6 0.0000 0.0001 0.0000 -0.2837 0.0000 13.0255
#
#
#
# Elastic Compliance Matrix: (Units=1/GPa)
#
#
# Indices 1 2 3 4 5 6 
#
# 1 0.013506 0.000898 -0.002705 0.000000 0.012654 0.000000
# 2 0.000898 0.023381 -0.002350 0.000000 0.020830 0.000000
# 3 -0.002705 -0.002350 0.017873 0.000000 0.008731 0.000000
# 4 0.000000 0.000000 0.000000 0.067959 0.000000 0.001480
# 5 0.012654 0.020830 0.008731 0.000000 0.103690 0.000000
# 6 0.000000 0.000000 0.000000 0.001480 0.000000 0.076805
#
#
# Mechanical properties :
#
#
# Convention : Reuss Voigt Hill
#
# Bulk Modulus (GPa) = 21.53143 35.87552 28.70348
# Shear Modulus (GPa) = 15.29000 19.57915 17.43458
#
# Velocity S-wave (km/s) = 3.00291 3.39810 3.20660
# Velocity P-wave (km/s) = 4.97210 6.04600 5.53516
#
# Compressibility (1/GPa) = 0.04644374
#
# Stress axis : x y z
#
# Youngs Moduli (GPa) = 74.04170 42.77059 55.94921
#
# Poissons Ratio (x) = -0.03839 0.15136
# Poissons Ratio (y) = -0.06646 0.13150
# Poissons Ratio (z) = 0.20030 0.10053
#
# Static dielectric constant tensor:
#      x y z
#    x 1.595420 0.000000 -0.022370 
#    y 0.000000 1.566840 0.000000 
#    z -0.022370 0.000000 1.582950 
# 
# From -- ./inp_files/239654.got.cif
#   From: 2010.05.17/outbox.cif.g08.bks.cpg/sg12_120_cif.got.tgz:239654.got - 2010.06.03 13:09:07.
