data_PCOD9170146
_publ_section_title
;
Structure prediction by ZEFSAII (Michael W. Deem and Ramdas Pophale) SiO2 
 PCOD9170146
Probable space group: C 2/M
;
_chemical_formula_sum "Si O2"
_cell_formula_units_Z 64
_cell_length_a 29.711253
_cell_length_b 7.616222
_cell_length_c 17.530540
_cell_angle_alpha 90.000000
_cell_angle_beta 64.789179
_cell_angle_gamma 90.000000
_cell_volume 3589.077421
_symmetry_space_group_name_H-M "C 2/M"
_symmetry_group_IT_number 12
_symmetry_cell_setting 'monoclinic'
loop_
_space_group_symop_operation_xyz
x,y,z
-x,y,-z
-x,-y,-z
x,-y,z
1/2+x,1/2+y,z
1/2-x,1/2+y,-z
1/2-x,1/2-y,-z
1/2+x,1/2-y,z
loop_
_atom_site_type_symbol
_atom_site_label
_atom_site_fract_x
_atom_site_fract_y
_atom_site_fract_z
Si Si1 0.914533 0.700539 0.837653
Si Si2 0.340248 0.297813 0.760883
Si Si3 0.131432 0.794281 0.971611
Si Si4 0.048232 0.214616 0.915693
Si Si5 0.527463 0.714710 0.596156
Si Si6 0.472205 0.297050 0.236930
Si Si7 0.243625 0.290260 0.914646
Si Si8 0.923725 0.214756 0.594684
O O1 0.922056 0.500000 0.807582
O O2 0.045550 0.719746 0.830691
O O3 0.967835 0.789829 0.807930
O O4 0.887215 0.702242 0.938420
O O5 0.329184 0.500000 0.748819
O O6 0.379339 0.294021 0.802390
O O7 0.289667 0.218421 0.831377
O O8 0.372138 0.220870 0.667971
O O9 0.098100 0.734473 0.924538
O O10 0.190342 0.772057 0.923298
O O11 0.120412 0.000000 0.990685
O O12 0.046187 0.000000 0.914006
O O13 0.000000 0.269501 0.000000
O O14 0.527096 0.500000 0.598484
O O15 0.541368 0.778978 0.670374
O O16 0.471360 0.766521 0.612040
O O17 0.563276 0.767540 0.500919
O O18 0.455865 0.500000 0.249412
O O19 0.244739 0.500000 0.908522
O O20 0.250000 0.250000 0.000000
O O21 0.922831 0.000000 0.596984
#
# Coordination Sequence:
#
# PCOD9170146 Si02
#       8
#     8   8   8   8   8   8   8   8
#     4  12  22  29  43  68  97 124 156 192 226 273
#     4  10  19  32  49  65  90 127 159 185 225 273
#     4  11  21  35  50  64  90 125 158 197 234 267
#     4   9  17  29  48  70  89 117 158 192 225 275
#     4   8  13  21  42  71  95 114 145 191 229 265
#     4  10  17  30  49  68  92 125 159 189 228 275
#     4  11  22  33  48  70  93 123 158 193 228 274
#     4   8  13  23  41  70  94 115 148 187 227 268
#
# _framework density 17.831880999999999
#
# number of rings (size 3 to 8) (size 9 to 14) (size 15 to 20)
#    0.000    2.125    3.750    2.625    0.000    0.500 
#    0.000    1.875    0.000    1.500    0.000    0.875 
#    0.000    0.000    0.000    0.000    0.000    0.000 
#
# Total GULP energy -178481.664748 kJ/mol
# GULP energy per Si atom -5577.552023 kJ/mol
# Density = 1.779129 g / cm^3
# Si number density = 17.831881 Si / 1000 Ang^3
#
#
#
# Elastic Constant Matrix: (Units=GPa)
#
#
# Indices 1 2 3 4 5 6 
#
# 1 106.1917 -5.3627 67.3264 0.0000 2.4978 0.0000
# 2 -5.3627 47.5349 0.2257 -0.0001 2.4954 -0.0001
# 3 67.3264 0.2257 166.1855 0.0000 6.2096 0.0000
# 4 0.0000 -0.0001 0.0000 2.4500 0.0000 -7.5583
# 5 2.4978 2.4954 6.2096 0.0000 25.3714 0.0000
# 6 0.0000 -0.0001 0.0000 -7.5583 0.0000 4.4454
#
#
#
# Elastic Compliance Matrix: (Units=1/GPa)
#
#
# Indices 1 2 3 4 5 6 
#
# 1 0.012773 0.001473 -0.005172 0.000000 -0.000137 0.000000
# 2 0.001473 0.021317 -0.000547 -0.000001 -0.002108 0.000000
# 3 -0.005172 -0.000547 0.008167 0.000000 -0.001436 0.000000
# 4 0.000000 -0.000001 0.000000 -0.096146 0.000000 -0.163470
# 5 -0.000137 -0.002108 -0.001436 0.000000 0.039987 0.000000
# 6 0.000000 0.000000 0.000000 -0.163470 0.000000 -0.052989
#
#
# Mechanical properties :
#
#
# Convention : Reuss Voigt Hill
#
# Bulk Modulus (GPa) = 29.61622 49.36567 39.49094
# Shear Modulus (GPa) = -106.05914 23.63488 -41.21213
#
# Velocity S-wave (km/s) = -7.72052 3.64459 -4.81266
# Velocity P-wave (km/s) = 7.92657 6.74202 2.94752
#
# Compressibility (1/GPa) = 0.03376528
#
# Stress axis : x y z
#
# Youngs Moduli (GPa) = 78.28716 46.91191 122.44381
#
# Poissons Ratio (x) = -0.06909 0.63325
# Poissons Ratio (y) = -0.11530 0.06696
# Poissons Ratio (z) = 0.40489 0.02565
#
# Static dielectric constant tensor:
#      x y z
#    x 1.575780 0.000000 0.009450 
#    y 0.000000 1.693990 0.000000 
#    z 0.009450 0.000000 1.642960 
# 
# From -- ./inp_files/326569.got.cif
#   From: 2010.05.17/outbox.cif.g08.bks.cpg/sg12_164_cif.got.tgz:326569.got - 2010.06.03 13:09:07.
