data_PCOD9170197
_publ_section_title
;
Structure prediction by ZEFSAII (Michael W. Deem and Ramdas Pophale) SiO2 
 PCOD9170197
Probable space group: C 2/M
;
_chemical_formula_sum "Si O2"
_cell_formula_units_Z 60
_cell_length_a 20.888893
_cell_length_b 16.417882
_cell_length_c 11.473112
_cell_angle_alpha 90.000000
_cell_angle_beta 66.831061
_cell_angle_gamma 90.000000
_cell_volume 3617.379609
_symmetry_space_group_name_H-M "C 2/M"
_symmetry_group_IT_number 12
_symmetry_cell_setting 'monoclinic'
loop_
_space_group_symop_operation_xyz
x,y,z
-x,y,-z
-x,-y,-z
x,-y,z
1/2+x,1/2+y,z
1/2-x,1/2+y,-z
1/2-x,1/2-y,-z
1/2+x,1/2-y,z
loop_
_atom_site_type_symbol
_atom_site_label
_atom_site_fract_x
_atom_site_fract_y
_atom_site_fract_z
Si Si1 0.755643 0.313994 0.169014
Si Si2 0.602161 0.403807 0.645805
Si Si3 0.353938 0.093729 0.657608
Si Si4 0.500000 0.166274 0.500000
Si Si5 0.873157 0.906767 0.649604
Si Si6 0.024903 0.790020 0.277745
Si Si7 0.766927 0.801165 0.371590
Si Si8 0.649888 0.192751 0.109177
O O1 0.705675 0.382952 0.259137
O O2 0.784634 0.261338 0.255230
O O3 0.702667 0.257272 0.132266
O O4 0.816517 0.336160 0.035556
O O5 0.593576 0.500000 0.679050
O O6 0.612878 0.396927 0.497929
O O7 0.535931 0.347859 0.726352
O O8 0.670912 0.364438 0.651979
O O9 0.431228 0.112758 0.558378
O O10 0.300862 0.150452 0.624452
O O11 0.353972 0.121394 0.792676
O O12 0.335065 0.000000 0.658307
O O13 0.494910 0.224323 0.390584
O O14 0.924738 0.847848 0.681795
O O15 0.887571 0.000000 0.670561
O O16 0.075919 0.739781 0.155135
O O17 0.750000 0.750000 0.500000
#
# Coordination Sequence:
#
# PCOD9170197 Si02
#       8
#     8   8   8   4   8   8   8   8
#     4   9  17  34  50  72  98 129 173 214 248 305
#     4  11  20  30  47  76 108 137 167 206 261 315
#     4  10  20  33  51  76 104 130 170 223 270 306
#     4  10  17  30  51  74  96 132 172 218 263 304
#     4  10  18  28  48  77 105 130 164 215 267 305
#     4  10  17  31  50  73 103 136 174 214 257 306
#     4  11  20  33  51  73 105 142 174 206 255 317
#     4   8  18  32  54  71  92 131 174 213 258 301
#
# _framework density 16.586592
#
# number of rings (size 3 to 8) (size 9 to 14) (size 15 to 20)
#    0.000    2.133    2.667    2.600    0.000    1.600 
#    0.000    0.667    0.000    3.200    0.000    0.000 
#    0.000    6.400    0.000    0.000    0.000    0.000 
#
# Total GULP energy -167206.365948 kJ/mol
# GULP energy per Si atom -5573.545532 kJ/mol
# Density = 1.654884 g / cm^3
# Si number density = 16.586592 Si / 1000 Ang^3
#
#
#
# Elastic Constant Matrix: (Units=GPa)
#
#
# Indices 1 2 3 4 5 6 
#
# 1 74.8524 17.3878 29.9869 0.0000 -7.3763 0.0000
# 2 17.3878 60.8663 30.2784 0.0000 -0.3674 0.0000
# 3 29.9869 30.2784 84.8306 0.0000 -14.7770 0.0000
# 4 0.0000 0.0000 0.0000 9.2971 0.0000 0.6051
# 5 -7.3763 -0.3674 -14.7770 0.0000 17.7397 0.0000
# 6 0.0000 0.0000 0.0000 0.6051 0.0000 22.8138
#
#
#
# Elastic Compliance Matrix: (Units=1/GPa)
#
#
# Indices 1 2 3 4 5 6 
#
# 1 0.015918 -0.002424 -0.004231 0.000000 0.003044 0.000000
# 2 -0.002424 0.021000 -0.007882 0.000000 -0.007139 0.000000
# 3 -0.004231 -0.007882 0.018438 0.000000 0.013436 0.000000
# 4 0.000000 0.000000 0.000000 0.107746 0.000000 -0.002858
# 5 0.003044 -0.007139 0.013436 0.000000 0.068681 0.000000
# 6 0.000000 0.000000 0.000000 -0.002858 0.000000 0.043909
#
#
# Mechanical properties :
#
#
# Convention : Reuss Voigt Hill
#
# Bulk Modulus (GPa) = 38.05112 41.76175 39.90643
# Shear Modulus (GPa) = 15.94764 19.49653 17.72208
#
# Velocity S-wave (km/s) = 3.10413 3.43219 3.27227
# Velocity P-wave (km/s) = 5.98650 6.39838 6.19586
#
# Compressibility (1/GPa) = 0.02628044
#
# Stress axis : x y z
#
# Youngs Moduli (GPa) = 62.82265 47.61948 54.23651
#
# Poissons Ratio (x) = 0.11543 0.22950
# Poissons Ratio (y) = 0.15228 0.42750
# Poissons Ratio (z) = 0.26583 0.37534
#
# Static dielectric constant tensor:
#      x y z
#    x 1.552750 0.000000 -0.019400 
#    y 0.000000 1.555420 0.000000 
#    z -0.019400 0.000000 1.565200 
# 
# From -- ./inp_files/167199.got.cif
#   From: 2010.05.17/outbox.cif.g08.bks.cpg/sg12_84_cif.got.tgz:167199.got - 2010.06.03 13:09:07.
