data_PCOD9170660
_publ_section_title
;
Structure prediction by ZEFSAII (Michael W. Deem and Ramdas Pophale) SiO2 
 PCOD9170660
Probable space group: C 2/M
;
_chemical_formula_sum "Si O2"
_cell_formula_units_Z 40
_cell_length_a 16.776175
_cell_length_b 29.264309
_cell_length_c 11.322395
_cell_angle_alpha 90.000000
_cell_angle_beta 23.903973
_cell_angle_gamma 90.000000
_cell_volume 2252.393679
_symmetry_space_group_name_H-M "C 2/M"
_symmetry_group_IT_number 12
_symmetry_cell_setting 'monoclinic'
loop_
_space_group_symop_operation_xyz
x,y,z
-x,y,-z
-x,-y,-z
x,-y,z
1/2+x,1/2+y,z
1/2-x,1/2+y,-z
1/2-x,1/2-y,-z
1/2+x,1/2-y,z
loop_
_atom_site_type_symbol
_atom_site_label
_atom_site_fract_x
_atom_site_fract_y
_atom_site_fract_z
Si Si1 0.053755 0.190045 0.796475
Si Si2 0.811630 0.382045 0.044059
Si Si3 0.372282 0.948671 0.294763
Si Si4 0.994701 0.291861 0.865581
Si Si5 0.965373 0.105962 0.351093
O O1 0.285008 0.201261 0.479349
O O2 0.943945 0.238389 0.922746
O O3 0.019031 0.151682 0.746762
O O4 0.000000 0.173838 0.000000
O O5 0.680063 0.387375 0.340331
O O6 0.679464 0.401461 0.117168
O O7 0.861338 0.328203 0.977380
O O8 0.012060 0.410705 0.786581
O O9 0.151071 0.932201 0.565913
O O10 0.376102 0.000000 0.338654
O O11 0.500000 0.950026 0.000000
O O12 0.000000 0.302595 0.000000
#
# Coordination Sequence:
#
# PCOD9170660 Si02
#       5
#     8   8   8   8   8
#     4  10  20  31  52  78 103 137 175 211 250 298
#     4  10  18  31  54  76 102 136 171 209 255 307
#     4   9  17  31  51  76 104 131 165 213 263 304
#     4  10  17  33  54  73 103 141 174 207 252 302
#     4  10  19  32  51  78 104 133 171 211 257 304
#
# _framework density 17.758884999999999
#
# number of rings (size 3 to 8) (size 9 to 14) (size 15 to 20)
#    0.000    2.200    4.000    0.600    0.000    1.600 
#    0.000    5.000    0.000    0.600    0.000    1.400 
#    0.000    0.000    0.000    0.000    0.000    0.000 
#
# Total GULP energy -111355.030852 kJ/mol
# GULP energy per Si atom -5567.751543 kJ/mol
# Density = 1.771846 g / cm^3
# Si number density = 17.758885 Si / 1000 Ang^3
#
#
#
# Elastic Constant Matrix: (Units=GPa)
#
#
# Indices 1 2 3 4 5 6 
#
# 1 65.3971 34.6083 25.0300 0.0090 -11.4962 -0.0016
# 2 34.6083 87.0151 5.6355 0.0032 -17.0410 -0.0009
# 3 25.0300 5.6355 39.8563 0.0068 -4.0566 -0.0016
# 4 0.0090 0.0032 0.0068 -39.7549 -0.0102 13.7738
# 5 -11.4962 -17.0410 -4.0566 -0.0102 18.8036 0.0016
# 6 -0.0016 -0.0009 -0.0016 13.7738 0.0016 4.6310
#
#
#
# Elastic Compliance Matrix: (Units=1/GPa)
#
#
# Indices 1 2 3 4 5 6 
#
# 1 0.026395 -0.008515 -0.014841 0.000001 0.005219 -0.000002
# 2 -0.008515 0.016738 0.004084 -0.000002 0.010844 0.000003
# 3 -0.014841 0.004084 0.034033 0.000002 0.001970 0.000000
# 4 0.000001 -0.000002 0.000002 -0.012388 -0.000010 0.036846
# 5 0.005219 0.010844 0.001970 -0.000010 0.066625 0.000013
# 6 -0.000002 0.000003 0.000000 0.036846 0.000013 0.106347
#
#
# Mechanical properties :
#
#
# Convention : Reuss Voigt Hill
#
# Bulk Modulus (GPa) = 25.89086 35.86846 30.87966
# Shear Modulus (GPa) = 17.29099 5.20225 11.24662
#
# Velocity S-wave (km/s) = 3.12373 1.71340 2.51927
# Velocity P-wave (km/s) = 5.25557 4.91484 5.08806
#
# Compressibility (1/GPa) = 0.03862366
#
# Stress axis : x y z
#
# Youngs Moduli (GPa) = 37.88611 59.74421 29.38287
#
# Poissons Ratio (x) = 0.50870 0.43607
# Poissons Ratio (y) = 0.32259 -0.12001
# Poissons Ratio (z) = 0.56227 -0.24402
#
# Static dielectric constant tensor:
#      x y z
#    x 1.622610 0.000000 -0.015330 
#    y 0.000000 1.623850 0.000000 
#    z -0.015330 0.000000 1.594180 
# 
# From -- ./inp_files/51710.got.cif
#   From: 2010.05.17/outbox.cif.g08.bks.cpg/sg12_26_cif.got.tgz:51710.got - 2010.06.03 13:09:07.
