data_PCOD9170465
_publ_section_title
;
Structure prediction by ZEFSAII (Michael W. Deem and Ramdas Pophale) SiO2 
 PCOD9170465
Probable space group: C 2/M
;
_chemical_formula_sum "Si O2"
_cell_formula_units_Z 44
_cell_length_a 8.105452
_cell_length_b 21.630743
_cell_length_c 12.007290
_cell_angle_alpha 90.000000
_cell_angle_beta 68.907924
_cell_angle_gamma 90.000000
_cell_volume 1964.159996
_symmetry_space_group_name_H-M "C 2/M"
_symmetry_group_IT_number 12
_symmetry_cell_setting 'monoclinic'
loop_
_space_group_symop_operation_xyz
x,y,z
-x,y,-z
-x,-y,-z
x,-y,z
1/2+x,1/2+y,z
1/2-x,1/2+y,-z
1/2-x,1/2-y,-z
1/2+x,1/2-y,z
loop_
_atom_site_type_symbol
_atom_site_label
_atom_site_fract_x
_atom_site_fract_y
_atom_site_fract_z
Si Si1 0.953804 0.000000 0.693238
Si Si2 0.000000 0.611993 0.500000
Si Si3 0.759458 0.391359 0.155963
Si Si4 0.162766 0.429537 0.098108
Si Si5 0.717392 0.000000 0.530153
Si Si6 0.782601 0.664233 0.748335
Si Si7 0.946664 0.271981 0.144566
O O1 0.892822 0.936867 0.767161
O O2 0.838236 0.000000 0.608405
O O3 0.156679 0.000000 0.608420
O O4 0.894104 0.563258 0.447860
O O5 0.875831 0.654198 0.607499
O O6 0.785512 0.321699 0.191506
O O7 0.949182 0.423045 0.143064
O O8 0.760307 0.390333 0.022416
O O9 0.209955 0.500000 0.068107
O O10 0.237242 0.403327 0.193952
O O11 0.610137 0.706112 0.793502
O O12 0.906429 0.698302 0.810745
O O13 0.000000 0.268215 0.000000
#
# Coordination Sequence:
#
# PCOD9170465 Si02
#       7
#     4   4   8   8   4   8   8
#     4  11  20  37  67 105 126 165 215 285 316 368
#     4  11  26  48  62  88 126 187 222 256 326 397
#     4  10  17  31  62  97 132 157 205 258 324 384
#     4  10  17  32  59  97 126 168 202 252 319 393
#     4  10  24  42  65  89 134 170 222 266 325 389
#     4  11  25  41  67  92 128 178 218 268 317 387
#     4  11  22  41  65  98 130 170 214 265 333 386
#
# _framework density 22.401433999999998
#
# number of rings (size 3 to 8) (size 9 to 14) (size 15 to 20)
#    0.000    1.455    5.455    3.273    2.545    2.182 
#    0.000    1.818    0.000    1.636    0.000    0.000 
#    0.000    0.000    0.000    0.000    0.000    0.000 
#
# Total GULP energy -122952.909426 kJ/mol
# GULP energy per Si atom -5588.768610 kJ/mol
# Density = 2.235045 g / cm^3
# Si number density = 22.401434 Si / 1000 Ang^3
#
#
#
# Elastic Constant Matrix: (Units=GPa)
#
#
# Indices 1 2 3 4 5 6 
#
# 1 52.1513 5.1944 5.5499 0.0000 1.5251 0.0000
# 2 5.1944 56.8785 13.8110 0.0000 -4.7347 0.0000
# 3 5.5499 13.8110 76.5884 0.0000 -0.9960 0.0000
# 4 0.0000 0.0000 0.0000 20.7133 0.0000 -6.5533
# 5 1.5251 -4.7347 -0.9960 0.0000 27.2055 0.0000
# 6 0.0000 0.0000 0.0000 -6.5533 0.0000 15.1626
#
#
#
# Elastic Compliance Matrix: (Units=1/GPa)
#
#
# Indices 1 2 3 4 5 6 
#
# 1 0.019499 -0.001622 -0.001139 0.000000 -0.001417 0.000000
# 2 -0.001622 0.018783 -0.003227 0.000000 0.003242 0.000000
# 3 -0.001139 -0.003227 0.013721 0.000000 0.000004 0.000000
# 4 0.000000 0.000000 0.000000 0.055925 0.000000 0.024171
# 5 -0.001417 0.003242 0.000004 0.000000 0.037401 0.000000
# 6 0.000000 0.000000 0.000000 0.024171 0.000000 0.076398
#
#
# Mechanical properties :
#
#
# Convention : Reuss Voigt Hill
#
# Bulk Modulus (GPa) = 24.98336 26.08098 25.53217
# Shear Modulus (GPa) = 20.23901 23.35380 21.79640
#
# Velocity S-wave (km/s) = 3.00904 3.23230 3.12267
# Velocity P-wave (km/s) = 4.82174 5.05946 4.94203
#
# Compressibility (1/GPa) = 0.04002664
#
# Stress axis : x y z
#
# Youngs Moduli (GPa) = 51.28414 53.23967 72.87892
#
# Poissons Ratio (x) = 0.08636 0.08300
# Poissons Ratio (y) = 0.08319 0.23521
# Poissons Ratio (z) = 0.05841 0.17183
#
# Static dielectric constant tensor:
#      x y z
#    x 1.892730 0.000000 -0.011540 
#    y 0.000000 1.817240 0.000000 
#    z -0.011540 0.000000 1.804770 
# 
# From -- ./inp_files/121794.got.cif
#   From: 2010.05.17/outbox.cif.g08.bks.cpg/sg12_61_cif.got.tgz:121794.got - 2010.06.03 13:09:07.
