data_PCOD9170999
_publ_section_title
;
Structure prediction by ZEFSAII (Michael W. Deem and Ramdas Pophale) SiO2 
 PCOD9170999
Probable space group: C 2/M
;
_chemical_formula_sum "Si O2"
_cell_formula_units_Z 56
_cell_length_a 28.266004
_cell_length_b 7.507412
_cell_length_c 18.034226
_cell_angle_alpha 90.000000
_cell_angle_beta 54.817901
_cell_angle_gamma 90.000000
_cell_volume 3127.857311
_symmetry_space_group_name_H-M "C 2/M"
_symmetry_group_IT_number 12
_symmetry_cell_setting 'monoclinic'
loop_
_space_group_symop_operation_xyz
x,y,z
-x,y,-z
-x,-y,-z
x,-y,z
1/2+x,1/2+y,z
1/2-x,1/2+y,-z
1/2-x,1/2-y,-z
1/2+x,1/2-y,z
loop_
_atom_site_type_symbol
_atom_site_label
_atom_site_fract_x
_atom_site_fract_y
_atom_site_fract_z
Si Si1 0.257776 0.208557 0.601435
Si Si2 0.542314 0.781448 0.780381
Si Si3 0.420443 0.782709 0.930305
Si Si4 0.273451 0.214331 0.212319
Si Si5 0.906717 0.716312 0.108969
Si Si6 0.347471 0.205578 0.402847
Si Si7 0.789347 0.286846 0.034976
O O1 0.263994 0.227301 0.683721
O O2 0.310902 0.282691 0.504600
O O3 0.197917 0.290799 0.624930
O O4 0.252679 0.000000 0.588125
O O5 0.475549 0.726710 0.832166
O O6 0.562224 0.724561 0.844697
O O7 0.591404 0.717622 0.679024
O O8 0.544016 0.000000 0.777830
O O9 0.419690 0.000000 0.929721
O O10 0.430594 0.729857 0.007116
O O11 0.355827 0.721872 0.967417
O O12 0.339478 0.269157 0.170245
O O13 0.262897 0.276886 0.137606
O O14 0.271472 0.000000 0.214225
O O15 0.908817 0.500000 0.107633
O O16 0.359091 0.000000 0.411454
O O17 0.793665 0.500000 0.038003
O O18 0.750000 0.250000 0.000000
#
# Coordination Sequence:
#
# PCOD9170999 Si02
#       7
#     8   8   8   8   8   8   8
#     4  10  18  26  38  59  85 114 147 177 204 238
#     4   9  13  20  37  58  82 111 138 168 202 236
#     4   8  14  22  36  62  85 102 134 172 203 242
#     4   9  16  28  44  61  83 111 142 172 205 246
#     4   8  12  19  34  57  82 106 133 165 197 232
#     4   9  17  27  39  57  84 117 147 174 205 239
#     4   9  18  31  47  67  87 106 133 172 214 256
#
# _framework density 17.90363
#
# number of rings (size 3 to 8) (size 9 to 14) (size 15 to 20)
#    0.000    3.143    1.429    2.571    0.000    2.857 
#    0.000    0.000    0.000    0.857    0.000    3.000 
#    0.000    8.000    0.000    0.000    0.000    0.000 
#
# Total GULP energy -155943.642971 kJ/mol
# GULP energy per Si atom -5569.415820 kJ/mol
# Density = 1.786288 g / cm^3
# Si number density = 17.903630 Si / 1000 Ang^3
#
#
#
# Elastic Constant Matrix: (Units=GPa)
#
#
# Indices 1 2 3 4 5 6 
#
# 1 73.3436 -0.6676 61.2922 0.0000 7.4685 -0.0004
# 2 -0.6676 45.9652 2.6634 -0.0002 -1.8297 -0.0002
# 3 61.2922 2.6634 166.2166 0.0000 -5.5482 0.0000
# 4 0.0000 -0.0002 0.0000 5.1593 0.0000 4.1705
# 5 7.4685 -1.8297 -5.5482 0.0000 19.6823 0.0001
# 6 -0.0004 -0.0002 0.0000 4.1705 0.0001 11.0229
#
#
#
# Elastic Compliance Matrix: (Units=1/GPa)
#
#
# Indices 1 2 3 4 5 6 
#
# 1 0.021699 0.000379 -0.008360 -0.000001 -0.010555 0.000001
# 2 0.000379 0.021856 -0.000431 0.000001 0.001766 0.000000
# 3 -0.008360 -0.000431 0.009298 0.000001 0.005753 -0.000001
# 4 -0.000001 0.000001 0.000001 0.279221 0.000001 -0.105644
# 5 -0.010555 0.001766 0.005753 0.000001 0.056598 -0.000001
# 6 0.000001 0.000000 -0.000001 -0.105644 -0.000001 0.130690
#
#
# Mechanical properties :
#
#
# Convention : Reuss Voigt Hill
#
# Bulk Modulus (GPa) = 27.75468 45.78903 36.77185
# Shear Modulus (GPa) = 9.12082 21.98874 15.55478
#
# Velocity S-wave (km/s) = 2.25953 3.50833 2.95075
# Velocity P-wave (km/s) = 4.72686 6.48398 5.67385
#
# Compressibility (1/GPa) = 0.03602996
#
# Stress axis : x y z
#
# Youngs Moduli (GPa) = 46.08525 45.75322 107.55152
#
# Poissons Ratio (x) = -0.01736 0.89911
# Poissons Ratio (y) = -0.01748 0.04637
# Poissons Ratio (z) = 0.38527 0.01973
#
# Static dielectric constant tensor:
#      x y z
#    x 1.584590 0.000000 -0.006930 
#    y 0.000000 1.706750 0.000000 
#    z -0.006930 0.000000 1.673980 
# 
# From -- ./inp_files/291480.got.cif
#   From: 2010.05.17/outbox.cif.g08.bks.cpg/sg12_146_cif.got.tgz:291480.got - 2010.06.03 13:09:07.
