data_PCOD9170107
_publ_section_title
;
Structure prediction by ZEFSAII (Michael W. Deem and Ramdas Pophale) SiO2 
 PCOD9170107
Probable space group: C 2/M
;
_chemical_formula_sum "Si O2"
_cell_formula_units_Z 48
_cell_length_a 20.673381
_cell_length_b 25.991224
_cell_length_c 17.346069
_cell_angle_alpha 90.000000
_cell_angle_beta 159.980925
_cell_angle_gamma 90.000000
_cell_volume 3190.715162
_symmetry_space_group_name_H-M "C 2/M"
_symmetry_group_IT_number 12
_symmetry_cell_setting 'monoclinic'
loop_
_space_group_symop_operation_xyz
x,y,z
-x,y,-z
-x,-y,-z
x,-y,z
1/2+x,1/2+y,z
1/2-x,1/2+y,-z
1/2-x,1/2-y,-z
1/2+x,1/2-y,z
loop_
_atom_site_type_symbol
_atom_site_label
_atom_site_fract_x
_atom_site_fract_y
_atom_site_fract_z
Si Si1 0.628681 0.376923 0.719945
Si Si2 0.694833 0.637470 0.529080
Si Si3 0.705494 0.254946 0.629311
Si Si4 0.889494 0.790257 0.697900
Si Si5 0.232653 0.762707 0.842053
Si Si6 0.481997 0.940399 0.072334
O O1 0.500000 0.366642 0.500000
O O2 0.484032 0.386684 0.627061
O O3 0.740789 0.324146 0.863436
O O4 0.775118 0.421538 0.865640
O O5 0.747297 0.688484 0.639323
O O6 0.636995 0.658165 0.380394
O O7 0.864706 0.597586 0.719260
O O8 0.818588 0.213067 0.706465
O O9 0.751400 0.254745 0.770927
O O10 0.478969 0.247508 0.369302
O O11 0.750000 0.750000 0.500000
O O12 0.101573 0.768465 0.931607
O O13 0.513349 0.000000 0.126574
O O14 0.500000 0.934565 0.000000
#
# Coordination Sequence:
#
# PCOD9170107 Si02
#       6
#     8   8   8   8   8   8
#     4  11  18  31  49  64  89 123 157 192 227 261
#     4  10  20  33  44  67  92 123 152 191 236 266
#     4   9  17  30  47  67  90 129 153 185 218 265
#     4  10  20  27  43  67  93 124 155 186 222 271
#     4  10  17  30  46  67  94 124 160 181 219 270
#     4  11  22  33  49  66  84 116 161 206 234 264
#
# _framework density 15.04365
#
# number of rings (size 3 to 8) (size 9 to 14) (size 15 to 20)
#    0.000    1.833    5.000    2.500    0.000    8.333 
#    0.000    0.000    0.000    0.000    0.000    0.000 
#    0.000    2.667    0.000   10.000    0.000    0.000 
#
# Total GULP energy -133856.888253 kJ/mol
# GULP energy per Si atom -5577.370344 kJ/mol
# Density = 1.500941 g / cm^3
# Si number density = 15.043650 Si / 1000 Ang^3
#
#
#
# Elastic Constant Matrix: (Units=GPa)
#
#
# Indices 1 2 3 4 5 6 
#
# 1 39.9424 21.0584 8.8642 0.0000 15.3912 -0.0005
# 2 21.0584 63.2387 47.9270 0.0000 4.3587 -0.0001
# 3 8.8642 47.9270 77.0531 0.0004 0.5032 -0.0003
# 4 0.0000 0.0000 0.0004 16.8667 0.0000 1.2511
# 5 15.3912 4.3587 0.5032 0.0000 16.8291 -0.0003
# 6 -0.0005 -0.0001 -0.0003 1.2511 -0.0003 4.8442
#
#
#
# Elastic Compliance Matrix: (Units=1/GPa)
#
#
# Indices 1 2 3 4 5 6 
#
# 1 0.048504 -0.017721 0.005704 0.000000 -0.039940 0.000003
# 2 -0.017721 0.037286 -0.021200 0.000001 0.007184 -0.000002
# 3 0.005704 -0.021200 0.025512 -0.000001 -0.000488 0.000002
# 4 0.000000 0.000001 -0.000001 0.060446 0.000000 -0.015612
# 5 -0.039940 0.007184 -0.000488 0.000000 0.094102 0.000001
# 6 0.000003 -0.000002 0.000002 -0.015612 0.000001 0.210466
#
#
# Mechanical properties :
#
#
# Convention : Reuss Voigt Hill
#
# Bulk Modulus (GPa) = 22.28889 37.32595 29.80742
# Shear Modulus (GPa) = 8.96528 14.53364 11.74946
#
# Velocity S-wave (km/s) = 2.44386 3.11158 2.79771
# Velocity P-wave (km/s) = 4.77615 6.14613 5.50393
#
# Compressibility (1/GPa) = 0.04486539
#
# Stress axis : x y z
#
# Youngs Moduli (GPa) = 20.61706 26.81941 39.19766
#
# Poissons Ratio (x) = 0.47528 -0.22357
# Poissons Ratio (y) = 0.36537 0.83101
# Poissons Ratio (z) = -0.11759 0.56858
#
# Static dielectric constant tensor:
#      x y z
#    x 1.545800 0.000000 0.008460 
#    y 0.000000 1.480200 0.000000 
#    z 0.008460 0.000000 1.523300 
# 
# From -- ./inp_files/285845.got.cif
#   From: 2010.05.17/outbox.cif.g08.bks.cpg/sg12_143_cif.got.tgz:285845.got - 2010.06.03 13:09:07.
