data_PCOD9170991
_publ_section_title
;
Structure prediction by ZEFSAII (Michael W. Deem and Ramdas Pophale) SiO2 
 PCOD9170991
Probable space group: C 2/M
;
_chemical_formula_sum "Si O2"
_cell_formula_units_Z 64
_cell_length_a 27.712132
_cell_length_b 7.960364
_cell_length_c 24.627938
_cell_angle_alpha 90.000000
_cell_angle_beta 134.032485
_cell_angle_gamma 90.000000
_cell_volume 3905.953684
_symmetry_space_group_name_H-M "C 2/M"
_symmetry_group_IT_number 12
_symmetry_cell_setting 'monoclinic'
loop_
_space_group_symop_operation_xyz
x,y,z
-x,y,-z
-x,-y,-z
x,-y,z
1/2+x,1/2+y,z
1/2-x,1/2+y,-z
1/2-x,1/2-y,-z
1/2+x,1/2-y,z
loop_
_atom_site_type_symbol
_atom_site_label
_atom_site_fract_x
_atom_site_fract_y
_atom_site_fract_z
Si Si1 0.194236 0.297794 0.501057
Si Si2 0.010426 0.195718 0.093468
Si Si3 0.320523 0.201776 0.029677
Si Si4 0.963522 0.704551 0.176631
Si Si5 0.343201 0.192453 0.812864
Si Si6 0.135020 0.704014 0.054273
Si Si7 0.303106 0.302258 0.664150
Si Si8 0.087006 0.698995 0.337462
O O1 0.187709 0.500000 0.498524
O O2 0.250000 0.250000 0.500000
O O3 0.230514 0.241786 0.584918
O O4 0.125210 0.231294 0.420608
O O5 0.993204 0.234002 0.142612
O O6 0.076051 0.299101 0.129570
O O7 0.026506 0.000000 0.099053
O O8 0.942520 0.239416 0.008509
O O9 0.385736 0.258295 0.115272
O O10 0.323436 0.000000 0.030024
O O11 0.250000 0.250000 0.000000
O O12 0.331459 0.261061 0.976021
O O13 0.965007 0.500000 0.177221
O O14 0.014376 0.765915 0.262862
O O15 0.330283 0.263477 0.863028
O O16 0.313878 0.276582 0.736209
O O17 0.320847 0.000000 0.794049
O O18 0.135063 0.500000 0.055057
O O19 0.308245 0.500000 0.656415
O O20 0.362190 0.220277 0.674108
O O21 0.078840 0.500000 0.339582
#
# Coordination Sequence:
#
# PCOD9170991 Si02
#       8
#     8   8   8   8   8   8   8   8
#     4   8  15  25  37  55  79 109 144 176 208 241
#     4  11  20  28  41  62  87 110 138 177 215 244
#     4   9  18  33  49  65  83 105 133 171 216 257
#     4   9  17  29  45  63  85 113 146 174 202 249
#     4  11  20  30  43  57  80 116 150 174 200 245
#     4   9  20  35  47  59  79 109 144 174 204 251
#     4  10  18  26  37  58  87 113 141 181 214 238
#     4   9  15  26  43  58  78 114 150 174 202 248
#
# _framework density 16.385242999999999
#
# number of rings (size 3 to 8) (size 9 to 14) (size 15 to 20)
#    0.000    2.500    1.250    3.000    0.000    5.000 
#    0.000    0.000    0.000    0.000    0.000    0.000 
#    0.000    1.000    0.000   12.500    0.000    1.000 
#
# Total GULP energy -178185.284353 kJ/mol
# GULP energy per Si atom -5568.290136 kJ/mol
# Density = 1.634795 g / cm^3
# Si number density = 16.385243 Si / 1000 Ang^3
#
#
#
# Elastic Constant Matrix: (Units=GPa)
#
#
# Indices 1 2 3 4 5 6 
#
# 1 51.2569 -1.9594 48.1691 0.0000 7.3087 0.0000
# 2 -1.9594 16.0329 0.9922 0.0001 -0.0568 0.0001
# 3 48.1691 0.9922 154.6073 0.0000 -0.1391 0.0000
# 4 0.0000 0.0001 0.0000 14.4135 0.0000 1.5858
# 5 7.3087 -0.0568 -0.1391 0.0000 15.1857 0.0000
# 6 0.0000 0.0001 0.0000 1.5858 0.0000 12.9955
#
#
#
# Elastic Compliance Matrix: (Units=1/GPa)
#
#
# Indices 1 2 3 4 5 6 
#
# 1 0.030887 0.004320 -0.009664 0.000000 -0.014938 0.000000
# 2 0.004320 0.063002 -0.001752 0.000000 -0.001859 0.000000
# 3 -0.009664 -0.001752 0.009494 0.000000 0.004732 0.000000
# 4 0.000000 0.000000 0.000000 0.070324 0.000000 -0.008581
# 5 -0.014938 -0.001859 0.004732 0.000000 0.073077 0.000000
# 6 0.000000 0.000000 0.000000 -0.008581 0.000000 0.077997
#
#
# Mechanical properties :
#
#
# Convention : Reuss Voigt Hill
#
# Bulk Modulus (GPa) = 11.21199 35.14455 23.17827
# Shear Modulus (GPa) = 13.56107 20.16528 16.86318
#
# Velocity S-wave (km/s) = 2.87999 3.51194 3.21155
# Velocity P-wave (km/s) = 4.23282 6.15958 5.28475
#
# Compressibility (1/GPa) = 0.08919026
#
# Stress axis : x y z
#
# Youngs Moduli (GPa) = 32.37650 15.87263 105.32483
#
# Poissons Ratio (x) = -0.06857 1.01787
# Poissons Ratio (y) = -0.13986 0.18452
# Poissons Ratio (z) = 0.31289 0.02781
#
# Static dielectric constant tensor:
#      x y z
#    x 1.514890 0.000000 -0.006240 
#    y 0.000000 1.603750 0.000000 
#    z -0.006240 0.000000 1.633300 
# 
# From -- ./inp_files/350963.got.cif
#   From: 2010.05.17/outbox.cif.g08.bks.cpg/sg12_176_cif.got.tgz:350963.got - 2010.06.03 13:09:07.
