data_PCOD9170216
_publ_section_title
;
Structure prediction by ZEFSAII (Michael W. Deem and Ramdas Pophale) SiO2 
 PCOD9170216
Probable space group: C 2/M
;
_chemical_formula_sum "Si O2"
_cell_formula_units_Z 48
_cell_length_a 22.734839
_cell_length_b 11.699899
_cell_length_c 12.435952
_cell_angle_alpha 90.000000
_cell_angle_beta 41.529411
_cell_angle_gamma 90.000000
_cell_volume 2193.155638
_symmetry_space_group_name_H-M "C 2/M"
_symmetry_group_IT_number 12
_symmetry_cell_setting 'monoclinic'
loop_
_space_group_symop_operation_xyz
x,y,z
-x,y,-z
-x,-y,-z
x,-y,z
1/2+x,1/2+y,z
1/2-x,1/2+y,-z
1/2-x,1/2-y,-z
1/2+x,1/2-y,z
loop_
_atom_site_type_symbol
_atom_site_label
_atom_site_fract_x
_atom_site_fract_y
_atom_site_fract_z
Si Si1 0.104537 0.500000 0.991267
Si Si2 0.891627 0.126676 0.160983
Si Si3 0.112513 0.500000 0.726795
Si Si4 0.898258 0.744281 0.947164
Si Si5 0.411663 0.369268 0.553654
Si Si6 0.109147 0.738894 0.634127
Si Si7 0.797664 0.872545 0.918485
O O1 0.135475 0.500000 0.823438
O O2 0.133242 0.612884 0.017489
O O3 0.996424 0.500000 0.129290
O O4 0.862449 0.215181 0.110910
O O5 0.860943 0.168663 0.318998
O O6 0.859911 0.000000 0.181362
O O7 0.000000 0.125211 0.000000
O O8 0.143209 0.614264 0.622864
O O9 0.877388 0.844700 0.892541
O O10 0.003631 0.733279 0.800142
O O11 0.500000 0.333799 0.500000
O O12 0.427080 0.500000 0.492303
O O13 0.383859 0.284894 0.496122
O O14 0.335619 0.374029 0.746942
O O15 0.763056 0.000000 0.993332
O O16 0.750000 0.750000 0.000000
#
# Coordination Sequence:
#
# PCOD9170216 Si02
#       7
#     4   8   4   8   8   8   8
#     4   9  16  28  49  78 119 160 183 222 286 352
#     4   9  16  24  44  79 112 139 176 233 294 341
#     4   9  16  28  44  81 126 153 176 219 293 355
#     4  10  18  31  54  80 114 150 194 236 284 341
#     4  10  20  37  60  84 113 150 191 239 292 337
#     4  10  17  30  51  85 116 147 183 235 292 343
#     4  11  25  43  61  83 116 158 200 241 286 344
#
# _framework density 21.886271000000001
#
# number of rings (size 3 to 8) (size 9 to 14) (size 15 to 20)
#    0.000    2.167    3.333    1.000    1.167    1.333 
#    1.500    0.417    0.000    1.000    0.000    0.000 
#    0.000    0.000    0.000    0.000    0.000    0.000 
#
# Total GULP energy -133751.496972 kJ/mol
# GULP energy per Si atom -5572.979041 kJ/mol
# Density = 2.183646 g / cm^3
# Si number density = 21.886271 Si / 1000 Ang^3
#
#
#
# Elastic Constant Matrix: (Units=GPa)
#
#
# Indices 1 2 3 4 5 6 
#
# 1 16.3496 28.9398 25.1506 0.0000 8.3945 0.0000
# 2 28.9398 184.3221 38.3943 0.0000 19.3018 0.0000
# 3 25.1506 38.3943 64.5716 0.0000 26.9205 0.0000
# 4 0.0000 0.0000 0.0000 314.5883 0.0000 341.8158
# 5 8.3945 19.3018 26.9205 0.0000 37.7705 0.0000
# 6 0.0000 0.0000 0.0000 341.8158 0.0000 412.3957
#
#
#
# Elastic Compliance Matrix: (Units=1/GPa)
#
#
# Indices 1 2 3 4 5 6 
#
# 1 0.194966 -0.017241 -0.072982 0.000000 0.017497 0.000000
# 2 -0.017241 0.007733 0.003084 0.000000 -0.002318 0.000000
# 3 -0.072982 0.003084 0.051183 0.000000 -0.021836 0.000000
# 4 0.000000 0.000000 0.000000 0.031977 0.000000 -0.026504
# 5 0.017497 -0.002318 -0.021836 0.000000 0.039335 0.000000
# 6 0.000000 0.000000 0.000000 -0.026504 0.000000 0.024393
#
#
# Mechanical properties :
#
#
# Convention : Reuss Voigt Hill
#
# Bulk Modulus (GPa) = 12.56235 50.02363 31.29299
# Shear Modulus (GPa) = 9.08434 164.46814 86.77624
#
# Velocity S-wave (km/s) = 2.03954 8.67812 6.30355
# Velocity P-wave (km/s) = 3.36134 11.10491 8.20419
#
# Compressibility (1/GPa) = 0.07960292
#
# Stress axis : x y z
#
# Youngs Moduli (GPa) = 5.12911 129.32313 19.53770
#
# Poissons Ratio (x) = 2.22965 1.42590
# Poissons Ratio (y) = 0.08843 -0.06025
# Poissons Ratio (z) = 0.37433 -0.39881
#
# Static dielectric constant tensor:
#      x y z
#    x 2.215250 0.000000 0.031950 
#    y 0.000000 1.855820 0.000000 
#    z 0.031950 0.000000 1.781970 
# 
# From -- ./inp_files/181891.got.cif
#   From: 2010.05.17/outbox.cif.g08.bks.cpg/sg12_91_cif.got.tgz:181891.got - 2010.06.03 13:09:07.
