data_PCOD9170137
_publ_section_title
;
Structure prediction by ZEFSAII (Michael W. Deem and Ramdas Pophale) SiO2 
 PCOD9170137
Probable space group: C 2/M
;
_chemical_formula_sum "Si O2"
_cell_formula_units_Z 40
_cell_length_a 6.779528
_cell_length_b 26.038923
_cell_length_c 9.713119
_cell_angle_alpha 90.000000
_cell_angle_beta 62.509486
_cell_angle_gamma 90.000000
_cell_volume 1521.064156
_symmetry_space_group_name_H-M "C 2/M"
_symmetry_group_IT_number 12
_symmetry_cell_setting 'monoclinic'
loop_
_space_group_symop_operation_xyz
x,y,z
-x,y,-z
-x,-y,-z
x,-y,z
1/2+x,1/2+y,z
1/2-x,1/2+y,-z
1/2-x,1/2-y,-z
1/2+x,1/2-y,z
loop_
_atom_site_type_symbol
_atom_site_label
_atom_site_fract_x
_atom_site_fract_y
_atom_site_fract_z
Si Si1 0.252473 0.500000 0.515272
Si Si2 0.088500 0.101338 0.630613
Si Si3 0.449204 0.705383 0.665390
Si Si4 0.099948 0.500000 0.125714
Si Si5 0.256213 0.101241 0.011153
Si Si6 0.039638 0.698170 0.143391
O O1 0.500000 0.500000 0.500000
O O2 0.246303 0.552784 0.429663
O O3 0.087745 0.500000 0.697571
O O4 0.133166 0.162083 0.641491
O O5 0.000000 0.103325 0.500000
O O6 0.913473 0.091439 0.810210
O O7 0.500000 0.727172 0.500000
O O8 0.206731 0.677691 0.735921
O O9 0.428404 0.752139 0.775080
O O10 0.238796 0.552224 0.088784
O O11 0.000000 0.500000 0.000000
O O12 0.265996 0.155197 0.925105
O O13 0.500000 0.104115 0.000000
O O14 0.000000 0.715420 0.000000
#
# Coordination Sequence:
#
# PCOD9170137 Si02
#       6
#     4   8   8   4   8   8
#     4  10  18  26  44  72 106 140 174 222 287 329
#     4  10  18  30  48  74 109 142 178 227 280 329
#     4  11  23  38  57  83 115 150 186 230 278 330
#     4  10  18  26  46  72 106 140 176 225 283 332
#     4  10  17  30  48  74 107 141 179 225 279 328
#     4  11  22  38  58  83 114 149 188 230 274 331
#
# _framework density 26.297378999999999
#
# number of rings (size 3 to 8) (size 9 to 14) (size 15 to 20)
#    0.000    1.600    4.000    6.600    2.800    0.000 
#    0.000    0.000    0.000    0.000    0.000    2.800 
#    0.000    0.000    0.000    0.000    0.000    0.000 
#
# Total GULP energy -111677.884870 kJ/mol
# GULP energy per Si atom -5583.894244 kJ/mol
# Density = 2.623753 g / cm^3
# Si number density = 26.297379 Si / 1000 Ang^3
#
#
#
# Elastic Constant Matrix: (Units=GPa)
#
#
# Indices 1 2 3 4 5 6 
#
# 1 74.6661 21.1807 43.8359 0.0000 -5.0392 0.0000
# 2 21.1807 255.1896 121.1620 0.0000 0.2878 0.0000
# 3 43.8359 121.1620 278.9444 0.0000 -8.3323 0.0000
# 4 0.0000 0.0000 0.0000 71.1960 0.0000 7.6567
# 5 -5.0392 0.2878 -8.3323 0.0000 27.3266 0.0000
# 6 0.0000 0.0000 0.0000 7.6567 0.0000 -8.1973
#
#
#
# Elastic Compliance Matrix: (Units=1/GPa)
#
#
# Indices 1 2 3 4 5 6 
#
# 1 0.014875 -0.000197 -0.002190 0.000000 0.002077 0.000000
# 2 -0.000197 0.004953 -0.002143 0.000000 -0.000742 0.000000
# 3 -0.002190 -0.002143 0.004893 0.000000 0.001111 0.000000
# 4 0.000000 0.000000 0.000000 0.012764 0.000000 0.011922
# 5 0.002077 -0.000742 0.001111 0.000000 0.037324 0.000000
# 6 0.000000 0.000000 0.000000 0.011922 0.000000 -0.110856
#
#
# Mechanical properties :
#
#
# Convention : Reuss Voigt Hill
#
# Bulk Modulus (GPa) = 63.85101 109.01748 86.43425
# Shear Modulus (GPa) = -229.70030 46.23982 -91.73024
#
# Velocity S-wave (km/s) = -9.35611 4.19781 -5.91250
# Velocity P-wave (km/s) = 9.61159 8.06481 3.69740
#
# Compressibility (1/GPa) = 0.01566146
#
# Stress axis : x y z
#
# Youngs Moduli (GPa) = 67.22806 201.89138 204.37717
#
# Poissons Ratio (x) = 0.03982 0.44755
# Poissons Ratio (y) = 0.01326 0.43790
# Poissons Ratio (z) = 0.14722 0.43258
#
# Static dielectric constant tensor:
#      x y z
#    x 2.263280 0.000000 -0.019590 
#    y 0.000000 2.246370 0.000000 
#    z -0.019590 0.000000 2.018900 
# 
# From -- ./inp_files/51897.got.cif
#   From: 2010.05.17/outbox.cif.g08.bks.cpg/sg12_26_cif.got.tgz:51897.got - 2010.06.03 13:09:07.
