data_PCOD9170340
_publ_section_title
;
Structure prediction by ZEFSAII (Michael W. Deem and Ramdas Pophale) SiO2 
 PCOD9170340
Probable space group: C 2/M
;
_chemical_formula_sum "Si O2"
_cell_formula_units_Z 60
_cell_length_a 12.073718
_cell_length_b 26.096708
_cell_length_c 12.744723
_cell_angle_alpha 90.000000
_cell_angle_beta 62.029192
_cell_angle_gamma 90.000000
_cell_volume 3546.579192
_symmetry_space_group_name_H-M "C 2/M"
_symmetry_group_IT_number 12
_symmetry_cell_setting 'monoclinic'
loop_
_space_group_symop_operation_xyz
x,y,z
-x,y,-z
-x,-y,-z
x,-y,z
1/2+x,1/2+y,z
1/2-x,1/2+y,-z
1/2-x,1/2-y,-z
1/2+x,1/2-y,z
loop_
_atom_site_type_symbol
_atom_site_label
_atom_site_fract_x
_atom_site_fract_y
_atom_site_fract_z
Si Si1 0.500000 0.871283 0.500000
Si Si2 0.409427 0.941271 0.860160
Si Si3 0.462622 0.597090 0.133613
Si Si4 0.772092 0.874662 0.921644
Si Si5 0.787986 0.444193 0.687583
Si Si6 0.209846 0.812839 0.875571
Si Si7 0.382909 0.199638 0.130462
Si Si8 0.998450 0.659861 0.723643
O O1 0.382552 0.905241 0.590886
O O2 0.455332 0.841749 0.415944
O O3 0.320257 0.944248 0.797492
O O4 0.503983 0.896513 0.778276
O O5 0.452653 0.000000 0.862032
O O6 0.327930 0.916185 0.989779
O O7 0.589826 0.602069 0.142404
O O8 0.358826 0.567156 0.245701
O O9 0.390841 0.650569 0.137752
O O10 0.500000 0.576205 0.000000
O O11 0.716779 0.845227 0.847345
O O12 0.787882 0.830943 0.004728
O O13 0.815295 0.500000 0.631274
O O14 0.172954 0.754613 0.874141
O O15 0.352016 0.824700 0.778994
O O16 0.433025 0.197274 0.226408
O O17 0.500000 0.189833 0.000000
#
# Coordination Sequence:
#
# PCOD9170340 Si02
#       8
#     4   8   8   8   8   8   8   8
#     4  10  19  40  56  74 112 140 186 238 263 312
#     4   9  16  30  49  75 109 140 172 212 271 321
#     4  10  17  31  48  79 118 141 166 217 278 335
#     4  10  19  31  47  78 118 145 170 211 271 336
#     4  10  18  30  55  83 104 141 184 230 277 316
#     4  10  19  32  50  80 107 144 175 216 276 316
#     4  12  21  32  55  80 112 143 188 223 270 337
#     4  10  21  37  54  79 106 142 182 231 270 316
#
# _framework density 16.917711000000001
#
# number of rings (size 3 to 8) (size 9 to 14) (size 15 to 20)
#    0.000    1.867    8.000    1.800    1.867    1.333 
#    0.000    2.000    0.000    0.800    0.000    0.933 
#    0.000    0.000    0.000    0.000    0.000    0.000 
#
# Total GULP energy -167018.555199 kJ/mol
# GULP energy per Si atom -5567.285173 kJ/mol
# Density = 1.687921 g / cm^3
# Si number density = 16.917711 Si / 1000 Ang^3
#
#
#
# Elastic Constant Matrix: (Units=GPa)
#
#
# Indices 1 2 3 4 5 6 
#
# 1 34.4747 8.0833 14.9763 0.0000 -0.6840 0.0000
# 2 8.0833 49.2054 3.0558 0.0000 4.9632 0.0000
# 3 14.9763 3.0558 54.8568 0.0000 0.0154 0.0000
# 4 0.0000 0.0000 0.0000 9.0593 0.0000 3.8366
# 5 -0.6840 4.9632 0.0154 0.0000 15.5794 0.0000
# 6 0.0000 0.0000 0.0000 3.8366 0.0000 0.8126
#
#
#
# Elastic Compliance Matrix: (Units=1/GPa)
#
#
# Indices 1 2 3 4 5 6 
#
# 1 0.034270 -0.005393 -0.009056 0.000000 0.003232 0.000000
# 2 -0.005393 0.021922 0.000253 0.000000 -0.007221 0.000000
# 3 -0.009056 0.000253 0.020688 0.000000 -0.000499 0.000000
# 4 0.000000 0.000000 0.000000 -0.110440 0.000000 0.521433
# 5 0.003232 -0.007221 -0.000499 0.000000 0.066630 0.000000
# 6 0.000000 0.000000 0.000000 0.521433 0.000000 -1.231261
#
#
# Mechanical properties :
#
#
# Convention : Reuss Voigt Hill
#
# Bulk Modulus (GPa) = 20.62436 21.19642 20.91039
# Shear Modulus (GPa) = -4.33411 12.58503 4.12546
#
# Velocity S-wave (km/s) = -1.60232 2.73041 1.56328
# Velocity P-wave (km/s) = 2.96550 4.74305 3.95542
#
# Compressibility (1/GPa) = 0.04848634
#
# Stress axis : x y z
#
# Youngs Moduli (GPa) = 29.18031 45.61721 48.33781
#
# Poissons Ratio (x) = 0.24603 0.43776
# Poissons Ratio (y) = 0.15738 -0.01224
# Poissons Ratio (z) = 0.26427 -0.01155
#
# Static dielectric constant tensor:
#      x y z
#    x 1.595900 0.000000 -0.011060 
#    y 0.000000 1.625100 0.000000 
#    z -0.011060 0.000000 1.568970 
# 
# From -- ./inp_files/136985.got.cif
#   From: 2010.05.17/outbox.cif.g08.bks.cpg/sg12_69_cif.got.tgz:136985.got - 2010.06.03 13:09:07.
