data_PCOD9170325
_publ_section_title
;
Structure prediction by ZEFSAII (Michael W. Deem and Ramdas Pophale) SiO2 
 PCOD9170325
Probable space group: C 2/M
;
_chemical_formula_sum "Si O2"
_cell_formula_units_Z 64
_cell_length_a 29.894673
_cell_length_b 9.179894
_cell_length_c 22.690455
_cell_angle_alpha 90.000000
_cell_angle_beta 31.655139
_cell_angle_gamma 90.000000
_cell_volume 3267.931273
_symmetry_space_group_name_H-M "C 2/M"
_symmetry_group_IT_number 12
_symmetry_cell_setting 'monoclinic'
loop_
_space_group_symop_operation_xyz
x,y,z
-x,y,-z
-x,-y,-z
x,-y,z
1/2+x,1/2+y,z
1/2-x,1/2+y,-z
1/2-x,1/2-y,-z
1/2+x,1/2-y,z
loop_
_atom_site_type_symbol
_atom_site_label
_atom_site_fract_x
_atom_site_fract_y
_atom_site_fract_z
Si Si1 0.749376 0.163958 0.163840
Si Si2 0.973919 0.332708 0.113958
Si Si3 0.862211 0.261659 0.139308
Si Si4 0.811839 0.326536 0.477197
Si Si5 0.202921 0.840370 0.391010
Si Si6 0.994523 0.676280 0.226304
Si Si7 0.098069 0.827155 0.397694
Si Si8 0.687284 0.823855 0.023152
O O1 0.815286 0.159218 0.144991
O O2 0.662179 0.233357 0.286232
O O3 0.786273 0.265642 0.071035
O O4 0.736265 0.000000 0.156321
O O5 0.938920 0.500000 0.152177
O O6 0.981533 0.282021 0.172363
O O7 0.917417 0.227175 0.136112
O O8 0.066865 0.340109 0.980038
O O9 0.782681 0.344007 0.257191
O O10 0.807208 0.500000 0.475113
O O11 0.750000 0.250000 0.500000
O O12 0.785338 0.277648 0.571984
O O13 0.910165 0.278817 0.356118
O O14 0.124297 0.807229 0.436441
O O15 0.193264 0.000000 0.429499
O O16 0.996098 0.500000 0.224705
O O17 0.087961 0.721141 0.143771
O O18 0.000000 0.788123 0.500000
O O19 0.109254 0.000000 0.371871
O O20 0.693208 0.000000 0.018895
O O21 0.750000 0.750000 0.000000
#
# Coordination Sequence:
#
# PCOD9170325 Si02
#       8
#     8   8   8   8   8   8   8   8
#     4  11  23  39  59  87 126 162 196 242 303 372
#     4  10  17  30  58  90 115 147 199 247 294 353
#     4  10  19  32  56  86 119 154 192 237 289 349
#     4  11  23  40  61  85 118 160 206 251 301 360
#     4  10  20  35  57  85 119 154 195 241 294 357
#     4   9  20  38  61  87 117 157 207 253 297 362
#     4   9  20  39  63  90 118 154 203 254 304 354
#     4  11  23  42  66  89 117 155 205 261 314 366
#
# _framework density 19.584254999999999
#
# number of rings (size 3 to 8) (size 9 to 14) (size 15 to 20)
#    0.000    1.875    1.250    3.375    0.000    6.250 
#    0.000    6.250    0.000    0.000    0.000    0.000 
#    0.000    0.000    0.000    0.000    0.000    0.000 
#
# Total GULP energy -178352.172807 kJ/mol
# GULP energy per Si atom -5573.505400 kJ/mol
# Density = 1.953968 g / cm^3
# Si number density = 19.584255 Si / 1000 Ang^3
#
#
#
# Elastic Constant Matrix: (Units=GPa)
#
#
# Indices 1 2 3 4 5 6 
#
# 1 94.9804 35.2439 41.3331 -0.0007 -19.6692 0.0000
# 2 35.2439 72.4161 34.7223 0.0003 -6.2234 -0.0005
# 3 41.3331 34.7223 88.4259 0.0013 -14.4896 0.0001
# 4 -0.0007 0.0003 0.0013 7.9447 0.0008 -4.2684
# 5 -19.6692 -6.2234 -14.4896 0.0008 33.5975 -0.0004
# 6 0.0000 -0.0005 0.0001 -4.2684 -0.0004 21.2784
#
#
#
# Elastic Compliance Matrix: (Units=1/GPa)
#
#
# Indices 1 2 3 4 5 6 
#
# 1 0.015546 -0.004971 -0.004277 0.000002 0.006336 0.000000
# 2 -0.004971 0.018604 -0.005266 0.000000 -0.001735 0.000000
# 3 -0.004277 -0.005266 0.015932 -0.000004 0.003392 -0.000001
# 4 0.000002 0.000000 -0.000004 0.141075 -0.000004 0.028299
# 5 0.006336 -0.001735 0.003392 -0.000004 0.034615 0.000000
# 6 0.000000 0.000000 -0.000001 0.028299 0.000000 0.052673
#
#
# Mechanical properties :
#
#
# Convention : Reuss Voigt Hill
#
# Bulk Modulus (GPa) = 47.49541 53.15789 50.32665
# Shear Modulus (GPa) = 15.89876 22.19898 19.04887
#
# Velocity S-wave (km/s) = 2.85233 3.37042 3.12214
# Velocity P-wave (km/s) = 5.92893 6.50756 6.22497
#
# Compressibility (1/GPa) = 0.02105467
#
# Stress axis : x y z
#
# Youngs Moduli (GPa) = 64.32400 53.75094 62.76865
#
# Poissons Ratio (x) = 0.26720 0.26843
# Poissons Ratio (y) = 0.31976 0.33054
# Poissons Ratio (z) = 0.27509 0.28306
#
# Static dielectric constant tensor:
#      x y z
#    x 1.716610 0.000000 -0.018510 
#    y 0.000000 1.683220 0.000000 
#    z -0.018510 0.000000 1.685690 
# 
# From -- ./inp_files/353304.got.cif
#   From: 2010.05.17/outbox.cif.g08.bks.cpg/sg12_177_cif.got.tgz:353304.got - 2010.06.03 13:09:07.
