data_PCOD9170766
_publ_section_title
;
Structure prediction by ZEFSAII (Michael W. Deem and Ramdas Pophale) SiO2 
 PCOD9170766
Probable space group: C 2/M
;
_chemical_formula_sum "Si O2"
_cell_formula_units_Z 52
_cell_length_a 18.509924
_cell_length_b 19.026283
_cell_length_c 10.597936
_cell_angle_alpha 90.000000
_cell_angle_beta 39.572074
_cell_angle_gamma 90.000000
_cell_volume 2377.673875
_symmetry_space_group_name_H-M "C 2/M"
_symmetry_group_IT_number 12
_symmetry_cell_setting 'monoclinic'
loop_
_space_group_symop_operation_xyz
x,y,z
-x,y,-z
-x,-y,-z
x,-y,z
1/2+x,1/2+y,z
1/2-x,1/2+y,-z
1/2-x,1/2-y,-z
1/2+x,1/2-y,z
loop_
_atom_site_type_symbol
_atom_site_label
_atom_site_fract_x
_atom_site_fract_y
_atom_site_fract_z
Si Si1 0.525318 0.747625 0.667558
Si Si2 0.623364 0.286099 0.785078
Si Si3 0.361779 0.000000 0.576304
Si Si4 0.320937 0.844107 0.685088
Si Si5 0.563621 0.000000 0.113444
Si Si6 0.176377 0.149076 0.126491
Si Si7 0.717849 0.500000 0.992783
Si Si8 0.128796 0.653541 0.948206
O O1 0.614512 0.714870 0.646937
O O2 0.590855 0.785757 0.470224
O O3 0.436230 0.692007 0.738666
O O4 0.454956 0.805529 0.842894
O O5 0.720177 0.333507 0.717837
O O6 0.631642 0.205019 0.823875
O O7 0.500000 0.311254 0.000000
O O8 0.382688 0.919528 0.593247
O O9 0.235749 0.000000 0.816801
O O10 0.437212 0.000000 0.345537
O O11 0.264327 0.830551 0.895981
O O12 0.656953 0.000000 0.104685
O O13 0.588520 0.072117 0.002766
O O14 0.154915 0.068169 0.124626
O O15 0.245815 0.155108 0.161145
#
# Coordination Sequence:
#
# PCOD9170766 Si02
#       8
#     8   8   4   8   4   8   4   8
#     4  11  21  36  59  82 117 152 189 235 279 339
#     4  10  21  39  56  79 114 154 192 232 281 335
#     4  10  19  32  49  86 115 143 182 237 285 339
#     4  11  21  36  59  83 115 147 190 232 289 337
#     4  10  17  34  54  82 115 149 184 232 290 334
#     4  10  20  37  57  89 115 145 191 233 286 338
#     4   8  19  32  55  78 118 152 178 232 287 335
#     4  10  20  36  57  83 118 147 186 236 281 337
#
# _framework density 21.870114999999998
#
# number of rings (size 3 to 8) (size 9 to 14) (size 15 to 20)
#    0.000    1.846    4.615    1.154    0.000    0.615 
#    0.000    5.385    0.000    0.923    0.000    3.231 
#    0.000    0.000    0.000    0.000    0.000    0.000 
#
# Total GULP energy -145048.255476 kJ/mol
# GULP energy per Si atom -5578.779057 kJ/mol
# Density = 2.182034 g / cm^3
# Si number density = 21.870115 Si / 1000 Ang^3
#
#
#
# Elastic Constant Matrix: (Units=GPa)
#
#
# Indices 1 2 3 4 5 6 
#
# 1 118.7692 45.5778 31.7419 0.0000 -16.9927 0.0000
# 2 45.5778 127.2203 48.2253 0.0000 -14.0034 0.0000
# 3 31.7419 48.2253 70.1340 0.0000 -8.5671 0.0000
# 4 0.0000 0.0000 0.0000 28.4703 0.0000 10.4696
# 5 -16.9927 -14.0034 -8.5671 0.0000 19.5572 0.0000
# 6 0.0000 0.0000 0.0000 10.4696 0.0000 -2.8383
#
#
#
# Elastic Compliance Matrix: (Units=1/GPa)
#
#
# Indices 1 2 3 4 5 6 
#
# 1 0.010925 -0.002173 -0.002621 0.000000 0.006788 0.000000
# 2 -0.002173 0.011482 -0.006485 0.000000 0.003492 0.000000
# 3 -0.002621 -0.006485 0.020136 0.000000 0.001900 0.000000
# 4 0.000000 0.000000 0.000000 0.014905 0.000000 0.054982
# 5 0.006788 0.003492 0.001900 0.000000 0.060363 0.000000
# 6 0.000000 0.000000 0.000000 0.054982 0.000000 -0.149515
#
#
# Mechanical properties :
#
#
# Convention : Reuss Voigt Hill
#
# Bulk Modulus (GPa) = 50.03878 63.02371 56.53125
# Shear Modulus (GPa) = -2012.83005 21.74309 -995.54348
#
# Velocity S-wave (km/s) = -30.37029 3.15650 -21.35873
# Velocity P-wave (km/s) = 34.74012 6.49342 24.13205
#
# Compressibility (1/GPa) = 0.01998450
#
# Stress axis : x y z
#
# Youngs Moduli (GPa) = 91.52931 87.09653 49.66290
#
# Poissons Ratio (x) = 0.18929 0.13017
# Poissons Ratio (y) = 0.19893 0.32205
# Poissons Ratio (z) = 0.23991 0.56479
#
# Static dielectric constant tensor:
#      x y z
#    x 1.870390 0.000000 -0.001310 
#    y 0.000000 1.821540 0.000000 
#    z -0.001310 0.000000 1.795670 
# 
# From -- ./inp_files/159494.got.cif
#   From: 2010.05.17/outbox.cif.g08.bks.cpg/sg12_80_cif.got.tgz:159494.got - 2010.06.03 13:09:07.
