data_PCOD9170223
_publ_section_title
;
Structure prediction by ZEFSAII (Michael W. Deem and Ramdas Pophale) SiO2 
 PCOD9170223
Probable space group: C 2/M
;
_chemical_formula_sum "Si O2"
_cell_formula_units_Z 56
_cell_length_a 30.064211
_cell_length_b 7.793807
_cell_length_c 20.094315
_cell_angle_alpha 90.000000
_cell_angle_beta 139.338032
_cell_angle_gamma 90.000000
_cell_volume 3067.965152
_symmetry_space_group_name_H-M "C 2/M"
_symmetry_group_IT_number 12
_symmetry_cell_setting 'monoclinic'
loop_
_space_group_symop_operation_xyz
x,y,z
-x,y,-z
-x,-y,-z
x,-y,z
1/2+x,1/2+y,z
1/2-x,1/2+y,-z
1/2-x,1/2-y,-z
1/2+x,1/2-y,z
loop_
_atom_site_type_symbol
_atom_site_label
_atom_site_fract_x
_atom_site_fract_y
_atom_site_fract_z
Si Si1 0.609812 0.792647 0.617426
Si Si2 0.735989 0.202258 0.183026
Si Si3 0.390916 0.208605 0.879689
Si Si4 0.010374 0.290294 0.118708
Si Si5 0.307854 0.696618 0.013159
Si Si6 0.538479 0.200086 0.796432
Si Si7 0.494223 0.790000 0.386430
O O1 0.686593 0.729143 0.707236
O O2 0.564207 0.738711 0.502447
O O3 0.567752 0.737905 0.635367
O O4 0.611505 0.000000 0.619608
O O5 0.682372 0.267311 0.177442
O O6 0.720774 0.283252 0.093926
O O7 0.723272 0.000000 0.159605
O O8 0.422233 0.266635 0.844833
O O9 0.389659 0.000000 0.875108
O O10 0.446031 0.255397 0.999005
O O11 0.011068 0.500000 0.121580
O O12 0.996646 0.225461 0.177309
O O13 0.324705 0.500000 0.044966
O O14 0.250000 0.750000 0.000000
O O15 0.379640 0.793081 0.102451
O O16 0.516631 0.274048 0.700497
O O17 0.518784 0.000000 0.772176
O O18 0.493097 0.000000 0.384447
#
# Coordination Sequence:
#
# PCOD9170223 Si02
#       7
#     8   8   8   8   8   8   8
#     4   9  17  32  49  68  95 128 162 200 244 294
#     4  11  20  32  50  73  98 127 163 203 242 287
#     4   8  14  25  43  69  97 124 157 197 239 284
#     4   8  13  24  45  70  95 123 158 200 238 281
#     4  12  24  35  47  69 102 134 159 191 240 294
#     4  10  17  30  52  75  95 123 164 207 243 284
#     4   8  16  30  50  70  91 123 164 202 241 288
#
# _framework density 18.253142
#
# number of rings (size 3 to 8) (size 9 to 14) (size 15 to 20)
#    0.000    2.571    1.429    4.286    0.000    1.143 
#    0.000    2.143    0.000    3.429    0.000    0.000 
#    0.000    0.000    0.000    0.000    0.000    0.143 
#
# Total GULP energy -156140.025412 kJ/mol
# GULP energy per Si atom -5576.429479 kJ/mol
# Density = 1.821160 g / cm^3
# Si number density = 18.253142 Si / 1000 Ang^3
#
#
#
# Elastic Constant Matrix: (Units=GPa)
#
#
# Indices 1 2 3 4 5 6 
#
# 1 177.6162 -0.8444 92.1873 0.0000 -15.6921 0.0000
# 2 -0.8444 25.6494 -6.7797 0.0000 -4.3355 0.0000
# 3 92.1873 -6.7797 107.5867 0.0000 -11.2664 0.0000
# 4 0.0000 0.0000 0.0000 14.9408 0.0000 6.5249
# 5 -15.6921 -4.3355 -11.2664 0.0000 22.7573 0.0000
# 6 0.0000 0.0000 0.0000 6.5249 0.0000 9.7464
#
#
#
# Elastic Compliance Matrix: (Units=1/GPa)
#
#
# Indices 1 2 3 4 5 6 
#
# 1 0.010372 -0.001533 -0.008718 0.000000 0.002544 0.000000
# 2 -0.001533 0.041820 0.004928 0.000000 0.009350 0.000000
# 3 -0.008718 0.004928 0.017449 0.000000 0.003566 0.000000
# 4 0.000000 0.000000 0.000000 0.094584 0.000000 -0.063320
# 5 0.002544 0.009350 0.003566 0.000000 0.049243 0.000000
# 6 0.000000 0.000000 0.000000 -0.063320 0.000000 0.144993
#
#
# Mechanical properties :
#
#
# Convention : Reuss Voigt Hill
#
# Bulk Modulus (GPa) = 16.95054 53.33098 35.14076
# Shear Modulus (GPa) = 12.86102 24.57484 18.71793
#
# Velocity S-wave (km/s) = 2.65730 3.67322 3.20576
# Velocity P-wave (km/s) = 4.32683 6.87539 5.74423
#
# Compressibility (1/GPa) = 0.05899516
#
# Stress axis : x y z
#
# Youngs Moduli (GPa) = 96.40931 23.91215 57.31033
#
# Poissons Ratio (x) = 0.03665 0.49963
# Poissons Ratio (y) = 0.14778 -0.28242
# Poissons Ratio (z) = 0.84049 -0.11784
#
# Static dielectric constant tensor:
#      x y z
#    x 1.490630 0.000000 -0.130450 
#    y 0.000000 1.678950 0.000000 
#    z -0.130450 0.000000 1.513580 
# 
# From -- ./inp_files/291966.got.cif
#   From: 2010.05.17/outbox.cif.g08.bks.cpg/sg12_146_cif.got.tgz:291966.got - 2010.06.03 13:09:07.
