data_PCOD9170923
_publ_section_title
;
Structure prediction by ZEFSAII (Michael W. Deem and Ramdas Pophale) SiO2 
 PCOD9170923
Probable space group: C 2/M
;
_chemical_formula_sum "Si O2"
_cell_formula_units_Z 64
_cell_length_a 26.296363
_cell_length_b 17.598897
_cell_length_c 21.090561
_cell_angle_alpha 90.000000
_cell_angle_beta 20.114473
_cell_angle_gamma 90.000000
_cell_volume 3356.584069
_symmetry_space_group_name_H-M "C 2/M"
_symmetry_group_IT_number 12
_symmetry_cell_setting 'monoclinic'
loop_
_space_group_symop_operation_xyz
x,y,z
-x,y,-z
-x,-y,-z
x,-y,z
1/2+x,1/2+y,z
1/2-x,1/2+y,-z
1/2-x,1/2-y,-z
1/2+x,1/2-y,z
loop_
_atom_site_type_symbol
_atom_site_label
_atom_site_fract_x
_atom_site_fract_y
_atom_site_fract_z
Si Si1 0.575258 0.333118 0.241219
Si Si2 0.600518 0.819884 0.543146
Si Si3 0.093539 0.620306 0.331808
Si Si4 0.163945 0.279948 0.808785
Si Si5 0.149617 0.200784 0.290187
Si Si6 0.280399 0.589701 0.436486
Si Si7 0.239350 0.088097 0.392116
Si Si8 0.613530 0.586091 0.073302
O O1 0.507627 0.249003 0.310076
O O2 0.663997 0.333749 0.203235
O O3 0.431920 0.387447 0.417108
O O4 0.654337 0.361265 0.085247
O O5 0.506796 0.881134 0.613497
O O6 0.716731 0.779442 0.358958
O O7 0.686964 0.857915 0.499415
O O8 0.122134 0.709721 0.311137
O O9 0.000000 0.589791 0.500000
O O10 0.253741 0.586652 0.131537
O O11 0.218190 0.305052 0.814845
O O12 0.168830 0.353448 0.757597
O O13 0.000000 0.247210 0.000000
O O14 0.000000 0.171253 0.500000
O O15 0.267219 0.500000 0.435678
O O16 0.232417 0.598862 0.565953
O O17 0.455193 0.610590 0.230668
O O18 0.261653 0.000000 0.350032
O O19 0.590327 0.500000 0.123958
#
# Coordination Sequence:
#
# PCOD9170923 Si02
#       8
#     8   8   8   8   8   8   8   8
#     4   9  18  35  60  84 114 145 189 237 277 324
#     4  10  20  35  59  86 110 146 191 227 280 335
#     4  10  20  38  59  79 111 146 178 233 292 334
#     4  11  22  35  55  86 114 148 190 235 272 332
#     4  10  17  37  56  82 115 141 184 239 284 324
#     4   9  20  38  57  82 116 148 184 234 277 331
#     4   9  18  36  57  78 115 156 186 225 282 330
#     4  10  22  38  57  84 115 148 189 231 279 335
#
# _framework density 19.067005000000002
#
# number of rings (size 3 to 8) (size 9 to 14) (size 15 to 20)
#    0.000    2.250    5.000    1.125    1.750    7.500 
#    2.250    1.875    0.000    1.875    0.000    0.000 
#    0.000    0.000    0.000    0.000    0.000    0.125 
#
# Total GULP energy -178493.452291 kJ/mol
# GULP energy per Si atom -5577.920384 kJ/mol
# Density = 1.902361 g / cm^3
# Si number density = 19.067005 Si / 1000 Ang^3
#
#
#
# Elastic Constant Matrix: (Units=GPa)
#
#
# Indices 1 2 3 4 5 6 
#
# 1 132.1819 31.7630 26.3520 -0.0029 -9.6332 0.0010
# 2 31.7630 37.8820 2.7284 -0.0049 0.8792 0.0032
# 3 26.3520 2.7284 53.1588 -0.0036 0.2177 0.0034
# 4 -0.0029 -0.0049 -0.0036 11.5671 0.0024 4.7960
# 5 -9.6332 0.8792 0.2177 0.0024 21.0230 -0.0003
# 6 0.0010 0.0032 0.0034 4.7960 -0.0003 -19.5023
#
#
#
# Elastic Compliance Matrix: (Units=1/GPa)
#
#
# Indices 1 2 3 4 5 6 
#
# 1 0.011183 -0.009138 -0.005097 -0.000003 0.005559 -0.000003
# 2 -0.009138 0.033988 0.002809 0.000011 -0.005638 0.000008
# 3 -0.005097 0.002809 0.021205 0.000005 -0.002673 0.000005
# 4 -0.000003 0.000011 0.000005 0.078453 -0.000011 0.019293
# 5 0.005559 -0.005638 -0.002673 -0.000011 0.050378 -0.000005
# 6 -0.000003 0.000008 0.000005 0.019293 -0.000005 -0.046531
#
#
# Mechanical properties :
#
#
# Convention : Reuss Voigt Hill
#
# Bulk Modulus (GPa) = 22.97653 38.32327 30.64990
# Shear Modulus (GPa) = 26.87650 13.44285 20.15967
#
# Velocity S-wave (km/s) = 3.75851 2.65812 3.25515
# Velocity P-wave (km/s) = 5.55984 5.43725 5.49889
#
# Compressibility (1/GPa) = 0.04352267
#
# Stress axis : x y z
#
# Youngs Moduli (GPa) = 89.42538 29.42177 47.15842
#
# Poissons Ratio (x) = 0.26886 0.24037
# Poissons Ratio (y) = 0.81718 -0.13245
# Poissons Ratio (z) = 0.45582 -0.08263
#
# Static dielectric constant tensor:
#      x y z
#    x 1.669040 0.000000 0.013410 
#    y 0.000000 1.671090 0.000000 
#    z 0.013410 0.000000 1.684660 
# 
# From -- ./inp_files/328613.got.cif
#   From: 2010.05.17/outbox.cif.g08.bks.cpg/sg12_165_cif.got.tgz:328613.got - 2010.06.03 13:09:07.
