data_PCOD9170318
_publ_section_title
;
Structure prediction by ZEFSAII (Michael W. Deem and Ramdas Pophale) SiO2 
 PCOD9170318
Probable space group: C 2/M
;
_chemical_formula_sum "Si O2"
_cell_formula_units_Z 56
_cell_length_a 15.729048
_cell_length_b 18.549485
_cell_length_c 13.135240
_cell_angle_alpha 90.000000
_cell_angle_beta 52.355179
_cell_angle_gamma 90.000000
_cell_volume 3034.551001
_symmetry_space_group_name_H-M "C 2/M"
_symmetry_group_IT_number 12
_symmetry_cell_setting 'monoclinic'
loop_
_space_group_symop_operation_xyz
x,y,z
-x,y,-z
-x,-y,-z
x,-y,z
1/2+x,1/2+y,z
1/2-x,1/2+y,-z
1/2-x,1/2-y,-z
1/2+x,1/2-y,z
loop_
_atom_site_type_symbol
_atom_site_label
_atom_site_fract_x
_atom_site_fract_y
_atom_site_fract_z
Si Si1 0.080491 0.579226 0.212400
Si Si2 0.870092 0.580252 0.598230
Si Si3 0.239070 0.781373 0.189280
Si Si4 0.071292 0.184152 0.042543
Si Si5 0.716314 0.582801 0.076099
Si Si6 0.512030 0.231136 0.274581
Si Si7 0.182215 0.268412 0.450580
O O1 0.028574 0.500000 0.253164
O O2 0.149001 0.585368 0.266880
O O3 0.999956 0.645809 0.264672
O O4 0.165983 0.582509 0.060311
O O5 0.840032 0.500000 0.584983
O O6 0.819173 0.646901 0.577418
O O7 0.000000 0.586635 0.500000
O O8 0.343325 0.742664 0.064567
O O9 0.226789 0.864072 0.164226
O O10 0.135835 0.742620 0.214187
O O11 0.226621 0.771005 0.318581
O O12 0.136102 0.121925 0.054799
O O13 0.998046 0.223501 0.181918
O O14 0.000000 0.158481 0.000000
O O15 0.685149 0.500000 0.119139
O O16 0.438061 0.251406 0.424121
O O17 0.250000 0.250000 0.500000
#
# Coordination Sequence:
#
# PCOD9170318 Si02
#       7
#     8   8   8   8   8   8   8
#     4  10  17  30  57  87 109 136 186 239 279 327
#     4  10  18  31  54  81 109 142 183 232 284 336
#     4  11  20  38  57  82 110 151 200 234 276 333
#     4  11  21  35  57  86 119 148 184 238 295 335
#     4  10  20  36  60  84 111 151 195 234 276 338
#     4  11  19  35  57  81 110 151 195 236 273 338
#     4  12  23  34  53  85 119 150 188 237 295 343
#
# _framework density 18.454129999999999
#
# number of rings (size 3 to 8) (size 9 to 14) (size 15 to 20)
#    0.000    1.286    5.714    2.143    0.000    0.286 
#    0.000    0.714    0.000   17.143    0.000    0.000 
#    0.000    0.000    0.000    0.000    0.000    0.000 
#
# Total GULP energy -156180.059266 kJ/mol
# GULP energy per Si atom -5577.859260 kJ/mol
# Density = 1.841213 g / cm^3
# Si number density = 18.454130 Si / 1000 Ang^3
#
#
#
# Elastic Constant Matrix: (Units=GPa)
#
#
# Indices 1 2 3 4 5 6 
#
# 1 40.8887 29.7188 15.3260 0.0000 17.1483 0.0000
# 2 29.7188 149.0516 56.3995 0.0000 20.7428 0.0000
# 3 15.3260 56.3995 111.2483 0.0000 19.3411 0.0000
# 4 0.0000 0.0000 0.0000 22.9853 0.0000 0.6355
# 5 17.1483 20.7428 19.3411 0.0000 28.7871 0.0000
# 6 0.0000 0.0000 0.0000 0.6355 0.0000 14.1712
#
#
#
# Elastic Compliance Matrix: (Units=1/GPa)
#
#
# Indices 1 2 3 4 5 6 
#
# 1 0.035221 -0.004783 0.000703 0.000000 -0.018007 0.000000
# 2 -0.004783 0.009288 -0.003829 0.000000 -0.001271 0.000000
# 3 0.000703 -0.003829 0.011805 0.000000 -0.005591 0.000000
# 4 0.000000 0.000000 0.000000 0.043560 0.000000 -0.001953
# 5 -0.018007 -0.001271 -0.005591 0.000000 0.050137 0.000000
# 6 0.000000 0.000000 0.000000 -0.001953 0.000000 0.070653
#
#
# Mechanical properties :
#
#
# Convention : Reuss Voigt Hill
#
# Bulk Modulus (GPa) = 24.69263 56.00857 40.35060
# Shear Modulus (GPa) = 20.00141 26.50501 23.25321
#
# Velocity S-wave (km/s) = 3.29575 3.79392 3.55358
# Velocity P-wave (km/s) = 5.28131 7.04328 6.22495
#
# Compressibility (1/GPa) = 0.04049791
#
# Stress axis : x y z
#
# Youngs Moduli (GPa) = 28.39186 107.66016 84.70732
#
# Poissons Ratio (x) = 0.51491 -0.05956
# Poissons Ratio (y) = 0.13579 0.32435
# Poissons Ratio (z) = -0.01996 0.41224
#
# Static dielectric constant tensor:
#      x y z
#    x 1.645620 0.000000 -0.017520 
#    y 0.000000 1.667430 0.000000 
#    z -0.017520 0.000000 1.697920 
# 
# From -- ./inp_files/159174.got.cif
#   From: 2010.05.17/outbox.cif.g08.bks.cpg/sg12_80_cif.got.tgz:159174.got - 2010.06.03 13:09:07.
