data_PCOD9170900
_publ_section_title
;
Structure prediction by ZEFSAII (Michael W. Deem and Ramdas Pophale) SiO2 
 PCOD9170900
Probable space group: C 2/M
;
_chemical_formula_sum "Si O2"
_cell_formula_units_Z 44
_cell_length_a 7.265684
_cell_length_b 28.096781
_cell_length_c 11.079349
_cell_angle_alpha 90.000000
_cell_angle_beta 125.156819
_cell_angle_gamma 90.000000
_cell_volume 1849.171081
_symmetry_space_group_name_H-M "C 2/M"
_symmetry_group_IT_number 12
_symmetry_cell_setting 'monoclinic'
loop_
_space_group_symop_operation_xyz
x,y,z
-x,y,-z
-x,-y,-z
x,-y,z
1/2+x,1/2+y,z
1/2-x,1/2+y,-z
1/2-x,1/2-y,-z
1/2+x,1/2-y,z
loop_
_atom_site_type_symbol
_atom_site_label
_atom_site_fract_x
_atom_site_fract_y
_atom_site_fract_z
Si Si1 0.145464 0.921118 0.804411
Si Si2 0.534711 0.209776 0.813966
Si Si3 0.641110 0.312969 0.852045
Si Si4 0.983733 0.374832 0.634493
Si Si5 0.135153 0.554553 0.878511
Si Si6 0.000000 0.916286 0.500000
O O1 0.066943 0.866767 0.799962
O O2 0.404481 0.926530 0.854892
O O3 0.014292 0.941263 0.637493
O O4 0.169440 0.943360 0.946766
O O5 0.497219 0.265536 0.777456
O O6 0.341441 0.192849 0.831318
O O7 0.537867 0.178255 0.696727
O O8 0.758195 0.196339 0.975779
O O9 0.726673 0.385655 0.576608
O O10 0.000000 0.381962 0.500000
O O11 0.146153 0.410913 0.768497
O O12 0.101232 0.500000 0.829677
#
# Coordination Sequence:
#
# PCOD9170900 Si02
#       6
#     8   8   8   8   8   4
#     4  10  17  36  60  90 130 160 212 267 314 381
#     4  10  19  36  57  89 118 166 216 251 316 375
#     4  10  18  34  63  83 121 167 210 261 304 380
#     4  11  23  43  64  92 136 173 212 273 323 380
#     4  10  19  37  69  93 120 172 219 264 330 392
#     4  10  22  38  65  92 130 174 202 264 331 372
#
# _framework density 23.794446000000001
#
# number of rings (size 3 to 8) (size 9 to 14) (size 15 to 20)
#    0.000    1.818    5.455    2.182    0.000    1.818 
#    1.636   14.091    0.000    1.091    0.000    0.000 
#    0.000    0.000    0.000    0.000    0.000    0.000 
#
# Total GULP energy -122765.282529 kJ/mol
# GULP energy per Si atom -5580.240115 kJ/mol
# Density = 2.374029 g / cm^3
# Si number density = 23.794446 Si / 1000 Ang^3
#
#
#
# Elastic Constant Matrix: (Units=GPa)
#
#
# Indices 1 2 3 4 5 6 
#
# 1 64.1759 29.6027 21.4074 0.0000 -8.2875 0.0000
# 2 29.6027 146.4178 35.7920 0.0000 -4.8724 0.0000
# 3 21.4074 35.7920 143.4939 0.0000 -20.5603 0.0000
# 4 0.0000 0.0000 0.0000 0.9874 0.0000 35.5312
# 5 -8.2875 -4.8724 -20.5603 0.0000 31.0070 0.0000
# 6 0.0000 0.0000 0.0000 35.5312 0.0000 96.3622
#
#
#
# Elastic Compliance Matrix: (Units=1/GPa)
#
#
# Indices 1 2 3 4 5 6 
#
# 1 0.017949 -0.003174 -0.001404 0.000000 0.003368 0.000000
# 2 -0.003174 0.007835 -0.001576 0.000000 -0.000662 0.000000
# 3 -0.001404 -0.001576 0.008268 0.000000 0.004859 0.000000
# 4 0.000000 0.000000 0.000000 -0.082550 0.000000 0.030438
# 5 0.003368 -0.000662 0.004859 0.000000 0.036269 0.000000
# 6 0.000000 0.000000 0.000000 0.030438 0.000000 -0.000846
#
#
# Mechanical properties :
#
#
# Convention : Reuss Voigt Hill
#
# Bulk Modulus (GPa) = 45.98620 58.63241 52.30931
# Shear Modulus (GPa) = 771.71177 43.49037 407.60107
#
# Velocity S-wave (km/s) = 18.02854 4.27986 13.10240
# Velocity P-wave (km/s) = 21.27768 7.00840 15.84073
#
# Compressibility (1/GPa) = 0.02174565
#
# Stress axis : x y z
#
# Youngs Moduli (GPa) = 55.71249 127.63957 120.95425
#
# Poissons Ratio (x) = 0.40510 0.16977
# Poissons Ratio (y) = 0.17682 0.19057
# Poissons Ratio (z) = 0.07820 0.20110
#
# Static dielectric constant tensor:
#      x y z
#    x 1.945860 0.000000 0.018120 
#    y 0.000000 1.873460 0.000000 
#    z 0.018120 0.000000 1.954950 
# 
# From -- ./inp_files/124467.got.cif
#   From: 2010.05.17/outbox.cif.g08.bks.cpg/sg12_63_cif.got.tgz:124467.got - 2010.06.03 13:09:07.
