data_PCOD9170569
_publ_section_title
;
Structure prediction by ZEFSAII (Michael W. Deem and Ramdas Pophale) SiO2 
 PCOD9170569
Probable space group: C 2/M
;
_chemical_formula_sum "Si O2"
_cell_formula_units_Z 48
_cell_length_a 14.204406
_cell_length_b 21.138567
_cell_length_c 9.190913
_cell_angle_alpha 90.000000
_cell_angle_beta 53.871787
_cell_angle_gamma 90.000000
_cell_volume 2228.985150
_symmetry_space_group_name_H-M "C 2/M"
_symmetry_group_IT_number 12
_symmetry_cell_setting 'monoclinic'
loop_
_space_group_symop_operation_xyz
x,y,z
-x,y,-z
-x,-y,-z
x,-y,z
1/2+x,1/2+y,z
1/2-x,1/2+y,-z
1/2-x,1/2-y,-z
1/2+x,1/2-y,z
loop_
_atom_site_type_symbol
_atom_site_label
_atom_site_fract_x
_atom_site_fract_y
_atom_site_fract_z
Si Si1 0.218105 0.187636 0.842264
Si Si2 0.616980 0.742678 0.668885
Si Si3 0.354319 0.070321 0.813323
Si Si4 0.932362 0.613157 0.212493
Si Si5 0.214425 0.070552 0.250995
Si Si6 0.107130 0.802253 0.263150
O O1 0.128280 0.194711 0.792897
O O2 0.296469 0.124822 0.769934
O O3 0.305854 0.247651 0.759643
O O4 0.149777 0.190352 0.056180
O O5 0.750000 0.750000 0.500000
O O6 0.575555 0.811629 0.759026
O O7 0.526134 0.719389 0.631298
O O8 0.488183 0.085350 0.731987
O O9 0.342795 0.000000 0.763382
O O10 0.286431 0.071896 0.031764
O O11 0.805838 0.583982 0.298030
O O12 0.000000 0.600831 0.000000
O O13 0.130142 0.130427 0.316473
O O14 0.164454 0.000000 0.310834
#
# Coordination Sequence:
#
# PCOD9170569 Si02
#       6
#     8   8   8   8   8   8
#     4  10  19  35  58  82 108 138 177 225 273 319
#     4  12  24  35  52  80 112 146 184 224 265 321
#     4   9  17  30  54  86 112 136 174 226 276 320
#     4  10  17  32  56  82 111 139 179 230 275 311
#     4   9  17  30  54  86 112 136 174 226 276 320
#     4  10  19  35  58  82 108 138 177 225 273 319
#
# _framework density 21.534465000000001
#
# number of rings (size 3 to 8) (size 9 to 14) (size 15 to 20)
#    0.000    2.000    3.333    2.000    0.000    2.667 
#    0.000    0.833    0.000   10.000    0.000    0.000 
#    0.000    0.000    0.000    0.000    0.000    0.000 
#
# Total GULP energy -134124.363628 kJ/mol
# GULP energy per Si atom -5588.515151 kJ/mol
# Density = 2.148545 g / cm^3
# Si number density = 21.534465 Si / 1000 Ang^3
#
#
#
# Elastic Constant Matrix: (Units=GPa)
#
#
# Indices 1 2 3 4 5 6 
#
# 1 107.7688 53.2158 7.0346 0.0000 -17.1940 0.0000
# 2 53.2158 153.5216 1.0026 0.0000 -9.5143 0.0000
# 3 7.0346 1.0026 46.0014 0.0000 -18.7029 0.0000
# 4 0.0000 0.0000 0.0000 5.7031 0.0000 -7.4219
# 5 -17.1940 -9.5143 -18.7029 0.0000 25.4096 0.0000
# 6 0.0000 0.0000 0.0000 -7.4219 0.0000 30.5608
#
#
#
# Elastic Compliance Matrix: (Units=1/GPa)
#
#
# Indices 1 2 3 4 5 6 
#
# 1 0.012330 -0.003788 0.001445 0.000000 0.007988 0.000000
# 2 -0.003788 0.007882 0.000807 0.000000 0.000982 0.000000
# 3 0.001445 0.000807 0.031424 0.000000 0.024410 0.000000
# 4 0.000000 0.000000 0.000000 0.256371 0.000000 0.062262
# 5 0.007988 0.000982 0.024410 0.000000 0.063095 0.000000
# 6 0.000000 0.000000 0.000000 0.062262 0.000000 0.047842
#
#
# Mechanical properties :
#
#
# Convention : Reuss Voigt Hill
#
# Bulk Modulus (GPa) = 20.59166 47.75531 34.17349
# Shear Modulus (GPa) = 11.41013 28.73726 20.07369
#
# Velocity S-wave (km/s) = 2.30435 3.65701 3.05645
# Velocity P-wave (km/s) = 4.08203 6.32898 5.32537
#
# Compressibility (1/GPa) = 0.04856334
#
# Stress axis : x y z
#
# Youngs Moduli (GPa) = 81.10309 126.86340 31.82246
#
# Poissons Ratio (x) = 0.48060 -0.04598
# Poissons Ratio (y) = 0.30725 -0.02567
# Poissons Ratio (z) = -0.11719 -0.10234
#
# Static dielectric constant tensor:
#      x y z
#    x 1.799500 0.000000 0.073240 
#    y 0.000000 1.719590 0.000000 
#    z 0.073240 0.000000 1.931160 
# 
# From -- ./inp_files/133716.got.cif
#   From: 2010.05.17/outbox.cif.g08.bks.cpg/sg12_67_cif.got.tgz:133716.got - 2010.06.03 13:09:07.
