data_PCOD9170695
_publ_section_title
;
Structure prediction by ZEFSAII (Michael W. Deem and Ramdas Pophale) SiO2 
 PCOD9170695
Probable space group: C 2/M
;
_chemical_formula_sum "Si O2"
_cell_formula_units_Z 40
_cell_length_a 17.615442
_cell_length_b 19.807902
_cell_length_c 8.468611
_cell_angle_alpha 90.000000
_cell_angle_beta 41.489271
_cell_angle_gamma 90.000000
_cell_volume 1957.567930
_symmetry_space_group_name_H-M "C 2/M"
_symmetry_group_IT_number 12
_symmetry_cell_setting 'monoclinic'
loop_
_space_group_symop_operation_xyz
x,y,z
-x,y,-z
-x,-y,-z
x,-y,z
1/2+x,1/2+y,z
1/2-x,1/2+y,-z
1/2-x,1/2-y,-z
1/2+x,1/2-y,z
loop_
_atom_site_type_symbol
_atom_site_label
_atom_site_fract_x
_atom_site_fract_y
_atom_site_fract_z
Si Si1 0.253115 0.646382 0.898113
Si Si2 0.776280 0.000000 0.400749
Si Si3 0.676781 0.382904 0.891313
Si Si4 0.567955 0.756826 0.047265
Si Si5 0.763344 0.000000 0.765440
Si Si6 0.500908 0.500000 0.251766
Si Si7 0.500000 0.288338 0.500000
O O1 0.229108 0.569101 0.897076
O O2 0.384805 0.667429 0.665882
O O3 0.240102 0.649463 0.107280
O O4 0.174391 0.695160 0.920475
O O5 0.759331 0.931774 0.329623
O O6 0.715540 0.000000 0.662309
O O7 0.910600 0.000000 0.245422
O O8 0.610438 0.318175 0.930473
O O9 0.582962 0.434659 0.114828
O O10 0.509686 0.748929 0.313248
O O11 0.500000 0.782929 0.000000
O O12 0.903289 0.000000 0.538234
#
# Coordination Sequence:
#
# PCOD9170695 Si02
#       7
#     8   4   8   8   4   4   4
#     4  11  23  38  60  92 122 162 198 254 306 361
#     4   9  19  29  53  90 117 157 186 238 319 372
#     4  10  17  33  56  86 124 150 188 247 310 376
#     4  11  24  41  62  89 126 165 207 250 295 360
#     4  10  20  34  53  87 121 150 204 241 306 360
#     4   9  17  28  56  89 118 147 185 242 321 370
#     4  10  22  41  64  97 124 154 198 248 322 375
#
# _framework density 20.433519
#
# number of rings (size 3 to 8) (size 9 to 14) (size 15 to 20)
#    0.600    1.200    0.000    8.400    2.800    2.000 
#    3.600    0.500    0.000    0.600    0.000    0.000 
#    0.000    0.000    0.000    0.000    0.000    0.000 
#
# Total GULP energy -111415.143686 kJ/mol
# GULP energy per Si atom -5570.757184 kJ/mol
# Density = 2.038701 g / cm^3
# Si number density = 20.433519 Si / 1000 Ang^3
#
#
#
# Elastic Constant Matrix: (Units=GPa)
#
#
# Indices 1 2 3 4 5 6 
#
# 1 148.9867 54.5944 21.4326 0.0000 5.1731 0.0000
# 2 54.5944 96.9236 9.7567 0.0000 -14.9191 0.0000
# 3 21.4326 9.7567 26.8426 0.0000 9.0976 0.0000
# 4 0.0000 0.0000 0.0000 -8.5799 0.0000 10.1854
# 5 5.1731 -14.9191 9.0976 0.0000 18.0067 0.0000
# 6 0.0000 0.0000 0.0000 10.1854 0.0000 32.2650
#
#
#
# Elastic Compliance Matrix: (Units=1/GPa)
#
#
# Indices 1 2 3 4 5 6 
#
# 1 0.009611 -0.005980 -0.003481 0.000000 -0.005957 0.000000
# 2 -0.005980 0.017782 -0.008765 0.000000 0.020879 0.000000
# 3 -0.003481 -0.008765 0.054711 0.000000 -0.033904 0.000000
# 4 0.000000 0.000000 0.000000 -0.084780 0.000000 0.026763
# 5 -0.005957 0.020879 -0.033904 0.000000 0.091675 0.000000
# 6 0.000000 0.000000 0.000000 0.026763 0.000000 0.022545
#
#
# Mechanical properties :
#
#
# Convention : Reuss Voigt Hill
#
# Bulk Modulus (GPa) = 21.90547 49.36890 35.63719
# Shear Modulus (GPa) = 30.63478 20.80297 25.71887
#
# Velocity S-wave (km/s) = 3.87620 3.19420 3.55161
# Velocity P-wave (km/s) = 5.54770 6.14956 5.85636
#
# Compressibility (1/GPa) = 0.04565069
#
# Stress axis : x y z
#
# Youngs Moduli (GPa) = 104.04763 56.23665 18.27792
#
# Poissons Ratio (x) = 0.33630 0.06363
# Poissons Ratio (y) = 0.62221 0.16021
# Poissons Ratio (z) = 0.36223 0.49292
#
# Static dielectric constant tensor:
#      x y z
#    x 1.775820 0.000000 0.047420 
#    y 0.000000 1.721860 0.000000 
#    z 0.047420 0.000000 1.784320 
# 
# From -- ./inp_files/63224.got.cif
#   From: 2010.05.17/outbox.cif.g08.bks.cpg/sg12_32_cif.got.tgz:63224.got - 2010.06.03 13:09:07.
