data_PCOD9170172
_publ_section_title
;
Structure prediction by ZEFSAII (Michael W. Deem and Ramdas Pophale) SiO2 
 PCOD9170172
Probable space group: C 2/M
;
_chemical_formula_sum "Si O2"
_cell_formula_units_Z 48
_cell_length_a 25.591034
_cell_length_b 14.669543
_cell_length_c 9.372066
_cell_angle_alpha 90.000000
_cell_angle_beta 41.965737
_cell_angle_gamma 90.000000
_cell_volume 2352.675566
_symmetry_space_group_name_H-M "C 2/M"
_symmetry_group_IT_number 12
_symmetry_cell_setting 'monoclinic'
loop_
_space_group_symop_operation_xyz
x,y,z
-x,y,-z
-x,-y,-z
x,-y,z
1/2+x,1/2+y,z
1/2-x,1/2+y,-z
1/2-x,1/2-y,-z
1/2+x,1/2-y,z
loop_
_atom_site_type_symbol
_atom_site_label
_atom_site_fract_x
_atom_site_fract_y
_atom_site_fract_z
Si Si1 0.704994 0.100147 0.342698
Si Si2 0.416731 0.327535 0.158490
Si Si3 0.036487 0.638112 0.783299
Si Si4 0.074618 0.605787 0.247265
Si Si5 0.827081 0.248473 0.069026
Si Si6 0.755016 0.899621 0.572247
O O1 0.610990 0.105564 0.539703
O O2 0.760187 0.176271 0.161315
O O3 0.724415 0.105653 0.472457
O O4 0.727129 0.000000 0.243999
O O5 0.432974 0.235552 0.218052
O O6 0.388008 0.302443 0.055211
O O7 0.346807 0.381643 0.372839
O O8 0.500000 0.376563 0.000000
O O9 0.962913 0.627175 0.830152
O O10 0.000000 0.594271 0.000000
O O11 0.102555 0.500000 0.199837
O O12 0.000000 0.614710 0.500000
O O13 0.135359 0.689888 0.132914
O O14 0.784653 0.321752 0.256446
O O15 0.737233 0.000000 0.664814
#
# Coordination Sequence:
#
# PCOD9170172 Si02
#       6
#     8   8   8   8   8   8
#     4  10  19  30  51  81 107 137 179 218 260 306
#     4  10  17  30  50  76 106 137 175 218 251 301
#     4  11  18  34  57  80 107 136 176 221 256 302
#     4  11  24  38  54  80 109 136 169 215 271 320
#     4  11  18  34  52  74 110 139 169 218 267 308
#     4  10  18  28  47  78 112 142 170 211 265 311
#
# _framework density 20.402303
#
# number of rings (size 3 to 8) (size 9 to 14) (size 15 to 20)
#    0.000    1.500    6.667    2.000    0.000    3.000 
#    0.000    0.833    0.000    0.500    0.000    0.000 
#    0.000    0.000    0.000    0.000    0.000    0.000 
#
# Total GULP energy -133674.583470 kJ/mol
# GULP energy per Si atom -5569.774311 kJ/mol
# Density = 2.035587 g / cm^3
# Si number density = 20.402303 Si / 1000 Ang^3
#
#
#
# Elastic Constant Matrix: (Units=GPa)
#
#
# Indices 1 2 3 4 5 6 
#
# 1 54.5046 6.2797 9.4871 0.0000 -17.3139 0.0000
# 2 6.2797 105.4410 29.7921 0.0000 -13.7315 0.0000
# 3 9.4871 29.7921 85.0341 0.0000 -22.4849 0.0000
# 4 0.0000 0.0000 0.0000 72.5299 0.0000 -13.9132
# 5 -17.3139 -13.7315 -22.4849 0.0000 37.1848 0.0000
# 6 0.0000 0.0000 0.0000 -13.9132 0.0000 6.3614
#
#
#
# Elastic Compliance Matrix: (Units=1/GPa)
#
#
# Indices 1 2 3 4 5 6 
#
# 1 0.021538 -0.000042 0.000309 0.000000 0.010200 0.000000
# 2 -0.000042 0.010649 -0.003204 0.000000 0.001976 0.000000
# 3 0.000309 -0.003204 0.014966 0.000000 0.008010 0.000000
# 4 0.000000 0.000000 0.000000 0.023753 0.000000 0.051950
# 5 0.010200 0.001976 0.008010 0.000000 0.037215 0.000000
# 6 0.000000 0.000000 0.000000 0.051950 0.000000 0.270819
#
#
# Mechanical properties :
#
#
# Convention : Reuss Voigt Hill
#
# Bulk Modulus (GPa) = 24.22497 37.34416 30.78456
# Shear Modulus (GPa) = 12.54473 36.50994 24.52734
#
# Velocity S-wave (km/s) = 2.48234 4.23484 3.47102
# Velocity P-wave (km/s) = 4.48503 6.50042 5.58439
#
# Compressibility (1/GPa) = 0.04127973
#
# Stress axis : x y z
#
# Youngs Moduli (GPa) = 46.42906 93.90554 66.81745
#
# Poissons Ratio (x) = 0.00391 -0.02063
# Poissons Ratio (y) = 0.00193 0.21407
# Poissons Ratio (z) = -0.01433 0.30086
#
# Static dielectric constant tensor:
#      x y z
#    x 1.770280 0.000000 -0.032140 
#    y 0.000000 1.778600 0.000000 
#    z -0.032140 0.000000 1.764480 
# 
# From -- ./inp_files/104970.got.cif
#   From: 2010.05.17/outbox.cif.g08.bks.cpg/sg12_53_cif.got.tgz:104970.got - 2010.06.03 13:09:07.
