data_PCOD9170634
_publ_section_title
;
Structure prediction by ZEFSAII (Michael W. Deem and Ramdas Pophale) SiO2 
 PCOD9170634
Probable space group: C 2/M
;
_chemical_formula_sum "Si O2"
_cell_formula_units_Z 56
_cell_length_a 32.697129
_cell_length_b 14.685981
_cell_length_c 5.253798
_cell_angle_alpha 90.000000
_cell_angle_beta 107.084696
_cell_angle_gamma 90.000000
_cell_volume 2411.490058
_symmetry_space_group_name_H-M "C 2/M"
_symmetry_group_IT_number 12
_symmetry_cell_setting 'monoclinic'
loop_
_space_group_symop_operation_xyz
x,y,z
-x,y,-z
-x,-y,-z
x,-y,z
1/2+x,1/2+y,z
1/2-x,1/2+y,-z
1/2-x,1/2-y,-z
1/2+x,1/2-y,z
loop_
_atom_site_type_symbol
_atom_site_label
_atom_site_fract_x
_atom_site_fract_y
_atom_site_fract_z
Si Si1 0.609800 0.599203 0.722346
Si Si2 0.523111 0.355553 0.793863
Si Si3 0.334277 0.174438 0.961600
Si Si4 0.887133 0.708803 0.544989
Si Si5 0.752001 0.640364 0.557009
Si Si6 0.514383 0.848178 0.275069
Si Si7 0.703622 0.366407 0.979678
O O1 0.600923 0.500000 0.590300
O O2 0.572587 0.622408 0.854718
O O3 0.611462 0.684800 0.534383
O O4 0.656258 0.596042 0.934615
O O5 0.500000 0.390955 0.500000
O O6 0.513850 0.246566 0.776695
O O7 0.500000 0.391561 0.000000
O O8 0.365237 0.199511 0.781369
O O9 0.298230 0.113659 0.755359
O O10 0.304961 0.258341 0.007166
O O11 0.361820 0.156324 0.268133
O O12 0.935856 0.675657 0.639347
O O13 0.750000 0.750000 0.500000
O O14 0.736764 0.603367 0.256632
O O15 0.719194 0.616302 0.722492
O O16 0.500000 0.896952 0.500000
O O17 0.500000 0.898382 0.000000
#
# Coordination Sequence:
#
# PCOD9170634 Si02
#       7
#     8   8   8   8   8   8   8
#     4  11  23  37  49  66  88 120 158 200 239 281
#     4  10  21  35  49  59  79 108 159 194 239 267
#     4  10  19  30  53  69  87 104 134 175 240 290
#     4  11  20  33  47  70  88 113 144 193 230 283
#     4  10  17  33  49  70  86 105 129 168 232 307
#     4  10  18  31  47  60  85 112 151 182 236 265
#     4  10  20  31  48  65  90 109 135 176 232 285
#
# _framework density 23.222154
#
# number of rings (size 3 to 8) (size 9 to 14) (size 15 to 20)
#    0.000    1.714    2.857    6.857    6.000    1.714 
#    0.000   10.714    0.000    0.429    0.000    0.000 
#    0.000    0.000    0.000    0.000    0.000    0.000 
#
# Total GULP energy -156274.413765 kJ/mol
# GULP energy per Si atom -5581.229063 kJ/mol
# Density = 2.316930 g / cm^3
# Si number density = 23.222154 Si / 1000 Ang^3
#
#
#
# Elastic Constant Matrix: (Units=GPa)
#
#
# Indices 1 2 3 4 5 6 
#
# 1 127.0737 10.7153 43.2745 0.0000 1.6748 0.0000
# 2 10.7153 56.7661 9.0162 0.0000 8.7794 0.0000
# 3 43.2745 9.0162 169.2359 0.0000 -5.2116 0.0000
# 4 0.0000 0.0000 0.0000 -17.0099 0.0000 3.8511
# 5 1.6748 8.7794 -5.2116 0.0000 56.2714 0.0000
# 6 0.0000 0.0000 0.0000 3.8511 0.0000 -25.2305
#
#
#
# Elastic Compliance Matrix: (Units=1/GPa)
#
#
# Indices 1 2 3 4 5 6 
#
# 1 0.008718 -0.001260 -0.002170 0.000000 -0.000264 0.000000
# 2 -0.001260 0.018422 -0.000749 0.000000 -0.002906 0.000000
# 3 -0.002170 -0.000749 0.006528 0.000000 0.000786 0.000000
# 4 0.000000 0.000000 0.000000 -0.060894 0.000000 -0.009295
# 5 -0.000264 -0.002906 0.000786 0.000000 0.018305 0.000000
# 6 0.000000 0.000000 0.000000 -0.009295 0.000000 -0.041053
#
#
# Mechanical properties :
#
#
# Convention : Reuss Voigt Hill
#
# Bulk Modulus (GPa) = 39.50968 53.23197 46.37083
# Shear Modulus (GPa) = -150.70296 22.14417 -64.27940
#
# Velocity S-wave (km/s) = -8.06456 3.09136 -5.26691
# Velocity P-wave (km/s) = 8.34658 5.97618 4.12012
#
# Compressibility (1/GPa) = 0.02531025
#
# Stress axis : x y z
#
# Youngs Moduli (GPa) = 114.70164 54.28172 153.18723
#
# Poissons Ratio (x) = 0.06840 0.33246
# Poissons Ratio (y) = 0.14454 0.11470
# Poissons Ratio (z) = 0.24894 0.04064
#
# Static dielectric constant tensor:
#      x y z
#    x 1.424420 0.000000 0.314010 
#    y 0.000000 2.079480 0.000000 
#    z 0.314010 0.000000 1.767730 
# 
# From -- ./inp_files/32277.got.cif
#   From: 2010.05.17/outbox.cif.g08.bks.cpg/sg12_17_cif.got.tgz:32277.got - 2010.06.03 13:09:07.
