data_PCOD9170036
_publ_section_title
;
Structure prediction by ZEFSAII (Michael W. Deem and Ramdas Pophale) SiO2 
 PCOD9170036
Probable space group: C 2/M
;
_chemical_formula_sum "Si O2"
_cell_formula_units_Z 40
_cell_length_a 15.290645
_cell_length_b 14.213161
_cell_length_c 9.272813
_cell_angle_alpha 90.000000
_cell_angle_beta 115.024072
_cell_angle_gamma 90.000000
_cell_volume 1826.074803
_symmetry_space_group_name_H-M "C 2/M"
_symmetry_group_IT_number 12
_symmetry_cell_setting 'monoclinic'
loop_
_space_group_symop_operation_xyz
x,y,z
-x,y,-z
-x,-y,-z
x,-y,z
1/2+x,1/2+y,z
1/2-x,1/2+y,-z
1/2-x,1/2-y,-z
1/2+x,1/2-y,z
loop_
_atom_site_type_symbol
_atom_site_label
_atom_site_fract_x
_atom_site_fract_y
_atom_site_fract_z
Si Si1 0.107880 0.387722 0.596679
Si Si2 0.601959 0.782731 0.867053
Si Si3 0.101389 0.108741 0.658206
Si Si4 0.084309 0.768324 0.148505
Si Si5 0.711501 0.387372 0.452580
O O1 0.103291 0.500000 0.591816
O O2 0.142351 0.354329 0.778249
O O3 0.181761 0.359302 0.523386
O O4 0.000000 0.348814 0.500000
O O5 0.604457 0.682335 0.789126
O O6 0.487889 0.803715 0.820583
O O7 0.644374 0.776818 0.058211
O O8 0.183190 0.132017 0.596919
O O9 0.000000 0.116386 0.500000
O O10 0.110814 0.000000 0.710554
O O11 0.141234 0.832233 0.296561
O O12 0.000000 0.824377 0.000000
O O13 0.699981 0.500000 0.424894
#
# Coordination Sequence:
#
# PCOD9170036 Si02
#       5
#     8   8   8   8   8
#     4  10  22  39  58  78 107 149 198 239 265 308
#     4   9  19  35  54  81 113 146 180 221 281 328
#     4  10  17  29  51  83 115 141 173 220 275 338
#     4   8  19  34  52  84 113 139 175 223 279 346
#     4  10  20  34  56  85 113 146 185 223 277 333
#
# _framework density 21.904909
#
# number of rings (size 3 to 8) (size 9 to 14) (size 15 to 20)
#    1.200    1.200    2.000    0.600    0.000    2.800 
#    0.000    2.000    0.000    0.000    0.000    0.000 
#    0.000    0.000    0.000    0.000    0.000    0.000 
#
# Total GULP energy -111498.272481 kJ/mol
# GULP energy per Si atom -5574.913624 kJ/mol
# Density = 2.185505 g / cm^3
# Si number density = 21.904909 Si / 1000 Ang^3
#
#
#
# Elastic Constant Matrix: (Units=GPa)
#
#
# Indices 1 2 3 4 5 6 
#
# 1 108.5049 7.0081 30.3912 0.0000 -30.4875 0.0000
# 2 7.0081 34.0446 -2.0804 0.0000 0.5352 0.0000
# 3 30.3912 -2.0804 59.0009 0.0000 -18.8632 0.0000
# 4 0.0000 0.0000 0.0000 9.7916 0.0000 -6.1775
# 5 -30.4875 0.5352 -18.8632 0.0000 44.4145 0.0000
# 6 0.0000 0.0000 0.0000 -6.1775 0.0000 19.1491
#
#
#
# Elastic Compliance Matrix: (Units=1/GPa)
#
#
# Indices 1 2 3 4 5 6 
#
# 1 0.012544 -0.002957 -0.004398 0.000000 0.006778 0.000000
# 2 -0.002957 0.030134 0.002107 0.000000 -0.001498 0.000000
# 3 -0.004398 0.002107 0.021193 0.000000 0.005956 0.000000
# 4 0.000000 0.000000 0.000000 0.128227 0.000000 0.041366
# 5 0.006778 -0.001498 0.005956 0.000000 0.029715 0.000000
# 6 0.000000 0.000000 0.000000 0.041366 0.000000 0.065567
#
#
# Mechanical properties :
#
#
# Convention : Reuss Voigt Hill
#
# Bulk Modulus (GPa) = 18.73611 30.24313 24.48962
# Shear Modulus (GPa) = 15.83938 25.75314 20.79626
#
# Velocity S-wave (km/s) = 2.69196 3.43254 3.08456
# Velocity P-wave (km/s) = 4.27015 5.43565 4.88776
#
# Compressibility (1/GPa) = 0.05337288
#
# Stress axis : x y z
#
# Youngs Moduli (GPa) = 79.72184 33.18477 47.18523
#
# Poissons Ratio (x) = 0.09814 0.20754
# Poissons Ratio (y) = 0.23577 -0.09941
# Poissons Ratio (z) = 0.35066 -0.06992
#
# Static dielectric constant tensor:
#      x y z
#    x 1.917380 0.000000 0.004640 
#    y 0.000000 1.770460 0.000000 
#    z 0.004640 0.000000 1.814320 
# 
# From -- ./inp_files/47123.got.cif
#   From: 2010.05.17/outbox.cif.g08.bks.cpg/sg12_24_cif.got.tgz:47123.got - 2010.06.03 13:09:07.
