data_PCOD9170293
_publ_section_title
;
Structure prediction by ZEFSAII (Michael W. Deem and Ramdas Pophale) SiO2 
 PCOD9170293
Probable space group: C 2/M
;
_chemical_formula_sum "Si O2"
_cell_formula_units_Z 60
_cell_length_a 25.428881
_cell_length_b 8.939598
_cell_length_c 15.323109
_cell_angle_alpha 90.000000
_cell_angle_beta 74.278598
_cell_angle_gamma 90.000000
_cell_volume 3353.001491
_symmetry_space_group_name_H-M "C 2/M"
_symmetry_group_IT_number 12
_symmetry_cell_setting 'monoclinic'
loop_
_space_group_symop_operation_xyz
x,y,z
-x,y,-z
-x,-y,-z
x,-y,z
1/2+x,1/2+y,z
1/2-x,1/2+y,-z
1/2-x,1/2-y,-z
1/2+x,1/2-y,z
loop_
_atom_site_type_symbol
_atom_site_label
_atom_site_fract_x
_atom_site_fract_y
_atom_site_fract_z
Si Si1 0.000000 0.725788 0.500000
Si Si2 0.512975 0.179441 0.305680
Si Si3 0.116892 0.821583 0.175324
Si Si4 0.191222 0.821361 0.785846
Si Si5 0.805609 0.823705 0.694067
Si Si6 0.304971 0.680355 0.014556
Si Si7 0.125311 0.668839 0.485140
Si Si8 0.890145 0.677914 0.311268
O O1 0.012787 0.779044 0.394903
O O2 0.060353 0.660347 0.493747
O O3 0.563587 0.228555 0.224580
O O4 0.455309 0.201950 0.283967
O O5 0.516696 0.000000 0.327725
O O6 0.161562 0.794117 0.231108
O O7 0.104840 0.000000 0.180745
O O8 0.144649 0.780180 0.071234
O O9 0.248244 0.760585 0.722604
O O10 0.187134 0.772640 0.888895
O O11 0.141969 0.760759 0.749642
O O12 0.191499 0.000000 0.783865
O O13 0.843629 0.770107 0.597785
O O14 0.795616 0.000000 0.692361
O O15 0.299663 0.500000 0.014404
O O16 0.250000 0.750000 0.000000
O O17 0.146983 0.500000 0.468736
O O18 0.130396 0.722488 0.582532
O O19 0.881007 0.500000 0.307679
#
# Coordination Sequence:
#
# PCOD9170293 Si02
#       8
#     4   8   8   8   8   8   8   8
#     4  10  17  30  55  82 111 144 183 230 269 316
#     4  10  19  34  58  84 111 148 189 226 272 328
#     4  10  21  36  54  84 119 144 174 228 289 333
#     4  11  23  39  61  83 107 147 193 232 276 336
#     4  11  22  35  55  84 118 150 179 228 287 331
#     4  10  21  38  59  84 111 142 183 230 285 337
#     4  10  19  34  56  82 112 150 191 228 273 330
#     4   9  21  39  58  81 113 153 190 229 277 325
#
# _framework density 17.894416
#
# number of rings (size 3 to 8) (size 9 to 14) (size 15 to 20)
#    0.000    1.867    2.667    2.800    0.000    3.200 
#    0.000    3.333    0.000    4.000    0.000    0.000 
#    0.000    0.000    0.000    0.000    0.000    0.000 
#
# Total GULP energy -167193.604620 kJ/mol
# GULP energy per Si atom -5573.120154 kJ/mol
# Density = 1.785369 g / cm^3
# Si number density = 17.894416 Si / 1000 Ang^3
#
#
#
# Elastic Constant Matrix: (Units=GPa)
#
#
# Indices 1 2 3 4 5 6 
#
# 1 103.0050 41.3122 76.8984 0.0000 7.2095 0.0000
# 2 41.3122 25.8670 36.0000 0.0000 3.7971 0.0000
# 3 76.8984 36.0000 128.9165 0.0000 0.0649 0.0000
# 4 0.0000 0.0000 0.0000 22.4095 0.0000 5.0949
# 5 7.2095 3.7971 0.0649 0.0000 35.1220 0.0000
# 6 0.0000 0.0000 0.0000 5.0949 0.0000 -38.2684
#
#
#
# Elastic Compliance Matrix: (Units=1/GPa)
#
#
# Indices 1 2 3 4 5 6 
#
# 1 0.031176 -0.038581 -0.007822 0.000000 -0.002214 0.000000
# 2 -0.038581 0.112648 -0.008442 0.000000 -0.004244 0.000000
# 3 -0.007822 -0.008442 0.014779 0.000000 0.002491 0.000000
# 4 0.000000 0.000000 0.000000 0.043313 0.000000 0.005767
# 5 -0.002214 -0.004244 0.002491 0.000000 0.029381 0.000000
# 6 0.000000 0.000000 0.000000 0.005767 0.000000 -0.025363
#
#
# Mechanical properties :
#
#
# Convention : Reuss Voigt Hill
#
# Bulk Modulus (GPa) = 20.44374 62.91220 41.67797
# Shear Modulus (GPa) = 15.06364 10.75781 12.91072
#
# Velocity S-wave (km/s) = 2.90454 2.45456 2.68898
# Velocity P-wave (km/s) = 4.76423 6.57776 5.74303
#
# Compressibility (1/GPa) = 0.04891473
#
# Stress axis : x y z
#
# Youngs Moduli (GPa) = 32.07598 8.87723 67.66525
#
# Poissons Ratio (x) = 0.34249 0.52925
# Poissons Ratio (y) = 1.23751 0.57120
# Poissons Ratio (z) = 0.25089 0.07494
#
# Static dielectric constant tensor:
#      x y z
#    x 1.582260 0.000000 0.003900 
#    y 0.000000 1.617610 0.000000 
#    z 0.003900 0.000000 1.614960 
# 
# From -- ./inp_files/238547.got.cif
#   From: 2010.05.17/outbox.cif.g08.bks.cpg/sg12_120_cif.got.tgz:238547.got - 2010.06.03 13:09:07.
