data_PCOD9170264
_publ_section_title
;
Structure prediction by ZEFSAII (Michael W. Deem and Ramdas Pophale) SiO2 
 PCOD9170264
Probable space group: C 2/M
;
_chemical_formula_sum "Si O2"
_cell_formula_units_Z 46
_cell_length_a 16.797274
_cell_length_b 21.548093
_cell_length_c 10.871790
_cell_angle_alpha 90.000000
_cell_angle_beta 149.818058
_cell_angle_gamma 90.000000
_cell_volume 1978.329585
_symmetry_space_group_name_H-M "C 2/M"
_symmetry_group_IT_number 12
_symmetry_cell_setting 'monoclinic'
loop_
_space_group_symop_operation_xyz
x,y,z
-x,y,-z
-x,-y,-z
x,-y,z
1/2+x,1/2+y,z
1/2-x,1/2+y,-z
1/2-x,1/2-y,-z
1/2+x,1/2-y,z
loop_
_atom_site_type_symbol
_atom_site_label
_atom_site_fract_x
_atom_site_fract_y
_atom_site_fract_z
Si Si1 0.747656 0.599911 0.399634
Si Si2 0.073291 0.569669 0.959998
Si Si3 0.000000 0.000000 0.000000
Si Si4 0.181082 0.676565 0.729433
Si Si5 0.000496 0.156664 0.234960
Si Si6 0.000000 0.248633 0.000000
Si Si7 0.782769 0.186286 0.266816
O O1 0.639574 0.553458 0.177554
O O2 0.774723 0.661183 0.353556
O O3 0.633660 0.609065 0.365360
O O4 0.919318 0.576796 0.667973
O O5 0.140433 0.500000 0.036838
O O6 0.199609 0.624484 0.104899
O O7 0.000000 0.574549 0.000000
O O8 0.196770 0.749684 0.780815
O O9 0.000000 0.657263 0.500000
O O10 0.315063 0.640755 0.985178
O O11 0.057109 0.174354 0.445001
O O12 0.007801 0.209396 0.137266
O O13 0.846692 0.291844 0.803579
#
# Coordination Sequence:
#
# PCOD9170264 Si02
#       7
#     8   8   2   8   8   4   8
#     4  12  21  41  66  95 131 156 218 267 314 375
#     4  11  23  36  61 100 132 163 203 263 323 382
#     4  12  22  40  68 100 114 176 216 270 310 360
#     4  11  26  41  60  95 128 167 214 268 323 371
#     4  11  19  36  61  90 120 162 204 265 318 368
#     4  10  17  30  53  93 117 152 200 258 318 369
#     4  11  21  35  61  87 130 163 205 255 323 385
#
# _framework density 23.251939
#
# number of rings (size 3 to 8) (size 9 to 14) (size 15 to 20)
#    0.000    0.870    8.696    0.522    4.870    0.696 
#    0.000    0.435    0.000    0.522    0.000    0.000 
#    0.000    0.000    0.000    0.000    0.000    0.000 
#
# Total GULP energy -128074.186630 kJ/mol
# GULP energy per Si atom -5568.442897 kJ/mol
# Density = 2.319902 g / cm^3
# Si number density = 23.251939 Si / 1000 Ang^3
#
#
#
# Elastic Constant Matrix: (Units=GPa)
#
#
# Indices 1 2 3 4 5 6 
#
# 1 69.2051 15.4879 23.7480 0.0000 4.5805 0.0000
# 2 15.4879 110.3010 22.7931 0.0000 -1.3038 0.0000
# 3 23.7480 22.7931 164.5148 0.0000 12.9502 0.0000
# 4 0.0000 0.0000 0.0000 28.1548 0.0000 8.3860
# 5 4.5805 -1.3038 12.9502 0.0000 34.2080 0.0000
# 6 0.0000 0.0000 0.0000 8.3860 0.0000 13.5087
#
#
#
# Elastic Compliance Matrix: (Units=1/GPa)
#
#
# Indices 1 2 3 4 5 6 
#
# 1 0.015599 -0.001818 -0.001886 0.000000 -0.001444 0.000000
# 2 -0.001818 0.009570 -0.001146 0.000000 0.001042 0.000000
# 3 -0.001886 -0.001146 0.006692 0.000000 -0.002325 0.000000
# 4 0.000000 0.000000 0.000000 0.043575 0.000000 -0.027051
# 5 -0.001444 0.001042 -0.002325 0.000000 0.030346 0.000000
# 6 0.000000 0.000000 0.000000 -0.027051 0.000000 0.090819
#
#
# Mechanical properties :
#
#
# Convention : Reuss Voigt Hill
#
# Bulk Modulus (GPa) = 45.11983 52.00876 48.56429
# Shear Modulus (GPa) = 23.39843 33.97375 28.68609
#
# Velocity S-wave (km/s) = 3.17566 3.82660 3.51623
# Velocity P-wave (km/s) = 5.73527 6.47610 6.11691
#
# Compressibility (1/GPa) = 0.02216320
#
# Stress axis : x y z
#
# Youngs Moduli (GPa) = 64.10480 104.48916 149.42136
#
# Poissons Ratio (x) = 0.18993 0.28186
# Poissons Ratio (y) = 0.11652 0.17117
# Poissons Ratio (z) = 0.12092 0.11970
#
# Static dielectric constant tensor:
#      x y z
#    x 1.985580 0.000000 0.011300 
#    y 0.000000 1.872220 0.000000 
#    z 0.011300 0.000000 1.912650 
# 
# From -- ./inp_files/241913.got.cif
#   From: 2010.05.17/outbox.cif.g08.bks.cpg/sg12_121_cif.got.tgz:241913.got - 2010.06.03 13:09:07.
