data_PCOD9170606
_publ_section_title
;
Structure prediction by ZEFSAII (Michael W. Deem and Ramdas Pophale) SiO2 
 PCOD9170606
Probable space group: C 2/M
;
_chemical_formula_sum "Si O2"
_cell_formula_units_Z 56
_cell_length_a 27.520858
_cell_length_b 17.721757
_cell_length_c 8.860370
_cell_angle_alpha 90.000000
_cell_angle_beta 46.065356
_cell_angle_gamma 90.000000
_cell_volume 3111.949506
_symmetry_space_group_name_H-M "C 2/M"
_symmetry_group_IT_number 12
_symmetry_cell_setting 'monoclinic'
loop_
_space_group_symop_operation_xyz
x,y,z
-x,y,-z
-x,-y,-z
x,-y,z
1/2+x,1/2+y,z
1/2-x,1/2+y,-z
1/2-x,1/2-y,-z
1/2+x,1/2-y,z
loop_
_atom_site_type_symbol
_atom_site_label
_atom_site_fract_x
_atom_site_fract_y
_atom_site_fract_z
Si Si1 0.737786 0.790073 0.186650
Si Si2 0.966703 0.621060 0.228059
Si Si3 0.057467 0.673907 0.269800
Si Si4 0.001807 0.912357 0.812333
Si Si5 0.895401 0.782112 0.373798
Si Si6 0.646327 0.083474 0.313620
Si Si7 0.378379 0.306730 0.056621
O O1 0.673638 0.745326 0.397224
O O2 0.714538 0.875169 0.205817
O O3 0.750000 0.750000 0.000000
O O4 0.803443 0.800145 0.149340
O O5 0.945489 0.709677 0.263918
O O6 0.899526 0.583123 0.436591
O O7 0.020552 0.612274 0.246048
O O8 0.000000 0.597329 0.000000
O O9 0.110066 0.636065 0.268475
O O10 0.087393 0.734018 0.092552
O O11 0.000000 0.709586 0.500000
O O12 0.062978 0.853023 0.646001
O O13 0.930275 0.876221 0.912352
O O14 0.010972 0.000000 0.744274
O O15 0.000000 0.912674 0.000000
O O16 0.877353 0.800282 0.239574
O O17 0.653872 0.000000 0.238230
#
# Coordination Sequence:
#
# PCOD9170606 Si02
#       7
#     8   8   8   8   8   8   8
#     4  11  23  37  58  81 109 154 198 230 277 339
#     4  10  17  32  59  87 108 140 185 229 274 332
#     4  10  19  32  58  84 110 144 183 229 275 338
#     4   9  18  33  58  90 119 145 178 233 296 341
#     4  10  19  35  58  85 115 145 189 236 276 337
#     4  10  23  39  53  77 116 152 181 229 287 335
#     4  11  19  34  59  87 111 147 191 235 278 329
#
# _framework density 17.995149999999999
#
# number of rings (size 3 to 8) (size 9 to 14) (size 15 to 20)
#    0.000    1.857    4.286    0.857    0.000    3.429 
#    0.000    0.714    0.000    3.000    0.000    0.000 
#    0.000    0.000    0.000    0.000    0.000    0.000 
#
# Total GULP energy -155936.840377 kJ/mol
# GULP energy per Si atom -5569.172871 kJ/mol
# Density = 1.795419 g / cm^3
# Si number density = 17.995150 Si / 1000 Ang^3
#
#
#
# Elastic Constant Matrix: (Units=GPa)
#
#
# Indices 1 2 3 4 5 6 
#
# 1 102.8642 24.2053 39.2718 0.0000 -17.6218 0.0000
# 2 24.2053 99.8209 19.3170 0.0000 -17.0918 0.0000
# 3 39.2718 19.3170 79.3421 0.0000 -2.9232 0.0000
# 4 0.0000 0.0000 0.0000 0.7987 0.0000 -2.1693
# 5 -17.6218 -17.0918 -2.9232 0.0000 30.9759 0.0000
# 6 0.0000 0.0000 0.0000 -2.1693 0.0000 6.7122
#
#
#
# Elastic Compliance Matrix: (Units=1/GPa)
#
#
# Indices 1 2 3 4 5 6 
#
# 1 0.013418 -0.000941 -0.006172 0.000000 0.006532 0.000000
# 2 -0.000941 0.011637 -0.002158 0.000000 0.005682 0.000000
# 3 -0.006172 -0.002158 0.016067 0.000000 -0.003186 0.000000
# 4 0.000000 0.000000 0.000000 10.241610 0.000000 3.309931
# 5 0.006532 0.005682 -0.003186 0.000000 0.038833 0.000000
# 6 0.000000 0.000000 0.000000 3.309931 0.000000 1.218701
#
#
# Mechanical properties :
#
#
# Convention : Reuss Voigt Hill
#
# Bulk Modulus (GPa) = 44.28754 49.73502 47.01128
# Shear Modulus (GPa) = 0.43229 20.97959 10.70594
#
# Velocity S-wave (km/s) = 0.49066 3.41815 2.44177
# Velocity P-wave (km/s) = 4.99852 6.57848 5.84216
#
# Compressibility (1/GPa) = 0.02257971
#
# Stress axis : x y z
#
# Youngs Moduli (GPa) = 74.52535 85.93581 62.24115
#
# Poissons Ratio (x) = 0.08087 0.38414
# Poissons Ratio (y) = 0.07013 0.13432
# Poissons Ratio (z) = 0.45996 0.18545
#
# Static dielectric constant tensor:
#      x y z
#    x 1.653700 0.000000 -0.022430 
#    y 0.000000 1.647120 0.000000 
#    z -0.022430 0.000000 1.643360 
# 
# From -- ./inp_files/75850.got.cif
#   From: 2010.05.17/outbox.cif.g08.bks.cpg/sg12_38_cif.got.tgz:75850.got - 2010.06.03 13:09:07.
