data_PCOD9170665
_publ_section_title
;
Structure prediction by ZEFSAII (Michael W. Deem and Ramdas Pophale) SiO2 
 PCOD9170665
Probable space group: C 2/M
;
_chemical_formula_sum "Si O2"
_cell_formula_units_Z 56
_cell_length_a 25.073549
_cell_length_b 20.956401
_cell_length_c 9.317017
_cell_angle_alpha 90.000000
_cell_angle_beta 147.324961
_cell_angle_gamma 90.000000
_cell_volume 2643.026636
_symmetry_space_group_name_H-M "C 2/M"
_symmetry_group_IT_number 12
_symmetry_cell_setting 'monoclinic'
loop_
_space_group_symop_operation_xyz
x,y,z
-x,y,-z
-x,-y,-z
x,-y,z
1/2+x,1/2+y,z
1/2-x,1/2+y,-z
1/2-x,1/2-y,-z
1/2+x,1/2-y,z
loop_
_atom_site_type_symbol
_atom_site_label
_atom_site_fract_x
_atom_site_fract_y
_atom_site_fract_z
Si Si1 0.896962 0.859793 0.215589
Si Si2 0.107818 0.731729 0.980450
Si Si3 0.383813 0.569046 0.689007
Si Si4 0.275345 0.820359 0.000517
Si Si5 0.748322 0.071902 0.663310
Si Si6 0.399152 0.830661 0.554099
Si Si7 0.382939 0.287718 0.699988
O O1 0.918885 0.790709 0.188347
O O2 0.000000 0.887678 0.500000
O O3 0.825081 0.856138 0.189573
O O4 0.833043 0.898637 0.956796
O O5 0.180132 0.686363 0.055094
O O6 0.014684 0.686919 0.810208
O O7 0.153723 0.765853 0.224873
O O8 0.369849 0.500000 0.579957
O O9 0.303562 0.569002 0.636174
O O10 0.369067 0.641755 0.606117
O O11 0.500000 0.568086 0.000000
O O12 0.358913 0.843543 0.303150
O O13 0.250000 0.750000 0.000000
O O14 0.650211 0.115198 0.457818
O O15 0.723914 0.000000 0.652033
O O16 0.356279 0.765050 0.522917
O O17 0.500000 0.284489 0.000000
#
# Coordination Sequence:
#
# PCOD9170665 Si02
#       7
#     8   8   8   8   8   8   8
#     4  10  19  33  52  79 110 145 190 233 283 338
#     4  10  17  33  54  82 118 145 178 233 292 337
#     4   9  17  33  51  71 108 154 188 223 276 339
#     4   9  18  32  49  78 112 151 178 224 289 344
#     4  10  21  37  54  78 113 154 196 233 283 347
#     4  10  20  33  55  83 114 145 189 240 281 333
#     4   9  18  31  52  84 111 138 185 237 280 328
#
# _framework density 21.187830999999999
#
# number of rings (size 3 to 8) (size 9 to 14) (size 15 to 20)
#    0.000    2.429    1.429    2.143    0.000    0.857 
#    0.000    0.000    0.000   10.714    0.000    1.000 
#    0.000    0.000    0.000    0.000    0.000    1.143 
#
# Total GULP energy -155919.721367 kJ/mol
# GULP energy per Si atom -5568.561477 kJ/mol
# Density = 2.113961 g / cm^3
# Si number density = 21.187831 Si / 1000 Ang^3
#
#
#
# Elastic Constant Matrix: (Units=GPa)
#
#
# Indices 1 2 3 4 5 6 
#
# 1 61.3460 15.8904 24.7454 0.0000 6.2238 0.0000
# 2 15.8904 122.8174 37.9335 0.0000 13.4766 0.0000
# 3 24.7454 37.9335 83.9414 0.0000 17.0086 0.0000
# 4 0.0000 0.0000 0.0000 93.5612 0.0000 3.8036
# 5 6.2238 13.4766 17.0086 0.0000 32.2339 0.0000
# 6 0.0000 0.0000 0.0000 3.8036 0.0000 12.3351
#
#
#
# Elastic Compliance Matrix: (Units=1/GPa)
#
#
# Indices 1 2 3 4 5 6 
#
# 1 0.018584 -0.000794 -0.004994 0.000000 -0.000621 0.000000
# 2 -0.000794 0.009602 -0.003721 0.000000 -0.001898 0.000000
# 3 -0.004994 -0.003721 0.016299 0.000000 -0.006080 0.000000
# 4 0.000000 0.000000 0.000000 0.010824 0.000000 -0.003338
# 5 -0.000621 -0.001898 -0.006080 0.000000 0.035145 0.000000
# 6 0.000000 0.000000 0.000000 -0.003338 0.000000 0.082099
#
#
# Mechanical properties :
#
#
# Convention : Reuss Voigt Hill
#
# Bulk Modulus (GPa) = 39.26462 47.24927 43.25694
# Shear Modulus (GPa) = 24.99260 40.26173 32.62716
#
# Velocity S-wave (km/s) = 3.43822 4.36389 3.92841
# Velocity P-wave (km/s) = 5.85950 6.90941 6.40600
#
# Compressibility (1/GPa) = 0.02546822
#
# Stress axis : x y z
#
# Youngs Moduli (GPa) = 53.80961 104.14127 61.35467
#
# Poissons Ratio (x) = 0.08268 0.30639
# Poissons Ratio (y) = 0.04272 0.22828
# Poissons Ratio (z) = 0.26872 0.38748
#
# Static dielectric constant tensor:
#      x y z
#    x 1.871390 0.000000 0.021610 
#    y 0.000000 1.785410 0.000000 
#    z 0.021610 0.000000 1.828310 
# 
# From -- ./inp_files/178296.got.cif
#   From: 2010.05.17/outbox.cif.g08.bks.cpg/sg12_90_cif.got.tgz:178296.got - 2010.06.03 13:09:07.
