data_PCOD9170153
_publ_section_title
;
Structure prediction by ZEFSAII (Michael W. Deem and Ramdas Pophale) SiO2 
 PCOD9170153
Probable space group: C 2/M
;
_chemical_formula_sum "Si O2"
_cell_formula_units_Z 64
_cell_length_a 18.850736
_cell_length_b 23.346465
_cell_length_c 12.367764
_cell_angle_alpha 90.000000
_cell_angle_beta 49.159603
_cell_angle_gamma 90.000000
_cell_volume 4117.837254
_symmetry_space_group_name_H-M "C 2/M"
_symmetry_group_IT_number 12
_symmetry_cell_setting 'monoclinic'
loop_
_space_group_symop_operation_xyz
x,y,z
-x,y,-z
-x,-y,-z
x,-y,z
1/2+x,1/2+y,z
1/2-x,1/2+y,-z
1/2-x,1/2-y,-z
1/2+x,1/2-y,z
loop_
_atom_site_type_symbol
_atom_site_label
_atom_site_fract_x
_atom_site_fract_y
_atom_site_fract_z
Si Si1 0.773973 0.662248 0.118979
Si Si2 0.549537 0.235342 0.063823
Si Si3 0.696276 0.661641 0.952776
Si Si4 0.656505 0.770339 0.317033
Si Si5 0.046377 0.932237 0.069881
Si Si6 0.472386 0.611215 0.363428
Si Si7 0.150107 0.067863 0.326258
Si Si8 0.030261 0.248954 0.634661
O O1 0.714542 0.711994 0.238501
O O2 0.742908 0.602766 0.203046
O O3 0.881936 0.680858 0.014942
O O4 0.741196 0.662777 0.026877
O O5 0.476994 0.231010 0.234838
O O6 0.500000 0.246744 0.000000
O O7 0.617703 0.288432 0.026071
O O8 0.775430 0.678862 0.787752
O O9 0.642729 0.602849 0.984327
O O10 0.615887 0.772373 0.478069
O O11 0.566194 0.767279 0.328508
O O12 0.980697 0.909949 0.232685
O O13 0.060620 0.000000 0.067913
O O14 0.000000 0.920848 0.000000
O O15 0.568335 0.591147 0.327311
O O16 0.388712 0.583886 0.516355
O O17 0.466198 0.679813 0.374326
O O18 0.158451 0.000000 0.306169
#
# Coordination Sequence:
#
# PCOD9170153 Si02
#       8
#     8   8   8   8   8   8   8   8
#     4  11  18  33  49  75  99 130 166 207 244 283
#     4  11  21  33  49  72 103 131 163 202 254 297
#     4  11  19  32  52  73  98 132 171 204 233 292
#     4  10  17  30  49  73  97 127 168 201 244 284
#     4  11  22  34  49  72 105 139 164 194 244 298
#     4  11  18  30  47  74 107 130 161 194 247 302
#     4  11  19  29  49  75 100 129 164 205 245 290
#     4  11  17  30  51  73 102 135 156 202 250 294
#
# _framework density 15.54214
#
# number of rings (size 3 to 8) (size 9 to 14) (size 15 to 20)
#    0.000    1.125    7.500    3.375    0.000    0.000 
#    0.000    3.750    0.000    0.375    0.000    2.625 
#    0.000    0.000    0.000    0.000    0.000    0.000 
#
# Total GULP energy -178593.152952 kJ/mol
# GULP energy per Si atom -5581.036030 kJ/mol
# Density = 1.550677 g / cm^3
# Si number density = 15.542140 Si / 1000 Ang^3
#
#
#
# Elastic Constant Matrix: (Units=GPa)
#
#
# Indices 1 2 3 4 5 6 
#
# 1 24.3822 8.9637 24.7895 0.0000 11.7962 0.0000
# 2 8.9637 56.9202 37.6500 0.0000 -3.6666 0.0000
# 3 24.7895 37.6500 139.5177 0.0000 17.0689 0.0000
# 4 0.0000 0.0000 0.0000 18.0685 0.0000 0.5351
# 5 11.7962 -3.6666 17.0689 0.0000 21.6823 0.0000
# 6 0.0000 0.0000 0.0000 0.5351 0.0000 11.6417
#
#
#
# Elastic Compliance Matrix: (Units=1/GPa)
#
#
# Indices 1 2 3 4 5 6 
#
# 1 0.065645 -0.009064 -0.005158 0.000000 -0.033186 0.000000
# 2 -0.009064 0.024364 -0.006719 0.000000 0.014340 0.000000
# 3 -0.005158 -0.006719 0.010726 0.000000 -0.006774 0.000000
# 4 0.000000 0.000000 0.000000 0.055420 0.000000 -0.002547
# 5 -0.033186 0.014340 -0.006774 0.000000 0.071933 0.000000
# 6 0.000000 0.000000 0.000000 -0.002547 0.000000 0.086015
#
#
# Mechanical properties :
#
#
# Convention : Reuss Voigt Hill
#
# Bulk Modulus (GPa) = 16.99119 40.40293 28.69706
# Shear Modulus (GPa) = 13.31199 20.23963 16.77581
#
# Velocity S-wave (km/s) = 2.92979 3.61257 3.28895
# Velocity P-wave (km/s) = 4.73297 6.59190 5.73821
#
# Compressibility (1/GPa) = 0.05885404
#
# Stress axis : x y z
#
# Youngs Moduli (GPa) = 15.23342 41.04478 93.23326
#
# Poissons Ratio (x) = 0.37202 0.48088
# Poissons Ratio (y) = 0.13807 0.62640
# Poissons Ratio (z) = 0.07857 0.27577
#
# Static dielectric constant tensor:
#      x y z
#    x 1.507360 0.000000 0.010170 
#    y 0.000000 1.508230 0.000000 
#    z 0.010170 0.000000 1.547580 
# 
# From -- ./inp_files/160285.got.cif
#   From: 2010.05.17/outbox.cif.g08.bks.cpg/sg12_81_cif.got.tgz:160285.got - 2010.06.03 13:09:07.
