data_PCOD9170287
_publ_section_title
;
Structure prediction by ZEFSAII (Michael W. Deem and Ramdas Pophale) SiO2 
 PCOD9170287
Probable space group: C 2/M
;
_chemical_formula_sum "Si O2"
_cell_formula_units_Z 64
_cell_length_a 13.966830
_cell_length_b 21.243664
_cell_length_c 12.570627
_cell_angle_alpha 90.000000
_cell_angle_beta 65.094533
_cell_angle_gamma 90.000000
_cell_volume 3382.932519
_symmetry_space_group_name_H-M "C 2/M"
_symmetry_group_IT_number 12
_symmetry_cell_setting 'monoclinic'
loop_
_space_group_symop_operation_xyz
x,y,z
-x,y,-z
-x,-y,-z
x,-y,z
1/2+x,1/2+y,z
1/2-x,1/2+y,-z
1/2-x,1/2-y,-z
1/2+x,1/2-y,z
loop_
_atom_site_type_symbol
_atom_site_label
_atom_site_fract_x
_atom_site_fract_y
_atom_site_fract_z
Si Si1 0.665357 0.835542 0.641161
Si Si2 0.098056 0.210633 0.166310
Si Si3 0.517076 0.153148 0.118589
Si Si4 0.873247 0.149641 0.058583
Si Si5 0.115418 0.209168 0.401359
Si Si6 0.666234 0.074412 0.196754
Si Si7 0.156703 0.356668 0.418173
Si Si8 0.628864 0.694718 0.718525
O O1 0.596441 0.857742 0.772581
O O2 0.791476 0.833277 0.593482
O O3 0.626871 0.871200 0.553252
O O4 0.640837 0.759914 0.650044
O O5 0.061505 0.279218 0.140663
O O6 0.142916 0.210330 0.262561
O O7 0.989530 0.172318 0.237031
O O8 0.156599 0.178436 0.041459
O O9 0.598078 0.103468 0.132123
O O10 0.500000 0.153362 0.000000
O O11 0.788686 0.095788 0.124052
O O12 0.857257 0.201205 0.160095
O O13 0.000000 0.134665 0.000000
O O14 0.124058 0.283751 0.421083
O O15 0.000000 0.190133 0.500000
O O16 0.626935 0.104358 0.327899
O O17 0.657657 0.000000 0.204397
O O18 0.283760 0.353740 0.358006
#
# Coordination Sequence:
#
# PCOD9170287 Si02
#       8
#     8   8   8   8   8   8   8   8
#     4  10  20  33  53  82 118 158 186 225 295 359
#     4  10  17  30  54  87 121 150 184 223 298 370
#     4  11  23  39  58  83 123 159 198 245 296 350
#     4   9  19  35  59  88 123 146 183 243 306 368
#     4  11  19  29  54  90 123 152 185 226 294 374
#     4  11  25  42  60  82 109 157 214 256 288 333
#     4  10  19  35  53  76 117 150 188 235 287 344
#     4   8  15  30  47  81 116 149 172 219 282 357
#
# _framework density 18.918498
#
# number of rings (size 3 to 8) (size 9 to 14) (size 15 to 20)
#    0.000    2.000    1.250    5.625    1.750    1.000 
#    0.000    1.250    0.000    0.000    0.000    0.000 
#    0.000    5.000    0.000    0.000    0.000    0.000 
#
# Total GULP energy -178154.347590 kJ/mol
# GULP energy per Si atom -5567.323362 kJ/mol
# Density = 1.887544 g / cm^3
# Si number density = 18.918498 Si / 1000 Ang^3
#
#
#
# Elastic Constant Matrix: (Units=GPa)
#
#
# Indices 1 2 3 4 5 6 
#
# 1 77.1996 30.7995 47.6204 0.0000 -2.1659 0.0000
# 2 30.7995 44.7204 25.9365 0.0000 1.5597 0.0000
# 3 47.6204 25.9365 150.5320 0.0000 21.5987 0.0000
# 4 0.0000 0.0000 0.0000 9.6536 0.0000 0.8882
# 5 -2.1659 1.5597 21.5987 0.0000 41.7127 0.0000
# 6 0.0000 0.0000 0.0000 0.8882 0.0000 7.9891
#
#
#
# Elastic Compliance Matrix: (Units=1/GPa)
#
#
# Indices 1 2 3 4 5 6 
#
# 1 0.020887 -0.011498 -0.005232 0.000000 0.004224 0.000000
# 2 -0.011498 0.031248 -0.001613 0.000000 -0.000930 0.000000
# 3 -0.005232 -0.001613 0.009297 0.000000 -0.005026 0.000000
# 4 0.000000 0.000000 0.000000 0.104658 0.000000 -0.011635
# 5 0.004224 -0.000930 -0.005026 0.000000 0.026830 0.000000
# 6 0.000000 0.000000 0.000000 -0.011635 0.000000 0.126464
#
#
# Mechanical properties :
#
#
# Convention : Reuss Voigt Hill
#
# Bulk Modulus (GPa) = 40.41181 53.46277 46.93729
# Shear Modulus (GPa) = 13.72425 23.07746 18.40085
#
# Velocity S-wave (km/s) = 2.69632 3.49640 3.12210
# Velocity P-wave (km/s) = 5.57682 6.67987 6.15311
#
# Compressibility (1/GPa) = 0.02474524
#
# Stress axis : x y z
#
# Youngs Moduli (GPa) = 47.87758 32.00227 107.55668
#
# Poissons Ratio (x) = 0.36795 0.56278
# Poissons Ratio (y) = 0.55047 0.17352
# Poissons Ratio (z) = 0.25052 0.05163
#
# Static dielectric constant tensor:
#      x y z
#    x 1.759980 0.000000 0.011940 
#    y 0.000000 1.607500 0.000000 
#    z 0.011940 0.000000 1.745800 
# 
# From -- ./inp_files/148643.got.cif
#   From: 2010.05.17/outbox.cif.g08.bks.cpg/sg12_75_cif.got.tgz:148643.got - 2010.06.03 13:09:07.
