data_PCOD9170993
_publ_section_title
;
Structure prediction by ZEFSAII (Michael W. Deem and Ramdas Pophale) SiO2 
 PCOD9170993
Probable space group: C 2/M
;
_chemical_formula_sum "Si O2"
_cell_formula_units_Z 64
_cell_length_a 27.526199
_cell_length_b 7.791687
_cell_length_c 18.029851
_cell_angle_alpha 90.000000
_cell_angle_beta 100.777508
_cell_angle_gamma 90.000000
_cell_volume 3798.751423
_symmetry_space_group_name_H-M "C 2/M"
_symmetry_group_IT_number 12
_symmetry_cell_setting 'monoclinic'
loop_
_space_group_symop_operation_xyz
x,y,z
-x,y,-z
-x,-y,-z
x,-y,z
1/2+x,1/2+y,z
1/2-x,1/2+y,-z
1/2-x,1/2-y,-z
1/2+x,1/2-y,z
loop_
_atom_site_type_symbol
_atom_site_label
_atom_site_fract_x
_atom_site_fract_y
_atom_site_fract_z
Si Si1 0.055620 0.707438 0.529082
Si Si2 0.219823 0.799142 0.161200
Si Si3 0.807315 0.793868 0.001318
Si Si4 0.357808 0.789502 0.556277
Si Si5 0.831823 0.200963 0.164832
Si Si6 0.716485 0.199114 0.587922
Si Si7 0.184586 0.695561 0.309298
Si Si8 0.629601 0.295004 0.672596
O O1 0.055372 0.500000 0.526902
O O2 0.093989 0.765136 0.475908
O O3 0.079129 0.760113 0.614371
O O4 0.000000 0.768722 0.500000
O O5 0.186671 0.735577 0.082124
O O6 0.274123 0.713642 0.173900
O O7 0.193832 0.780195 0.232797
O O8 0.229901 0.000000 0.151728
O O9 0.813803 0.000000 0.004266
O O10 0.750000 0.750000 0.000000
O O11 0.835072 0.724316 0.082366
O O12 0.309778 0.735982 0.494431
O O13 0.352688 0.730793 0.639521
O O14 0.356995 0.000000 0.556267
O O15 0.864697 0.270291 0.241660
O O16 0.844017 0.000000 0.162143
O O17 0.762874 0.299541 0.632901
O O18 0.672777 0.210102 0.636112
O O19 0.730687 0.000000 0.583324
O O20 0.170419 0.500000 0.290133
O O21 0.638461 0.500000 0.674701
#
# Coordination Sequence:
#
# PCOD9170993 Si02
#       8
#     8   8   8   8   8   8   8   8
#     4   9  18  34  52  65  81 106 136 172 213 254
#     4  10  18  26  38  56  80 112 147 177 204 236
#     4   8  15  26  38  53  75 107 143 175 205 238
#     4   8  17  30  43  60  79 104 137 171 207 251
#     4   9  16  27  41  57  81 110 141 174 208 246
#     4  10  18  29  42  57  81 110 144 177 204 237
#     4  11  19  27  39  56  83 113 141 171 205 244
#     4  10  18  27  43  66  88 110 137 169 209 252
#
# _framework density 16.847640999999999
#
# number of rings (size 3 to 8) (size 9 to 14) (size 15 to 20)
#    0.000    2.625    1.250    2.625    0.000    1.250 
#    0.000    5.625    0.000    0.000    0.000    0.000 
#    0.000    1.000    0.000   12.500    0.000    0.000 
#
# Total GULP energy -178201.778375 kJ/mol
# GULP energy per Si atom -5568.805574 kJ/mol
# Density = 1.680929 g / cm^3
# Si number density = 16.847641 Si / 1000 Ang^3
#
#
#
# Elastic Constant Matrix: (Units=GPa)
#
#
# Indices 1 2 3 4 5 6 
#
# 1 51.9204 -0.7602 47.3565 0.0000 7.8647 0.0000
# 2 -0.7602 29.1018 -0.9245 0.0000 -0.7310 0.0000
# 3 47.3565 -0.9245 164.4937 0.0000 3.1463 0.0000
# 4 0.0000 0.0000 0.0000 9.8602 0.0000 -1.0304
# 5 7.8647 -0.7310 3.1463 0.0000 15.4296 0.0000
# 6 0.0000 0.0000 0.0000 -1.0304 0.0000 7.3241
#
#
#
# Elastic Compliance Matrix: (Units=1/GPa)
#
#
# Indices 1 2 3 4 5 6 
#
# 1 0.028462 0.000168 -0.007947 0.000000 -0.012879 0.000000
# 2 0.000168 0.034408 0.000116 0.000000 0.001521 0.000000
# 3 -0.007947 0.000116 0.008323 0.000000 0.002359 0.000000
# 4 0.000000 0.000000 0.000000 0.102931 0.000000 0.014482
# 5 -0.012879 0.001521 0.002359 0.000000 0.070966 0.000000
# 6 0.000000 0.000000 0.000000 0.014482 0.000000 0.138573
#
#
# Mechanical properties :
#
#
# Convention : Reuss Voigt Hill
#
# Bulk Modulus (GPa) = 17.89979 37.42881 27.66430
# Shear Modulus (GPa) = 11.97285 19.84572 15.90929
#
# Velocity S-wave (km/s) = 2.66870 3.43585 3.07629
# Velocity P-wave (km/s) = 4.48816 6.16477 5.39203
#
# Compressibility (1/GPa) = 0.05586658
#
# Stress axis : x y z
#
# Youngs Moduli (GPa) = 35.13501 29.06267 120.15529
#
# Poissons Ratio (x) = -0.00487 0.95483
# Poissons Ratio (y) = -0.00589 -0.01395
# Poissons Ratio (z) = 0.27920 -0.00337
#
# Static dielectric constant tensor:
#      x y z
#    x 1.533950 0.000000 -0.002850 
#    y 0.000000 1.636330 0.000000 
#    z -0.002850 0.000000 1.651120 
# 
# From -- ./inp_files/291606.got.cif
#   From: 2010.05.17/outbox.cif.g08.bks.cpg/sg12_146_cif.got.tgz:291606.got - 2010.06.03 13:09:07.
