data_PCOD9170657
_publ_section_title
;
Structure prediction by ZEFSAII (Michael W. Deem and Ramdas Pophale) SiO2 
 PCOD9170657
Probable space group: C 2/M
;
_chemical_formula_sum "Si O2"
_cell_formula_units_Z 64
_cell_length_a 30.359606
_cell_length_b 14.697225
_cell_length_c 9.790160
_cell_angle_alpha 90.000000
_cell_angle_beta 54.787835
_cell_angle_gamma 90.000000
_cell_volume 3569.071728
_symmetry_space_group_name_H-M "C 2/M"
_symmetry_group_IT_number 12
_symmetry_cell_setting 'monoclinic'
loop_
_space_group_symop_operation_xyz
x,y,z
-x,y,-z
-x,-y,-z
x,-y,z
1/2+x,1/2+y,z
1/2-x,1/2+y,-z
1/2-x,1/2-y,-z
1/2+x,1/2-y,z
loop_
_atom_site_type_symbol
_atom_site_label
_atom_site_fract_x
_atom_site_fract_y
_atom_site_fract_z
Si Si1 0.404441 0.392963 0.357883
Si Si2 0.036944 0.671033 0.320644
Si Si3 0.138957 0.603265 0.976420
Si Si4 0.188047 0.101460 0.956146
Si Si5 0.010591 0.209088 0.131504
Si Si6 0.709697 0.833199 0.102013
Si Si7 0.130682 0.788529 0.843218
Si Si8 0.120933 0.201960 0.313778
O O1 0.393272 0.500000 0.358860
O O2 0.468278 0.372076 0.224893
O O3 0.374995 0.329000 0.297973
O O4 0.388949 0.358077 0.535802
O O5 0.083478 0.614225 0.162376
O O6 0.001821 0.716878 0.264125
O O7 0.067552 0.754087 0.343613
O O8 0.000000 0.623975 0.500000
O O9 0.145059 0.500000 0.917351
O O10 0.185334 0.627749 0.004665
O O11 0.136610 0.680750 0.863305
O O12 0.152153 0.143835 0.142655
O O13 0.169366 0.000000 0.960763
O O14 0.250534 0.101275 0.888398
O O15 0.177844 0.163525 0.843066
O O16 0.073645 0.184042 0.017435
O O17 0.000000 0.249156 0.000000
O O18 0.659901 0.788674 0.272008
O O19 0.750000 0.750000 0.000000
#
# Coordination Sequence:
#
# PCOD9170657 Si02
#       8
#     8   8   8   8   8   8   8   8
#     4  11  22  34  52  80 114 149 178 215 270 331
#     4  10  17  33  53  78 109 142 178 224 275 311
#     4  10  19  34  58  81 104 138 187 228 268 322
#     4  11  19  32  57  82 106 137 178 221 266 328
#     4   9  18  32  51  74 107 151 179 210 259 320
#     4   9  17  34  56  80 105 134 174 221 276 314
#     4  10  20  36  52  78 109 145 179 223 267 312
#     4  10  19  34  52  79 110 143 177 219 271 322
#
# _framework density 17.931833000000001
#
# number of rings (size 3 to 8) (size 9 to 14) (size 15 to 20)
#    0.000    2.000    6.250    1.125    0.000    3.000 
#    0.000    1.250    0.000   27.750    0.000    0.000 
#    0.000    0.000    0.000    0.000    0.000    0.000 
#
# Total GULP energy -178158.890151 kJ/mol
# GULP energy per Si atom -5567.465317 kJ/mol
# Density = 1.789102 g / cm^3
# Si number density = 17.931833 Si / 1000 Ang^3
#
#
#
# Elastic Constant Matrix: (Units=GPa)
#
#
# Indices 1 2 3 4 5 6 
#
# 1 81.8323 34.7139 19.0634 0.0000 10.1736 0.0000
# 2 34.7139 120.4014 19.2955 0.0000 12.5196 0.0000
# 3 19.0634 19.2955 46.9281 0.0000 17.4086 0.0000
# 4 0.0000 0.0000 0.0000 12.7978 0.0000 1.2114
# 5 10.1736 12.5196 17.4086 0.0000 18.9122 0.0000
# 6 0.0000 0.0000 0.0000 1.2114 0.0000 15.1725
#
#
#
# Elastic Compliance Matrix: (Units=1/GPa)
#
#
# Indices 1 2 3 4 5 6 
#
# 1 0.014838 -0.003440 -0.003792 0.000000 -0.002214 0.000000
# 2 -0.003440 0.009875 -0.001404 0.000000 -0.003395 0.000000
# 3 -0.003792 -0.001404 0.033902 0.000000 -0.028238 0.000000
# 4 0.000000 0.000000 0.000000 0.078733 0.000000 -0.006286
# 5 -0.002214 -0.003395 -0.028238 0.000000 0.082307 0.000000
# 6 0.000000 0.000000 0.000000 -0.006286 0.000000 0.066411
#
#
# Mechanical properties :
#
#
# Convention : Reuss Voigt Hill
#
# Bulk Modulus (GPa) = 24.18722 43.92305 34.05514
# Shear Modulus (GPa) = 15.76697 21.11576 18.44137
#
# Velocity S-wave (km/s) = 2.96847 3.43528 3.21037
# Velocity P-wave (km/s) = 5.02661 6.34685 5.72491
#
# Compressibility (1/GPa) = 0.04134415
#
# Stress axis : x y z
#
# Youngs Moduli (GPa) = 67.39433 101.26218 29.49704
#
# Poissons Ratio (x) = 0.34836 0.11184
# Poissons Ratio (y) = 0.23185 0.04140
# Poissons Ratio (z) = 0.25553 0.14214
#
# Static dielectric constant tensor:
#      x y z
#    x 1.660060 0.000000 -0.011940 
#    y 0.000000 1.620900 0.000000 
#    z -0.011940 0.000000 1.617810 
# 
# From -- ./inp_files/111628.got.cif
#   From: 2010.05.17/outbox.cif.g08.bks.cpg/sg12_56_cif.got.tgz:111628.got - 2010.06.03 13:09:07.
