data_PCOD9170729
_publ_section_title
;
Structure prediction by ZEFSAII (Michael W. Deem and Ramdas Pophale) SiO2 
 PCOD9170729
Probable space group: C 2/M
;
_chemical_formula_sum "Si O2"
_cell_formula_units_Z 32
_cell_length_a 7.750723
_cell_length_b 14.524239
_cell_length_c 11.141789
_cell_angle_alpha 90.000000
_cell_angle_beta 98.248544
_cell_angle_gamma 90.000000
_cell_volume 1241.293182
_symmetry_space_group_name_H-M "C 2/M"
_symmetry_group_IT_number 12
_symmetry_cell_setting 'monoclinic'
loop_
_space_group_symop_operation_xyz
x,y,z
-x,y,-z
-x,-y,-z
x,-y,z
1/2+x,1/2+y,z
1/2-x,1/2+y,-z
1/2-x,1/2-y,-z
1/2+x,1/2-y,z
loop_
_atom_site_type_symbol
_atom_site_label
_atom_site_fract_x
_atom_site_fract_y
_atom_site_fract_z
Si Si1 0.738687 0.358518 0.473415
Si Si2 0.276525 0.227335 0.140839
Si Si3 0.519628 0.391562 0.755517
Si Si4 0.475316 0.900018 0.705459
O O1 0.750000 0.250000 0.500000
O O2 0.560334 0.380383 0.386256
O O3 0.879367 0.386331 0.385894
O O4 0.804034 0.400668 0.604081
O O5 0.312987 0.326646 0.206572
O O6 0.127191 0.157634 0.173971
O O7 0.456289 0.174042 0.192177
O O8 0.250000 0.250000 0.000000
O O9 0.541233 0.500000 0.784223
O O10 0.490936 0.000000 0.763676
#
# Coordination Sequence:
#
# PCOD9170729 Si02
#       4
#     8   8   8   8
#     4  10  17  33  61  90 120 157 202 262 318 372
#     4  11  23  40  65  95 128 169 217 263 311 377
#     4  11  24  44  69  96 128 170 214 265 324 380
#     4  10  20  36  60  89 118 161 208 253 315 379
#
# _framework density 25.779564000000001
#
# number of rings (size 3 to 8) (size 9 to 14) (size 15 to 20)
#    0.000    1.500    2.500    6.000    0.000    3.000 
#    0.000    2.500    0.000   13.500    0.000    0.000 
#    0.000    0.000    0.000    0.000    0.000    0.000 
#
# Total GULP energy -89469.096148 kJ/mol
# GULP energy per Si atom -5591.818509 kJ/mol
# Density = 2.572089 g / cm^3
# Si number density = 25.779564 Si / 1000 Ang^3
#
#
#
# Elastic Constant Matrix: (Units=GPa)
#
#
# Indices 1 2 3 4 5 6 
#
# 1 137.8207 12.4908 37.8366 0.0000 19.2334 0.0000
# 2 12.4908 251.7814 55.3875 0.0000 18.0524 0.0000
# 3 37.8366 55.3875 212.3507 0.0000 32.0712 0.0000
# 4 0.0000 0.0000 0.0000 -44.2430 0.0000 -15.4813
# 5 19.2334 18.0524 32.0712 0.0000 35.8525 0.0000
# 6 0.0000 0.0000 0.0000 -15.4813 0.0000 30.7900
#
#
#
# Elastic Compliance Matrix: (Units=1/GPa)
#
#
# Indices 1 2 3 4 5 6 
#
# 1 0.007989 0.000055 -0.000909 0.000000 -0.003500 0.000000
# 2 0.000055 0.004268 -0.000918 0.000000 -0.001357 0.000000
# 3 -0.000909 -0.000918 0.005743 0.000000 -0.004187 0.000000
# 4 0.000000 0.000000 0.000000 -0.019221 0.000000 -0.009664
# 5 -0.003500 -0.001357 -0.004187 0.000000 0.034199 0.000000
# 6 0.000000 0.000000 0.000000 -0.009664 0.000000 0.027619
#
#
# Mechanical properties :
#
#
# Convention : Reuss Voigt Hill
#
# Bulk Modulus (GPa) = 69.17969 90.37584 79.77776
# Shear Modulus (GPa) = 72.50522 37.56241 55.03382
#
# Velocity S-wave (km/s) = 5.30906 3.82129 4.62539
# Velocity P-wave (km/s) = 8.02962 7.38938 7.71614
#
# Compressibility (1/GPa) = 0.01445511
#
# Stress axis : x y z
#
# Youngs Moduli (GPa) = 125.17414 234.28781 174.12362
#
# Poissons Ratio (x) = -0.01279 0.15830
# Poissons Ratio (y) = -0.00683 0.15985
# Poissons Ratio (z) = 0.11380 0.21509
#
# Static dielectric constant tensor:
#      x y z
#    x 7.617870 0.000000 -0.609980 
#    y 0.000000 2.118000 0.000000 
#    z -0.609980 0.000000 1.998610 
# 
# From -- ./inp_files/117755.got.cif
#   From: 2010.05.17/outbox.cif.g08.bks.cpg/sg12_59_cif.got.tgz:117755.got - 2010.06.03 13:09:07.
