data_PCOD9170833
_publ_section_title
;
Structure prediction by ZEFSAII (Michael W. Deem and Ramdas Pophale) SiO2 
 PCOD9170833
Probable space group: C 2/M
;
_chemical_formula_sum "Si O2"
_cell_formula_units_Z 48
_cell_length_a 13.000804
_cell_length_b 14.601247
_cell_length_c 20.437245
_cell_angle_alpha 90.000000
_cell_angle_beta 141.921566
_cell_angle_gamma 90.000000
_cell_volume 2392.678606
_symmetry_space_group_name_H-M "C 2/M"
_symmetry_group_IT_number 12
_symmetry_cell_setting 'monoclinic'
loop_
_space_group_symop_operation_xyz
x,y,z
-x,y,-z
-x,-y,-z
x,-y,z
1/2+x,1/2+y,z
1/2-x,1/2+y,-z
1/2-x,1/2-y,-z
1/2+x,1/2-y,z
loop_
_atom_site_type_symbol
_atom_site_label
_atom_site_fract_x
_atom_site_fract_y
_atom_site_fract_z
Si Si1 0.899851 0.758704 0.890639
Si Si2 0.935349 0.603697 0.733825
Si Si3 0.028141 0.897583 0.188906
Si Si4 0.983531 0.217426 0.293488
Si Si5 0.327465 0.851156 0.032645
Si Si6 0.074749 0.893178 0.609115
O O1 0.714700 0.731107 0.816618
O O2 0.898969 0.827701 0.828695
O O3 0.010707 0.668804 0.930271
O O4 0.000000 0.805989 0.000000
O O5 0.925046 0.500000 0.703049
O O6 0.773377 0.618897 0.698527
O O7 0.939219 0.682770 0.681510
O O8 0.098065 0.613949 0.861608
O O9 0.048338 0.850579 0.269585
O O10 0.098404 0.000000 0.220508
O O11 0.829070 0.903823 0.074622
O O12 0.997895 0.172919 0.371968
O O13 0.250000 0.750000 0.000000
O O14 0.000000 0.876565 0.500000
O O15 0.044553 0.000000 0.611343
#
# Coordination Sequence:
#
# PCOD9170833 Si02
#       6
#     8   8   8   8   8   8
#     4  11  20  34  55  77 118 158 188 230 281 336
#     4  11  22  38  61  87 116 155 197 235 284 347
#     4  11  22  34  53  83 114 153 198 234 276 335
#     4  12  20  38  61  83 115 151 189 243 289 338
#     4  10  17  35  52  79 116 155 185 232 271 335
#     4  10  23  42  63  88 115 147 192 244 300 352
#
# _framework density 20.061198000000001
#
# number of rings (size 3 to 8) (size 9 to 14) (size 15 to 20)
#    0.000    1.167    6.667    2.000    0.000    1.667 
#    0.000    0.833    0.000    0.500    0.000    0.000 
#    0.000    0.000    0.000    0.000    0.000    0.000 
#
# Total GULP energy -133931.676270 kJ/mol
# GULP energy per Si atom -5580.486511 kJ/mol
# Density = 2.001554 g / cm^3
# Si number density = 20.061198 Si / 1000 Ang^3
#
#
#
# Elastic Constant Matrix: (Units=GPa)
#
#
# Indices 1 2 3 4 5 6 
#
# 1 51.5865 20.7357 8.6396 0.0000 -30.0674 0.0000
# 2 20.7357 107.0198 19.6457 0.0000 -32.5671 0.0000
# 3 8.6396 19.6457 52.7627 0.0000 -20.1327 0.0000
# 4 0.0000 0.0000 0.0000 16.2578 0.0000 -5.4289
# 5 -30.0674 -32.5671 -20.1327 0.0000 31.0759 0.0000
# 6 0.0000 0.0000 0.0000 -5.4289 0.0000 19.0956
#
#
#
# Elastic Compliance Matrix: (Units=1/GPa)
#
#
# Indices 1 2 3 4 5 6 
#
# 1 0.056106 0.008605 0.015626 0.000000 0.073427 0.000000
# 2 0.008605 0.015049 0.002899 0.000000 0.025975 0.000000
# 3 0.015626 0.002899 0.029547 0.000000 0.037300 0.000000
# 4 0.000000 0.000000 0.000000 0.067961 0.000000 0.019321
# 5 0.073427 0.025975 0.037300 0.000000 0.154609 0.000000
# 6 0.000000 0.000000 0.000000 0.019321 0.000000 0.057861
#
#
# Mechanical properties :
#
#
# Convention : Reuss Voigt Hill
#
# Bulk Modulus (GPa) = 6.45316 34.37901 20.41609
# Shear Modulus (GPa) = 13.20910 24.10906 18.65908
#
# Velocity S-wave (km/s) = 2.56879 3.47042 3.05308
# Velocity P-wave (km/s) = 3.46727 5.76478 4.75682
#
# Compressibility (1/GPa) = 0.15496286
#
# Stress axis : x y z
#
# Youngs Moduli (GPa) = 17.82338 66.44937 33.84430
#
# Poissons Ratio (x) = -0.57179 -0.52887
# Poissons Ratio (y) = -0.15337 -0.09811
# Poissons Ratio (z) = -0.27852 -0.19263
#
# Static dielectric constant tensor:
#      x y z
#    x 1.740900 0.000000 -0.003170 
#    y 0.000000 1.725200 0.000000 
#    z -0.003170 0.000000 1.753170 
# 
# From -- ./inp_files/310600.got.cif
#   From: 2010.05.17/outbox.cif.g08.bks.cpg/sg12_156_cif.got.tgz:310600.got - 2010.06.03 13:09:07.
