data_PCOD9170460
_publ_section_title
;
Structure prediction by ZEFSAII (Michael W. Deem and Ramdas Pophale) SiO2 
 PCOD9170460
Probable space group: C 2/M
;
_chemical_formula_sum "Si O2"
_cell_formula_units_Z 48
_cell_length_a 23.108099
_cell_length_b 18.903472
_cell_length_c 19.787716
_cell_angle_alpha 90.000000
_cell_angle_beta 161.675780
_cell_angle_gamma 90.000000
_cell_volume 2717.536557
_symmetry_space_group_name_H-M "C 2/M"
_symmetry_group_IT_number 12
_symmetry_cell_setting 'monoclinic'
loop_
_space_group_symop_operation_xyz
x,y,z
-x,y,-z
-x,-y,-z
x,-y,z
1/2+x,1/2+y,z
1/2-x,1/2+y,-z
1/2-x,1/2-y,-z
1/2+x,1/2-y,z
loop_
_atom_site_type_symbol
_atom_site_label
_atom_site_fract_x
_atom_site_fract_y
_atom_site_fract_z
Si Si1 0.051404 0.829040 0.634909
Si Si2 0.948676 0.421766 0.640602
Si Si3 0.284374 0.201574 0.105877
Si Si4 0.383443 0.662672 0.696702
Si Si5 0.901044 0.420613 0.039053
Si Si6 0.709546 0.187092 0.355025
O O1 0.158245 0.757653 0.774037
O O2 0.000000 0.830397 0.500000
O O3 0.869034 0.829495 0.478690
O O4 0.193313 0.892236 0.807978
O O5 0.980678 0.500000 0.646933
O O6 0.056087 0.355650 0.727851
O O7 0.027407 0.422900 0.804424
O O8 0.732240 0.402670 0.402582
O O9 0.250000 0.250000 0.000000
O O10 0.099181 0.160699 0.920797
O O11 0.348750 0.730929 0.705725
O O12 0.292137 0.674857 0.521681
O O13 0.914914 0.500000 0.026490
O O14 0.035239 0.364149 0.152136
#
# Coordination Sequence:
#
# PCOD9170460 Si02
#       6
#     8   8   8   8   8   8
#     4  12  24  36  55  85 116 154 199 230 272 337
#     4  10  20  33  57  92 118 139 183 243 290 333
#     4  12  18  36  61  83 111 152 192 235 282 333
#     4  10  17  31  60  81 105 142 189 235 284 327
#     4  10  21  37  55  82 117 151 190 235 280 330
#     4  10  18  34  56  81 105 144 193 237 273 325
#
# _framework density 17.663056000000001
#
# number of rings (size 3 to 8) (size 9 to 14) (size 15 to 20)
#    0.000    1.333    6.667    1.000    0.000    2.333 
#    0.000    4.167    0.000    0.500    0.000    1.167 
#    0.000    0.000    0.000    0.000    0.000    0.000 
#
# Total GULP energy -133811.011152 kJ/mol
# GULP energy per Si atom -5575.458798 kJ/mol
# Density = 1.762285 g / cm^3
# Si number density = 17.663056 Si / 1000 Ang^3
#
#
#
# Elastic Constant Matrix: (Units=GPa)
#
#
# Indices 1 2 3 4 5 6 
#
# 1 53.1666 30.4269 36.3702 0.0076 17.8486 0.0050
# 2 30.4269 96.1849 22.7390 0.0177 2.0966 0.0140
# 3 36.3702 22.7390 55.0451 0.0121 23.5421 0.0111
# 4 0.0076 0.0177 0.0121 15.9999 0.0076 10.5091
# 5 17.8486 2.0966 23.5421 0.0076 24.8748 0.0056
# 6 0.0050 0.0140 0.0111 10.5091 0.0056 14.7038
#
#
#
# Elastic Compliance Matrix: (Units=1/GPa)
#
#
# Indices 1 2 3 4 5 6 
#
# 1 0.039276 -0.007861 -0.018369 0.000002 -0.010134 0.000010
# 2 -0.007861 0.013642 -0.003968 -0.000010 0.008246 -0.000003
# 3 -0.018369 -0.003968 0.043955 0.000002 -0.028085 -0.000014
# 4 0.000002 -0.000010 0.000002 0.117801 -0.000020 -0.084194
# 5 -0.010134 0.008246 -0.028085 -0.000020 0.073358 0.000003
# 6 0.000010 -0.000003 -0.000014 -0.084194 0.000003 0.128184
#
#
# Mechanical properties :
#
#
# Convention : Reuss Voigt Hill
#
# Bulk Modulus (GPa) = 27.41551 42.60765 35.01158
# Shear Modulus (GPa) = 10.22973 18.77307 14.50140
#
# Velocity S-wave (km/s) = 2.40918 3.26367 2.86842
# Velocity P-wave (km/s) = 4.82638 6.19491 5.55296
#
# Compressibility (1/GPa) = 0.03647571
#
# Stress axis : x y z
#
# Youngs Moduli (GPa) = 25.46104 73.30462 22.75043
#
# Poissons Ratio (x) = 0.57623 0.41791
# Poissons Ratio (y) = 0.20014 0.09028
# Poissons Ratio (z) = 0.46770 0.29090
#
# Static dielectric constant tensor:
#      x y z
#    x 1.593100 -0.000010 0.022710 
#    y -0.000010 1.612520 0.000000 
#    z 0.022710 0.000000 1.617280 
# 
# From -- ./inp_files/285429.got.cif
#   From: 2010.05.17/outbox.cif.g08.bks.cpg/sg12_143_cif.got.tgz:285429.got - 2010.06.03 13:09:07.
