data_PCOD9171931
_publ_section_title
;
Structure prediction by ZEFSAII (Michael W. Deem and Ramdas Pophale) SiO2 
 PCOD9171931
Probable space group: C 2/M
;
_chemical_formula_sum "Si O2"
_cell_formula_units_Z 48
_cell_length_a 11.753787
_cell_length_b 31.430532
_cell_length_c 7.423692
_cell_angle_alpha 90.000000
_cell_angle_beta 134.603903
_cell_angle_gamma 90.000000
_cell_volume 1952.613097
_symmetry_space_group_name_H-M "C 2/M"
_symmetry_group_IT_number 12
_symmetry_cell_setting 'monoclinic'
loop_
_space_group_symop_operation_xyz
x,y,z
-x,y,-z
-x,-y,-z
x,-y,z
1/2+x,1/2+y,z
1/2-x,1/2+y,-z
1/2-x,1/2-y,-z
1/2+x,1/2-y,z
loop_
_atom_site_type_symbol
_atom_site_label
_atom_site_fract_x
_atom_site_fract_y
_atom_site_fract_z
Si Si1 0.738117 0.000000 0.400215
Si Si2 0.728222 0.183158 0.883846
Si Si3 0.116233 0.500000 0.848587
Si Si4 0.310313 0.234873 0.796352
Si Si5 0.926757 0.826783 0.620530
Si Si6 0.120673 0.593471 0.857292
Si Si7 0.759259 0.591043 0.604420
O O1 0.684182 0.000000 0.129449
O O2 0.818887 0.954817 0.519867
O O3 0.574922 0.000000 0.334294
O O4 0.686807 0.200539 0.036043
O O5 0.918182 0.178776 0.088878
O O6 0.701822 0.224542 0.731762
O O7 0.655178 0.136200 0.783829
O O8 0.158367 0.546604 0.816567
O O9 0.207743 0.209822 0.531456
O O10 0.500000 0.243702 0.000000
O O11 0.842414 0.870218 0.576635
O O12 0.000000 0.828811 0.500000
O O13 0.936174 0.592444 0.715919
O O14 0.218374 0.596483 0.154399
#
# Coordination Sequence:
#
# PCOD9171931 Si02
#       7
#     4   8   4   8   8   8   8
#     4   7  12  20  34  61  86 118 155 165 195 262
#     4  10  20  31  47  68  88 117 152 185 222 266
#     4   7  12  20  37  62  84 115 148 178 199 253
#     4  10  20  34  48  62  86 120 151 187 226 262
#     4  10  18  29  44  64  90 118 149 186 219 261
#     4   9  14  25  43  62  88 118 151 175 213 262
#     4   9  14  24  42  60  90 125 146 173 211 259
#
# _framework density 24.582442
#
# number of rings (size 3 to 8) (size 9 to 14) (size 15 to 20)
#    0.000    2.833    3.333    3.000    0.000    0.667 
#    0.000    4.583    0.000    0.000    0.000    0.583 
#    0.000    0.000    0.000   26.250    0.000    3.333 
#
# Total GULP energy -134015.827145 kJ/mol
# GULP energy per Si atom -5583.992798 kJ/mol
# Density = 2.452649 g / cm^3
# Si number density = 24.582442 Si / 1000 Ang^3
#
#
#
# Elastic Constant Matrix: (Units=GPa)
#
#
# Indices 1 2 3 4 5 6 
#
# 1 33.8747 16.5782 5.3684 0.0000 5.7631 0.0000
# 2 16.5782 256.4087 25.4925 0.0000 17.8646 0.0000
# 3 5.3684 25.4925 55.8212 0.0000 12.4389 0.0000
# 4 0.0000 0.0000 0.0000 -7.0844 0.0000 23.5112
# 5 5.7631 17.8646 12.4389 0.0000 22.5290 0.0000
# 6 0.0000 0.0000 0.0000 23.5112 0.0000 27.5103
#
#
#
# Elastic Compliance Matrix: (Units=1/GPa)
#
#
# Indices 1 2 3 4 5 6 
#
# 1 0.031483 -0.001501 -0.000927 0.000000 -0.006352 0.000000
# 2 -0.001501 0.004286 -0.001301 0.000000 -0.002296 0.000000
# 3 -0.000927 -0.001301 0.020885 0.000000 -0.010262 0.000000
# 4 0.000000 0.000000 0.000000 -0.036795 0.000000 0.031446
# 5 -0.006352 -0.002296 -0.010262 0.000000 0.053499 0.000000
# 6 0.000000 0.000000 0.000000 0.031446 0.000000 0.009475
#
#
# Mechanical properties :
#
#
# Convention : Reuss Voigt Hill
#
# Bulk Modulus (GPa) = 20.32728 48.99810 34.66269
# Shear Modulus (GPa) = 46.86482 28.50201 37.68342
#
# Velocity S-wave (km/s) = 4.37101 3.40876 3.91953
# Velocity P-wave (km/s) = 5.81045 5.95552 5.88343
#
# Compressibility (1/GPa) = 0.04919497
#
# Stress axis : x y z
#
# Youngs Moduli (GPa) = 31.76360 233.29293 47.88236
#
# Poissons Ratio (x) = 0.35013 0.04439
# Poissons Ratio (y) = 0.04767 0.06232
# Poissons Ratio (z) = 0.02944 0.30362
#
# Static dielectric constant tensor:
#      x y z
#    x 1.992160 0.000000 -0.059410 
#    y 0.000000 1.976710 0.000000 
#    z -0.059410 0.000000 1.929930 
# 
# From -- ./inp_files/150041.got.cif
#   From: 2010.05.17/outbox.cif.g08.bks.cpg/sg12_76_cif.got.tgz:150041.got - 2010.06.03 13:09:07.
