data_PCOD9171569
_publ_section_title
;
Structure prediction by ZEFSAII (Michael W. Deem and Ramdas Pophale) SiO2 
 PCOD9171569
Probable space group: C 2/M
;
_chemical_formula_sum "Si O2"
_cell_formula_units_Z 48
_cell_length_a 24.984919
_cell_length_b 8.947939
_cell_length_c 14.659000
_cell_angle_alpha 90.000000
_cell_angle_beta 110.787861
_cell_angle_gamma 90.000000
_cell_volume 3063.873842
_symmetry_space_group_name_H-M "C 2/M"
_symmetry_group_IT_number 12
_symmetry_cell_setting 'monoclinic'
loop_
_space_group_symop_operation_xyz
x,y,z
-x,y,-z
-x,-y,-z
x,-y,z
1/2+x,1/2+y,z
1/2-x,1/2+y,-z
1/2-x,1/2-y,-z
1/2+x,1/2-y,z
loop_
_atom_site_type_symbol
_atom_site_label
_atom_site_fract_x
_atom_site_fract_y
_atom_site_fract_z
Si Si1 0.480125 0.320322 0.769975
Si Si2 0.537289 0.820742 0.435194
Si Si3 0.378593 0.822840 0.829118
Si Si4 0.941277 0.171974 0.023965
Si Si5 0.214208 0.177321 0.341166
Si Si6 0.330844 0.822039 0.500729
O O1 0.474341 0.500000 0.769846
O O2 0.481512 0.261036 0.668468
O O3 0.425642 0.248749 0.788811
O O4 0.536658 0.280274 0.863187
O O5 0.500000 0.776964 0.500000
O O6 0.604717 0.789536 0.490412
O O7 0.531340 0.000000 0.418695
O O8 0.317617 0.761007 0.759564
O O9 0.380975 0.000000 0.822261
O O10 0.396844 0.771043 0.941201
O O11 0.921460 0.000000 0.014560
O O12 0.000000 0.173966 0.000000
O O13 0.281395 0.210230 0.397080
O O14 0.184475 0.232091 0.417101
O O15 0.206602 0.000000 0.326535
O O16 0.327025 0.000000 0.519550
#
# Coordination Sequence:
#
# PCOD9171569 Si02
#       6
#     8   8   8   8   8   8
#     4  10  19  31  46  65  91 123 156 191 229 271
#     4  10  20  33  49  69  94 124 157 193 230 270
#     4  11  19  27  43  68  95 122 152 185 231 282
#     4   8  16  29  43  62  90 120 151 185 226 278
#     4  10  18  28  45  66  92 124 154 187 228 273
#     4   9  18  31  45  65  91 122 157 189 227 275
#
# _framework density 15.666441000000001
#
# number of rings (size 3 to 8) (size 9 to 14) (size 15 to 20)
#    0.000    2.333    1.667    3.500    0.000    4.667 
#    0.000    0.000    0.000    0.000    0.000    1.167 
#    0.000    0.000    0.000    0.000    0.000    0.000 
#
# Total GULP energy -133775.617381 kJ/mol
# GULP energy per Si atom -5573.984058 kJ/mol
# Density = 1.563078 g / cm^3
# Si number density = 15.666441 Si / 1000 Ang^3
#
#
#
# Elastic Constant Matrix: (Units=GPa)
#
#
# Indices 1 2 3 4 5 6 
#
# 1 66.8067 34.8320 59.8593 0.0000 8.6508 0.0000
# 2 34.8320 64.7125 63.6861 0.0000 15.6170 0.0000
# 3 59.8593 63.6861 141.8040 0.0000 26.1818 0.0000
# 4 0.0000 0.0000 0.0000 26.6970 0.0000 3.4133
# 5 8.6508 15.6170 26.1818 0.0000 22.3920 0.0000
# 6 0.0000 0.0000 0.0000 3.4133 0.0000 13.0698
#
#
#
# Elastic Compliance Matrix: (Units=1/GPa)
#
#
# Indices 1 2 3 4 5 6 
#
# 1 0.025528 -0.006136 -0.008914 0.000000 0.004840 0.000000
# 2 -0.006136 0.029834 -0.009443 0.000000 -0.007395 0.000000
# 3 -0.008914 -0.009443 0.016839 0.000000 -0.009660 0.000000
# 4 0.000000 0.000000 0.000000 0.038751 0.000000 -0.010120
# 5 0.004840 -0.007395 -0.009660 0.000000 0.059241 0.000000
# 6 0.000000 0.000000 0.000000 -0.010120 0.000000 0.079155
#
#
# Mechanical properties :
#
#
# Convention : Reuss Voigt Hill
#
# Bulk Modulus (GPa) = 43.07573 65.56421 54.31997
# Shear Modulus (GPa) = 16.33596 20.09482 18.21539
#
# Velocity S-wave (km/s) = 3.23265 3.58532 3.41354
# Velocity P-wave (km/s) = 6.44116 7.68637 7.09115
#
# Compressibility (1/GPa) = 0.02321493
#
# Stress axis : x y z
#
# Youngs Moduli (GPa) = 39.17269 33.51894 59.38516
#
# Poissons Ratio (x) = 0.20568 0.52935
# Poissons Ratio (y) = 0.24037 0.56078
# Poissons Ratio (z) = 0.34918 0.31652
#
# Static dielectric constant tensor:
#      x y z
#    x 1.500990 0.000000 0.033050 
#    y 0.000000 1.524910 0.000000 
#    z 0.033050 0.000000 1.544700 
# 
# From -- ./inp_files/236857.got.cif
#   From: 2010.05.17/outbox.cif.g08.bks.cpg/sg12_119_cif.got.tgz:236857.got - 2010.06.03 13:09:07.
