data_PCOD9171625
_publ_section_title
;
Structure prediction by ZEFSAII (Michael W. Deem and Ramdas Pophale) SiO2 
 PCOD9171625
Probable space group: C 2/M
;
_chemical_formula_sum "Si O2"
_cell_formula_units_Z 56
_cell_length_a 24.708436
_cell_length_b 7.673939
_cell_length_c 14.619348
_cell_angle_alpha 90.000000
_cell_angle_beta 70.001112
_cell_angle_gamma 90.000000
_cell_volume 2604.836611
_symmetry_space_group_name_H-M "C 2/M"
_symmetry_group_IT_number 12
_symmetry_cell_setting 'monoclinic'
loop_
_space_group_symop_operation_xyz
x,y,z
-x,y,-z
-x,-y,-z
x,-y,z
1/2+x,1/2+y,z
1/2-x,1/2+y,-z
1/2-x,1/2-y,-z
1/2+x,1/2-y,z
loop_
_atom_site_type_symbol
_atom_site_label
_atom_site_fract_x
_atom_site_fract_y
_atom_site_fract_z
Si Si1 0.223970 0.712541 0.300269
Si Si2 0.367377 0.790015 0.784783
Si Si3 0.517937 0.786595 0.385870
Si Si4 0.814776 0.291423 0.490026
Si Si5 0.152194 0.209862 0.819641
Si Si6 0.314343 0.296251 0.999229
Si Si7 0.082715 0.708926 0.692645
O O1 0.225552 0.500000 0.301531
O O2 0.192537 0.767223 0.226601
O O3 0.183633 0.770022 0.406630
O O4 0.289711 0.772388 0.266457
O O5 0.420338 0.730736 0.690887
O O6 0.361450 0.737482 0.893227
O O7 0.368991 0.000000 0.782031
O O8 0.500000 0.731447 0.500000
O O9 0.472354 0.731593 0.333766
O O10 0.518598 0.000000 0.389230
O O11 0.822000 0.500000 0.486126
O O12 0.750000 0.250000 0.500000
O O13 0.862635 0.218818 0.395595
O O14 0.096529 0.254811 0.790918
O O15 0.153113 0.000000 0.821121
O O16 0.162708 0.277353 0.916886
O O17 0.309861 0.500000 0.018023
O O18 0.250000 0.250000 0.000000
O O19 0.081286 0.500000 0.686803
#
# Coordination Sequence:
#
# PCOD9171625 Si02
#       7
#     8   8   8   8   8   8   8
#     4   9  16  29  49  74 104 138 176 213 263 332
#     4  10  19  35  59  83 108 145 189 232 278 329
#     4   9  18  35  60  86 113 148 190 231 276 333
#     4  10  18  28  45  71 105 136 169 213 264 323
#     4  10  20  35  53  75 107 146 179 215 275 341
#     4  11  22  37  57  83 114 146 187 233 283 338
#     4  10  20  33  52  82 111 140 183 233 275 319
#
# _framework density 21.498469
#
# number of rings (size 3 to 8) (size 9 to 14) (size 15 to 20)
#    0.000    2.143    2.857    1.286    0.000    4.571 
#    0.000    2.143    0.000    7.714    0.000    0.000 
#    0.000    0.000    0.000    0.000    0.000    0.000 
#
# Total GULP energy -156033.134291 kJ/mol
# GULP energy per Si atom -5572.611939 kJ/mol
# Density = 2.144954 g / cm^3
# Si number density = 21.498469 Si / 1000 Ang^3
#
#
#
# Elastic Constant Matrix: (Units=GPa)
#
#
# Indices 1 2 3 4 5 6 
#
# 1 115.4789 2.1678 46.9013 0.0000 23.5288 0.0000
# 2 2.1678 37.6790 0.4068 0.0000 2.2548 0.0000
# 3 46.9013 0.4068 124.9848 0.0000 26.1825 0.0000
# 4 0.0000 0.0000 0.0000 15.2605 0.0000 2.1131
# 5 23.5288 2.2548 26.1825 0.0000 34.2766 0.0000
# 6 0.0000 0.0000 0.0000 2.1131 0.0000 15.2483
#
#
#
# Elastic Compliance Matrix: (Units=1/GPa)
#
#
# Indices 1 2 3 4 5 6 
#
# 1 0.010949 -0.000287 -0.003021 0.000000 -0.005190 0.000000
# 2 -0.000287 0.026664 0.000413 0.000000 -0.001873 0.000000
# 3 -0.003021 0.000413 0.010363 0.000000 -0.005869 0.000000
# 4 0.000000 0.000000 0.000000 0.066811 0.000000 -0.009258
# 5 -0.005190 -0.001873 -0.005869 0.000000 0.037343 0.000000
# 6 0.000000 0.000000 0.000000 -0.009258 0.000000 0.066864
#
#
# Mechanical properties :
#
#
# Convention : Reuss Voigt Hill
#
# Bulk Modulus (GPa) = 23.70374 41.89941 32.80157
# Shear Modulus (GPa) = 20.93407 28.20153 24.56780
#
# Velocity S-wave (km/s) = 3.12388 3.62580 3.38415
# Velocity P-wave (km/s) = 4.90522 6.08772 5.52818
#
# Compressibility (1/GPa) = 0.04218743
#
# Stress axis : x y z
#
# Youngs Moduli (GPa) = 91.33074 37.50364 96.50014
#
# Poissons Ratio (x) = 0.01075 0.29149
# Poissons Ratio (y) = 0.02619 -0.03987
# Poissons Ratio (z) = 0.27588 -0.01549
#
# Static dielectric constant tensor:
#      x y z
#    x 1.799430 0.000000 0.046180 
#    y 0.000000 1.734430 0.000000 
#    z 0.046180 0.000000 1.850560 
# 
# From -- ./inp_files/237365.got.cif
#   From: 2010.05.17/outbox.cif.g08.bks.cpg/sg12_119_cif.got.tgz:237365.got - 2010.06.03 13:09:07.
