data_PCOD9171277
_publ_section_title
;
Structure prediction by ZEFSAII (Michael W. Deem and Ramdas Pophale) SiO2 
 PCOD9171277
Probable space group: C 2/M
;
_chemical_formula_sum "Si O2"
_cell_formula_units_Z 64
_cell_length_a 28.677819
_cell_length_b 9.020585
_cell_length_c 20.373900
_cell_angle_alpha 90.000000
_cell_angle_beta 132.219465
_cell_angle_gamma 90.000000
_cell_volume 3903.236194
_symmetry_space_group_name_H-M "C 2/M"
_symmetry_group_IT_number 12
_symmetry_cell_setting 'monoclinic'
loop_
_space_group_symop_operation_xyz
x,y,z
-x,y,-z
-x,-y,-z
x,-y,z
1/2+x,1/2+y,z
1/2-x,1/2+y,-z
1/2-x,1/2-y,-z
1/2+x,1/2-y,z
loop_
_atom_site_type_symbol
_atom_site_label
_atom_site_fract_x
_atom_site_fract_y
_atom_site_fract_z
Si Si1 0.791261 0.679530 0.597770
Si Si2 0.949953 0.169898 0.371831
Si Si3 0.679246 0.824506 0.749891
Si Si4 0.415427 0.673365 0.528876
Si Si5 0.721239 0.326041 0.664194
Si Si6 0.445444 0.330416 0.207623
Si Si7 0.806261 0.820403 0.094369
Si Si8 0.072924 0.675899 0.320834
O O1 0.786053 0.500000 0.587212
O O2 0.750000 0.750000 0.500000
O O3 0.764559 0.720849 0.643993
O O4 0.864402 0.722434 0.658914
O O5 0.892664 0.276122 0.335357
O O6 0.950240 0.169772 0.291904
O O7 0.022541 0.209031 0.455013
O O8 0.936385 0.000000 0.380770
O O9 0.723044 0.768355 0.732062
O O10 0.695182 0.740955 0.832719
O O11 0.682905 0.000000 0.762078
O O12 0.422466 0.500000 0.555174
O O13 0.350007 0.686683 0.430125
O O14 0.414784 0.772309 0.592931
O O15 0.733047 0.500000 0.689668
O O16 0.450147 0.500000 0.190159
O O17 0.374425 0.276035 0.128323
O O18 0.505453 0.243008 0.237648
O O19 0.803881 0.000000 0.093119
O O20 0.750000 0.750000 0.000000
O O21 0.068501 0.500000 0.313843
#
# Coordination Sequence:
#
# PCOD9171277 Si02
#       8
#     8   8   8   8   8   8   8   8
#     4  10  20  32  48  69  94 129 174 220 260 294
#     4   8  15  29  46  64  89 125 168 203 237 288
#     4  11  22  34  48  70  99 129 161 201 247 292
#     4   9  17  29  46  64  86 127 172 205 244 294
#     4  10  20  34  48  63  91 132 173 210 250 295
#     4   8  16  30  48  71  99 131 161 189 232 294
#     4  10  20  36  58  82 105 129 158 191 235 295
#     4  10  18  27  44  71  99 126 164 215 256 285
#
# _framework density 16.396650999999999
#
# number of rings (size 3 to 8) (size 9 to 14) (size 15 to 20)
#    0.000    2.500    1.250    3.375    0.000    7.000 
#    0.000    2.500    0.000    0.000    0.000    0.875 
#    0.000    7.000    0.000    0.000    0.000    0.000 
#
# Total GULP energy -178401.633350 kJ/mol
# GULP energy per Si atom -5575.051042 kJ/mol
# Density = 1.635933 g / cm^3
# Si number density = 16.396651 Si / 1000 Ang^3
#
#
#
# Elastic Constant Matrix: (Units=GPa)
#
#
# Indices 1 2 3 4 5 6 
#
# 1 138.8551 50.7526 51.8129 0.0000 13.7725 0.0000
# 2 50.7526 57.1312 34.6341 0.0000 6.4050 0.0000
# 3 51.8129 34.6341 67.2119 0.0000 18.6769 0.0000
# 4 0.0000 0.0000 0.0000 22.7107 0.0000 1.4769
# 5 13.7725 6.4050 18.6769 0.0000 20.7658 0.0000
# 6 0.0000 0.0000 0.0000 1.4769 0.0000 23.2265
#
#
#
# Elastic Compliance Matrix: (Units=1/GPa)
#
#
# Indices 1 2 3 4 5 6 
#
# 1 0.011895 -0.007369 -0.005082 0.000000 -0.001045 0.000000
# 2 -0.007369 0.030459 -0.011682 0.000000 0.005999 0.000000
# 3 -0.005082 -0.011682 0.030501 0.000000 -0.020459 0.000000
# 4 0.000000 0.000000 0.000000 0.044215 0.000000 -0.002812
# 5 -0.001045 0.005999 -0.020459 0.000000 0.065400 0.000000
# 6 0.000000 0.000000 0.000000 -0.002812 0.000000 0.043233
#
#
# Mechanical properties :
#
#
# Convention : Reuss Voigt Hill
#
# Bulk Modulus (GPa) = 40.66848 59.73304 50.20076
# Shear Modulus (GPa) = 17.72007 21.74052 19.73029
#
# Velocity S-wave (km/s) = 3.29099 3.64526 3.47264
# Velocity P-wave (km/s) = 6.26878 7.36385 6.83827
#
# Compressibility (1/GPa) = 0.02458907
#
# Stress axis : x y z
#
# Youngs Moduli (GPa) = 84.06697 32.83086 32.78587
#
# Poissons Ratio (x) = 0.24193 0.16662
# Poissons Ratio (y) = 0.61950 0.38300
# Poissons Ratio (z) = 0.42724 0.38353
#
# Static dielectric constant tensor:
#      x y z
#    x 1.583220 0.000000 0.012370 
#    y 0.000000 1.548080 0.000000 
#    z 0.012370 0.000000 1.562500 
# 
# From -- ./inp_files/326973.got.cif
#   From: 2010.05.17/outbox.cif.g08.bks.cpg/sg12_164_cif.got.tgz:326973.got - 2010.06.03 13:09:07.
