data_PCOD9171372
_publ_section_title
;
Structure prediction by ZEFSAII (Michael W. Deem and Ramdas Pophale) SiO2 
 PCOD9171372
Probable space group: C 2/M
;
_chemical_formula_sum "Si O2"
_cell_formula_units_Z 56
_cell_length_a 19.991543
_cell_length_b 7.363000
_cell_length_c 29.496928
_cell_angle_alpha 90.000000
_cell_angle_beta 140.702481
_cell_angle_gamma 90.000000
_cell_volume 2749.918806
_symmetry_space_group_name_H-M "C 2/M"
_symmetry_group_IT_number 12
_symmetry_cell_setting 'monoclinic'
loop_
_space_group_symop_operation_xyz
x,y,z
-x,y,-z
-x,-y,-z
x,-y,z
1/2+x,1/2+y,z
1/2-x,1/2+y,-z
1/2-x,1/2-y,-z
1/2+x,1/2-y,z
loop_
_atom_site_type_symbol
_atom_site_label
_atom_site_fract_x
_atom_site_fract_y
_atom_site_fract_z
Si Si1 0.463069 0.285929 0.756862
Si Si2 0.635609 0.721259 0.203025
Si Si3 0.126168 0.278162 0.685552
Si Si4 0.319850 0.721781 0.598934
Si Si5 0.598747 0.278273 0.081438
Si Si6 0.095011 0.291314 0.456570
Si Si7 0.665622 0.782363 0.808484
O O1 0.432264 0.214354 0.790003
O O2 0.388636 0.214957 0.677432
O O3 0.583352 0.265111 0.804228
O O4 0.621967 0.000000 0.683278
O O5 0.559167 0.500000 0.253055
O O6 0.758807 0.773517 0.272491
O O7 0.595802 0.778556 0.132552
O O8 0.366100 0.500000 0.798955
O O9 0.123910 0.219732 0.737227
O O10 0.022774 0.212398 0.604795
O O11 0.320289 0.500000 0.597353
O O12 0.197763 0.784027 0.535913
O O13 0.370853 0.786116 0.578544
O O14 0.597477 0.500000 0.080300
O O15 0.713562 0.221050 0.122935
O O16 0.500000 0.216685 0.000000
O O17 0.085928 0.500000 0.466832
O O18 0.668657 0.000000 0.807531
#
# Coordination Sequence:
#
# PCOD9171372 Si02
#       7
#     8   8   8   8   8   8   8
#     4  10  18  28  41  62  92 118 138 167 214 265
#     4   8  15  26  41  61  87 115 139 170 214 256
#     4   8  13  24  42  61  78 105 146 181 205 238
#     4   9  17  25  36  59  87 111 137 173 215 255
#     4   8  14  27  48  70  86 106 143 182 207 238
#     4   9  15  25  41  59  79 107 145 183 213 240
#     4   9  16  27  46  67  84 108 144 180 208 241
#
# _framework density 20.364239000000001
#
# number of rings (size 3 to 8) (size 9 to 14) (size 15 to 20)
#    0.000    3.286    1.429    1.714    0.000    0.000 
#    0.000    1.429    0.000    9.000    0.000    0.000 
#    0.000    5.714    0.000    0.000    0.000    0.000 
#
# Total GULP energy -156096.362802 kJ/mol
# GULP energy per Si atom -5574.870100 kJ/mol
# Density = 2.031789 g / cm^3
# Si number density = 20.364239 Si / 1000 Ang^3
#
#
#
# Elastic Constant Matrix: (Units=GPa)
#
#
# Indices 1 2 3 4 5 6 
#
# 1 146.7411 -7.4051 74.4759 0.0003 4.2733 -0.0006
# 2 -7.4051 73.1494 -1.2970 0.0006 -0.6038 -0.0017
# 3 74.4759 -1.2970 135.5036 0.0000 25.5220 0.0000
# 4 0.0003 0.0006 0.0000 -1.7884 0.0001 -0.3326
# 5 4.2733 -0.6038 25.5220 0.0001 23.8962 0.0001
# 6 -0.0006 -0.0017 0.0000 -0.3326 0.0001 12.3064
#
#
#
# Elastic Compliance Matrix: (Units=1/GPa)
#
#
# Indices 1 2 3 4 5 6 
#
# 1 0.009982 0.000939 -0.006442 0.000002 0.005118 0.000001
# 2 0.000939 0.013762 -0.000523 0.000004 0.000739 0.000002
# 3 -0.006442 -0.000523 0.013396 -0.000002 -0.013168 0.000000
# 4 0.000002 0.000004 -0.000002 -0.556360 0.000003 -0.015039
# 5 0.005118 0.000739 -0.013168 0.000003 0.055015 0.000000
# 6 0.000001 0.000002 0.000000 -0.015039 0.000000 0.080852
#
#
# Mechanical properties :
#
#
# Convention : Reuss Voigt Hill
#
# Bulk Modulus (GPa) = 39.86007 54.10464 46.98235
# Shear Modulus (GPa) = -13.77648 26.19085 6.20719
#
# Velocity S-wave (km/s) = -2.60379 3.59014 1.74777
# Velocity P-wave (km/s) = 3.25214 6.61904 5.21479
#
# Compressibility (1/GPa) = 0.02508776
#
# Stress axis : x y z
#
# Youngs Moduli (GPa) = 100.17672 72.66130 74.65162
#
# Poissons Ratio (x) = -0.06820 0.48088
# Poissons Ratio (y) = -0.09402 0.03906
# Poissons Ratio (z) = 0.64530 0.03802
#
# Static dielectric constant tensor:
#      x y z
#    x 1.714110 0.000000 0.021670 
#    y 0.000000 1.799010 0.000000 
#    z 0.021670 0.000000 1.708300 
# 
# From -- ./inp_files/280414.got.cif
#   From: 2010.05.17/outbox.cif.g08.bks.cpg/sg12_141_cif.got.tgz:280414.got - 2010.06.03 13:09:07.
