data_PCOD9171711
_publ_section_title
;
Structure prediction by ZEFSAII (Michael W. Deem and Ramdas Pophale) SiO2 
 PCOD9171711
Probable space group: C 2/M
;
_chemical_formula_sum "Si O2"
_cell_formula_units_Z 48
_cell_length_a 22.451985
_cell_length_b 21.780481
_cell_length_c 14.340552
_cell_angle_alpha 90.000000
_cell_angle_beta 161.237724
_cell_angle_gamma 90.000000
_cell_volume 2255.595902
_symmetry_space_group_name_H-M "C 2/M"
_symmetry_group_IT_number 12
_symmetry_cell_setting 'monoclinic'
loop_
_space_group_symop_operation_xyz
x,y,z
-x,y,-z
-x,-y,-z
x,-y,z
1/2+x,1/2+y,z
1/2-x,1/2+y,-z
1/2-x,1/2-y,-z
1/2+x,1/2-y,z
loop_
_atom_site_type_symbol
_atom_site_label
_atom_site_fract_x
_atom_site_fract_y
_atom_site_fract_z
Si Si1 0.408017 0.757568 0.102992
Si Si2 0.145966 0.930818 0.631053
Si Si3 0.193734 0.750593 0.250056
Si Si4 0.922648 0.605815 0.190311
Si Si5 0.841103 0.102679 0.833589
Si Si6 0.866964 0.122054 0.086738
O O1 0.627367 0.740076 0.420366
O O2 0.414906 0.819785 0.171888
O O3 0.324468 0.694823 0.018850
O O4 0.297846 0.771147 0.844621
O O5 0.000000 0.926943 0.500000
O O6 0.061820 0.887724 0.427597
O O7 0.146646 0.000000 0.595544
O O8 0.335873 0.916233 0.964294
O O9 0.170362 0.824152 0.205020
O O10 0.000000 0.724799 0.000000
O O11 0.130228 0.581508 0.506572
O O12 0.791492 0.590476 0.084312
O O13 0.881065 0.097214 0.002772
O O14 0.000000 0.077834 0.000000
#
# Coordination Sequence:
#
# PCOD9171711 Si02
#       6
#     8   8   8   8   8   8
#     4  10  18  28  46  76 107 136 173 220 271 318
#     4   9  19  36  57  81 108 141 184 226 262 311
#     4   9  17  28  42  65 102 142 176 209 256 321
#     4  10  19  33  54  79 108 141 177 222 272 320
#     4   9  19  34  51  75 105 137 173 216 266 321
#     4  10  19  33  54  79 108 141 177 222 272 320
#
# _framework density 21.280407
#
# number of rings (size 3 to 8) (size 9 to 14) (size 15 to 20)
#    0.000    2.500    0.000    2.500    0.000    1.333 
#    0.000    6.667    0.000    7.000    0.000    0.000 
#    0.000    0.000    0.000    0.000    0.000    0.000 
#
# Total GULP energy -133743.572584 kJ/mol
# GULP energy per Si atom -5572.648858 kJ/mol
# Density = 2.123197 g / cm^3
# Si number density = 21.280407 Si / 1000 Ang^3
#
#
#
# Elastic Constant Matrix: (Units=GPa)
#
#
# Indices 1 2 3 4 5 6 
#
# 1 75.1309 15.3286 51.3922 0.0000 -0.0576 0.0000
# 2 15.3286 33.6779 3.4658 0.0000 -17.3428 0.0000
# 3 51.3922 3.4658 132.9232 0.0000 -14.4767 0.0000
# 4 0.0000 0.0000 0.0000 6.6944 0.0000 -6.4363
# 5 -0.0576 -17.3428 -14.4767 0.0000 24.9262 0.0000
# 6 0.0000 0.0000 0.0000 -6.4363 0.0000 -6.3690
#
#
#
# Elastic Compliance Matrix: (Units=1/GPa)
#
#
# Indices 1 2 3 4 5 6 
#
# 1 0.025850 -0.021902 -0.011824 0.000000 -0.022046 0.000000
# 2 -0.021902 0.065591 0.012514 0.000000 0.052853 0.000000
# 3 -0.011824 0.012514 0.013572 0.000000 0.016562 0.000000
# 4 0.000000 0.000000 0.000000 0.075765 0.000000 -0.076565
# 5 -0.022046 0.052853 0.016562 0.000000 0.086460 0.000000
# 6 0.000000 0.000000 0.000000 -0.076565 0.000000 -0.079637
#
#
# Mechanical properties :
#
#
# Convention : Reuss Voigt Hill
#
# Bulk Modulus (GPa) = 15.97720 42.45613 29.21666
# Shear Modulus (GPa) = 19.92908 16.48668 18.20788
#
# Velocity S-wave (km/s) = 3.06355 2.78643 2.92827
# Velocity P-wave (km/s) = 4.47638 5.50875 5.01918
#
# Compressibility (1/GPa) = 0.06258921
#
# Stress axis : x y z
#
# Youngs Moduli (GPa) = 38.68469 15.24593 73.67947
#
# Poissons Ratio (x) = 0.33391 0.87122
# Poissons Ratio (y) = 0.84726 -0.92202
# Poissons Ratio (z) = 0.45742 -0.19079
#
# Static dielectric constant tensor:
#      x y z
#    x 1.771260 0.000000 0.024170 
#    y 0.000000 1.781260 0.000000 
#    z 0.024170 0.000000 1.788280 
# 
# From -- ./inp_files/242065.got.cif
#   From: 2010.05.17/outbox.cif.g08.bks.cpg/sg12_122_cif.got.tgz:242065.got - 2010.06.03 13:09:07.
