data_PCOD9171091
_publ_section_title
;
Structure prediction by ZEFSAII (Michael W. Deem and Ramdas Pophale) SiO2 
 PCOD9171091
Probable space group: C 2/M
;
_chemical_formula_sum "Si O2"
_cell_formula_units_Z 64
_cell_length_a 33.535496
_cell_length_b 9.096589
_cell_length_c 14.370508
_cell_angle_alpha 90.000000
_cell_angle_beta 85.663243
_cell_angle_gamma 90.000000
_cell_volume 4371.295684
_symmetry_space_group_name_H-M "C 2/M"
_symmetry_group_IT_number 12
_symmetry_cell_setting 'monoclinic'
loop_
_space_group_symop_operation_xyz
x,y,z
-x,y,-z
-x,-y,-z
x,-y,z
1/2+x,1/2+y,z
1/2-x,1/2+y,-z
1/2-x,1/2-y,-z
1/2+x,1/2-y,z
loop_
_atom_site_type_symbol
_atom_site_label
_atom_site_fract_x
_atom_site_fract_y
_atom_site_fract_z
Si Si1 0.299923 0.830977 0.580914
Si Si2 0.512757 0.822084 0.227170
Si Si3 0.924376 0.321827 0.165509
Si Si4 0.545382 0.829224 0.031946
Si Si5 0.033665 0.177108 0.418694
Si Si6 0.721308 0.169343 0.636315
Si Si7 0.640623 0.324188 0.692434
Si Si8 0.120629 0.824069 0.481704
O O1 0.288449 0.829277 0.472885
O O2 0.264522 0.744140 0.638391
O O3 0.343018 0.754822 0.577338
O O4 0.301423 0.000000 0.610567
O O5 0.466756 0.787557 0.208122
O O6 0.540791 0.767589 0.136575
O O7 0.524619 0.752074 0.322277
O O8 0.515552 0.000000 0.230514
O O9 0.920605 0.500000 0.166045
O O10 0.888573 0.248764 0.227770
O O11 0.928222 0.268716 0.057405
O O12 0.557083 0.000000 0.040279
O O13 0.500000 0.828965 0.000000
O O14 0.077400 0.216994 0.449843
O O15 0.000000 0.218552 0.500000
O O16 0.032266 0.000000 0.408408
O O17 0.685282 0.258879 0.689205
O O18 0.721662 0.000000 0.666407
O O19 0.641335 0.500000 0.701858
O O20 0.624307 0.289155 0.591069
O O21 0.125615 0.000000 0.472378
#
# Coordination Sequence:
#
# PCOD9171091 Si02
#       8
#     8   8   8   8   8   8   8   8
#     4   9  16  26  41  59  78 102 136 175 207 237
#     4   9  17  29  45  62  79 104 141 180 211 242
#     4   9  16  27  43  61  82 108 136 167 209 257
#     4   7  12  25  43  60  78 102 132 167 209 254
#     4  10  20  32  43  57  82 115 146 175 210 246
#     4   9  16  26  40  58  81 108 135 163 202 250
#     4  10  18  27  40  59  84 111 140 172 203 239
#     4   9  18  30  41  54  78 114 147 172 204 245
#
# _framework density 14.640968000000001
#
# number of rings (size 3 to 8) (size 9 to 14) (size 15 to 20)
#    0.000    3.000    0.000    3.375    0.000    5.750 
#    0.000    0.625    0.000    2.250    0.000    0.000 
#    0.000    1.000    0.000    3.000    0.000    4.625 
#
# Total GULP energy -178143.895743 kJ/mol
# GULP energy per Si atom -5566.996742 kJ/mol
# Density = 1.460764 g / cm^3
# Si number density = 14.640968 Si / 1000 Ang^3
#
#
#
# Elastic Constant Matrix: (Units=GPa)
#
#
# Indices 1 2 3 4 5 6 
#
# 1 111.9260 45.9396 62.9145 0.0000 -24.6126 0.0000
# 2 45.9396 40.8104 38.4608 0.0000 -14.0804 0.0000
# 3 62.9145 38.4608 106.2118 0.0000 -20.7848 0.0000
# 4 0.0000 0.0000 0.0000 14.9193 0.0000 -4.5745
# 5 -24.6126 -14.0804 -20.7848 0.0000 22.1503 0.0000
# 6 0.0000 0.0000 0.0000 -4.5745 0.0000 19.6022
#
#
#
# Elastic Compliance Matrix: (Units=1/GPa)
#
#
# Indices 1 2 3 4 5 6 
#
# 1 0.019222 -0.014666 -0.004557 0.000000 0.007760 0.000000
# 2 -0.014666 0.051993 -0.008405 0.000000 0.008868 0.000000
# 3 -0.004557 -0.008405 0.016073 0.000000 0.004676 0.000000
# 4 0.000000 0.000000 0.000000 0.072193 0.000000 0.016848
# 5 0.007760 0.008868 0.004676 0.000000 0.063794 0.000000
# 6 0.000000 0.000000 0.000000 0.016848 0.000000 0.054946
#
#
# Mechanical properties :
#
#
# Convention : Reuss Voigt Hill
#
# Bulk Modulus (GPa) = 31.21764 61.50865 46.36314
# Shear Modulus (GPa) = 14.52838 18.77657 16.65248
#
# Velocity S-wave (km/s) = 3.15351 3.58504 3.37618
# Velocity P-wave (km/s) = 5.88455 7.69670 6.85081
#
# Compressibility (1/GPa) = 0.03203317
#
# Stress axis : x y z
#
# Youngs Moduli (GPa) = 52.02403 19.23323 62.21666
#
# Poissons Ratio (x) = 0.28208 0.28350
# Poissons Ratio (y) = 0.76299 0.52291
# Poissons Ratio (z) = 0.23706 0.16165
#
# Static dielectric constant tensor:
#      x y z
#    x 1.469430 0.000000 -0.012200 
#    y 0.000000 1.489930 0.000000 
#    z -0.012200 0.000000 1.482300 
# 
# From -- ./inp_files/248333.got.cif
#   From: 2010.05.17/outbox.cif.g08.bks.cpg/sg12_125_cif.got.tgz:248333.got - 2010.06.03 13:09:07.
