data_PCOD9171965
_publ_section_title
;
Structure prediction by ZEFSAII (Michael W. Deem and Ramdas Pophale) SiO2 
 PCOD9171965
Probable space group: C 2/M
;
_chemical_formula_sum "Si O2"
_cell_formula_units_Z 64
_cell_length_a 28.527836
_cell_length_b 8.999651
_cell_length_c 16.728645
_cell_angle_alpha 90.000000
_cell_angle_beta 86.604770
_cell_angle_gamma 90.000000
_cell_volume 4287.383205
_symmetry_space_group_name_H-M "C 2/M"
_symmetry_group_IT_number 12
_symmetry_cell_setting 'monoclinic'
loop_
_space_group_symop_operation_xyz
x,y,z
-x,y,-z
-x,-y,-z
x,-y,z
1/2+x,1/2+y,z
1/2-x,1/2+y,-z
1/2-x,1/2-y,-z
1/2+x,1/2-y,z
loop_
_atom_site_type_symbol
_atom_site_label
_atom_site_fract_x
_atom_site_fract_y
_atom_site_fract_z
Si Si1 0.007826 0.323783 0.768632
Si Si2 0.734771 0.177703 0.918162
Si Si3 0.960241 0.822804 0.070202
Si Si4 0.901178 0.676242 0.721328
Si Si5 0.570187 0.673392 0.438228
Si Si6 0.864122 0.678791 0.020847
Si Si7 0.538265 0.673499 0.609947
Si Si8 0.666895 0.321461 0.145140
O O1 0.012839 0.500000 0.778959
O O2 0.022563 0.238840 0.846705
O O3 0.038543 0.268762 0.690107
O O4 0.953162 0.292769 0.752646
O O5 0.679932 0.216725 0.916041
O O6 0.777366 0.216706 0.854496
O O7 0.736198 0.000000 0.926346
O O8 0.750000 0.250000 0.000000
O O9 0.912154 0.744969 0.048755
O O10 0.953672 0.000000 0.074687
O O11 0.000000 0.790988 0.000000
O O12 0.893893 0.500000 0.725202
O O13 0.901968 0.732848 0.629919
O O14 0.863060 0.759340 0.778750
O O15 0.584112 0.500000 0.433834
O O16 0.569496 0.722746 0.530927
O O17 0.515715 0.679487 0.415456
O O18 0.867265 0.500000 0.013058
O O19 0.852344 0.748429 0.935128
O O20 0.548493 0.500000 0.625605
O O21 0.662031 0.500000 0.140354
#
# Coordination Sequence:
#
# PCOD9171965 Si02
#       8
#     8   8   8   8   8   8   8   8
#     4  10  20  31  43  60  84 115 148 182 217 250
#     4   8  16  29  45  64  83 106 136 172 213 256
#     4  11  23  35  46  61  83 114 150 183 214 250
#     4  10  19  28  40  62  90 117 145 177 213 251
#     4   8  14  25  41  60  82 111 142 172 210 253
#     4  10  19  32  48  64  84 109 141 181 220 254
#     4   8  14  26  43  60  80 108 143 178 210 250
#     4  10  18  29  45  64  87 114 143 172 209 258
#
# _framework density 14.927519999999999
#
# number of rings (size 3 to 8) (size 9 to 14) (size 15 to 20)
#    0.000    2.625    0.000    3.375    0.000    6.000 
#    0.000    2.500    0.000    0.000    0.000    0.000 
#    0.000    1.000    0.000    3.000    0.000    4.000 
#
# Total GULP energy -178192.858058 kJ/mol
# GULP energy per Si atom -5568.526814 kJ/mol
# Density = 1.489354 g / cm^3
# Si number density = 14.927520 Si / 1000 Ang^3
#
#
#
# Elastic Constant Matrix: (Units=GPa)
#
#
# Indices 1 2 3 4 5 6 
#
# 1 92.5852 52.3620 51.5087 0.0000 -20.7847 0.0000
# 2 52.3620 55.6406 51.1471 0.0000 -13.8979 0.0000
# 3 51.5087 51.1471 105.3959 0.0000 -23.7253 0.0000
# 4 0.0000 0.0000 0.0000 21.2064 0.0000 -2.9705
# 5 -20.7847 -13.8979 -23.7253 0.0000 20.0761 0.0000
# 6 0.0000 0.0000 0.0000 -2.9705 0.0000 15.2879
#
#
#
# Elastic Compliance Matrix: (Units=1/GPa)
#
#
# Indices 1 2 3 4 5 6 
#
# 1 0.025204 -0.021432 0.000841 0.000000 0.012251 0.000000
# 2 -0.021432 0.051082 -0.015463 0.000000 -0.005100 0.000000
# 3 0.000841 -0.015463 0.019575 0.000000 0.013299 0.000000
# 4 0.000000 0.000000 0.000000 0.048475 0.000000 0.009419
# 5 0.012251 -0.005100 0.013299 0.000000 0.074679 0.000000
# 6 0.000000 0.000000 0.000000 0.009419 0.000000 0.067241
#
#
# Mechanical properties :
#
#
# Convention : Reuss Voigt Hill
#
# Bulk Modulus (GPa) = 42.10174 62.62860 52.36517
# Shear Modulus (GPa) = 13.65065 17.88769 15.76917
#
# Velocity S-wave (km/s) = 3.02729 3.46541 3.25373
# Velocity P-wave (km/s) = 6.36275 7.61960 7.01936
#
# Compressibility (1/GPa) = 0.02375199
#
# Stress axis : x y z
#
# Youngs Moduli (GPa) = 39.67568 19.57635 51.08552
#
# Poissons Ratio (x) = 0.41956 -0.04294
# Poissons Ratio (y) = 0.85032 0.78996
# Poissons Ratio (z) = -0.03335 0.30272
#
# Static dielectric constant tensor:
#      x y z
#    x 1.501970 0.000000 -0.025090 
#    y 0.000000 1.495040 0.000000 
#    z -0.025090 0.000000 1.488610 
# 
# From -- ./inp_files/248404.got.cif
#   From: 2010.05.17/outbox.cif.g08.bks.cpg/sg12_125_cif.got.tgz:248404.got - 2010.06.03 13:09:07.
