data_PCOD9171428
_publ_section_title
;
Structure prediction by ZEFSAII (Michael W. Deem and Ramdas Pophale) SiO2 
 PCOD9171428
Probable space group: C 2/M
;
_chemical_formula_sum "Si O2"
_cell_formula_units_Z 56
_cell_length_a 28.463445
_cell_length_b 7.928215
_cell_length_c 16.764558
_cell_angle_alpha 90.000000
_cell_angle_beta 64.147563
_cell_angle_gamma 90.000000
_cell_volume 3404.543814
_symmetry_space_group_name_H-M "C 2/M"
_symmetry_group_IT_number 12
_symmetry_cell_setting 'monoclinic'
loop_
_space_group_symop_operation_xyz
x,y,z
-x,y,-z
-x,-y,-z
x,-y,z
1/2+x,1/2+y,z
1/2-x,1/2+y,-z
1/2-x,1/2-y,-z
1/2+x,1/2-y,z
loop_
_atom_site_type_symbol
_atom_site_label
_atom_site_fract_x
_atom_site_fract_y
_atom_site_fract_z
Si Si1 0.013570 0.705753 0.862950
Si Si2 0.055219 0.799183 0.494490
Si Si3 0.507932 0.796642 0.686426
Si Si4 0.583429 0.793532 0.956336
Si Si5 0.811084 0.698064 0.048543
Si Si6 0.694554 0.301365 0.123948
Si Si7 0.102801 0.300958 0.303804
O O1 0.013938 0.500000 0.861514
O O2 0.059707 0.758629 0.888754
O O3 0.017336 0.764054 0.769275
O O4 0.959107 0.755726 0.945154
O O5 0.098274 0.730760 0.401828
O O6 0.000000 0.732119 0.500000
O O7 0.051897 0.752981 0.589623
O O8 0.055734 0.000000 0.487116
O O9 0.451352 0.735296 0.695913
O O10 0.505721 0.000000 0.689226
O O11 0.640789 0.730379 0.936664
O O12 0.584397 0.000000 0.956136
O O13 0.808432 0.500000 0.070194
O O14 0.752372 0.766714 0.102651
O O15 0.823353 0.716885 0.945412
O O16 0.699888 0.500000 0.102582
O O17 0.652566 0.277008 0.224012
O O18 0.104922 0.500000 0.287872
#
# Coordination Sequence:
#
# PCOD9171428 Si02
#       7
#     8   8   8   8   8   8   8
#     4   8  13  21  38  63  85 105 134 170 202 235
#     4   9  17  28  41  59  84 111 136 164 201 244
#     4   9  16  26  41  62  85 109 137 167 201 242
#     4   8  13  23  39  60  84 108 136 170 203 233
#     4   9  17  29  43  59  82 111 141 171 202 239
#     4  10  19  28  40  60  84 110 140 171 204 241
#     4  10  18  28  43  61  83 110 138 168 201 241
#
# _framework density 16.448606999999999
#
# number of rings (size 3 to 8) (size 9 to 14) (size 15 to 20)
#    0.000    3.000    0.000    3.000    0.000    5.143 
#    0.000    0.000    0.000    0.857    0.000    4.000 
#    0.000    0.000    0.000    0.000    0.000    0.000 
#
# Total GULP energy -155941.067140 kJ/mol
# GULP energy per Si atom -5569.323826 kJ/mol
# Density = 1.641117 g / cm^3
# Si number density = 16.448607 Si / 1000 Ang^3
#
#
#
# Elastic Constant Matrix: (Units=GPa)
#
#
# Indices 1 2 3 4 5 6 
#
# 1 93.3884 1.5377 47.1023 0.0000 5.3882 0.0000
# 2 1.5377 14.0318 -7.0862 -0.0001 -0.3883 -0.0002
# 3 47.1023 -7.0862 115.7415 0.0000 4.2945 0.0000
# 4 0.0000 -0.0001 0.0000 18.0872 0.0000 -2.7270
# 5 5.3882 -0.3883 4.2945 0.0000 22.0068 0.0000
# 6 0.0000 -0.0002 0.0000 -2.7270 0.0000 6.6508
#
#
#
# Elastic Compliance Matrix: (Units=1/GPa)
#
#
# Indices 1 2 3 4 5 6 
#
# 1 0.013858 -0.004528 -0.005830 0.000000 -0.002335 0.000000
# 2 -0.004528 0.075024 0.006392 0.000001 0.001185 0.000002
# 3 -0.005830 0.006392 0.011430 0.000000 -0.000690 0.000000
# 4 0.000000 0.000001 0.000000 0.058931 0.000000 0.024163
# 5 -0.002335 0.001185 -0.000690 0.000000 0.046168 0.000000
# 6 0.000000 0.000002 0.000000 0.024163 0.000000 0.160265
#
#
# Mechanical properties :
#
#
# Convention : Reuss Voigt Hill
#
# Bulk Modulus (GPa) = 10.82492 34.02991 22.42742
# Shear Modulus (GPa) = 12.36402 21.45615 16.91009
#
# Velocity S-wave (km/s) = 2.74465 3.61562 3.20981
# Velocity P-wave (km/s) = 4.07915 6.17768 5.23466
#
# Compressibility (1/GPa) = 0.09237941
#
# Stress axis : x y z
#
# Youngs Moduli (GPa) = 72.16159 13.32911 87.49277
#
# Poissons Ratio (x) = 0.06035 0.51009
# Poissons Ratio (y) = 0.32671 -0.55924
# Poissons Ratio (z) = 0.42071 -0.08520
#
# Static dielectric constant tensor:
#      x y z
#    x 1.565570 0.000000 0.002650 
#    y 0.000000 1.592580 0.000000 
#    z 0.002650 0.000000 1.554380 
# 
# From -- ./inp_files/248143.got.cif
#   From: 2010.05.17/outbox.cif.g08.bks.cpg/sg12_125_cif.got.tgz:248143.got - 2010.06.03 13:09:07.
