data_PCOD9171398
_publ_section_title
;
Structure prediction by ZEFSAII (Michael W. Deem and Ramdas Pophale) SiO2 
 PCOD9171398
Probable space group: C 2/M
;
_chemical_formula_sum "Si O2"
_cell_formula_units_Z 64
_cell_length_a 35.069499
_cell_length_b 9.002489
_cell_length_c 13.758383
_cell_angle_alpha 90.000000
_cell_angle_beta 102.052809
_cell_angle_gamma 90.000000
_cell_volume 4247.942934
_symmetry_space_group_name_H-M "C 2/M"
_symmetry_group_IT_number 12
_symmetry_cell_setting 'monoclinic'
loop_
_space_group_symop_operation_xyz
x,y,z
-x,y,-z
-x,-y,-z
x,-y,z
1/2+x,1/2+y,z
1/2-x,1/2+y,-z
1/2-x,1/2-y,-z
1/2+x,1/2-y,z
loop_
_atom_site_type_symbol
_atom_site_label
_atom_site_fract_x
_atom_site_fract_y
_atom_site_fract_z
Si Si1 0.221947 0.177935 0.280126
Si Si2 0.002949 0.170921 0.619249
Si Si3 0.583880 0.822328 0.648244
Si Si4 0.653526 0.320581 0.371212
Si Si5 0.708316 0.328383 0.579752
Si Si6 0.161731 0.172956 0.758052
Si Si7 0.578041 0.822556 0.414868
Si Si8 0.234411 0.321061 0.893077
O O1 0.178511 0.222141 0.289386
O O2 0.253200 0.236745 0.375005
O O3 0.237436 0.223969 0.182440
O O4 0.223208 0.000000 0.283820
O O5 0.042697 0.257712 0.662698
O O6 0.000000 0.170644 0.500000
O O7 0.963662 0.251204 0.632741
O O8 0.004703 0.000000 0.652529
O O9 0.619892 0.748761 0.723257
O O10 0.586718 0.786406 0.533715
O O11 0.584771 0.000000 0.657658
O O12 0.648452 0.500000 0.370793
O O13 0.681754 0.278684 0.476318
O O14 0.612504 0.243219 0.367862
O O15 0.719271 0.500000 0.568537
O O16 0.681830 0.321328 0.662304
O O17 0.191616 0.259123 0.843717
O O18 0.158365 0.000000 0.784120
O O19 0.576121 0.000000 0.406222
O O20 0.233776 0.500000 0.898355
O O21 0.250000 0.250000 0.000000
#
# Coordination Sequence:
#
# PCOD9171398 Si02
#       8
#     8   8   8   8   8   8   8   8
#     4   9  19  31  45  63  85 112 147 186 225 266
#     4   9  17  28  42  58  81 117 156 191 225 262
#     4  10  18  28  42  62  89 118 152 191 224 260
#     4  10  18  29  42  60  87 119 151 185 219 260
#     4   9  17  27  41  60  86 116 148 181 217 259
#     4  10  18  29  46  68  90 117 151 186 224 268
#     4  10  19  28  40  60  87 121 156 189 223 259
#     4  10  20  35  51  68  89 115 147 187 234 278
#
# _framework density 15.066115999999999
#
# number of rings (size 3 to 8) (size 9 to 14) (size 15 to 20)
#    0.000    2.375    1.250    2.250    0.000    4.500 
#    0.000    0.000    0.000    0.000    0.000    0.000 
#    0.000    1.000    0.000   10.750    0.000    4.750 
#
# Total GULP energy -178390.913507 kJ/mol
# GULP energy per Si atom -5574.716047 kJ/mol
# Density = 1.503182 g / cm^3
# Si number density = 15.066116 Si / 1000 Ang^3
#
#
#
# Elastic Constant Matrix: (Units=GPa)
#
#
# Indices 1 2 3 4 5 6 
#
# 1 152.6743 58.9195 41.8815 0.0000 7.5935 0.0000
# 2 58.9195 60.0535 30.3642 0.0000 6.9397 0.0000
# 3 41.8815 30.3642 51.6773 0.0000 9.4649 0.0000
# 4 0.0000 0.0000 0.0000 16.2105 0.0000 5.2214
# 5 7.5935 6.9397 9.4649 0.0000 14.3977 0.0000
# 6 0.0000 0.0000 0.0000 5.2214 0.0000 29.5936
#
#
#
# Elastic Compliance Matrix: (Units=1/GPa)
#
#
# Indices 1 2 3 4 5 6 
#
# 1 0.011022 -0.008993 -0.003840 0.000000 0.001046 0.000000
# 2 -0.008993 0.031112 -0.010362 0.000000 -0.003441 0.000000
# 3 -0.003840 -0.010362 0.030998 0.000000 -0.013358 0.000000
# 4 0.000000 0.000000 0.000000 0.065406 0.000000 -0.011540
# 5 0.001046 -0.003441 -0.013358 0.000000 0.079344 0.000000
# 6 0.000000 0.000000 0.000000 -0.011540 0.000000 0.035827
#
#
# Mechanical properties :
#
#
# Convention : Reuss Voigt Hill
#
# Bulk Modulus (GPa) = 37.39490 58.52619 47.96054
# Shear Modulus (GPa) = 16.18059 20.92300 18.55179
#
# Velocity S-wave (km/s) = 3.28071 3.73063 3.51288
# Velocity P-wave (km/s) = 6.26300 7.58204 6.95387
#
# Compressibility (1/GPa) = 0.02674162
#
# Stress axis : x y z
#
# Youngs Moduli (GPa) = 90.72922 32.14213 32.26011
#
# Poissons Ratio (x) = 0.28905 0.12388
# Poissons Ratio (y) = 0.81592 0.33428
# Poissons Ratio (z) = 0.34841 0.33306
#
# Static dielectric constant tensor:
#      x y z
#    x 1.504300 0.000000 -0.015990 
#    y 0.000000 1.504510 0.000000 
#    z -0.015990 0.000000 1.476180 
# 
# From -- ./inp_files/248434.got.cif
#   From: 2010.05.17/outbox.cif.g08.bks.cpg/sg12_125_cif.got.tgz:248434.got - 2010.06.03 13:09:07.
