data_PCOD9171054
_publ_section_title
;
Structure prediction by ZEFSAII (Michael W. Deem and Ramdas Pophale) SiO2 
 PCOD9171054
Probable space group: C 2/M
;
_chemical_formula_sum "Si O2"
_cell_formula_units_Z 64
_cell_length_a 23.772491
_cell_length_b 7.369970
_cell_length_c 18.058053
_cell_angle_alpha 90.000000
_cell_angle_beta 68.669422
_cell_angle_gamma 90.000000
_cell_volume 2947.086642
_symmetry_space_group_name_H-M "C 2/M"
_symmetry_group_IT_number 12
_symmetry_cell_setting 'monoclinic'
loop_
_space_group_symop_operation_xyz
x,y,z
-x,y,-z
-x,-y,-z
x,-y,z
1/2+x,1/2+y,z
1/2-x,1/2+y,-z
1/2-x,1/2-y,-z
1/2+x,1/2-y,z
loop_
_atom_site_type_symbol
_atom_site_label
_atom_site_fract_x
_atom_site_fract_y
_atom_site_fract_z
Si Si1 0.408831 0.792062 0.407656
Si Si2 0.814991 0.780301 0.330196
Si Si3 0.654537 0.779348 0.269381
Si Si4 0.318432 0.220695 0.574702
Si Si5 0.997553 0.721327 0.880728
Si Si6 0.785895 0.215688 0.179112
Si Si7 0.975108 0.722812 0.724834
Si Si8 0.405669 0.215846 0.047726
O O1 0.371223 0.790262 0.349271
O O2 0.364278 0.711161 0.490519
O O3 0.474336 0.714609 0.357746
O O4 0.419056 0.000000 0.426162
O O5 0.751576 0.723559 0.398523
O O6 0.810885 0.718292 0.246857
O O7 0.818154 0.000000 0.329721
O O8 0.659907 0.729763 0.353313
O O9 0.717392 0.718074 0.201885
O O10 0.592215 0.718228 0.263524
O O11 0.653278 0.000000 0.267190
O O12 0.317248 0.000000 0.571911
O O13 0.998559 0.500000 0.878395
O O14 0.993302 0.781636 0.798578
O O15 0.055994 0.782451 0.899487
O O16 0.939638 0.778944 0.957542
O O17 0.835409 0.248608 0.092969
O O18 0.780992 0.000000 0.189868
O O19 0.976136 0.500000 0.723757
O O20 0.412953 0.000000 0.043964
#
# Coordination Sequence:
#
# PCOD9171054 Si02
#       8
#     8   8   8   8   8   8   8   8
#     4  10  18  26  43  70  90 106 140 186 215 242
#     4   9  17  29  43  60  89 122 141 163 212 268
#     4   8  15  28  43  59  86 120 144 171 215 256
#     4   8  15  27  41  61  88 114 142 176 213 251
#     4   8  15  27  42  63  90 116 139 167 212 264
#     4   9  17  29  45  64  85 113 148 177 205 251
#     4   9  16  26  42  64  87 112 145 180 212 249
#     4   9  16  28  47  67  89 114 137 170 216 259
#
# _framework density 21.716362
#
# number of rings (size 3 to 8) (size 9 to 14) (size 15 to 20)
#    0.000    3.250    0.000    3.375    0.000    2.000 
#    0.000    4.375    0.000    2.250    0.000    0.875 
#    0.000    0.000    0.000    0.000    0.000    0.000 
#
# Total GULP energy -178556.444496 kJ/mol
# GULP energy per Si atom -5579.888890 kJ/mol
# Density = 2.166693 g / cm^3
# Si number density = 21.716362 Si / 1000 Ang^3
#
#
#
# Elastic Constant Matrix: (Units=GPa)
#
#
# Indices 1 2 3 4 5 6 
#
# 1 80.2861 -4.1378 39.6029 0.0000 -31.3767 0.0000
# 2 -4.1378 75.8643 -2.8052 -0.0010 -1.5094 0.0003
# 3 39.6029 -2.8052 84.7798 0.0001 -42.3016 0.0000
# 4 0.0000 -0.0010 0.0001 -96.5204 0.0000 23.2636
# 5 -31.3767 -1.5094 -42.3016 0.0000 32.6226 0.0000
# 6 0.0000 0.0003 0.0000 23.2636 0.0000 -0.7830
#
#
#
# Elastic Compliance Matrix: (Units=1/GPa)
#
#
# Indices 1 2 3 4 5 6 
#
# 1 0.020151 0.001547 0.000976 0.000000 0.020718 0.000000
# 2 0.001547 0.013446 0.002196 0.000000 0.004957 0.000000
# 3 0.000976 0.002196 0.033799 0.000000 0.044867 0.000000
# 4 0.000000 0.000000 0.000000 0.001682 0.000000 0.049963
# 5 0.020718 0.004957 0.044867 0.000000 0.108988 0.000000
# 6 0.000000 0.000000 0.000000 0.049963 0.000000 0.207297
#
#
# Mechanical properties :
#
#
# Convention : Reuss Voigt Hill
#
# Bulk Modulus (GPa) = 13.01539 34.02779 23.52159
# Shear Modulus (GPa) = 12.45222 0.94852 6.70037
#
# Velocity S-wave (km/s) = 2.39718 0.66161 1.75844
# Velocity P-wave (km/s) = 3.69707 4.03570 3.87009
#
# Compressibility (1/GPa) = 0.07683209
#
# Stress axis : x y z
#
# Youngs Moduli (GPa) = 49.62608 74.37351 29.58687
#
# Poissons Ratio (x) = -0.11508 -0.02886
# Poissons Ratio (y) = -0.07679 -0.06496
# Poissons Ratio (z) = -0.04841 -0.16330
#
# Static dielectric constant tensor:
#      x y z
#    x 1.760860 0.000000 -0.035260 
#    y 0.000000 1.846380 0.000000 
#    z -0.035260 0.000000 1.792370 
# 
# From -- ./inp_files/282855.got.cif
#   From: 2010.05.17/outbox.cif.g08.bks.cpg/sg12_142_cif.got.tgz:282855.got - 2010.06.03 13:09:07.
