data_PCOD9171174
_publ_section_title
;
Structure prediction by ZEFSAII (Michael W. Deem and Ramdas Pophale) SiO2 
 PCOD9171174
Probable space group: C 2/M
;
_chemical_formula_sum "Si O2"
_cell_formula_units_Z 56
_cell_length_a 33.525310
_cell_length_b 8.446486
_cell_length_c 14.136902
_cell_angle_alpha 90.000000
_cell_angle_beta 65.513797
_cell_angle_gamma 90.000000
_cell_volume 3643.121616
_symmetry_space_group_name_H-M "C 2/M"
_symmetry_group_IT_number 12
_symmetry_cell_setting 'monoclinic'
loop_
_space_group_symop_operation_xyz
x,y,z
-x,y,-z
-x,-y,-z
x,-y,z
1/2+x,1/2+y,z
1/2-x,1/2+y,-z
1/2-x,1/2-y,-z
1/2+x,1/2-y,z
loop_
_atom_site_type_symbol
_atom_site_label
_atom_site_fract_x
_atom_site_fract_y
_atom_site_fract_z
Si Si1 0.431748 0.691170 0.024642
Si Si2 0.432229 0.193184 0.609651
Si Si3 0.656039 0.188821 0.982481
Si Si4 0.521308 0.809227 0.624677
Si Si5 0.844592 0.306895 0.797077
Si Si6 0.980099 0.809349 0.165341
Si Si7 0.251332 0.689479 0.106732
O O1 0.430669 0.500000 0.024492
O O2 0.446872 0.741439 0.114865
O O3 0.385303 0.753749 0.036298
O O4 0.471148 0.742284 0.915637
O O5 0.445196 0.242709 0.490723
O O6 0.472702 0.240527 0.637513
O O7 0.385855 0.248867 0.695590
O O8 0.431583 0.000000 0.610399
O O9 0.651257 0.244011 0.097011
O O10 0.656669 0.000000 0.983995
O O11 0.703079 0.246620 0.897824
O O12 0.530653 0.749506 0.720007
O O13 0.521574 0.000000 0.625522
O O14 0.845649 0.500000 0.796533
O O15 0.796305 0.260662 0.806988
O O16 0.980237 0.000000 0.165401
O O17 0.253030 0.500000 0.105414
O O18 0.250000 0.750000 0.000000
#
# Coordination Sequence:
#
# PCOD9171174 Si02
#       7
#     8   8   8   8   8   8   8
#     4   9  18  31  44  59  81 113 143 166 202 251
#     4   8  14  25  40  61  86 111 140 170 199 238
#     4  10  18  27  42  64  86 109 138 175 211 246
#     4   9  16  26  43  63  84 111 140 170 204 238
#     4   8  14  24  39  59  84 112 140 167 198 239
#     4   9  18  31  44  59  84 112 138 170 207 245
#     4   9  16  26  40  59  84 114 143 172 207 247
#
# _framework density 15.371433
#
# number of rings (size 3 to 8) (size 9 to 14) (size 15 to 20)
#    0.000    3.143    0.000    4.286    0.000    2.286 
#    0.000    2.857    0.000    6.000    0.000    1.000 
#    0.000    0.000    0.000    0.000    0.000    0.000 
#
# Total GULP energy -155868.210885 kJ/mol
# GULP energy per Si atom -5566.721817 kJ/mol
# Density = 1.533645 g / cm^3
# Si number density = 15.371433 Si / 1000 Ang^3
#
#
#
# Elastic Constant Matrix: (Units=GPa)
#
#
# Indices 1 2 3 4 5 6 
#
# 1 145.5519 23.0081 71.8441 0.0000 -18.6008 0.0000
# 2 23.0081 13.9372 14.4772 0.0000 -1.9227 0.0000
# 3 71.8441 14.4772 106.2112 0.0000 -10.7836 0.0000
# 4 0.0000 0.0000 0.0000 16.0522 0.0000 0.1954
# 5 -18.6008 -1.9227 -10.7836 0.0000 26.9103 0.0000
# 6 0.0000 0.0000 0.0000 0.1954 0.0000 16.7401
#
#
#
# Elastic Compliance Matrix: (Units=1/GPa)
#
#
# Indices 1 2 3 4 5 6 
#
# 1 0.012848 -0.013989 -0.006238 0.000000 0.005382 0.000000
# 2 -0.013989 0.098870 -0.004460 0.000000 -0.004392 0.000000
# 3 -0.006238 -0.004460 0.014357 0.000000 0.001123 0.000000
# 4 0.000000 0.000000 0.000000 0.062306 0.000000 -0.000727
# 5 0.005382 -0.004392 0.001123 0.000000 0.041017 0.000000
# 6 0.000000 0.000000 0.000000 -0.000727 0.000000 0.059745
#
#
# Mechanical properties :
#
#
# Convention : Reuss Voigt Hill
#
# Bulk Modulus (GPa) = 13.03751 53.81767 33.42759
# Shear Modulus (GPa) = 13.73313 22.36527 18.04920
#
# Velocity S-wave (km/s) = 2.99225 3.81857 3.43038
# Velocity P-wave (km/s) = 4.52086 7.38441 6.12240
#
# Compressibility (1/GPa) = 0.07670174
#
# Stress axis : x y z
#
# Youngs Moduli (GPa) = 77.83061 10.11428 69.65434
#
# Poissons Ratio (x) = 0.14148 0.43449
# Poissons Ratio (y) = 1.08874 0.31067
# Poissons Ratio (z) = 0.48550 0.04511
#
# Static dielectric constant tensor:
#      x y z
#    x 1.520120 0.000000 -0.019590 
#    y 0.000000 1.528600 0.000000 
#    z -0.019590 0.000000 1.507300 
# 
# From -- ./inp_files/247723.got.cif
#   From: 2010.05.17/outbox.cif.g08.bks.cpg/sg12_124_cif.got.tgz:247723.got - 2010.06.03 13:09:07.
