data_PCOD9171276
_publ_section_title
;
Structure prediction by ZEFSAII (Michael W. Deem and Ramdas Pophale) SiO2 
 PCOD9171276
Probable space group: C 2/M
;
_chemical_formula_sum "Si O2"
_cell_formula_units_Z 48
_cell_length_a 24.433084
_cell_length_b 9.558864
_cell_length_c 13.694740
_cell_angle_alpha 90.000000
_cell_angle_beta 107.157101
_cell_angle_gamma 90.000000
_cell_volume 3056.108903
_symmetry_space_group_name_H-M "C 2/M"
_symmetry_group_IT_number 12
_symmetry_cell_setting 'monoclinic'
loop_
_space_group_symop_operation_xyz
x,y,z
-x,y,-z
-x,-y,-z
x,-y,z
1/2+x,1/2+y,z
1/2-x,1/2+y,-z
1/2-x,1/2-y,-z
1/2+x,1/2-y,z
loop_
_atom_site_type_symbol
_atom_site_label
_atom_site_fract_x
_atom_site_fract_y
_atom_site_fract_z
Si Si1 0.268183 0.665139 0.103925
Si Si2 0.290001 0.167730 0.720574
Si Si3 0.313265 0.163502 0.414324
Si Si4 0.890181 0.337519 0.645608
Si Si5 0.122685 0.835188 0.715377
Si Si6 0.506379 0.334316 0.389094
O O1 0.262885 0.500000 0.082098
O O2 0.228940 0.697768 0.178259
O O3 0.333656 0.692457 0.173017
O O4 0.250000 0.750000 0.000000
O O5 0.245537 0.252581 0.630227
O O6 0.354817 0.202833 0.724024
O O7 0.282603 0.000000 0.701309
O O8 0.342726 0.172501 0.534909
O O9 0.356310 0.237553 0.361235
O O10 0.304938 0.000000 0.386520
O O11 0.907680 0.500000 0.662272
O O12 0.943716 0.246159 0.640538
O O13 0.055361 0.813573 0.694029
O O14 0.130701 0.000000 0.692679
O O15 0.500000 0.290437 0.500000
O O16 0.519344 0.500000 0.397335
#
# Coordination Sequence:
#
# PCOD9171276 Si02
#       6
#     8   8   8   8   8   8
#     4   9  18  33  54  73  92 118 154 202 249 290
#     4   9  19  34  48  66  96 131 159 192 244 295
#     4  10  18  27  44  71  98 126 161 200 231 272
#     4  10  20  31  45  68 100 133 162 194 235 278
#     4   9  18  33  49  69  98 131 161 193 237 286
#     4  10  19  31  49  70  96 134 171 194 223 279
#
# _framework density 15.706246
#
# number of rings (size 3 to 8) (size 9 to 14) (size 15 to 20)
#    0.000    2.500    1.667    2.000    0.000    5.000 
#    0.000    0.000    0.000    1.000    0.000    7.000 
#    0.000    0.000    0.000    0.000    0.000    0.000 
#
# Total GULP energy -133720.015416 kJ/mol
# GULP energy per Si atom -5571.667309 kJ/mol
# Density = 1.567050 g / cm^3
# Si number density = 15.706246 Si / 1000 Ang^3
#
#
#
# Elastic Constant Matrix: (Units=GPa)
#
#
# Indices 1 2 3 4 5 6 
#
# 1 145.8330 61.6074 46.5800 0.0000 1.0070 0.0000
# 2 61.6074 50.1309 36.0030 0.0000 -0.1453 0.0000
# 3 46.5800 36.0030 76.8464 0.0000 2.9105 0.0000
# 4 0.0000 0.0000 0.0000 24.4431 0.0000 4.4016
# 5 1.0070 -0.1453 2.9105 0.0000 8.3096 0.0000
# 6 0.0000 0.0000 0.0000 4.4016 0.0000 25.8972
#
#
#
# Elastic Compliance Matrix: (Units=1/GPa)
#
#
# Indices 1 2 3 4 5 6 
#
# 1 0.014310 -0.017199 -0.000546 0.000000 -0.001844 0.000000
# 2 -0.017199 0.050988 -0.013758 0.000000 0.007795 0.000000
# 3 -0.000546 -0.013758 0.020063 0.000000 -0.007202 0.000000
# 4 0.000000 0.000000 0.000000 0.042203 0.000000 -0.007173
# 5 -0.001844 0.007795 -0.007202 0.000000 0.123225 0.000000
# 6 0.000000 0.000000 0.000000 -0.007173 0.000000 0.039833
#
#
# Mechanical properties :
#
#
# Convention : Reuss Voigt Hill
#
# Bulk Modulus (GPa) = 44.73591 62.35454 53.54523
# Shear Modulus (GPa) = 13.84731 20.30463 17.07597
#
# Velocity S-wave (km/s) = 2.97247 3.59942 3.30086
# Velocity P-wave (km/s) = 6.35023 7.55388 6.97806
#
# Compressibility (1/GPa) = 0.02235341
#
# Stress axis : x y z
#
# Youngs Moduli (GPa) = 69.87989 19.61247 49.84402
#
# Poissons Ratio (x) = 0.33732 0.02723
# Poissons Ratio (y) = 1.20189 0.68576
# Poissons Ratio (z) = 0.03817 0.26983
#
# Static dielectric constant tensor:
#      x y z
#    x 1.538620 0.000000 -0.000750 
#    y 0.000000 1.521660 0.000000 
#    z -0.000750 0.000000 1.511560 
# 
# From -- ./inp_files/172316.got.cif
#   From: 2010.05.17/outbox.cif.g08.bks.cpg/sg12_87_cif.got.tgz:172316.got - 2010.06.03 13:09:07.
