data_PCOD9171988
_publ_section_title
;
Structure prediction by ZEFSAII (Michael W. Deem and Ramdas Pophale) SiO2 
 PCOD9171988
Probable space group: C 2/M
;
_chemical_formula_sum "Si O2"
_cell_formula_units_Z 40
_cell_length_a 13.877800
_cell_length_b 8.238469
_cell_length_c 22.951416
_cell_angle_alpha 90.000000
_cell_angle_beta 39.990793
_cell_angle_gamma 90.000000
_cell_volume 1686.401323
_symmetry_space_group_name_H-M "C 2/M"
_symmetry_group_IT_number 12
_symmetry_cell_setting 'monoclinic'
loop_
_space_group_symop_operation_xyz
x,y,z
-x,y,-z
-x,-y,-z
x,-y,z
1/2+x,1/2+y,z
1/2-x,1/2+y,-z
1/2-x,1/2-y,-z
1/2+x,1/2-y,z
loop_
_atom_site_type_symbol
_atom_site_label
_atom_site_fract_x
_atom_site_fract_y
_atom_site_fract_z
Si Si1 0.142260 0.321822 0.790355
Si Si2 0.491919 0.500000 0.101666
Si Si3 0.118694 0.177030 0.213084
Si Si4 0.617643 0.815779 0.398586
Si Si5 0.749828 0.000000 0.106480
Si Si6 0.888033 0.318748 0.399666
O O1 0.070492 0.500000 0.822050
O O2 0.256897 0.324328 0.792592
O O3 0.243187 0.290724 0.686313
O O4 0.040852 0.164377 0.847800
O O5 0.369618 0.500000 0.105107
O O6 0.653299 0.500000 0.996857
O O7 0.156157 0.335287 0.158190
O O8 0.958281 0.204178 0.318214
O O9 0.126838 0.000000 0.180811
O O10 0.500000 0.747492 0.500000
O O11 0.520886 0.833138 0.384955
O O12 0.660225 0.000000 0.397716
O O13 0.854488 0.500000 0.393218
O O14 0.750000 0.250000 0.500000
#
# Coordination Sequence:
#
# PCOD9171988 Si02
#       6
#     8   4   8   8   4   8
#     4   9  16  26  41  60  85 118 151 183 226 275
#     4   9  16  26  39  58  86 116 151 186 227 274
#     4   9  16  27  41  59  85 117 151 183 227 273
#     4   9  17  30  47  65  90 127 159 190 231 272
#     4   9  16  26  40  58  84 118 149 188 227 272
#     4  10  18  29  45  66  93 125 157 190 228 276
#
# _framework density 23.719148000000001
#
# number of rings (size 3 to 8) (size 9 to 14) (size 15 to 20)
#    0.000    2.800    2.000    0.600    0.000    2.000 
#    0.000    4.000    0.000    0.000    0.000    0.000 
#    0.000    1.600    0.800    0.000    0.000    0.000 
#
# Total GULP energy -111783.539551 kJ/mol
# GULP energy per Si atom -5589.176978 kJ/mol
# Density = 2.366516 g / cm^3
# Si number density = 23.719148 Si / 1000 Ang^3
#
#
#
# Elastic Constant Matrix: (Units=GPa)
#
#
# Indices 1 2 3 4 5 6 
#
# 1 78.1174 20.7159 -10.1391 0.0000 0.6255 0.0000
# 2 20.7159 236.2056 118.7339 0.0000 1.9972 0.0000
# 3 -10.1391 118.7339 169.9972 0.0000 5.9658 0.0000
# 4 0.0000 0.0000 0.0000 8.0381 0.0000 -2.3327
# 5 0.6255 1.9972 5.9658 0.0000 12.9372 0.0000
# 6 0.0000 0.0000 0.0000 -2.3327 0.0000 21.2959
#
#
#
# Elastic Compliance Matrix: (Units=1/GPa)
#
#
# Indices 1 2 3 4 5 6 
#
# 1 0.013827 -0.002529 0.002643 0.000000 -0.001497 0.000000
# 2 -0.002529 0.007002 -0.005090 0.000000 0.001389 0.000000
# 3 0.002643 -0.005090 0.009730 0.000000 -0.003829 0.000000
# 4 0.000000 0.000000 0.000000 0.128493 0.000000 0.014075
# 5 -0.001497 0.001389 -0.003829 0.000000 0.078920 0.000000
# 6 0.000000 0.000000 0.000000 0.014075 0.000000 0.048499
#
#
# Mechanical properties :
#
#
# Convention : Reuss Voigt Hill
#
# Bulk Modulus (GPa) = 48.52544 82.54905 65.53724
# Shear Modulus (GPa) = 16.48578 32.12154 24.30366
#
# Velocity S-wave (km/s) = 2.63922 3.68400 3.20448
# Velocity P-wave (km/s) = 5.45803 7.27833 6.43289
#
# Compressibility (1/GPa) = 0.02060775
#
# Stress axis : x y z
#
# Youngs Moduli (GPa) = 72.32261 142.80772 102.77685
#
# Poissons Ratio (x) = 0.36113 -0.27168
# Poissons Ratio (y) = 0.18289 0.52317
# Poissons Ratio (z) = -0.19118 0.72694
#
# Static dielectric constant tensor:
#      x y z
#    x 1.693370 0.000000 0.051380 
#    y 0.000000 1.872820 0.000000 
#    z 0.051380 0.000000 1.833660 
# 
# From -- ./inp_files/179072.got.cif
#   From: 2010.05.17/outbox.cif.g08.bks.cpg/sg12_90_cif.got.tgz:179072.got - 2010.06.03 13:09:07.
