data_PCOD9171759
_publ_section_title
;
Structure prediction by ZEFSAII (Michael W. Deem and Ramdas Pophale) SiO2 
 PCOD9171759
Probable space group: C 2/M
;
_chemical_formula_sum "Si O2"
_cell_formula_units_Z 48
_cell_length_a 20.040442
_cell_length_b 7.464090
_cell_length_c 16.269892
_cell_angle_alpha 90.000000
_cell_angle_beta 101.379285
_cell_angle_gamma 90.000000
_cell_volume 2385.869559
_symmetry_space_group_name_H-M "C 2/M"
_symmetry_group_IT_number 12
_symmetry_cell_setting 'monoclinic'
loop_
_space_group_symop_operation_xyz
x,y,z
-x,y,-z
-x,-y,-z
x,-y,z
1/2+x,1/2+y,z
1/2-x,1/2+y,-z
1/2-x,1/2-y,-z
1/2+x,1/2-y,z
loop_
_atom_site_type_symbol
_atom_site_label
_atom_site_fract_x
_atom_site_fract_y
_atom_site_fract_z
Si Si1 0.408317 0.217818 0.717032
Si Si2 0.699688 0.715313 0.740161
Si Si3 0.329758 0.782601 0.865412
Si Si4 0.942881 0.287180 0.216985
Si Si5 0.070431 0.718929 0.972272
Si Si6 0.223705 0.714280 0.402823
O O1 0.378046 0.262877 0.799577
O O2 0.485635 0.282567 0.730169
O O3 0.352417 0.280209 0.637416
O O4 0.409317 0.000000 0.712791
O O5 0.704024 0.500000 0.740546
O O6 0.754180 0.778745 0.822177
O O7 0.622966 0.760620 0.743454
O O8 0.726669 0.779958 0.658128
O O9 0.328012 0.000000 0.868563
O O10 0.365666 0.720281 0.957315
O O11 0.952199 0.500000 0.209905
O O12 0.929517 0.217751 0.121514
O O13 0.071764 0.500000 0.972213
O O14 0.000000 0.769524 0.000000
O O15 0.221552 0.500000 0.393918
O O16 0.250000 0.750000 0.500000
#
# Coordination Sequence:
#
# PCOD9171759 Si02
#       6
#     8   8   8   8   8   8
#     4   8  14  27  47  70  93 119 154 193 231 269
#     4   9  19  33  47  66  98 131 151 178 235 294
#     4   8  13  25  44  65  91 126 162 192 223 265
#     4  10  18  28  47  74  98 121 155 198 232 260
#     4   9  14  22  42  72  96 117 159 206 228 248
#     4   9  18  34  55  73  89 116 155 193 231 280
#
# _framework density 20.118448999999998
#
# number of rings (size 3 to 8) (size 9 to 14) (size 15 to 20)
#    0.000    3.167    1.667    2.000    0.000    1.333 
#    0.000    1.667    0.000    6.500    0.000    0.000 
#    0.000    0.000    0.000    0.000    0.000    0.000 
#
# Total GULP energy -133820.142354 kJ/mol
# GULP energy per Si atom -5575.839265 kJ/mol
# Density = 2.007266 g / cm^3
# Si number density = 20.118449 Si / 1000 Ang^3
#
#
#
# Elastic Constant Matrix: (Units=GPa)
#
#
# Indices 1 2 3 4 5 6 
#
# 1 186.5533 1.7542 98.6955 0.0000 26.2742 0.0000
# 2 1.7542 54.8529 5.8429 0.0000 3.5531 0.0000
# 3 98.6955 5.8429 163.4810 0.0000 31.2075 0.0000
# 4 0.0000 0.0000 0.0000 4.7740 0.0000 -1.9450
# 5 26.2742 3.5531 31.2075 0.0000 24.8371 0.0000
# 6 0.0000 0.0000 0.0000 -1.9450 0.0000 14.1887
#
#
#
# Elastic Compliance Matrix: (Units=1/GPa)
#
#
# Indices 1 2 3 4 5 6 
#
# 1 0.008071 0.000406 -0.004270 0.000000 -0.003230 0.000000
# 2 0.000406 0.018427 -0.000419 0.000000 -0.002539 0.000000
# 3 -0.004270 -0.000419 0.010309 0.000000 -0.008375 0.000000
# 4 0.000000 0.000000 0.000000 0.221860 0.000000 0.030413
# 5 -0.003230 -0.002539 -0.008375 0.000000 0.054566 0.000000
# 6 0.000000 0.000000 0.000000 0.030413 0.000000 0.074647
#
#
# Mechanical properties :
#
#
# Convention : Reuss Voigt Hill
#
# Bulk Modulus (GPa) = 35.41125 68.60805 52.00965
# Shear Modulus (GPa) = 12.31953 28.66626 20.49289
#
# Velocity S-wave (km/s) = 2.47725 3.77885 3.19503
# Velocity P-wave (km/s) = 5.08153 7.29491 6.28640
#
# Compressibility (1/GPa) = 0.02823961
#
# Stress axis : x y z
#
# Youngs Moduli (GPa) = 123.90502 54.26908 97.00514
#
# Poissons Ratio (x) = -0.02203 0.41424
# Poissons Ratio (y) = -0.05031 0.04064
# Poissons Ratio (z) = 0.52911 0.02274
#
# Static dielectric constant tensor:
#      x y z
#    x 1.711040 0.000000 0.028800 
#    y 0.000000 1.806450 0.000000 
#    z 0.028800 0.000000 1.699130 
# 
# From -- ./inp_files/153623.got.cif
#   From: 2010.05.17/outbox.cif.g08.bks.cpg/sg12_77_cif.got.tgz:153623.got - 2010.06.03 13:09:07.
