data_PCOD9171595
_publ_section_title
;
Structure prediction by ZEFSAII (Michael W. Deem and Ramdas Pophale) SiO2 
 PCOD9171595
Probable space group: C 2/M
;
_chemical_formula_sum "Si O2"
_cell_formula_units_Z 64
_cell_length_a 29.243711
_cell_length_b 8.221849
_cell_length_c 15.210615
_cell_angle_alpha 90.000000
_cell_angle_beta 93.401784
_cell_angle_gamma 90.000000
_cell_volume 3650.756301
_symmetry_space_group_name_H-M "C 2/M"
_symmetry_group_IT_number 12
_symmetry_cell_setting 'monoclinic'
loop_
_space_group_symop_operation_xyz
x,y,z
-x,y,-z
-x,-y,-z
x,-y,z
1/2+x,1/2+y,z
1/2-x,1/2+y,-z
1/2-x,1/2-y,-z
1/2+x,1/2-y,z
loop_
_atom_site_type_symbol
_atom_site_label
_atom_site_fract_x
_atom_site_fract_y
_atom_site_fract_z
Si Si1 0.696247 0.803230 0.737548
Si Si2 0.349435 0.686559 0.513120
Si Si3 0.337648 0.698608 0.786582
Si Si4 0.918219 0.191663 0.687754
Si Si5 0.394839 0.812002 0.347641
Si Si6 0.772102 0.690692 0.620136
Si Si7 0.505713 0.305730 0.600600
Si Si8 0.738718 0.695474 0.096285
O O1 0.643781 0.747702 0.723897
O O2 0.723910 0.749493 0.653624
O O3 0.724011 0.746949 0.826845
O O4 0.696399 0.000000 0.737622
O O5 0.351697 0.500000 0.482927
O O6 0.383902 0.702372 0.600191
O O7 0.369639 0.797293 0.439092
O O8 0.298504 0.723707 0.542795
O O9 0.336370 0.500000 0.778959
O O10 0.388828 0.754599 0.767411
O O11 0.305378 0.769179 0.706508
O O12 0.311681 0.744013 0.873250
O O13 0.966412 0.262276 0.660775
O O14 0.925694 0.000000 0.706446
O O15 0.443188 0.723922 0.360119
O O16 0.403981 0.000000 0.329006
O O17 0.770855 0.500000 0.602685
O O18 0.500000 0.241470 0.500000
O O19 0.498025 0.500000 0.594131
O O20 0.740117 0.500000 0.098251
O O21 0.750000 0.750000 0.000000
#
# Coordination Sequence:
#
# PCOD9171595 Si02
#       8
#     8   8   8   8   8   8   8   8
#     4   9  20  37  49  62  93 131 157 184 235 297
#     4  10  18  31  47  63  89 128 165 196 238 284
#     4   8  15  29  47  68  96 130 157 181 229 291
#     4   8  14  27  47  65  87 124 163 192 224 277
#     4  11  22  33  46  66  91 122 164 207 240 273
#     4  10  18  28  45  69  92 118 159 203 235 269
#     4  10  18  31  48  68  92 124 165 202 241 284
#     4   9  17  31  52  75  97 121 150 186 232 289
#
# _framework density 17.530612999999999
#
# number of rings (size 3 to 8) (size 9 to 14) (size 15 to 20)
#    0.000    2.625    1.250    3.375    0.000    3.750 
#    0.000    0.625    0.000    0.000    0.000    0.875 
#    0.000    7.000    0.000    0.000    0.000    0.000 
#
# Total GULP energy -178275.450875 kJ/mol
# GULP energy per Si atom -5571.107840 kJ/mol
# Density = 1.749071 g / cm^3
# Si number density = 17.530613 Si / 1000 Ang^3
#
#
#
# Elastic Constant Matrix: (Units=GPa)
#
#
# Indices 1 2 3 4 5 6 
#
# 1 151.0287 7.5715 47.2835 0.0000 -18.8593 0.0000
# 2 7.5715 12.1248 3.6364 0.0000 -1.5075 0.0000
# 3 47.2835 3.6364 78.2941 0.0000 -20.6823 0.0000
# 4 0.0000 0.0000 0.0000 16.0887 0.0000 -4.7679
# 5 -18.8593 -1.5075 -20.6823 0.0000 23.1702 0.0000
# 6 0.0000 0.0000 0.0000 -4.7679 0.0000 19.5302
#
#
#
# Elastic Compliance Matrix: (Units=1/GPa)
#
#
# Indices 1 2 3 4 5 6 
#
# 1 0.008479 -0.003678 -0.004174 0.000000 0.002936 0.000000
# 2 -0.003678 0.085354 -0.001396 0.000000 0.001313 0.000000
# 3 -0.004174 -0.001396 0.018891 0.000000 0.013374 0.000000
# 4 0.000000 0.000000 0.000000 0.067003 0.000000 0.016357
# 5 0.002936 0.001313 0.013374 0.000000 0.057572 0.000000
# 6 0.000000 0.000000 0.000000 0.016357 0.000000 0.055196
#
#
# Mechanical properties :
#
#
# Convention : Reuss Voigt Hill
#
# Bulk Modulus (GPa) = 10.61258 39.82559 25.21908
# Shear Modulus (GPa) = 14.60271 23.95490 19.27881
#
# Velocity S-wave (km/s) = 2.88928 3.70058 3.31980
# Velocity P-wave (km/s) = 4.14698 6.40516 5.39553
#
# Compressibility (1/GPa) = 0.09422783
#
# Stress axis : x y z
#
# Youngs Moduli (GPa) = 117.93601 11.71585 52.93493
#
# Poissons Ratio (x) = 0.04309 0.22097
# Poissons Ratio (y) = 0.43377 0.07391
# Poissons Ratio (z) = 0.49230 0.01636
#
# Static dielectric constant tensor:
#      x y z
#    x 1.654990 0.000000 0.003380 
#    y 0.000000 1.619710 0.000000 
#    z 0.003380 0.000000 1.605330 
# 
# From -- ./inp_files/244104.got.cif
#   From: 2010.05.17/outbox.cif.g08.bks.cpg/sg12_123_cif.got.tgz:244104.got - 2010.06.03 13:09:07.
