data_PCOD9171096
_publ_section_title
;
Structure prediction by ZEFSAII (Michael W. Deem and Ramdas Pophale) SiO2 
 PCOD9171096
Probable space group: C 2/M
;
_chemical_formula_sum "Si O2"
_cell_formula_units_Z 56
_cell_length_a 23.328572
_cell_length_b 9.105000
_cell_length_c 18.913387
_cell_angle_alpha 90.000000
_cell_angle_beta 62.698656
_cell_angle_gamma 90.000000
_cell_volume 3569.824678
_symmetry_space_group_name_H-M "C 2/M"
_symmetry_group_IT_number 12
_symmetry_cell_setting 'monoclinic'
loop_
_space_group_symop_operation_xyz
x,y,z
-x,y,-z
-x,-y,-z
x,-y,z
1/2+x,1/2+y,z
1/2-x,1/2+y,-z
1/2-x,1/2-y,-z
1/2+x,1/2-y,z
loop_
_atom_site_type_symbol
_atom_site_label
_atom_site_fract_x
_atom_site_fract_y
_atom_site_fract_z
Si Si1 0.154739 0.668842 0.588965
Si Si2 0.739427 0.176013 0.115133
Si Si3 0.749080 0.175686 0.270741
Si Si4 0.007346 0.678749 0.077073
Si Si5 0.650246 0.823005 0.035976
Si Si6 0.383487 0.821760 0.238255
Si Si7 0.698644 0.668443 0.432044
O O1 0.139779 0.500000 0.579843
O O2 0.112929 0.716261 0.680355
O O3 0.228216 0.671973 0.577709
O O4 0.154450 0.765025 0.518767
O O5 0.727284 0.212685 0.203576
O O6 0.682039 0.215835 0.093491
O O7 0.748424 0.000000 0.105556
O O8 0.803514 0.253843 0.049494
O O9 0.819492 0.247093 0.243290
O O10 0.702995 0.238980 0.357869
O O11 0.753643 0.000000 0.275285
O O12 0.007072 0.500000 0.077048
O O13 0.076611 0.725326 0.068038
O O14 0.946486 0.722890 0.158981
O O15 0.000000 0.726940 0.000000
O O16 0.652214 0.000000 0.027932
O O17 0.375901 0.000000 0.238823
O O18 0.682637 0.500000 0.426391
#
# Coordination Sequence:
#
# PCOD9171096 Si02
#       7
#     8   8   8   8   8   8   8
#     4   8  14  24  37  55  82 111 135 165 207 250
#     4   9  18  30  43  62  86 111 140 174 210 246
#     4  10  18  27  40  60  87 114 139 170 209 249
#     4   9  16  26  43  66  87 108 138 174 207 241
#     4   9  17  30  47  63  82 111 143 174 208 245
#     4   9  17  28  42  62  86 112 143 173 204 248
#     4   9  16  25  39  59  82 108 139 172 206 248
#
# _framework density 15.687044999999999
#
# number of rings (size 3 to 8) (size 9 to 14) (size 15 to 20)
#    0.000    3.000    0.000    2.571    0.000    5.714 
#    0.000    0.714    0.000    2.571    0.000    1.000 
#    0.000    8.000    0.000    0.000    0.000    0.000 
#
# Total GULP energy -155911.673458 kJ/mol
# GULP energy per Si atom -5568.274052 kJ/mol
# Density = 1.565134 g / cm^3
# Si number density = 15.687045 Si / 1000 Ang^3
#
#
#
# Elastic Constant Matrix: (Units=GPa)
#
#
# Indices 1 2 3 4 5 6 
#
# 1 50.2904 19.2592 51.4387 0.0000 1.7131 0.0000
# 2 19.2592 33.2505 46.5240 0.0000 8.7510 0.0003
# 3 51.4387 46.5240 163.9917 0.0000 9.1987 0.0000
# 4 0.0000 0.0000 0.0000 24.5275 0.0000 0.6987
# 5 1.7131 8.7510 9.1987 0.0000 19.3408 0.0000
# 6 0.0000 0.0003 0.0000 0.6987 0.0000 11.1526
#
#
#
# Elastic Compliance Matrix: (Units=1/GPa)
#
#
# Indices 1 2 3 4 5 6 
#
# 1 0.030609 -0.008562 -0.007435 0.000000 0.004699 0.000000
# 2 -0.008562 0.057802 -0.012625 0.000000 -0.019390 -0.000001
# 3 -0.007435 -0.012625 0.011974 0.000000 0.000676 0.000000
# 4 0.000000 0.000000 0.000000 0.040843 0.000000 -0.002559
# 5 0.004699 -0.019390 0.000676 0.000000 0.059740 0.000000
# 6 0.000000 -0.000001 0.000000 -0.002559 0.000000 0.089826
#
#
# Mechanical properties :
#
#
# Convention : Reuss Voigt Hill
#
# Bulk Modulus (GPa) = 23.18057 53.55292 38.36675
# Shear Modulus (GPa) = 13.79619 19.69155 16.74387
#
# Velocity S-wave (km/s) = 2.96879 3.54683 3.27061
# Velocity P-wave (km/s) = 5.15370 7.14043 6.22681
#
# Compressibility (1/GPa) = 0.04313957
#
# Stress axis : x y z
#
# Youngs Moduli (GPa) = 32.67063 17.30035 83.51499
#
# Poissons Ratio (x) = 0.14813 0.62097
# Poissons Ratio (y) = 0.27973 1.05438
# Poissons Ratio (z) = 0.24292 0.21842
#
# Static dielectric constant tensor:
#      x y z
#    x 1.504080 0.000000 0.009370 
#    y 0.000000 1.526350 0.000000 
#    z 0.009370 0.000000 1.537270 
# 
# From -- ./inp_files/291484.got.cif
#   From: 2010.05.17/outbox.cif.g08.bks.cpg/sg12_146_cif.got.tgz:291484.got - 2010.06.03 13:09:07.
