data_PCOD9171124
_publ_section_title
;
Structure prediction by ZEFSAII (Michael W. Deem and Ramdas Pophale) SiO2 
 PCOD9171124
Probable space group: C 2/M
;
_chemical_formula_sum "Si O2"
_cell_formula_units_Z 56
_cell_length_a 28.098040
_cell_length_b 7.615165
_cell_length_c 15.205330
_cell_angle_alpha 90.000000
_cell_angle_beta 103.793928
_cell_angle_gamma 90.000000
_cell_volume 3159.670394
_symmetry_space_group_name_H-M "C 2/M"
_symmetry_group_IT_number 12
_symmetry_cell_setting 'monoclinic'
loop_
_space_group_symop_operation_xyz
x,y,z
-x,y,-z
-x,-y,-z
x,-y,z
1/2+x,1/2+y,z
1/2-x,1/2+y,-z
1/2-x,1/2-y,-z
1/2+x,1/2-y,z
loop_
_atom_site_type_symbol
_atom_site_label
_atom_site_fract_x
_atom_site_fract_y
_atom_site_fract_z
Si Si1 0.216121 0.703239 0.596403
Si Si2 0.444749 0.210682 0.472179
Si Si3 0.815885 0.789351 0.721733
Si Si4 0.702427 0.289962 0.094337
Si Si5 0.865630 0.790082 0.299332
Si Si6 0.684670 0.711601 0.893984
Si Si7 0.862476 0.711346 0.570474
O O1 0.226285 0.500000 0.579690
O O2 0.266135 0.783627 0.654742
O O3 0.176426 0.710109 0.657163
O O4 0.186607 0.780931 0.500676
O O5 0.500000 0.279569 0.500000
O O6 0.416853 0.247676 0.368463
O O7 0.409068 0.275665 0.534980
O O8 0.552879 0.000000 0.517400
O O9 0.819023 0.722327 0.822983
O O10 0.858841 0.754186 0.671334
O O11 0.810292 0.000000 0.726090
O O12 0.695346 0.500000 0.089863
O O13 0.760905 0.257037 0.116993
O O14 0.681428 0.220109 0.992517
O O15 0.854953 0.729288 0.195358
O O16 0.859419 0.000000 0.299252
O O17 0.682106 0.500000 0.897051
O O18 0.861832 0.500000 0.561600
#
# Coordination Sequence:
#
# PCOD9171124 Si02
#       7
#     8   8   8   8   8   8   8
#     4   9  17  29  41  58  86 122 156 178 205 252
#     4   9  19  36  53  67  85 111 143 179 223 274
#     4  10  18  27  41  61  87 121 154 180 209 250
#     4   9  17  28  42  59  86 123 157 184 209 246
#     4  10  18  27  44  69  93 115 143 183 225 259
#     4   9  17  28  41  62  89 118 151 185 219 249
#     4   9  18  29  43  62  85 111 141 179 220 263
#
# _framework density 17.723368000000001
#
# number of rings (size 3 to 8) (size 9 to 14) (size 15 to 20)
#    0.000    2.714    1.429    1.714    0.000    4.286 
#    0.000    0.000    0.000    0.000    0.000    1.000 
#    0.000    8.000    0.000    0.000    0.000    0.000 
#
# Total GULP energy -156024.965397 kJ/mol
# GULP energy per Si atom -5572.320193 kJ/mol
# Density = 1.768303 g / cm^3
# Si number density = 17.723368 Si / 1000 Ang^3
#
#
#
# Elastic Constant Matrix: (Units=GPa)
#
#
# Indices 1 2 3 4 5 6 
#
# 1 64.8391 0.9244 68.2892 0.0000 3.3733 0.0000
# 2 0.9244 37.0888 -0.6723 0.0000 -4.2729 0.0000
# 3 68.2892 -0.6723 173.5118 0.0000 -14.3615 0.0000
# 4 0.0000 0.0000 0.0000 9.9164 0.0000 -4.1253
# 5 3.3733 -4.2729 -14.3615 0.0000 19.3291 0.0000
# 6 0.0000 0.0000 0.0000 -4.1253 0.0000 10.3015
#
#
#
# Elastic Compliance Matrix: (Units=1/GPa)
#
#
# Indices 1 2 3 4 5 6 
#
# 1 0.030155 -0.002796 -0.013176 0.000000 -0.015670 0.000000
# 2 -0.002796 0.027996 0.001877 0.000000 0.008071 0.000000
# 3 -0.013176 0.001877 0.011914 0.000000 0.011566 0.000000
# 4 0.000000 0.000000 0.000000 0.121002 0.000000 0.048456
# 5 -0.015670 0.008071 0.011566 0.000000 0.064848 0.000000
# 6 0.000000 0.000000 0.000000 0.048456 0.000000 0.116478
#
#
# Mechanical properties :
#
#
# Convention : Reuss Voigt Hill
#
# Bulk Modulus (GPa) = 23.88078 45.83579 34.85829
# Shear Modulus (GPa) = 12.06155 21.70262 16.88208
#
# Velocity S-wave (km/s) = 2.61156 3.50311 3.08966
# Velocity P-wave (km/s) = 4.75364 6.50233 5.69550
#
# Compressibility (1/GPa) = 0.04187468
#
# Stress axis : x y z
#
# Youngs Moduli (GPa) = 33.16206 35.71954 83.93792
#
# Poissons Ratio (x) = 0.09986 1.10596
# Poissons Ratio (y) = 0.09271 -0.15754
# Poissons Ratio (z) = 0.43694 -0.06704
#
# Static dielectric constant tensor:
#      x y z
#    x 1.583920 0.000000 -0.008800 
#    y 0.000000 2.175100 0.000000 
#    z -0.008800 0.000000 1.667230 
# 
# From -- ./inp_files/243016.got.cif
#   From: 2010.05.17/outbox.cif.g08.bks.cpg/sg12_122_cif.got.tgz:243016.got - 2010.06.03 13:09:07.
