data_PCOD9171750
_publ_section_title
;
Structure prediction by ZEFSAII (Michael W. Deem and Ramdas Pophale) SiO2 
 PCOD9171750
Probable space group: C 2/M
;
_chemical_formula_sum "Si O2"
_cell_formula_units_Z 48
_cell_length_a 23.489670
_cell_length_b 8.791709
_cell_length_c 30.067477
_cell_angle_alpha 90.000000
_cell_angle_beta 152.223612
_cell_angle_gamma 90.000000
_cell_volume 2893.701182
_symmetry_space_group_name_H-M "C 2/M"
_symmetry_group_IT_number 12
_symmetry_cell_setting 'monoclinic'
loop_
_space_group_symop_operation_xyz
x,y,z
-x,y,-z
-x,-y,-z
x,-y,z
1/2+x,1/2+y,z
1/2-x,1/2+y,-z
1/2-x,1/2-y,-z
1/2+x,1/2-y,z
loop_
_atom_site_type_symbol
_atom_site_label
_atom_site_fract_x
_atom_site_fract_y
_atom_site_fract_z
Si Si1 0.360390 0.314539 0.410130
Si Si2 0.207141 0.682849 0.815281
Si Si3 0.770485 0.183320 0.444966
Si Si4 0.704340 0.818380 0.216931
Si Si5 0.459509 0.675232 0.023996
Si Si6 0.944411 0.181599 0.647524
O O1 0.500000 0.264243 0.500000
O O2 0.361596 0.500000 0.411315
O O3 0.308058 0.266791 0.421668
O O4 0.276766 0.267791 0.310879
O O5 0.209229 0.500000 0.815012
O O6 0.236625 0.745771 0.786429
O O7 0.076630 0.742757 0.740395
O O8 0.319844 0.730524 0.925251
O O9 0.877492 0.219732 0.554392
O O10 0.647354 0.258531 0.378169
O O11 0.755858 0.000000 0.435177
O O12 0.562252 0.770819 0.119975
O O13 0.714169 0.000000 0.219872
O O14 0.463635 0.500000 0.042044
O O15 0.500000 0.675866 0.000000
O O16 0.956041 0.000000 0.657969
#
# Coordination Sequence:
#
# PCOD9171750 Si02
#       6
#     8   8   8   8   8   8
#     4   9  17  30  48  70  97 128 157 183 222 280
#     4  10  19  31  48  69  95 127 158 189 235 288
#     4   9  18  33  50  68  96 130 156 184 231 285
#     4  10  18  28  47  73  97 123 157 196 231 268
#     4   8  16  30  45  64  93 126 155 187 235 287
#     4  10  19  31  50  73  94 119 157 202 235 266
#
# _framework density 16.587752999999999
#
# number of rings (size 3 to 8) (size 9 to 14) (size 15 to 20)
#    0.000    2.667    0.000    3.500    0.000    7.000 
#    0.000    1.667    0.000    4.500    0.000    0.000 
#    0.000    0.000    0.000    0.000    0.000    0.000 
#
# Total GULP energy -133786.119803 kJ/mol
# GULP energy per Si atom -5574.421658 kJ/mol
# Density = 1.655000 g / cm^3
# Si number density = 16.587753 Si / 1000 Ang^3
#
#
#
# Elastic Constant Matrix: (Units=GPa)
#
#
# Indices 1 2 3 4 5 6 
#
# 1 95.7064 27.4555 78.5789 0.0000 7.0969 0.0000
# 2 27.4555 32.1100 42.0868 0.0000 6.3570 0.0000
# 3 78.5789 42.0868 160.2032 0.0002 20.0578 0.0000
# 4 0.0000 0.0000 0.0002 14.1796 0.0000 7.9503
# 5 7.0969 6.3570 20.0578 0.0000 28.4460 0.0000
# 6 0.0000 0.0000 0.0000 7.9503 0.0000 19.2031
#
#
#
# Elastic Compliance Matrix: (Units=1/GPa)
#
#
# Indices 1 2 3 4 5 6 
#
# 1 0.018318 -0.006040 -0.007672 0.000000 0.002190 0.000000
# 2 -0.006040 0.049593 -0.009725 0.000000 -0.002718 0.000000
# 3 -0.007672 -0.009725 0.013215 0.000000 -0.005231 0.000000
# 4 0.000000 0.000000 0.000000 0.091843 0.000000 -0.038024
# 5 0.002190 -0.002718 -0.005231 0.000000 0.038904 0.000000
# 6 0.000000 0.000000 0.000000 -0.038024 0.000000 0.067817
#
#
# Mechanical properties :
#
#
# Convention : Reuss Voigt Hill
#
# Bulk Modulus (GPa) = 29.19675 64.91802 47.05738
# Shear Modulus (GPa) = 14.79359 21.69230 18.24295
#
# Velocity S-wave (km/s) = 2.98961 3.62018 3.31990
# Velocity P-wave (km/s) = 5.43660 7.52963 6.56704
#
# Compressibility (1/GPa) = 0.03425039
#
# Stress axis : x y z
#
# Youngs Moduli (GPa) = 54.58988 20.16407 75.67039
#
# Poissons Ratio (x) = 0.12180 0.58057
# Poissons Ratio (y) = 0.32974 0.73593
# Poissons Ratio (z) = 0.41884 0.19610
#
# Static dielectric constant tensor:
#      x y z
#    x 1.533590 0.000000 0.006760 
#    y 0.000000 1.559510 0.000000 
#    z 0.006760 0.000000 1.570520 
# 
# From -- ./inp_files/172041.got.cif
#   From: 2010.05.17/outbox.cif.g08.bks.cpg/sg12_87_cif.got.tgz:172041.got - 2010.06.03 13:09:07.
