data_PCOD9171321
_publ_section_title
;
Structure prediction by ZEFSAII (Michael W. Deem and Ramdas Pophale) SiO2 
 PCOD9171321
Probable space group: C 2/M
;
_chemical_formula_sum "Si O2"
_cell_formula_units_Z 48
_cell_length_a 23.868430
_cell_length_b 17.622817
_cell_length_c 11.803514
_cell_angle_alpha 90.000000
_cell_angle_beta 149.448927
_cell_angle_gamma 90.000000
_cell_volume 2523.689496
_symmetry_space_group_name_H-M "C 2/M"
_symmetry_group_IT_number 12
_symmetry_cell_setting 'monoclinic'
loop_
_space_group_symop_operation_xyz
x,y,z
-x,y,-z
-x,-y,-z
x,-y,z
1/2+x,1/2+y,z
1/2-x,1/2+y,-z
1/2-x,1/2-y,-z
1/2+x,1/2-y,z
loop_
_atom_site_type_symbol
_atom_site_label
_atom_site_fract_x
_atom_site_fract_y
_atom_site_fract_z
Si Si1 0.175048 0.087562 0.308499
Si Si2 0.872380 0.580983 0.806576
Si Si3 0.352831 0.275451 0.599364
Si Si4 0.766947 0.188344 0.799087
Si Si5 0.433414 0.087928 0.500963
Si Si6 0.935483 0.692766 0.094459
O O1 0.303280 0.087574 0.571441
O O2 0.124184 0.138088 0.321766
O O3 0.171704 0.135129 0.187415
O O4 0.139066 0.000000 0.237880
O O5 0.838807 0.500000 0.799306
O O6 0.859226 0.646463 0.874290
O O7 0.000000 0.578825 0.000000
O O8 0.250000 0.250000 0.500000
O O9 0.312829 0.247586 0.406618
O O10 0.467447 0.231138 0.810401
O O11 0.682796 0.132197 0.715529
O O12 0.860858 0.240644 0.019036
O O13 0.500000 0.087849 0.500000
O O14 0.506944 0.133947 0.720205
O O15 0.415356 0.000000 0.505074
#
# Coordination Sequence:
#
# PCOD9171321 Si02
#       6
#     8   8   8   8   8   8
#     4  10  19  31  46  71 112 148 173 205 249 307
#     4  10  18  27  46  75 105 139 178 215 253 306
#     4   9  18  31  46  73 110 148 180 215 254 306
#     4  10  20  34  53  80 110 141 178 226 271 324
#     4  10  22  41  61  81 106 135 178 239 295 335
#     4  11  21  32  56  80 106 142 184 223 268 327
#
# _framework density 19.019772
#
# number of rings (size 3 to 8) (size 9 to 14) (size 15 to 20)
#    0.000    2.000    1.667    4.000    2.333    2.000 
#    0.000    2.500    0.000    0.000    0.000    0.000 
#    0.000   12.000    0.000    0.000    0.000    0.000 
#
# Total GULP energy -133676.017224 kJ/mol
# GULP energy per Si atom -5569.834051 kJ/mol
# Density = 1.897648 g / cm^3
# Si number density = 19.019772 Si / 1000 Ang^3
#
#
#
# Elastic Constant Matrix: (Units=GPa)
#
#
# Indices 1 2 3 4 5 6 
#
# 1 46.6635 32.9339 12.9483 0.0000 11.4494 0.0000
# 2 32.9339 155.3015 27.4489 0.0000 13.0638 0.0000
# 3 12.9483 27.4489 46.9921 0.0000 13.2955 0.0000
# 4 0.0000 0.0000 0.0000 24.1042 0.0000 5.2960
# 5 11.4494 13.0638 13.2955 0.0000 17.9597 0.0000
# 6 0.0000 0.0000 0.0000 5.2960 0.0000 27.5436
#
#
#
# Elastic Compliance Matrix: (Units=1/GPa)
#
#
# Indices 1 2 3 4 5 6 
#
# 1 0.028450 -0.004655 -0.001197 0.000000 -0.013864 0.000000
# 2 -0.004655 0.008046 -0.003290 0.000000 -0.000449 0.000000
# 3 -0.001197 -0.003290 0.028637 0.000000 -0.018044 0.000000
# 4 0.000000 0.000000 0.000000 0.043316 0.000000 -0.008329
# 5 -0.013864 -0.000449 -0.018044 0.000000 0.078203 0.000000
# 6 0.000000 0.000000 0.000000 -0.008329 0.000000 0.037907
#
#
# Mechanical properties :
#
#
# Convention : Reuss Voigt Hill
#
# Bulk Modulus (GPa) = 21.34592 43.95770 32.65181
# Shear Modulus (GPa) = 19.34544 25.62991 22.48767
#
# Velocity S-wave (km/s) = 3.19270 3.67487 3.44223
# Velocity P-wave (km/s) = 4.98382 6.41623 5.74484
#
# Compressibility (1/GPa) = 0.04684735
#
# Stress axis : x y z
#
# Youngs Moduli (GPa) = 35.14995 124.29249 34.92019
#
# Poissons Ratio (x) = 0.57862 0.04181
# Poissons Ratio (y) = 0.16363 0.11488
# Poissons Ratio (z) = 0.04208 0.40889
#
# Static dielectric constant tensor:
#      x y z
#    x 1.658340 0.000000 0.017350 
#    y 0.000000 1.779350 0.000000 
#    z 0.017350 0.000000 1.719500 
# 
# From -- ./inp_files/177403.got.cif
#   From: 2010.05.17/outbox.cif.g08.bks.cpg/sg12_89_cif.got.tgz:177403.got - 2010.06.03 13:09:07.
