data_PCOD9171131
_publ_section_title
;
Structure prediction by ZEFSAII (Michael W. Deem and Ramdas Pophale) SiO2 
 PCOD9171131
Probable space group: C 2/M
;
_chemical_formula_sum "Si O2"
_cell_formula_units_Z 64
_cell_length_a 35.220411
_cell_length_b 8.953346
_cell_length_c 13.804859
_cell_angle_alpha 90.000000
_cell_angle_beta 101.652337
_cell_angle_gamma 90.000000
_cell_volume 4263.516471
_symmetry_space_group_name_H-M "C 2/M"
_symmetry_group_IT_number 12
_symmetry_cell_setting 'monoclinic'
loop_
_space_group_symop_operation_xyz
x,y,z
-x,y,-z
-x,-y,-z
x,-y,z
1/2+x,1/2+y,z
1/2-x,1/2+y,-z
1/2-x,1/2-y,-z
1/2+x,1/2-y,z
loop_
_atom_site_type_symbol
_atom_site_label
_atom_site_fract_x
_atom_site_fract_y
_atom_site_fract_z
Si Si1 0.724053 0.180125 0.286070
Si Si2 0.235193 0.179137 0.893882
Si Si3 0.496497 0.671229 0.380941
Si Si4 0.654203 0.824742 0.371710
Si Si5 0.917363 0.677226 0.353572
Si Si6 0.158382 0.178560 0.747031
Si Si7 0.082412 0.178834 0.432131
Si Si8 0.797301 0.324568 0.407596
O O1 0.737994 0.219648 0.184989
O O2 0.680173 0.218567 0.292579
O O3 0.754255 0.260674 0.373129
O O4 0.728228 0.000000 0.299560
O O5 0.190984 0.221174 0.842804
O O6 0.236261 0.000000 0.902357
O O7 0.250000 0.250000 0.000000
O O8 0.500000 0.670730 0.500000
O O9 0.489023 0.500000 0.347022
O O10 0.459734 0.772578 0.338871
O O11 0.539447 0.718721 0.370731
O O12 0.616399 0.731197 0.378921
O O13 0.683557 0.809674 0.477760
O O14 0.643677 0.000000 0.359097
O O15 0.914233 0.500000 0.358037
O O16 0.883205 0.743955 0.270157
O O17 0.912480 0.744766 0.459815
O O18 0.177087 0.231881 0.655357
O O19 0.154173 0.000000 0.744809
O O20 0.083092 0.000000 0.446591
O O21 0.797961 0.500000 0.382103
#
# Coordination Sequence:
#
# PCOD9171131 Si02
#       8
#     8   8   8   8   8   8   8   8
#     4   9  19  33  45  61  86 117 146 178 222 268
#     4   9  19  34  51  67  86 113 144 180 226 268
#     4   8  16  29  41  56  81 117 154 184 217 257
#     4  10  19  29  42  61  88 117 151 186 215 252
#     4  11  19  27  42  64  87 114 151 190 221 253
#     4  10  19  31  46  64  88 119 148 180 223 269
#     4  10  19  29  42  59  85 122 156 183 218 258
#     4  10  18  27  41  63  86 113 148 184 215 249
#
# _framework density 15.011082999999999
#
# number of rings (size 3 to 8) (size 9 to 14) (size 15 to 20)
#    0.000    2.375    1.250    4.125    0.000    6.250 
#    0.000    0.000    0.000    0.000    0.000    0.000 
#    0.000    1.000    0.000   11.250    0.000    5.000 
#
# Total GULP energy -178334.243453 kJ/mol
# GULP energy per Si atom -5572.945108 kJ/mol
# Density = 1.497692 g / cm^3
# Si number density = 15.011083 Si / 1000 Ang^3
#
#
#
# Elastic Constant Matrix: (Units=GPa)
#
#
# Indices 1 2 3 4 5 6 
#
# 1 141.5519 58.0041 41.4826 0.0000 2.2722 0.0000
# 2 58.0041 60.8604 27.1647 0.0000 6.2672 0.0000
# 3 41.4826 27.1647 46.6696 0.0000 8.1646 0.0000
# 4 0.0000 0.0000 0.0000 15.5816 0.0000 3.6929
# 5 2.2722 6.2672 8.1646 0.0000 13.5129 0.0000
# 6 0.0000 0.0000 0.0000 3.6929 0.0000 23.2609
#
#
#
# Elastic Compliance Matrix: (Units=1/GPa)
#
#
# Indices 1 2 3 4 5 6 
#
# 1 0.013138 -0.010099 -0.006969 0.000000 0.006686 0.000000
# 2 -0.010099 0.030055 -0.007129 0.000000 -0.007934 0.000000
# 3 -0.006969 -0.007129 0.034651 0.000000 -0.016458 0.000000
# 4 0.000000 0.000000 0.000000 0.066687 0.000000 -0.010587
# 5 0.006686 -0.007934 -0.016458 0.000000 0.086503 0.000000
# 6 0.000000 0.000000 0.000000 -0.010587 0.000000 0.044671
#
#
# Mechanical properties :
#
#
# Convention : Reuss Voigt Hill
#
# Bulk Modulus (GPa) = 33.95728 55.82051 44.88889
# Shear Modulus (GPa) = 14.97378 18.63312 16.80345
#
# Velocity S-wave (km/s) = 3.16177 3.52702 3.34938
# Velocity P-wave (km/s) = 5.99997 7.33849 6.70273
#
# Compressibility (1/GPa) = 0.02944877
#
# Stress axis : x y z
#
# Youngs Moduli (GPa) = 76.11573 33.27183 28.85957
#
# Poissons Ratio (x) = 0.33602 0.20112
# Poissons Ratio (y) = 0.76871 0.20575
# Poissons Ratio (z) = 0.53044 0.23721
#
# Static dielectric constant tensor:
#      x y z
#    x 1.540150 0.000000 -0.005280 
#    y 0.000000 1.503010 0.000000 
#    z -0.005280 0.000000 1.468580 
# 
# From -- ./inp_files/248349.got.cif
#   From: 2010.05.17/outbox.cif.g08.bks.cpg/sg12_125_cif.got.tgz:248349.got - 2010.06.03 13:09:07.
