data_PCOD9171340
_publ_section_title
;
Structure prediction by ZEFSAII (Michael W. Deem and Ramdas Pophale) SiO2 
 PCOD9171340
Probable space group: C 2/M
;
_chemical_formula_sum "Si O2"
_cell_formula_units_Z 48
_cell_length_a 14.615842
_cell_length_b 15.839638
_cell_length_c 12.050068
_cell_angle_alpha 90.000000
_cell_angle_beta 52.143165
_cell_angle_gamma 90.000000
_cell_volume 2202.603790
_symmetry_space_group_name_H-M "C 2/M"
_symmetry_group_IT_number 12
_symmetry_cell_setting 'monoclinic'
loop_
_space_group_symop_operation_xyz
x,y,z
-x,y,-z
-x,-y,-z
x,-y,z
1/2+x,1/2+y,z
1/2-x,1/2+y,-z
1/2-x,1/2-y,-z
1/2+x,1/2-y,z
loop_
_atom_site_type_symbol
_atom_site_label
_atom_site_fract_x
_atom_site_fract_y
_atom_site_fract_z
Si Si1 0.927186 0.815322 0.816347
Si Si2 0.792142 0.635622 0.903565
Si Si3 0.165676 0.825742 0.345575
Si Si4 0.364906 0.907717 0.091275
Si Si5 0.367111 0.874635 0.609992
Si Si6 0.813941 0.160694 0.427451
O O1 0.869271 0.722170 0.848163
O O2 0.900905 0.857155 0.714839
O O3 0.064961 0.821008 0.725865
O O4 0.845387 0.852347 0.973520
O O5 0.818197 0.597405 0.765071
O O6 0.832726 0.592067 0.986026
O O7 0.297354 0.835188 0.206229
O O8 0.130778 0.728480 0.388578
O O9 0.156884 0.871398 0.470145
O O10 0.334264 0.000000 0.161615
O O11 0.500000 0.894784 0.000000
O O12 0.500000 0.902400 0.500000
O O13 0.277334 0.892522 0.577246
O O14 0.750000 0.250000 0.500000
#
# Coordination Sequence:
#
# PCOD9171340 Si02
#       6
#     8   8   8   8   8   8
#     4   9  17  30  48  78 103 133 166 198 269 306
#     4   9  18  33  49  69 106 131 164 222 247 310
#     4   9  17  31  49  71 104 131 162 215 249 305
#     4  10  22  34  51  73  96 139 185 217 253 291
#     4  10  20  31  49  81 108 137 166 199 268 324
#     4  10  18  27  48  77 106 139 159 195 256 322
#
# _framework density 21.792389
#
# number of rings (size 3 to 8) (size 9 to 14) (size 15 to 20)
#    0.000    2.500    0.000    5.500    7.000    0.667 
#    0.000    0.000    0.000   14.000    0.000    4.667 
#    0.000    0.000    0.000    0.000    0.000    0.000 
#
# Total GULP energy -133658.191316 kJ/mol
# GULP energy per Si atom -5569.091305 kJ/mol
# Density = 2.174279 g / cm^3
# Si number density = 21.792389 Si / 1000 Ang^3
#
#
#
# Elastic Constant Matrix: (Units=GPa)
#
#
# Indices 1 2 3 4 5 6 
#
# 1 89.5074 28.2307 81.7562 0.0000 -29.0950 0.0000
# 2 28.2307 30.2050 36.2478 0.0000 -10.0593 0.0000
# 3 81.7562 36.2478 153.4090 0.0000 -8.7182 0.0000
# 4 0.0000 0.0000 0.0000 -4.3484 0.0000 -4.5594
# 5 -29.0950 -10.0593 -8.7182 0.0000 36.1299 0.0000
# 6 0.0000 0.0000 0.0000 -4.5594 0.0000 34.3440
#
#
#
# Elastic Compliance Matrix: (Units=1/GPa)
#
#
# Indices 1 2 3 4 5 6 
#
# 1 0.035000 -0.006040 -0.015937 0.000000 0.022657 0.000000
# 2 -0.006040 0.051434 -0.008513 0.000000 0.007402 0.000000
# 3 -0.015937 -0.008513 0.016384 0.000000 -0.011251 0.000000
# 4 0.000000 0.000000 0.000000 -0.201870 0.000000 -0.026800
# 5 0.022657 0.007402 -0.011251 0.000000 0.045269 0.000000
# 6 0.000000 0.000000 0.000000 -0.026800 0.000000 0.025559
#
#
# Mechanical properties :
#
#
# Convention : Reuss Voigt Hill
#
# Bulk Modulus (GPa) = 23.90293 62.84341 43.37317
# Shear Modulus (GPa) = 107.05647 21.68422 64.37035
#
# Velocity S-wave (km/s) = 7.01657 3.15784 5.44078
# Velocity P-wave (km/s) = 8.75416 6.49584 7.70815
#
# Compressibility (1/GPa) = 0.04183587
#
# Stress axis : x y z
#
# Youngs Moduli (GPa) = 28.57176 19.44232 61.03436
#
# Poissons Ratio (x) = 0.11744 0.97273
# Poissons Ratio (y) = 0.17258 0.51960
# Poissons Ratio (z) = 0.45536 0.16552
#
# Static dielectric constant tensor:
#      x y z
#    x 1.860420 0.000000 0.028350 
#    y 0.000000 1.844280 0.000000 
#    z 0.028350 0.000000 1.801110 
# 
# From -- ./inp_files/146923.got.cif
#   From: 2010.05.17/outbox.cif.g08.bks.cpg/sg12_74_cif.got.tgz:146923.got - 2010.06.03 13:09:07.
