data_PCOD9171102
_publ_section_title
;
Structure prediction by ZEFSAII (Michael W. Deem and Ramdas Pophale) SiO2 
 PCOD9171102
Probable space group: C 2/M
;
_chemical_formula_sum "Si O2"
_cell_formula_units_Z 56
_cell_length_a 18.319592
_cell_length_b 14.101067
_cell_length_c 9.316448
_cell_angle_alpha 90.000000
_cell_angle_beta 99.246100
_cell_angle_gamma 90.000000
_cell_volume 2375.409586
_symmetry_space_group_name_H-M "C 2/M"
_symmetry_group_IT_number 12
_symmetry_cell_setting 'monoclinic'
loop_
_space_group_symop_operation_xyz
x,y,z
-x,y,-z
-x,-y,-z
x,-y,z
1/2+x,1/2+y,z
1/2-x,1/2+y,-z
1/2-x,1/2-y,-z
1/2+x,1/2-y,z
loop_
_atom_site_type_symbol
_atom_site_label
_atom_site_fract_x
_atom_site_fract_y
_atom_site_fract_z
Si Si1 0.995924 0.112722 0.838374
Si Si2 0.357230 0.718928 0.779206
Si Si3 0.731089 0.612294 0.990122
Si Si4 0.129208 0.391291 0.767812
Si Si5 0.790534 0.215600 0.325488
Si Si6 0.967539 0.394725 0.830723
Si Si7 0.075232 0.112948 0.593641
O O1 0.917608 0.142495 0.748492
O O2 0.062946 0.140974 0.757569
O O3 0.998190 0.000000 0.848418
O O4 0.000000 0.153348 0.000000
O O5 0.318713 0.668806 0.907363
O O6 0.290583 0.751576 0.657093
O O7 0.407122 0.812868 0.811748
O O8 0.709813 0.500000 0.977285
O O9 0.816233 0.615583 0.075108
O O10 0.724401 0.662448 0.833905
O O11 0.137717 0.500000 0.720040
O O12 0.162341 0.311424 0.677533
O O13 0.042287 0.374191 0.764719
O O14 0.844698 0.146432 0.426084
O O15 0.938647 0.500000 0.781793
O O16 0.000000 0.400928 0.000000
O O17 0.000000 0.151243 0.500000
O O18 0.072582 0.000000 0.581755
#
# Coordination Sequence:
#
# PCOD9171102 Si02
#       7
#     8   8   8   8   8   8   8
#     4  10  20  35  58  86 115 148 186 230 277 328
#     4  11  20  30  48  79 109 136 174 229 282 323
#     4  10  19  31  48  74 110 145 180 225 276 330
#     4   9  18  31  47  70 103 141 177 215 265 327
#     4  11  20  32  52  76 103 142 183 225 276 334
#     4  10  18  27  40  61  96 140 176 209 259 324
#     4  10  22  40  60  81 109 148 190 231 279 339
#
# _framework density 23.574881000000001
#
# number of rings (size 3 to 8) (size 9 to 14) (size 15 to 20)
#    0.000    1.857    0.000    6.429    0.000    4.000 
#    0.000    0.714    0.000    0.429    0.000    0.000 
#    0.000    0.000    0.000    0.000    0.000    0.000 
#
# Total GULP energy -156391.154455 kJ/mol
# GULP energy per Si atom -5585.398373 kJ/mol
# Density = 2.352122 g / cm^3
# Si number density = 23.574881 Si / 1000 Ang^3
#
#
#
# Elastic Constant Matrix: (Units=GPa)
#
#
# Indices 1 2 3 4 5 6 
#
# 1 116.9855 31.8528 25.1646 0.0000 7.1327 0.0000
# 2 31.8528 117.5992 9.1520 0.0000 -4.8806 0.0000
# 3 25.1646 9.1520 46.1202 0.0000 8.8770 0.0000
# 4 0.0000 0.0000 0.0000 15.8036 0.0000 11.6331
# 5 7.1327 -4.8806 8.8770 0.0000 24.1288 0.0000
# 6 0.0000 0.0000 0.0000 11.6331 0.0000 43.7410
#
#
#
# Elastic Compliance Matrix: (Units=1/GPa)
#
#
# Indices 1 2 3 4 5 6 
#
# 1 0.010378 -0.002511 -0.004817 0.000000 -0.001803 0.000000
# 2 -0.002511 0.009394 -0.001079 0.000000 0.003039 0.000000
# 3 -0.004817 -0.001079 0.026144 0.000000 -0.008413 0.000000
# 4 0.000000 0.000000 0.000000 0.078680 0.000000 -0.020925
# 5 -0.001803 0.003039 -0.008413 0.000000 0.045687 0.000000
# 6 0.000000 0.000000 0.000000 -0.020925 0.000000 0.028427
#
#
# Mechanical properties :
#
#
# Convention : Reuss Voigt Hill
#
# Bulk Modulus (GPa) = 34.36226 45.89373 40.12799
# Shear Modulus (GPa) = 22.20005 31.03703 26.61854
#
# Velocity S-wave (km/s) = 3.07201 3.63234 3.36386
# Velocity P-wave (km/s) = 5.21445 6.09108 5.66973
#
# Compressibility (1/GPa) = 0.02910170
#
# Stress axis : x y z
#
# Youngs Moduli (GPa) = 96.35858 106.45468 38.24936
#
# Poissons Ratio (x) = 0.26730 0.18425
# Poissons Ratio (y) = 0.24195 0.04127
# Poissons Ratio (z) = 0.46417 0.11487
#
# Static dielectric constant tensor:
#      x y z
#    x 1.912030 0.000000 -0.032140 
#    y 0.000000 1.877190 0.000000 
#    z -0.032140 0.000000 2.003110 
# 
# From -- ./inp_files/156141.got.cif
#   From: 2010.05.17/outbox.cif.g08.bks.cpg/sg12_79_cif.got.tgz:156141.got - 2010.06.03 13:09:07.
