data_PCOD9171859
_publ_section_title
;
Structure prediction by ZEFSAII (Michael W. Deem and Ramdas Pophale) SiO2 
 PCOD9171859
Probable space group: C 2/M
;
_chemical_formula_sum "Si O2"
_cell_formula_units_Z 56
_cell_length_a 20.925639
_cell_length_b 10.745687
_cell_length_c 13.556229
_cell_angle_alpha 90.000000
_cell_angle_beta 89.994054
_cell_angle_gamma 90.000000
_cell_volume 3048.258611
_symmetry_space_group_name_H-M "C 2/M"
_symmetry_group_IT_number 12
_symmetry_cell_setting 'monoclinic'
loop_
_space_group_symop_operation_xyz
x,y,z
-x,y,-z
-x,-y,-z
x,-y,z
1/2+x,1/2+y,z
1/2-x,1/2+y,-z
1/2-x,1/2-y,-z
1/2+x,1/2-y,z
loop_
_atom_site_type_symbol
_atom_site_label
_atom_site_fract_x
_atom_site_fract_y
_atom_site_fract_z
Si Si1 0.933447 0.650146 0.046607
Si Si2 0.071982 0.649957 0.724543
Si Si3 0.263520 0.369669 0.586258
Si Si4 0.796702 0.646894 0.953389
Si Si5 0.437181 0.141399 0.622255
Si Si6 0.359783 0.752227 0.455963
Si Si7 0.700035 0.139669 0.281132
O O1 0.938543 0.500000 0.046981
O O2 0.925112 0.685390 0.161051
O O3 0.869361 0.678613 0.985973
O O4 0.000000 0.697983 0.000000
O O5 0.086566 0.500000 0.714458
O O6 0.116968 0.733908 0.655399
O O7 0.000618 0.669156 0.682770
O O8 0.269355 0.500000 0.640248
O O9 0.319026 0.358355 0.504235
O O10 0.194555 0.359570 0.534811
O O11 0.268663 0.252792 0.659242
O O12 0.784881 0.500000 0.981991
O O13 0.750000 0.750000 0.000000
O O14 0.790929 0.653037 0.835330
O O15 0.419308 0.223093 0.527674
O O16 0.375327 0.147512 0.692756
O O17 0.443015 0.000000 0.585560
O O18 0.721837 0.000000 0.309707
#
# Coordination Sequence:
#
# PCOD9171859 Si02
#       7
#     8   8   8   8   8   8   8
#     4   9  18  33  54  81 113 147 187 236 286 332
#     4  10  18  28  50  79 106 137 178 224 272 321
#     4  10  21  35  53  76 108 147 181 217 266 325
#     4  10  21  36  56  84 117 148 185 234 287 337
#     4   9  16  29  49  74 104 135 171 220 272 320
#     4  10  20  31  48  74 107 137 177 218 265 322
#     4   9  19  35  55  78 106 141 180 222 271 324
#
# _framework density 18.371144000000001
#
# number of rings (size 3 to 8) (size 9 to 14) (size 15 to 20)
#    0.000    2.429    0.000    2.571    2.000    9.143 
#    0.000    0.000    0.000    7.286    0.000    0.000 
#    0.000    0.000    0.000    0.000    0.000    0.000 
#
# Total GULP energy -155954.958325 kJ/mol
# GULP energy per Si atom -5569.819940 kJ/mol
# Density = 1.832933 g / cm^3
# Si number density = 18.371144 Si / 1000 Ang^3
#
#
#
# Elastic Constant Matrix: (Units=GPa)
#
#
# Indices 1 2 3 4 5 6 
#
# 1 68.2815 33.4590 26.0709 0.0000 2.5193 0.0000
# 2 33.4590 90.3604 43.0013 0.0000 2.3338 0.0000
# 3 26.0709 43.0013 104.7365 0.0000 -5.4254 0.0000
# 4 0.0000 0.0000 0.0000 20.0234 0.0000 -5.3292
# 5 2.5193 2.3338 -5.4254 0.0000 27.1409 0.0000
# 6 0.0000 0.0000 0.0000 -5.3292 0.0000 12.9488
#
#
#
# Elastic Compliance Matrix: (Units=1/GPa)
#
#
# Indices 1 2 3 4 5 6 
#
# 1 0.018367 -0.005643 -0.002343 0.000000 -0.001688 0.000000
# 2 -0.005643 0.015636 -0.005110 0.000000 -0.001842 0.000000
# 3 -0.002343 -0.005110 0.012391 0.000000 0.003134 0.000000
# 4 0.000000 0.000000 0.000000 0.056085 0.000000 0.023082
# 5 -0.001688 -0.001842 0.003134 0.000000 0.037786 0.000000
# 6 0.000000 0.000000 0.000000 0.023082 0.000000 0.086727
#
#
# Mechanical properties :
#
#
# Convention : Reuss Voigt Hill
#
# Bulk Modulus (GPa) = 49.49805 52.04897 50.77351
# Shear Modulus (GPa) = 19.23684 22.74577 20.99131
#
# Velocity S-wave (km/s) = 3.23944 3.52252 3.38394
# Velocity P-wave (km/s) = 6.40264 6.70355 6.55482
#
# Compressibility (1/GPa) = 0.02020282
#
# Stress axis : x y z
#
# Youngs Moduli (GPa) = 54.44565 63.95635 80.70119
#
# Poissons Ratio (x) = 0.36088 0.18906
# Poissons Ratio (y) = 0.30721 0.41241
# Poissons Ratio (z) = 0.12755 0.32684
#
# Static dielectric constant tensor:
#      x y z
#    x 1.653250 0.000000 -0.010750 
#    y 0.000000 1.634540 0.000000 
#    z -0.010750 0.000000 1.654580 
# 
# From -- ./inp_files/164938.got.cif
#   From: 2010.05.17/outbox.cif.g08.bks.cpg/sg12_83_cif.got.tgz:164938.got - 2010.06.03 13:09:07.
