data_PCOD9171766
_publ_section_title
;
Structure prediction by ZEFSAII (Michael W. Deem and Ramdas Pophale) SiO2 
 PCOD9171766
Probable space group: C 2/M
;
_chemical_formula_sum "Si O2"
_cell_formula_units_Z 64
_cell_length_a 15.681917
_cell_length_b 20.796719
_cell_length_c 10.707876
_cell_angle_alpha 90.000000
_cell_angle_beta 124.634399
_cell_angle_gamma 90.000000
_cell_volume 2873.353840
_symmetry_space_group_name_H-M "C 2/M"
_symmetry_group_IT_number 12
_symmetry_cell_setting 'monoclinic'
loop_
_space_group_symop_operation_xyz
x,y,z
-x,y,-z
-x,-y,-z
x,-y,z
1/2+x,1/2+y,z
1/2-x,1/2+y,-z
1/2-x,1/2-y,-z
1/2+x,1/2-y,z
loop_
_atom_site_type_symbol
_atom_site_label
_atom_site_fract_x
_atom_site_fract_y
_atom_site_fract_z
Si Si1 0.636500 0.706485 0.038244
Si Si2 0.378445 0.216065 0.732516
Si Si3 0.905571 0.570228 0.744851
Si Si4 0.685528 0.429366 0.147101
Si Si5 0.175349 0.927927 0.435288
Si Si6 0.870648 0.202027 0.484471
Si Si7 0.882846 0.736080 0.240498
Si Si8 0.430486 0.909347 0.324017
O O1 0.597849 0.734054 0.137526
O O2 0.631696 0.629401 0.031726
O O3 0.758974 0.723311 0.138956
O O4 0.593599 0.739842 0.878883
O O5 0.413260 0.143752 0.801873
O O6 0.253774 0.210856 0.623248
O O7 0.405131 0.245372 0.617306
O O8 0.899682 0.500000 0.808924
O O9 0.797651 0.573628 0.576332
O O10 0.006554 0.566924 0.742566
O O11 0.646055 0.500000 0.079873
O O12 0.670905 0.418585 0.282901
O O13 0.810322 0.428674 0.230328
O O14 0.115935 0.870162 0.453718
O O15 0.137992 0.000000 0.434388
O O16 0.904554 0.214443 0.370322
O O17 0.928478 0.667481 0.314218
O O18 0.500000 0.928406 0.500000
#
# Coordination Sequence:
#
# PCOD9171766 Si02
#       8
#     8   8   8   8   8   8   8   8
#     4   9  17  33  48  68  93 130 167 212 254 293
#     4   9  16  27  48  65  90 127 168 207 248 281
#     4  10  19  28  42  69 102 135 168 199 236 287
#     4  10  18  28  47  75 105 134 166 206 253 303
#     4   9  16  26  43  71 103 129 157 200 249 296
#     4   9  15  27  45  69  90 121 165 214 249 287
#     4   9  19  30  48  66  94 128 172 209 249 287
#     4  11  19  29  44  70 105 142 171 203 239 292
#
# _framework density 22.273623000000001
#
# number of rings (size 3 to 8) (size 9 to 14) (size 15 to 20)
#    0.000    2.500    2.500    1.125    3.500    0.500 
#    0.000    1.250    0.000   12.750    0.000    0.000 
#    0.000   12.000    0.000    5.250    0.000    6.750 
#
# Total GULP energy -178580.063251 kJ/mol
# GULP energy per Si atom -5580.626977 kJ/mol
# Density = 2.222293 g / cm^3
# Si number density = 22.273623 Si / 1000 Ang^3
#
#
#
# Elastic Constant Matrix: (Units=GPa)
#
#
# Indices 1 2 3 4 5 6 
#
# 1 43.8393 21.9466 11.7891 0.0000 -18.8193 0.0000
# 2 21.9466 183.7081 41.5888 0.0000 -22.6654 0.0000
# 3 11.7891 41.5888 60.1432 0.0000 -9.1125 0.0000
# 4 0.0000 0.0000 0.0000 5.5631 0.0000 -9.0650
# 5 -18.8193 -22.6654 -9.1125 0.0000 35.6798 0.0000
# 6 0.0000 0.0000 0.0000 -9.0650 0.0000 26.6810
#
#
#
# Elastic Compliance Matrix: (Units=1/GPa)
#
#
# Indices 1 2 3 4 5 6 
#
# 1 0.030440 -0.001173 -0.002950 0.000000 0.014557 0.000000
# 2 -0.001173 0.006841 -0.004095 0.000000 0.002682 0.000000
# 3 -0.002950 -0.004095 0.020188 0.000000 0.000999 0.000000
# 4 0.000000 0.000000 0.000000 0.402702 0.000000 0.136821
# 5 0.014557 0.002682 0.000999 0.000000 0.037664 0.000000
# 6 0.000000 0.000000 0.000000 0.136821 0.000000 0.083965
#
#
# Mechanical properties :
#
#
# Convention : Reuss Voigt Hill
#
# Bulk Modulus (GPa) = 24.36977 48.70439 36.53708
# Shear Modulus (GPa) = 8.17108 27.74252 17.95680
#
# Velocity S-wave (km/s) = 1.91741 3.53304 2.84243
# Velocity P-wave (km/s) = 3.98331 6.20943 5.21650
#
# Compressibility (1/GPa) = 0.04103445
#
# Stress axis : x y z
#
# Youngs Moduli (GPa) = 32.85141 146.17085 49.53431
#
# Poissons Ratio (x) = 0.17139 0.14614
# Poissons Ratio (y) = 0.03852 0.20282
# Poissons Ratio (z) = 0.09692 0.59851
#
# Static dielectric constant tensor:
#      x y z
#    x 1.887220 0.000000 0.039600 
#    y 0.000000 1.852060 0.000000 
#    z 0.039600 0.000000 1.777320 
# 
# From -- ./inp_files/169229.got.cif
#   From: 2010.05.17/outbox.cif.g08.bks.cpg/sg12_85_cif.got.tgz:169229.got - 2010.06.03 13:09:07.
