data_PCOD9171738
_publ_section_title
;
Structure prediction by ZEFSAII (Michael W. Deem and Ramdas Pophale) SiO2 
 PCOD9171738
Probable space group: C 2/M
;
_chemical_formula_sum "Si O2"
_cell_formula_units_Z 56
_cell_length_a 21.179971
_cell_length_b 8.940451
_cell_length_c 19.300305
_cell_angle_alpha 90.000000
_cell_angle_beta 123.772410
_cell_angle_gamma 90.000000
_cell_volume 3037.958201
_symmetry_space_group_name_H-M "C 2/M"
_symmetry_group_IT_number 12
_symmetry_cell_setting 'monoclinic'
loop_
_space_group_symop_operation_xyz
x,y,z
-x,y,-z
-x,-y,-z
x,-y,z
1/2+x,1/2+y,z
1/2-x,1/2+y,-z
1/2-x,1/2-y,-z
1/2+x,1/2-y,z
loop_
_atom_site_type_symbol
_atom_site_label
_atom_site_fract_x
_atom_site_fract_y
_atom_site_fract_z
Si Si1 0.666728 0.680318 0.936643
Si Si2 0.159009 0.170349 0.487727
Si Si3 0.784822 0.176893 0.628892
Si Si4 0.074665 0.329714 0.241769
Si Si5 0.040671 0.674051 0.955222
Si Si6 0.431791 0.819243 0.246405
Si Si7 0.516101 0.327023 0.586592
O O1 0.669614 0.500000 0.935735
O O2 0.610121 0.734671 0.963904
O O3 0.630051 0.745335 0.842746
O O4 0.750000 0.750000 0.000000
O O5 0.182016 0.227831 0.425905
O O6 0.200056 0.259713 0.574156
O O7 0.069284 0.169583 0.436616
O O8 0.186638 0.000000 0.509765
O O9 0.848080 0.238483 0.718702
O O10 0.782977 0.000000 0.631126
O O11 0.095678 0.500000 0.271759
O O12 0.025217 0.327402 0.142425
O O13 0.013718 0.277661 0.262275
O O14 0.064772 0.500000 0.981004
O O15 0.000000 0.730563 0.000000
O O16 0.433413 0.759967 0.326296
O O17 0.424972 0.000000 0.239511
O O18 0.500000 0.263326 0.500000
O O19 0.543415 0.500000 0.595798
#
# Coordination Sequence:
#
# PCOD9171738 Si02
#       7
#     8   8   8   8   8   8   8
#     4  11  22  38  62  89 118 150 193 242 291 349
#     4   9  18  31  46  68  99 131 166 209 257 306
#     4  10  18  28  47  72  97 128 167 212 256 302
#     4   9  17  30  51  77 104 137 174 217 265 319
#     4   9  19  37  59  85 117 151 187 229 283 344
#     4  10  20  35  56  81 109 142 186 232 280 335
#     4  10  20  35  54  76 105 143 185 227 274 328
#
# _framework density 18.433434999999999
#
# number of rings (size 3 to 8) (size 9 to 14) (size 15 to 20)
#    0.000    2.286    1.429    3.000    0.000    4.000 
#    0.000    1.429    0.000    3.429    0.000    0.000 
#    0.000    0.000    0.000    0.000    0.000    0.000 
#
# Total GULP energy -155918.661377 kJ/mol
# GULP energy per Si atom -5568.523621 kJ/mol
# Density = 1.839148 g / cm^3
# Si number density = 18.433435 Si / 1000 Ang^3
#
#
#
# Elastic Constant Matrix: (Units=GPa)
#
#
# Indices 1 2 3 4 5 6 
#
# 1 42.6544 30.1165 44.9456 0.0000 -7.1614 0.0000
# 2 30.1165 79.9783 58.0721 0.0000 12.8778 0.0000
# 3 44.9456 58.0721 108.5591 0.0000 4.4599 0.0000
# 4 0.0000 0.0000 0.0000 31.0498 0.0000 2.9787
# 5 -7.1614 12.8778 4.4599 0.0000 37.2015 0.0000
# 6 0.0000 0.0000 0.0000 2.9787 0.0000 18.4599
#
#
#
# Elastic Compliance Matrix: (Units=1/GPa)
#
#
# Indices 1 2 3 4 5 6 
#
# 1 0.049421 -0.009280 -0.016099 0.000000 0.014656 0.000000
# 2 -0.009280 0.023510 -0.008368 0.000000 -0.008922 0.000000
# 3 -0.016099 -0.008368 0.020462 0.000000 -0.002656 0.000000
# 4 0.000000 0.000000 0.000000 0.032713 0.000000 -0.005279
# 5 0.014656 -0.008922 -0.002656 0.000000 0.033109 0.000000
# 6 0.000000 0.000000 0.000000 -0.005279 0.000000 0.055023
#
#
# Mechanical properties :
#
#
# Convention : Reuss Voigt Hill
#
# Bulk Modulus (GPa) = 38.61090 55.27336 46.94213
# Shear Modulus (GPa) = 17.21968 23.87944 20.54956
#
# Velocity S-wave (km/s) = 3.05971 3.60313 3.34248
# Velocity P-wave (km/s) = 5.78567 6.88190 6.35746
#
# Compressibility (1/GPa) = 0.02589942
#
# Stress axis : x y z
#
# Youngs Moduli (GPa) = 20.23426 42.53454 48.87053
#
# Poissons Ratio (x) = 0.39473 0.78677
# Poissons Ratio (y) = 0.18778 0.40894
# Poissons Ratio (z) = 0.32575 0.35592
#
# Static dielectric constant tensor:
#      x y z
#    x 1.671660 0.000000 -0.001990 
#    y 0.000000 1.648970 0.000000 
#    z -0.001990 0.000000 1.679130 
# 
# From -- ./inp_files/288489.got.cif
#   From: 2010.05.17/outbox.cif.g08.bks.cpg/sg12_145_cif.got.tgz:288489.got - 2010.06.03 13:09:07.
