data_PCOD9171567
_publ_section_title
;
Structure prediction by ZEFSAII (Michael W. Deem and Ramdas Pophale) SiO2 
 PCOD9171567
Probable space group: C 2/M
;
_chemical_formula_sum "Si O2"
_cell_formula_units_Z 56
_cell_length_a 19.656853
_cell_length_b 7.542539
_cell_length_c 23.976459
_cell_angle_alpha 90.000000
_cell_angle_beta 52.498503
_cell_angle_gamma 90.000000
_cell_volume 2820.165178
_symmetry_space_group_name_H-M "C 2/M"
_symmetry_group_IT_number 12
_symmetry_cell_setting 'monoclinic'
loop_
_space_group_symop_operation_xyz
x,y,z
-x,y,-z
-x,-y,-z
x,-y,z
1/2+x,1/2+y,z
1/2-x,1/2+y,-z
1/2-x,1/2-y,-z
1/2+x,1/2-y,z
loop_
_atom_site_type_symbol
_atom_site_label
_atom_site_fract_x
_atom_site_fract_y
_atom_site_fract_z
Si Si1 0.615511 0.716467 0.778375
Si Si2 0.575955 0.785975 0.504182
Si Si3 0.346414 0.711697 0.935080
Si Si4 0.798248 0.293342 0.647012
Si Si5 0.000490 0.216809 0.936179
Si Si6 0.957005 0.216484 0.779288
Si Si7 0.448354 0.707911 0.657643
O O1 0.616968 0.500000 0.779051
O O2 0.709676 0.782072 0.714747
O O3 0.579399 0.771612 0.856960
O O4 0.544266 0.767177 0.767928
O O5 0.500000 0.729720 0.500000
O O6 0.661915 0.720109 0.430738
O O7 0.540812 0.730000 0.581654
O O8 0.578279 0.000000 0.503210
O O9 0.355565 0.500000 0.929075
O O10 0.414582 0.775153 0.946963
O O11 0.379052 0.774556 0.858304
O O12 0.250000 0.750000 0.000000
O O13 0.780757 0.500000 0.644633
O O14 0.874039 0.286111 0.655229
O O15 0.001105 0.000000 0.937004
O O16 0.000000 0.277865 0.000000
O O17 0.949856 0.279908 0.719585
O O18 0.957535 0.000000 0.776869
O O19 0.429323 0.500000 0.669476
#
# Coordination Sequence:
#
# PCOD9171567 Si02
#       7
#     8   8   8   8   8   8   8
#     4   8  14  27  45  61  83 117 149 174 209 261
#     4   8  15  28  43  62  89 115 141 178 222 259
#     4   9  17  30  47  66  90 117 144 178 218 259
#     4   9  17  29  47  68  87 111 145 185 223 256
#     4   8  14  25  43  67  89 109 141 184 218 245
#     4   8  16  30  45  63  89 120 148 174 212 261
#     4  10  18  28  45  66  88 116 148 179 212 258
#
# _framework density 19.856992000000002
#
# number of rings (size 3 to 8) (size 9 to 14) (size 15 to 20)
#    0.000    3.429    0.000    3.000    0.000    3.714 
#    0.000    3.571    0.000    5.571    0.000    0.000 
#    0.000    0.000    0.000    0.000    0.000    0.000 
#
# Total GULP energy -155944.061378 kJ/mol
# GULP energy per Si atom -5569.430763 kJ/mol
# Density = 1.981180 g / cm^3
# Si number density = 19.856992 Si / 1000 Ang^3
#
#
#
# Elastic Constant Matrix: (Units=GPa)
#
#
# Indices 1 2 3 4 5 6 
#
# 1 57.8594 -6.0658 95.5567 -0.0001 -3.2706 -0.0002
# 2 -6.0658 42.3906 -1.1503 -0.0001 -1.9055 -0.0006
# 3 95.5567 -1.1503 226.5843 0.0000 -6.4315 -0.0003
# 4 -0.0001 -0.0001 0.0000 13.2860 0.0001 -2.7398
# 5 -3.2706 -1.9055 -6.4315 0.0001 39.5477 -0.0002
# 6 -0.0002 -0.0006 -0.0003 -2.7398 -0.0002 0.4072
#
#
#
# Elastic Compliance Matrix: (Units=1/GPa)
#
#
# Indices 1 2 3 4 5 6 
#
# 1 0.059492 0.007889 -0.025014 -0.000014 0.001232 -0.000072
# 2 0.007889 0.024693 -0.003164 -0.000020 0.001328 -0.000096
# 3 -0.025014 -0.003164 0.014953 0.000004 0.000211 0.000021
# 4 -0.000014 -0.000020 0.000004 -0.194236 -0.000007 -1.306889
# 5 0.001232 0.001328 0.000211 -0.000007 0.025486 -0.000032
# 6 -0.000072 -0.000096 0.000021 -1.306889 -0.000032 -6.337437
#
#
# Mechanical properties :
#
#
# Convention : Reuss Voigt Hill
#
# Bulk Modulus (GPa) = 17.07668 55.94618 36.51143
# Shear Modulus (GPa) = -0.78778 26.54775 12.87998
#
# Velocity S-wave (km/s) = -0.63055 3.66040 2.54960
# Velocity P-wave (km/s) = 2.84401 6.78973 5.20523
#
# Compressibility (1/GPa) = 0.05855940
#
# Stress axis : x y z
#
# Youngs Moduli (GPa) = 16.80890 40.49752 66.87818
#
# Poissons Ratio (x) = -0.31950 1.67292
# Poissons Ratio (y) = -0.13261 0.21161
# Poissons Ratio (z) = 0.42047 0.12814
#
# Static dielectric constant tensor:
#      x y z
#    x 1.662580 0.000000 -0.005650 
#    y 0.000000 1.746200 0.000000 
#    z -0.005650 0.000000 1.743530 
# 
# From -- ./inp_files/348462.got.cif
#   From: 2010.05.17/outbox.cif.g08.bks.cpg/sg12_175_cif.got.tgz:348462.got - 2010.06.03 13:09:07.
