data_PCOD9171958
_publ_section_title
;
Structure prediction by ZEFSAII (Michael W. Deem and Ramdas Pophale) SiO2 
 PCOD9171958
Probable space group: C 2/M
;
_chemical_formula_sum "Si O2"
_cell_formula_units_Z 64
_cell_length_a 28.697634
_cell_length_b 8.949267
_cell_length_c 22.529889
_cell_angle_alpha 90.000000
_cell_angle_beta 132.388899
_cell_angle_gamma 90.000000
_cell_volume 4273.597974
_symmetry_space_group_name_H-M "C 2/M"
_symmetry_group_IT_number 12
_symmetry_cell_setting 'monoclinic'
loop_
_space_group_symop_operation_xyz
x,y,z
-x,y,-z
-x,-y,-z
x,-y,z
1/2+x,1/2+y,z
1/2-x,1/2+y,-z
1/2-x,1/2-y,-z
1/2+x,1/2-y,z
loop_
_atom_site_type_symbol
_atom_site_label
_atom_site_fract_x
_atom_site_fract_y
_atom_site_fract_z
Si Si1 0.656688 0.171729 0.951591
Si Si2 0.958676 0.680161 0.223056
Si Si3 0.620253 0.677877 0.737937
Si Si4 0.275678 0.678845 0.582538
Si Si5 0.353594 0.820646 0.481393
Si Si6 0.234290 0.329478 0.893649
Si Si7 0.073986 0.820922 0.566005
Si Si8 0.094333 0.820050 0.351350
O O1 0.587801 0.223736 0.871234
O O2 0.696832 0.172420 0.924527
O O3 0.653322 0.000000 0.968785
O O4 0.696528 0.267350 0.032286
O O5 0.960227 0.500000 0.226745
O O6 0.925865 0.740973 0.254898
O O7 0.027863 0.748207 0.277633
O O8 0.614652 0.500000 0.741803
O O9 0.691115 0.730499 0.813714
O O10 0.600572 0.714204 0.654043
O O11 0.274295 0.500000 0.575600
O O12 0.250000 0.750000 0.500000
O O13 0.221534 0.717753 0.583470
O O14 0.349457 0.719818 0.646863
O O15 0.388362 0.761990 0.453200
O O16 0.384095 0.744026 0.565952
O O17 0.360077 0.000000 0.492299
O O18 0.236202 0.500000 0.874615
O O19 0.000000 0.782411 0.500000
O O20 0.079350 0.000000 0.561456
O O21 0.088884 0.000000 0.350500
#
# Coordination Sequence:
#
# PCOD9171958 Si02
#       8
#     8   8   8   8   8   8   8   8
#     4   8  15  26  39  57  82 110 137 169 209 250
#     4  10  19  29  42  63  89 113 142 177 210 249
#     4  10  19  30  44  60  83 116 148 178 214 253
#     4   8  16  29  44  63  83 106 137 172 211 253
#     4  10  19  31  47  64  83 109 144 183 216 246
#     4   9  16  26  41  59  80 107 142 179 208 244
#     4  10  21  34  45  60  84 114 148 181 213 250
#     4  10  18  29  45  63  87 115 140 169 210 259
#
# _framework density 14.975671999999999
#
# number of rings (size 3 to 8) (size 9 to 14) (size 15 to 20)
#    0.000    2.625    0.000    3.375    0.000    6.750 
#    0.000    0.000    0.000    0.000    0.000    0.000 
#    0.000    1.000    0.000   11.250    0.000    5.250 
#
# Total GULP energy -178196.696286 kJ/mol
# GULP energy per Si atom -5568.646759 kJ/mol
# Density = 1.494159 g / cm^3
# Si number density = 14.975672 Si / 1000 Ang^3
#
#
#
# Elastic Constant Matrix: (Units=GPa)
#
#
# Indices 1 2 3 4 5 6 
#
# 1 98.2695 36.5945 53.3452 0.0000 24.9510 0.0000
# 2 36.5945 46.0472 40.9173 0.0000 11.2921 0.0000
# 3 53.3452 40.9173 100.2642 0.0000 28.5086 0.0000
# 4 0.0000 0.0000 0.0000 22.3077 0.0000 0.9672
# 5 24.9510 11.2921 28.5086 0.0000 24.2399 0.0000
# 6 0.0000 0.0000 0.0000 0.9672 0.0000 5.4129
#
#
#
# Elastic Compliance Matrix: (Units=1/GPa)
#
#
# Indices 1 2 3 4 5 6 
#
# 1 0.017776 -0.009107 -0.002622 0.000000 -0.010972 0.000000
# 2 -0.009107 0.038747 -0.012771 0.000000 0.006344 0.000000
# 3 -0.002622 -0.012771 0.021216 0.000000 -0.016305 0.000000
# 4 0.000000 0.000000 0.000000 0.045178 0.000000 -0.008072
# 5 -0.010972 0.006344 -0.016305 0.000000 0.068769 0.000000
# 6 0.000000 0.000000 0.000000 -0.008072 0.000000 0.186188
#
#
# Mechanical properties :
#
#
# Convention : Reuss Voigt Hill
#
# Bulk Modulus (GPa) = 34.79412 56.25499 45.52455
# Shear Modulus (GPa) = 11.45599 17.97369 14.71484
#
# Velocity S-wave (km/s) = 2.76882 3.46814 3.13802
# Velocity P-wave (km/s) = 5.78844 7.32688 6.60262
#
# Compressibility (1/GPa) = 0.02874049
#
# Stress axis : x y z
#
# Youngs Moduli (GPa) = 56.25426 25.80864 47.13394
#
# Poissons Ratio (x) = 0.23504 0.12356
# Poissons Ratio (y) = 0.51231 0.60194
# Poissons Ratio (z) = 0.14747 0.32960
#
# Static dielectric constant tensor:
#      x y z
#    x 1.499350 0.000000 0.031190 
#    y 0.000000 1.504010 0.000000 
#    z 0.031190 0.000000 1.492320 
# 
# From -- ./inp_files/326960.got.cif
#   From: 2010.05.17/outbox.cif.g08.bks.cpg/sg12_164_cif.got.tgz:326960.got - 2010.06.03 13:09:07.
