data_PCOD9171198
_publ_section_title
;
Structure prediction by ZEFSAII (Michael W. Deem and Ramdas Pophale) SiO2 
 PCOD9171198
Probable space group: C 2/M
;
_chemical_formula_sum "Si O2"
_cell_formula_units_Z 48
_cell_length_a 15.763421
_cell_length_b 7.452672
_cell_length_c 14.825524
_cell_angle_alpha 90.000000
_cell_angle_beta 102.312164
_cell_angle_gamma 90.000000
_cell_volume 1701.638265
_symmetry_space_group_name_H-M "C 2/M"
_symmetry_group_IT_number 12
_symmetry_cell_setting 'monoclinic'
loop_
_space_group_symop_operation_xyz
x,y,z
-x,y,-z
-x,-y,-z
x,-y,z
1/2+x,1/2+y,z
1/2-x,1/2+y,-z
1/2-x,1/2-y,-z
1/2+x,1/2-y,z
loop_
_atom_site_type_symbol
_atom_site_label
_atom_site_fract_x
_atom_site_fract_y
_atom_site_fract_z
Si Si1 0.274785 0.207283 0.194006
Si Si2 0.623516 0.283916 0.522512
Si Si3 0.858665 0.218109 0.971638
Si Si4 0.457793 0.294571 0.319087
Si Si5 0.004104 0.780870 0.859598
Si Si6 0.693049 0.211837 0.354095
O O1 0.231215 0.282943 0.092717
O O2 0.358617 0.301356 0.255228
O O3 0.200051 0.209957 0.255570
O O4 0.297498 0.000000 0.186840
O O5 0.621163 0.500000 0.529384
O O6 0.557795 0.216473 0.584972
O O7 0.621020 0.244041 0.415348
O O8 0.717712 0.218455 0.578539
O O9 0.930404 0.270433 0.912884
O O10 0.854464 0.000000 0.971213
O O11 0.904378 0.275341 0.074545
O O12 0.486945 0.500000 0.336149
O O13 0.506393 0.211125 0.244132
O O14 0.004526 0.000000 0.855828
O O15 0.699761 0.000000 0.344780
#
# Coordination Sequence:
#
# PCOD9171198 Si02
#       6
#     8   8   8   8   8   8
#     4  10  18  27  42  67  95 117 142 180 222 260
#     4   8  14  24  38  60  87 112 141 178 218 257
#     4   8  15  27  45  67  88 115 149 183 218 255
#     4   9  17  28  45  68  91 116 145 180 221 259
#     4   8  14  28  47  65  87 115 150 185 215 255
#     4   9  16  26  41  61  85 116 149 178 214 258
#
# _framework density 28.208112
#
# number of rings (size 3 to 8) (size 9 to 14) (size 15 to 20)
#    0.000    3.333    0.000    3.000    0.000    4.667 
#    0.000    0.000    0.000    4.000    0.000   12.833 
#    0.000    0.000    0.000    0.000    0.000    0.000 
#
# Total GULP energy -134241.423141 kJ/mol
# GULP energy per Si atom -5593.392631 kJ/mol
# Density = 2.814391 g / cm^3
# Si number density = 28.208112 Si / 1000 Ang^3
#
#
#
# Elastic Constant Matrix: (Units=GPa)
#
#
# Indices 1 2 3 4 5 6 
#
# 1 85.6432 2.6570 13.2813 0.0000 -5.1934 0.0000
# 2 2.6570 120.8403 7.9643 0.0000 -2.3345 0.0000
# 3 13.2813 7.9643 218.5992 0.0000 14.6619 0.0000
# 4 0.0000 0.0000 0.0000 12.8068 0.0000 -3.8609
# 5 -5.1934 -2.3345 14.6619 0.0000 71.7961 0.0000
# 6 0.0000 0.0000 0.0000 -3.8609 0.0000 17.8850
#
#
#
# Elastic Compliance Matrix: (Units=1/GPa)
#
#
# Indices 1 2 3 4 5 6 
#
# 1 0.011865 -0.000190 -0.000782 0.000000 0.001012 0.000000
# 2 -0.000190 0.008306 -0.000313 0.000000 0.000320 0.000000
# 3 -0.000782 -0.000313 0.004702 0.000000 -0.001027 0.000000
# 4 0.000000 0.000000 0.000000 0.083519 0.000000 0.018030
# 5 0.001012 0.000320 -0.001027 0.000000 0.014222 0.000000
# 6 0.000000 0.000000 0.000000 0.018030 0.000000 0.059805
#
#
# Mechanical properties :
#
#
# Convention : Reuss Voigt Hill
#
# Bulk Modulus (GPa) = 44.83270 52.54311 48.68790
# Shear Modulus (GPa) = 25.98451 47.24292 36.61371
#
# Velocity S-wave (km/s) = 3.03837 4.09687 3.60666
# Velocity P-wave (km/s) = 5.31385 6.40676 5.88573
#
# Compressibility (1/GPa) = 0.02230515
#
# Stress axis : x y z
#
# Youngs Moduli (GPa) = 84.28271 120.38988 212.65947
#
# Poissons Ratio (x) = 0.02285 0.16626
# Poissons Ratio (y) = 0.01600 0.06647
# Poissons Ratio (z) = 0.06589 0.03763
#
# Static dielectric constant tensor:
#      x y z
#    x 2.359310 0.000000 -0.014030 
#    y 0.000000 1.984220 0.000000 
#    z -0.014030 0.000000 2.206940 
# 
# From -- ./inp_files/236324.got.cif
#   From: 2010.05.17/outbox.cif.g08.bks.cpg/sg12_119_cif.got.tgz:236324.got - 2010.06.03 13:09:07.
