data_PCOD9171945
_publ_section_title
;
Structure prediction by ZEFSAII (Michael W. Deem and Ramdas Pophale) SiO2 
 PCOD9171945
Probable space group: C 2/M
;
_chemical_formula_sum "Si O2"
_cell_formula_units_Z 56
_cell_length_a 30.015093
_cell_length_b 8.273163
_cell_length_c 13.778872
_cell_angle_alpha 90.000000
_cell_angle_beta 76.529888
_cell_angle_gamma 90.000000
_cell_volume 3327.444210
_symmetry_space_group_name_H-M "C 2/M"
_symmetry_group_IT_number 12
_symmetry_cell_setting 'monoclinic'
loop_
_space_group_symop_operation_xyz
x,y,z
-x,y,-z
-x,-y,-z
x,-y,z
1/2+x,1/2+y,z
1/2-x,1/2+y,-z
1/2-x,1/2-y,-z
1/2+x,1/2-y,z
loop_
_atom_site_type_symbol
_atom_site_label
_atom_site_fract_x
_atom_site_fract_y
_atom_site_fract_z
Si Si1 0.305177 0.309729 0.565670
Si Si2 0.716438 0.802950 0.721202
Si Si3 0.353766 0.807035 0.733265
Si Si4 0.269232 0.305917 0.887654
Si Si5 0.952976 0.311978 0.637782
Si Si6 0.948940 0.815414 0.427332
Si Si7 0.364267 0.811303 0.360637
O O1 0.304445 0.500000 0.540658
O O2 0.254412 0.253117 0.621967
O O3 0.334113 0.285822 0.649637
O O4 0.330191 0.211402 0.469419
O O5 0.735685 0.752979 0.816101
O O6 0.666083 0.749264 0.714259
O O7 0.716361 0.000000 0.719667
O O8 0.319246 0.764778 0.837344
O O9 0.407027 0.762560 0.717269
O O10 0.352101 0.000000 0.715202
O O11 0.271953 0.500000 0.883281
O O12 0.250000 0.250000 0.000000
O O13 0.962317 0.500000 0.651887
O O14 0.942586 0.290795 0.527802
O O15 0.999336 0.215048 0.633959
O O16 0.910891 0.775606 0.367029
O O17 0.943685 0.000000 0.461406
O O18 0.374276 0.000000 0.341766
#
# Coordination Sequence:
#
# PCOD9171945 Si02
#       7
#     8   8   8   8   8   8   8
#     4  10  18  29  44  66  96 128 163 200 238 280
#     4   8  18  32  47  67  93 126 161 198 237 287
#     4  10  19  31  50  73  97 128 163 199 241 289
#     4  10  20  36  55  76 100 124 157 200 246 293
#     4  10  19  32  48  67  94 128 168 204 239 285
#     4  11  21  30  44  66  96 131 168 205 242 279
#     4  11  19  30  45  64  94 132 168 198 235 280
#
# _framework density 16.829733999999998
#
# number of rings (size 3 to 8) (size 9 to 14) (size 15 to 20)
#    0.000    2.000    1.429    5.571    0.000    1.714 
#    0.000    7.857    0.000    0.000    0.000    1.000 
#    0.000    8.000    0.000    0.000    0.000    0.000 
#
# Total GULP energy -156195.672938 kJ/mol
# GULP energy per Si atom -5578.416891 kJ/mol
# Density = 1.679143 g / cm^3
# Si number density = 16.829734 Si / 1000 Ang^3
#
#
#
# Elastic Constant Matrix: (Units=GPa)
#
#
# Indices 1 2 3 4 5 6 
#
# 1 128.6094 9.6133 36.8500 0.0000 -8.6237 0.0000
# 2 9.6133 27.9802 -1.6171 0.0000 -0.8347 0.0000
# 3 36.8500 -1.6171 65.4535 0.0000 -9.5214 0.0000
# 4 0.0000 0.0000 0.0000 15.9955 0.0000 -6.5504
# 5 -8.6237 -0.8347 -9.5214 0.0000 14.6625 0.0000
# 6 0.0000 0.0000 0.0000 -6.5504 0.0000 19.4750
#
#
#
# Elastic Compliance Matrix: (Units=1/GPa)
#
#
# Indices 1 2 3 4 5 6 
#
# 1 0.009682 -0.003567 -0.005235 0.000000 0.002092 0.000000
# 2 -0.003567 0.037215 0.003236 0.000000 0.002122 0.000000
# 3 -0.005235 0.003236 0.019750 0.000000 0.009930 0.000000
# 4 0.000000 0.000000 0.000000 0.072504 0.000000 0.024386
# 5 0.002092 0.002122 0.009930 0.000000 0.076001 0.000000
# 6 0.000000 0.000000 0.000000 0.024386 0.000000 0.059550
#
#
# Mechanical properties :
#
#
# Convention : Reuss Voigt Hill
#
# Bulk Modulus (GPa) = 18.01263 34.63728 26.32495
# Shear Modulus (GPa) = 16.42907 21.83973 19.13440
#
# Velocity S-wave (km/s) = 3.12780 3.60625 3.37551
# Velocity P-wave (km/s) = 4.87547 6.16163 5.55590
#
# Compressibility (1/GPa) = 0.05551661
#
# Stress axis : x y z
#
# Youngs Moduli (GPa) = 103.28117 26.87061 50.63362
#
# Poissons Ratio (x) = 0.09584 0.26506
# Poissons Ratio (y) = 0.36838 -0.16386
# Poissons Ratio (z) = 0.54066 -0.08696
#
# Static dielectric constant tensor:
#      x y z
#    x 1.611980 0.000000 -0.000890 
#    y 0.000000 1.587610 0.000000 
#    z -0.000890 0.000000 1.542790 
# 
# From -- ./inp_files/247728.got.cif
#   From: 2010.05.17/outbox.cif.g08.bks.cpg/sg12_124_cif.got.tgz:247728.got - 2010.06.03 13:09:07.
