data_PCOD9171679
_publ_section_title
;
Structure prediction by ZEFSAII (Michael W. Deem and Ramdas Pophale) SiO2 
 PCOD9171679
Probable space group: C 2/M
;
_chemical_formula_sum "Si O2"
_cell_formula_units_Z 48
_cell_length_a 8.567132
_cell_length_b 17.532155
_cell_length_c 16.801019
_cell_angle_alpha 90.000000
_cell_angle_beta 75.917188
_cell_angle_gamma 90.000000
_cell_volume 2447.673666
_symmetry_space_group_name_H-M "C 2/M"
_symmetry_group_IT_number 12
_symmetry_cell_setting 'monoclinic'
loop_
_space_group_symop_operation_xyz
x,y,z
-x,y,-z
-x,-y,-z
x,-y,z
1/2+x,1/2+y,z
1/2-x,1/2+y,-z
1/2-x,1/2-y,-z
1/2+x,1/2-y,z
loop_
_atom_site_type_symbol
_atom_site_label
_atom_site_fract_x
_atom_site_fract_y
_atom_site_fract_z
Si Si1 0.049814 0.085225 0.696705
Si Si2 0.589678 0.816583 0.692533
Si Si3 0.351958 0.316779 0.186557
Si Si4 0.061588 0.211561 0.404117
Si Si5 0.194914 0.215520 0.090004
Si Si6 0.186596 0.413803 0.815042
O O1 0.160014 0.108525 0.758196
O O2 0.046470 0.147076 0.626716
O O3 0.868953 0.089010 0.756656
O O4 0.081632 0.000000 0.664724
O O5 0.615892 0.748375 0.752134
O O6 0.756066 0.818420 0.622050
O O7 0.455400 0.787588 0.648120
O O8 0.579700 0.888788 0.752216
O O9 0.209510 0.286180 0.149994
O O10 0.513869 0.316682 0.112833
O O11 0.000000 0.224930 0.500000
O O12 0.307334 0.148919 0.114784
O O13 0.250000 0.250000 0.000000
O O14 0.152294 0.500000 0.845481
#
# Coordination Sequence:
#
# PCOD9171679 Si02
#       6
#     8   8   8   8   8   8
#     4   8  15  28  45  66  91 118 150 185 222 267
#     4   9  17  30  48  66  88 120 154 185 218 268
#     4   9  17  30  48  67  89 121 154 182 218 269
#     4  10  18  28  46  71  94 116 147 190 231 263
#     4  10  18  29  48  71  93 115 146 190 230 264
#     4   8  15  29  48  66  86 119 156 182 214 268
#
# _framework density 19.610458000000001
#
# number of rings (size 3 to 8) (size 9 to 14) (size 15 to 20)
#    0.000    3.000    0.000    4.000    0.000    0.333 
#    0.000    0.833    0.000   28.500    0.000    0.000 
#    0.000    0.000    0.000    0.000    0.000    0.000 
#
# Total GULP energy -133623.191840 kJ/mol
# GULP energy per Si atom -5567.632993 kJ/mol
# Density = 1.956582 g / cm^3
# Si number density = 19.610458 Si / 1000 Ang^3
#
#
#
# Elastic Constant Matrix: (Units=GPa)
#
#
# Indices 1 2 3 4 5 6 
#
# 1 56.1362 10.1332 15.7198 0.0000 3.7747 0.0000
# 2 10.1332 89.5205 31.5135 0.0000 14.4840 0.0000
# 3 15.7198 31.5135 104.0249 0.0000 7.8114 0.0000
# 4 0.0000 0.0000 0.0000 21.2422 0.0000 5.4167
# 5 3.7747 14.4840 7.8114 0.0000 21.4917 0.0000
# 6 0.0000 0.0000 0.0000 5.4167 0.0000 16.2144
#
#
#
# Elastic Compliance Matrix: (Units=1/GPa)
#
#
# Indices 1 2 3 4 5 6 
#
# 1 0.018785 -0.000996 -0.002405 0.000000 -0.001754 0.000000
# 2 -0.000996 0.013761 -0.003429 0.000000 -0.007853 0.000000
# 3 -0.002405 -0.003429 0.011113 0.000000 -0.001306 0.000000
# 4 0.000000 0.000000 0.000000 0.051460 0.000000 -0.017191
# 5 -0.001754 -0.007853 -0.001306 0.000000 0.052605 0.000000
# 6 0.000000 0.000000 0.000000 -0.017191 0.000000 0.067417
#
#
# Mechanical properties :
#
#
# Convention : Reuss Voigt Hill
#
# Bulk Modulus (GPa) = 33.33362 40.49052 36.91207
# Shear Modulus (GPa) = 20.93806 24.61067 22.77437
#
# Velocity S-wave (km/s) = 3.27111 3.54641 3.41154
# Velocity P-wave (km/s) = 5.59479 6.12059 5.86358
#
# Compressibility (1/GPa) = 0.02999975
#
# Stress axis : x y z
#
# Youngs Moduli (GPa) = 53.23374 72.66991 89.98230
#
# Poissons Ratio (x) = 0.07237 0.21644
# Poissons Ratio (y) = 0.05301 0.30851
# Poissons Ratio (z) = 0.12804 0.24915
#
# Static dielectric constant tensor:
#      x y z
#    x 1.811220 0.000000 -0.011480 
#    y 0.000000 1.719250 0.000000 
#    z -0.011480 0.000000 1.684970 
# 
# From -- ./inp_files/205582.got.cif
#   From: 2010.05.17/outbox.cif.g08.bks.cpg/sg12_103_cif.got.tgz:205582.got - 2010.06.03 13:09:07.
