data_PCOD9171144
_publ_section_title
;
Structure prediction by ZEFSAII (Michael W. Deem and Ramdas Pophale) SiO2 
 PCOD9171144
Probable space group: C 2/M
;
_chemical_formula_sum "Si O2"
_cell_formula_units_Z 64
_cell_length_a 21.459249
_cell_length_b 14.172773
_cell_length_c 14.390321
_cell_angle_alpha 90.000000
_cell_angle_beta 66.910048
_cell_angle_gamma 90.000000
_cell_volume 4026.019421
_symmetry_space_group_name_H-M "C 2/M"
_symmetry_group_IT_number 12
_symmetry_cell_setting 'monoclinic'
loop_
_space_group_symop_operation_xyz
x,y,z
-x,y,-z
-x,-y,-z
x,-y,z
1/2+x,1/2+y,z
1/2-x,1/2+y,-z
1/2-x,1/2-y,-z
1/2+x,1/2-y,z
loop_
_atom_site_type_symbol
_atom_site_label
_atom_site_fract_x
_atom_site_fract_y
_atom_site_fract_z
Si Si1 0.942457 0.889669 0.754118
Si Si2 0.846877 0.797458 0.285592
Si Si3 0.359430 0.387613 0.637316
Si Si4 0.429814 0.310555 0.416255
Si Si5 0.210358 0.390115 0.642478
Si Si6 0.525490 0.613919 0.881778
Si Si7 0.283989 0.890443 0.580228
Si Si8 0.562561 0.894343 0.533646
O O1 0.879441 0.853869 0.729242
O O2 0.005775 0.872514 0.648277
O O3 0.970797 0.852180 0.835922
O O4 0.929951 0.000000 0.777541
O O5 0.873231 0.830223 0.371890
O O6 0.842604 0.684446 0.286334
O O7 0.901877 0.840062 0.183781
O O8 0.769567 0.833240 0.327904
O O9 0.375114 0.500000 0.622333
O O10 0.403025 0.334777 0.533588
O O11 0.281472 0.378126 0.653741
O O12 0.446536 0.199149 0.399737
O O13 0.190803 0.500000 0.658841
O O14 0.219572 0.365419 0.527612
O O15 0.532430 0.500000 0.867958
O O16 0.500000 0.634242 0.000000
O O17 0.363545 0.881038 0.557211
O O18 0.265196 0.000000 0.598773
O O19 0.500000 0.894484 0.500000
O O20 0.565426 0.000000 0.575599
#
# Coordination Sequence:
#
# PCOD9171144 Si02
#       8
#     8   8   8   8   8   8   8   8
#     4   9  18  29  44  67  92 117 146 183 230 280
#     4  11  19  29  48  70  93 125 160 191 230 270
#     4  10  18  27  41  65  96 124 149 177 220 276
#     4  11  18  26  41  63  92 126 154 183 220 267
#     4  10  19  29  43  65  97 130 156 184 221 271
#     4   9  19  35  53  72  92 115 151 196 239 281
#     4  10  18  29  43  63  94 127 158 188 221 268
#     4  10  20  30  39  55  86 130 167 189 213 251
#
# _framework density 15.896595
#
# number of rings (size 3 to 8) (size 9 to 14) (size 15 to 20)
#    0.000    2.000    2.500    3.000    0.000    2.000 
#    0.000    0.000    0.000    1.125    0.000    0.000 
#    0.000    0.000    0.000    0.000    0.000    0.000 
#
# Total GULP energy -178176.291362 kJ/mol
# GULP energy per Si atom -5568.009105 kJ/mol
# Density = 1.586041 g / cm^3
# Si number density = 15.896595 Si / 1000 Ang^3
#
#
#
# Elastic Constant Matrix: (Units=GPa)
#
#
# Indices 1 2 3 4 5 6 
#
# 1 100.4347 15.0286 33.9431 0.0000 4.5980 0.0000
# 2 15.0286 44.8337 29.7216 0.0000 -3.4930 0.0000
# 3 33.9431 29.7216 76.6301 0.0000 2.2862 0.0000
# 4 0.0000 0.0000 0.0000 13.5585 0.0000 -4.1794
# 5 4.5980 -3.4930 2.2862 0.0000 11.3464 0.0000
# 6 0.0000 0.0000 0.0000 -4.1794 0.0000 21.0514
#
#
#
# Elastic Compliance Matrix: (Units=1/GPa)
#
#
# Indices 1 2 3 4 5 6 
#
# 1 0.011915 -0.001227 -0.004675 0.000000 -0.004265 0.000000
# 2 -0.001227 0.031767 -0.012157 0.000000 0.012727 0.000000
# 3 -0.004675 -0.012157 0.020011 0.000000 -0.005880 0.000000
# 4 0.000000 0.000000 0.000000 0.078562 0.000000 0.015597
# 5 -0.004265 0.012727 -0.005880 0.000000 0.094965 0.000000
# 6 0.000000 0.000000 0.000000 0.015597 0.000000 0.050599
#
#
# Mechanical properties :
#
#
# Convention : Reuss Voigt Hill
#
# Bulk Modulus (GPa) = 36.26461 42.14279 39.20370
# Shear Modulus (GPa) = 15.00920 18.73829 16.87374
#
# Velocity S-wave (km/s) = 3.07608 3.43703 3.26155
# Velocity P-wave (km/s) = 5.95640 6.50531 6.23690
#
# Compressibility (1/GPa) = 0.02757509
#
# Stress axis : x y z
#
# Youngs Moduli (GPa) = 83.92452 31.47928 49.97262
#
# Poissons Ratio (x) = 0.03864 0.23360
# Poissons Ratio (y) = 0.10302 0.60752
# Poissons Ratio (z) = 0.39231 0.38269
#
# Static dielectric constant tensor:
#      x y z
#    x 1.591230 0.000000 0.025130 
#    y 0.000000 1.581320 0.000000 
#    z 0.025130 0.000000 1.492470 
# 
# From -- ./inp_files/233143.got.cif
#   From: 2010.05.17/outbox.cif.g08.bks.cpg/sg12_117_cif.got.tgz:233143.got - 2010.06.03 13:09:07.
