data_PCOD9171391
_publ_section_title
;
Structure prediction by ZEFSAII (Michael W. Deem and Ramdas Pophale) SiO2 
 PCOD9171391
Probable space group: C 2/M
;
_chemical_formula_sum "Si O2"
_cell_formula_units_Z 56
_cell_length_a 26.028027
_cell_length_b 7.319699
_cell_length_c 17.588743
_cell_angle_alpha 90.000000
_cell_angle_beta 120.661688
_cell_angle_gamma 90.000000
_cell_volume 2882.474093
_symmetry_space_group_name_H-M "C 2/M"
_symmetry_group_IT_number 12
_symmetry_cell_setting 'monoclinic'
loop_
_space_group_symop_operation_xyz
x,y,z
-x,y,-z
-x,-y,-z
x,-y,z
1/2+x,1/2+y,z
1/2-x,1/2+y,-z
1/2-x,1/2-y,-z
1/2+x,1/2-y,z
loop_
_atom_site_type_symbol
_atom_site_label
_atom_site_fract_x
_atom_site_fract_y
_atom_site_fract_z
Si Si1 0.506600 0.777398 0.220752
Si Si2 0.554784 0.222794 0.096052
Si Si3 0.528830 0.222068 0.404943
Si Si4 0.132592 0.722854 0.894747
Si Si5 0.168092 0.716611 0.088028
Si Si6 0.907000 0.277758 0.399088
Si Si7 0.804926 0.718471 0.212558
O O1 0.541103 0.717184 0.171412
O O2 0.533368 0.717137 0.321573
O O3 0.436891 0.724531 0.163416
O O4 0.507026 0.000000 0.220992
O O5 0.616621 0.285834 0.105407
O O6 0.555234 0.000000 0.097909
O O7 0.500000 0.275387 0.000000
O O8 0.577638 0.282093 0.503719
O O9 0.463933 0.272730 0.389889
O O10 0.529911 0.000000 0.405027
O O11 0.133983 0.500000 0.895058
O O12 0.169423 0.785423 0.849028
O O13 0.159380 0.785934 0.995294
O O14 0.158039 0.500000 0.075335
O O15 0.235126 0.744138 0.166630
O O16 0.906092 0.500000 0.400051
O O17 0.846885 0.214808 0.312762
O O18 0.811818 0.500000 0.216398
#
# Coordination Sequence:
#
# PCOD9171391 Si02
#       7
#     8   8   8   8   8   8   8
#     4   9  13  20  37  60  84 104 128 171 217 244
#     4   9  15  24  39  58  79 106 139 173 206 237
#     4   8  12  19  34  58  84 104 126 166 215 247
#     4   9  15  24  39  61  86 109 133 165 206 246
#     4  10  19  29  41  60  86 113 140 168 199 240
#     4   8  13  21  35  57  84 107 128 162 208 250
#     4  10  18  28  42  61  86 114 138 162 201 251
#
# _framework density 19.427755999999999
#
# number of rings (size 3 to 8) (size 9 to 14) (size 15 to 20)
#    0.000    3.000    2.857    1.286    0.000    0.000 
#    0.000    0.000    0.000    1.286    0.000    2.000 
#    0.000    0.000    0.000    0.000    0.000    0.000 
#
# Total GULP energy -156247.409121 kJ/mol
# GULP energy per Si atom -5580.264611 kJ/mol
# Density = 1.938354 g / cm^3
# Si number density = 19.427756 Si / 1000 Ang^3
#
#
#
# Elastic Constant Matrix: (Units=GPa)
#
#
# Indices 1 2 3 4 5 6 
#
# 1 149.1965 2.4795 121.2874 0.0000 1.0192 0.0000
# 2 2.4795 75.2353 1.5166 0.0000 -2.5734 0.0000
# 3 121.2874 1.5166 202.0493 0.0000 -14.4908 0.0000
# 4 0.0000 0.0000 0.0000 -1.0847 0.0000 -1.7178
# 5 1.0192 -2.5734 -14.4908 0.0000 32.1862 0.0000
# 6 0.0000 0.0000 0.0000 -1.7178 0.0000 144.7646
#
#
#
# Elastic Compliance Matrix: (Units=1/GPa)
#
#
# Indices 1 2 3 4 5 6 
#
# 1 0.013645 -0.000425 -0.008496 0.000000 -0.004291 0.000000
# 2 -0.000425 0.013341 0.000240 0.000000 0.001188 0.000000
# 3 -0.008496 0.000240 0.010404 0.000000 0.004972 0.000000
# 4 0.000000 0.000000 0.000000 -0.904910 0.000000 -0.010738
# 5 -0.004291 0.001188 0.004972 0.000000 0.033539 0.000000
# 6 0.000000 0.000000 0.000000 -0.010738 0.000000 0.006780
#
#
# Mechanical properties :
#
#
# Convention : Reuss Voigt Hill
#
# Bulk Modulus (GPa) = 49.92603 75.22758 62.57680
# Shear Modulus (GPa) = -6.22539 55.25306 24.51383
#
# Velocity S-wave (km/s) = -1.79202 5.33873 3.55603
# Velocity P-wave (km/s) = 4.63382 8.76404 7.01002
#
# Compressibility (1/GPa) = 0.02002963
#
# Stress axis : x y z
#
# Youngs Moduli (GPa) = 73.28462 74.95434 96.11734
#
# Poissons Ratio (x) = 0.03187 0.81659
# Poissons Ratio (y) = 0.03116 -0.02310
# Poissons Ratio (z) = 0.62261 -0.01801
#
# Static dielectric constant tensor:
#      x y z
#    x 1.642460 0.000000 -0.015690 
#    y 0.000000 1.777850 0.000000 
#    z -0.015690 0.000000 1.679470 
# 
# From -- ./inp_files/282610.got.cif
#   From: 2010.05.17/outbox.cif.g08.bks.cpg/sg12_142_cif.got.tgz:282610.got - 2010.06.03 13:09:07.
