data_PCOD9171652
_publ_section_title
;
Structure prediction by ZEFSAII (Michael W. Deem and Ramdas Pophale) SiO2 
 PCOD9171652
Probable space group: C 2/M
;
_chemical_formula_sum "Si O2"
_cell_formula_units_Z 56
_cell_length_a 15.694989
_cell_length_b 7.552767
_cell_length_c 16.926961
_cell_angle_alpha 90.000000
_cell_angle_beta 90.983477
_cell_angle_gamma 90.000000
_cell_volume 2006.236439
_symmetry_space_group_name_H-M "C 2/M"
_symmetry_group_IT_number 12
_symmetry_cell_setting 'monoclinic'
loop_
_space_group_symop_operation_xyz
x,y,z
-x,y,-z
-x,-y,-z
x,-y,z
1/2+x,1/2+y,z
1/2-x,1/2+y,-z
1/2-x,1/2-y,-z
1/2+x,1/2-y,z
loop_
_atom_site_type_symbol
_atom_site_label
_atom_site_fract_x
_atom_site_fract_y
_atom_site_fract_z
Si Si1 0.137064 0.713009 0.981909
Si Si2 0.184785 0.296119 0.598790
Si Si3 0.470310 0.787001 0.877576
Si Si4 0.418083 0.217362 0.546470
Si Si5 0.763674 0.211599 0.164346
Si Si6 0.072516 0.209270 0.733520
Si Si7 0.846605 0.702791 0.700820
O O1 0.138652 0.500000 0.984278
O O2 0.216780 0.764357 0.927841
O O3 0.054570 0.770126 0.927791
O O4 0.108850 0.774823 0.069152
O O5 0.210928 0.500000 0.595434
O O6 0.159515 0.229513 0.512026
O O7 0.097449 0.291217 0.650087
O O8 0.257795 0.196459 0.648027
O O9 0.489450 0.740801 0.786627
O O10 0.467189 0.000000 0.880329
O O11 0.500000 0.277120 0.500000
O O12 0.408390 0.284578 0.635613
O O13 0.418277 0.000000 0.548996
O O14 0.849270 0.276592 0.209684
O O15 0.686715 0.283059 0.217301
O O16 0.757098 0.000000 0.173679
O O17 0.080641 0.000000 0.724569
O O18 0.873959 0.500000 0.714631
#
# Coordination Sequence:
#
# PCOD9171652 Si02
#       7
#     8   8   8   8   8   8   8
#     4   8  13  20  31  48  74 108 140 172 209 249
#     4  10  18  28  46  68  88 114 148 184 220 260
#     4   8  13  21  32  49  75 107 142 175 209 250
#     4   9  18  32  49  68  89 114 146 183 221 262
#     4   8  14  22  33  52  77 106 139 173 208 249
#     4   9  16  25  37  55  81 112 144 178 215 255
#     4   9  17  30  47  66  89 116 147 183 220 259
#
# _framework density 27.912959000000001
#
# number of rings (size 3 to 8) (size 9 to 14) (size 15 to 20)
#    0.000    3.286    0.000    3.000    0.000    4.000 
#    0.000    3.571    0.000    3.857    0.000    0.000 
#    0.000    1.143    0.000    2.286    0.000    5.857 
#
# Total GULP energy -156552.444931 kJ/mol
# GULP energy per Si atom -5591.158748 kJ/mol
# Density = 2.784943 g / cm^3
# Si number density = 27.912959 Si / 1000 Ang^3
#
#
#
# Elastic Constant Matrix: (Units=GPa)
#
#
# Indices 1 2 3 4 5 6 
#
# 1 97.7587 -5.6637 58.8930 0.0000 -36.8095 0.0000
# 2 -5.6637 92.2652 8.3056 0.0000 -2.2024 0.0000
# 3 58.8930 8.3056 300.6833 0.0000 -21.1106 0.0000
# 4 0.0000 0.0000 0.0000 23.7595 0.0000 -5.6599
# 5 -36.8095 -2.2024 -21.1106 0.0000 79.9664 0.0000
# 6 0.0000 0.0000 0.0000 -5.6599 0.0000 5.9193
#
#
#
# Elastic Compliance Matrix: (Units=1/GPa)
#
#
# Indices 1 2 3 4 5 6 
#
# 1 0.013902 0.001204 -0.002348 0.000000 0.005813 0.000000
# 2 0.001204 0.010973 -0.000488 0.000000 0.000727 0.000000
# 3 -0.002348 -0.000488 0.003793 0.000000 -0.000093 0.000000
# 4 0.000000 0.000000 0.000000 0.054503 0.000000 0.052115
# 5 0.005813 0.000727 -0.000093 0.000000 0.015176 0.000000
# 6 0.000000 0.000000 0.000000 0.052115 0.000000 0.218769
#
#
# Mechanical properties :
#
#
# Convention : Reuss Voigt Hill
#
# Bulk Modulus (GPa) = 39.36448 68.19743 53.78096
# Shear Modulus (GPa) = 15.20452 50.54055 32.87253
#
# Velocity S-wave (km/s) = 2.33644 4.25979 3.43546
# Velocity P-wave (km/s) = 4.62729 6.97708 5.91994
#
# Compressibility (1/GPa) = 0.02540361
#
# Stress axis : x y z
#
# Youngs Moduli (GPa) = 71.93099 91.12881 263.67117
#
# Poissons Ratio (x) = -0.10967 0.61912
# Poissons Ratio (y) = -0.08657 0.12861
# Poissons Ratio (z) = 0.16890 0.04445
#
# Static dielectric constant tensor:
#      x y z
#    x 2.327260 0.000000 -0.008430 
#    y 0.000000 1.990650 0.000000 
#    z -0.008430 0.000000 2.194680 
# 
# From -- ./inp_files/319050.got.cif
#   From: 2010.05.17/outbox.cif.g08.bks.cpg/sg12_160_cif.got.tgz:319050.got - 2010.06.03 13:09:07.
