data_PCOD9171490
_publ_section_title
;
Structure prediction by ZEFSAII (Michael W. Deem and Ramdas Pophale) SiO2 
 PCOD9171490
Probable space group: C 2/M
;
_chemical_formula_sum "Si O2"
_cell_formula_units_Z 56
_cell_length_a 27.744579
_cell_length_b 9.153061
_cell_length_c 25.541061
_cell_angle_alpha 90.000000
_cell_angle_beta 144.217137
_cell_angle_gamma 90.000000
_cell_volume 3792.518530
_symmetry_space_group_name_H-M "C 2/M"
_symmetry_group_IT_number 12
_symmetry_cell_setting 'monoclinic'
loop_
_space_group_symop_operation_xyz
x,y,z
-x,y,-z
-x,-y,-z
x,-y,z
1/2+x,1/2+y,z
1/2-x,1/2+y,-z
1/2-x,1/2-y,-z
1/2+x,1/2-y,z
loop_
_atom_site_type_symbol
_atom_site_label
_atom_site_fract_x
_atom_site_fract_y
_atom_site_fract_z
Si Si1 0.851105 0.174041 0.535561
Si Si2 0.457184 0.825654 0.544099
Si Si3 0.870991 0.325077 0.358020
Si Si4 0.087260 0.174078 0.184404
Si Si5 0.197618 0.675753 0.192455
Si Si6 0.177908 0.174213 0.370590
Si Si7 0.946192 0.667691 0.006290
O O1 0.922609 0.242265 0.563481
O O2 0.857461 0.208959 0.603047
O O3 0.763921 0.241401 0.440393
O O4 0.849578 0.000000 0.528341
O O5 0.400710 0.792012 0.443478
O O6 0.550836 0.791120 0.610019
O O7 0.452096 0.000000 0.547884
O O8 0.856129 0.500000 0.342335
O O9 0.789375 0.237647 0.271985
O O10 0.150184 0.252192 0.199781
O O11 0.116748 0.207423 0.269134
O O12 0.091213 0.000000 0.179831
O O13 0.996341 0.232479 0.090397
O O14 0.195969 0.500000 0.196299
O O15 0.144002 0.712898 0.093323
O O16 0.195188 0.000000 0.384505
O O17 0.944300 0.500000 0.023189
O O18 0.000000 0.669208 0.000000
#
# Coordination Sequence:
#
# PCOD9171490 Si02
#       7
#     8   8   8   8   8   8   8
#     4  10  19  30  45  64  86 114 146 177 210 250
#     4   9  18  32  46  62  87 115 142 176 214 247
#     4   9  18  31  46  63  85 115 146 173 207 253
#     4  10  18  28  44  63  85 115 147 176 207 249
#     4  10  19  29  42  63  91 116 139 174 215 251
#     4   9  19  32  43  61  89 116 143 176 213 249
#     4   8  16  29  41  58  87 115 137 170 215 255
#
# _framework density 14.765914
#
# number of rings (size 3 to 8) (size 9 to 14) (size 15 to 20)
#    0.000    2.714    0.000    3.857    0.000    9.429 
#    0.000    1.429    0.000    0.000    0.000    1.000 
#    0.000    0.000    0.000    0.000    0.000    0.000 
#
# Total GULP energy -156038.782960 kJ/mol
# GULP energy per Si atom -5572.813677 kJ/mol
# Density = 1.473231 g / cm^3
# Si number density = 14.765914 Si / 1000 Ang^3
#
#
#
# Elastic Constant Matrix: (Units=GPa)
#
#
# Indices 1 2 3 4 5 6 
#
# 1 73.2251 41.0063 51.4121 0.0000 1.6445 0.0000
# 2 41.0063 48.6304 61.1404 0.0000 -0.5903 0.0000
# 3 51.4121 61.1404 139.0782 0.0000 3.6019 0.0000
# 4 0.0000 0.0000 0.0000 27.0765 0.0000 2.6613
# 5 1.6445 -0.5903 3.6019 0.0000 18.4145 0.0000
# 6 0.0000 0.0000 0.0000 2.6613 0.0000 23.8421
#
#
#
# Elastic Compliance Matrix: (Units=1/GPa)
#
#
# Indices 1 2 3 4 5 6 
#
# 1 0.026048 -0.022349 0.000276 0.000000 -0.003097 0.000000
# 2 -0.022349 0.065699 -0.020832 0.000000 0.008177 0.000000
# 3 0.000276 -0.020832 0.016347 0.000000 -0.003890 0.000000
# 4 0.000000 0.000000 0.000000 0.037342 0.000000 -0.004168
# 5 -0.003097 0.008177 -0.003890 0.000000 0.055604 0.000000
# 6 0.000000 0.000000 0.000000 -0.004168 0.000000 0.042408
#
#
# Mechanical properties :
#
#
# Convention : Reuss Voigt Hill
#
# Bulk Modulus (GPa) = 44.87586 63.11683 53.99634
# Shear Modulus (GPa) = 14.85068 21.02493 17.93780
#
# Velocity S-wave (km/s) = 3.17478 3.77753 3.48920
# Velocity P-wave (km/s) = 6.62544 7.86537 7.27188
#
# Compressibility (1/GPa) = 0.02228369
#
# Stress axis : x y z
#
# Youngs Moduli (GPa) = 38.39137 15.22101 61.17341
#
# Poissons Ratio (x) = 0.34017 -0.01689
# Poissons Ratio (y) = 0.85799 1.27438
# Poissons Ratio (z) = -0.01060 0.31709
#
# Static dielectric constant tensor:
#      x y z
#    x 1.470150 0.000000 -0.001680 
#    y 0.000000 1.490900 0.000000 
#    z -0.001680 0.000000 1.494430 
# 
# From -- ./inp_files/243054.got.cif
#   From: 2010.05.17/outbox.cif.g08.bks.cpg/sg12_122_cif.got.tgz:243054.got - 2010.06.03 13:09:07.
