data_PCOD9171666
_publ_section_title
;
Structure prediction by ZEFSAII (Michael W. Deem and Ramdas Pophale) SiO2 
 PCOD9171666
Probable space group: C 2/M
;
_chemical_formula_sum "Si O2"
_cell_formula_units_Z 24
_cell_length_a 6.967484
_cell_length_b 19.387189
_cell_length_c 7.104608
_cell_angle_alpha 90.000000
_cell_angle_beta 96.675003
_cell_angle_gamma 90.000000
_cell_volume 953.184645
_symmetry_space_group_name_H-M "C 2/M"
_symmetry_group_IT_number 12
_symmetry_cell_setting 'monoclinic'
loop_
_space_group_symop_operation_xyz
x,y,z
-x,y,-z
-x,-y,-z
x,-y,z
1/2+x,1/2+y,z
1/2-x,1/2+y,-z
1/2-x,1/2-y,-z
1/2+x,1/2-y,z
loop_
_atom_site_type_symbol
_atom_site_label
_atom_site_fract_x
_atom_site_fract_y
_atom_site_fract_z
Si Si1 0.862145 0.851879 0.323268
Si Si2 0.044070 0.696702 0.780809
Si Si3 0.224572 0.423875 0.947671
O O1 0.635486 0.839425 0.342437
O O2 0.852890 0.900596 0.139461
O O3 0.000000 0.879483 0.500000
O O4 0.919086 0.772582 0.287850
O O5 0.000000 0.707924 0.000000
O O6 0.216516 0.640987 0.805230
O O7 0.270687 0.500000 0.881650
O O8 0.000000 0.427808 0.000000
#
# Coordination Sequence:
#
# PCOD9171666 Si02
#       3
#     8   8   8
#     4  10  18  28  46  70  91 111 141 185 224 252
#     4   9  17  30  47  65  87 118 149 176 211 261
#     4   8  15  28  45  64  86 115 149 178 209 255
#
# _framework density 25.178753
#
# number of rings (size 3 to 8) (size 9 to 14) (size 15 to 20)
#    0.000    3.667    0.000    5.000    0.000    0.667 
#    0.000    0.000    0.000   10.000    0.000    0.000 
#    0.000    2.667    0.000    0.000    0.000    0.000 
#
# Total GULP energy -67078.854543 kJ/mol
# GULP energy per Si atom -5589.904545 kJ/mol
# Density = 2.512145 g / cm^3
# Si number density = 25.178753 Si / 1000 Ang^3
#
#
#
# Elastic Constant Matrix: (Units=GPa)
#
#
# Indices 1 2 3 4 5 6 
#
# 1 69.9478 6.7782 46.4350 0.0000 18.2349 0.0000
# 2 6.7782 134.0738 29.7000 0.0000 6.0411 0.0000
# 3 46.4350 29.7000 165.5545 0.0000 51.1930 0.0000
# 4 0.0000 0.0000 0.0000 2.7540 0.0000 5.0773
# 5 18.2349 6.0411 51.1930 0.0000 49.1452 0.0000
# 6 0.0000 0.0000 0.0000 5.0773 0.0000 25.0535
#
#
#
# Elastic Compliance Matrix: (Units=1/GPa)
#
#
# Indices 1 2 3 4 5 6 
#
# 1 0.017711 0.000164 -0.004365 0.000000 -0.002045 0.000000
# 2 0.000164 0.007787 -0.001664 0.000000 0.000716 0.000000
# 3 -0.004365 -0.001664 0.010325 0.000000 -0.008931 0.000000
# 4 0.000000 0.000000 0.000000 0.579677 0.000000 -0.117476
# 5 -0.002045 0.000716 -0.008931 0.000000 0.030322 0.000000
# 6 0.000000 0.000000 0.000000 -0.117476 0.000000 0.063722
#
#
# Mechanical properties :
#
#
# Convention : Reuss Voigt Hill
#
# Bulk Modulus (GPa) = 41.50686 59.48917 50.49802
# Shear Modulus (GPa) = 6.85585 34.50141 20.67863
#
# Velocity S-wave (km/s) = 1.65190 3.70572 2.86890
# Velocity P-wave (km/s) = 4.48988 6.47980 5.57435
#
# Compressibility (1/GPa) = 0.02409240
#
# Stress axis : x y z
#
# Youngs Moduli (GPa) = 56.46166 128.42431 96.85589
#
# Poissons Ratio (x) = -0.02101 0.42273
# Poissons Ratio (y) = -0.00924 0.16117
# Poissons Ratio (z) = 0.24643 0.21370
#
# Static dielectric constant tensor:
#      x y z
#    x 2.199090 0.000000 -0.020730 
#    y 0.000000 1.925170 0.000000 
#    z -0.020730 0.000000 1.981880 
# 
# From -- ./inp_files/36311.got.cif
#   From: 2010.05.17/outbox.cif.g08.bks.cpg/sg12_19_cif.got.tgz:36311.got - 2010.06.03 13:09:07.
