data_PCOD9171346
_publ_section_title
;
Structure prediction by ZEFSAII (Michael W. Deem and Ramdas Pophale) SiO2 
 PCOD9171346
Probable space group: C 2/M
;
_chemical_formula_sum "Si O2"
_cell_formula_units_Z 44
_cell_length_a 20.180369
_cell_length_b 10.556411
_cell_length_c 9.006353
_cell_angle_alpha 90.000000
_cell_angle_beta 66.095523
_cell_angle_gamma 90.000000
_cell_volume 1754.066955
_symmetry_space_group_name_H-M "C 2/M"
_symmetry_group_IT_number 12
_symmetry_cell_setting 'monoclinic'
loop_
_space_group_symop_operation_xyz
x,y,z
-x,y,-z
-x,-y,-z
x,-y,z
1/2+x,1/2+y,z
1/2-x,1/2+y,-z
1/2-x,1/2-y,-z
1/2+x,1/2-y,z
loop_
_atom_site_type_symbol
_atom_site_label
_atom_site_fract_x
_atom_site_fract_y
_atom_site_fract_z
Si Si1 0.803555 0.000000 0.417979
Si Si2 0.661428 0.706180 0.828443
Si Si3 0.652400 0.000000 0.152209
Si Si4 0.802483 0.500000 0.208664
Si Si5 0.476236 0.223621 0.173837
Si Si6 0.587817 0.500000 0.436889
Si Si7 0.371608 0.280849 0.814817
Si Si8 0.015086 0.500000 0.659783
O O1 0.791280 0.878804 0.323226
O O2 0.753978 0.000000 0.607171
O O3 0.883007 0.000000 0.423025
O O4 0.665063 0.857870 0.807252
O O5 0.580147 0.677992 0.842727
O O6 0.670250 0.680561 0.995789
O O7 0.655406 0.142251 0.215133
O O8 0.565211 0.000000 0.191013
O O9 0.705882 0.000000 0.963092
O O10 0.546087 0.274253 0.196462
O O11 0.444695 0.124234 0.320714
O O12 0.500000 0.154067 0.000000
O O13 0.500000 0.500000 0.500000
O O14 0.623246 0.379658 0.321317
O O15 0.000000 0.500000 0.500000
#
# Coordination Sequence:
#
# PCOD9171346 Si02
#       8
#     4   8   4   4   8   4   8   4
#     4  12  25  38  58  89 117 152 198 242 289 351
#     4  10  20  38  63  86 113 149 196 247 290 339
#     4   8  18  36  58  81 109 149 193 238 284 333
#     4  10  21  41  63  84 113 152 199 250 291 333
#     4   9  17  31  54  83 111 146 188 229 284 348
#     4  12  25  40  56  85 128 161 187 235 299 359
#     4   9  19  37  60  84 116 155 189 234 295 353
#     4  10  18  27  49  85 120 148 181 235 294 346
#
# _framework density 25.084561000000001
#
# number of rings (size 3 to 8) (size 9 to 14) (size 15 to 20)
#    0.000    2.182    0.000    4.091    0.000    7.273 
#    0.000    8.182    0.000    4.364    0.000    0.000 
#    0.000    0.000    0.000    0.000    0.000    0.000 
#
# Total GULP energy -122598.929970 kJ/mol
# GULP energy per Si atom -5572.678635 kJ/mol
# Density = 2.502747 g / cm^3
# Si number density = 25.084561 Si / 1000 Ang^3
#
#
#
# Elastic Constant Matrix: (Units=GPa)
#
#
# Indices 1 2 3 4 5 6 
#
# 1 63.5153 24.0892 23.7633 0.0000 15.0896 0.0000
# 2 24.0892 153.4517 83.1376 0.0000 20.8307 0.0000
# 3 23.7633 83.1376 127.5087 0.0000 10.3687 0.0000
# 4 0.0000 0.0000 0.0000 53.3689 0.0000 14.6648
# 5 15.0896 20.8307 10.3687 0.0000 40.0604 0.0000
# 6 0.0000 0.0000 0.0000 14.6648 0.0000 15.2432
#
#
#
# Elastic Compliance Matrix: (Units=1/GPa)
#
#
# Indices 1 2 3 4 5 6 
#
# 1 0.018344 -0.000755 -0.002448 0.000000 -0.005884 0.000000
# 2 -0.000755 0.010647 -0.006511 0.000000 -0.003567 0.000000
# 3 -0.002448 -0.006511 0.012456 0.000000 0.001084 0.000000
# 4 0.000000 0.000000 0.000000 0.025471 0.000000 -0.024504
# 5 -0.005884 -0.003567 0.001084 0.000000 0.028753 0.000000
# 6 0.000000 0.000000 0.000000 -0.024504 0.000000 0.089178
#
#
# Mechanical properties :
#
#
# Convention : Reuss Voigt Hill
#
# Bulk Modulus (GPa) = 45.41524 67.38398 56.39961
# Shear Modulus (GPa) = 23.62759 35.96687 29.79723
#
# Velocity S-wave (km/s) = 3.07240 3.79070 3.45029
# Velocity P-wave (km/s) = 5.54349 6.78824 6.19720
#
# Compressibility (1/GPa) = 0.02201904
#
# Stress axis : x y z
#
# Youngs Moduli (GPa) = 54.51307 93.92209 80.28078
#
# Poissons Ratio (x) = 0.07087 0.19655
# Poissons Ratio (y) = 0.04113 0.52274
# Poissons Ratio (z) = 0.13346 0.61157
#
# Static dielectric constant tensor:
#      x y z
#    x 2.091340 0.000000 -0.093470 
#    y 0.000000 2.277680 0.000000 
#    z -0.093470 0.000000 1.971200 
# 
# From -- ./inp_files/94866.got.cif
#   From: 2010.05.17/outbox.cif.g08.bks.cpg/sg12_48_cif.got.tgz:94866.got - 2010.06.03 13:09:07.
