data_PCOD9171703
_publ_section_title
;
Structure prediction by ZEFSAII (Michael W. Deem and Ramdas Pophale) SiO2 
 PCOD9171703
Probable space group: C 2/M
;
_chemical_formula_sum "Si O2"
_cell_formula_units_Z 48
_cell_length_a 14.571775
_cell_length_b 7.433855
_cell_length_c 19.786927
_cell_angle_alpha 90.000000
_cell_angle_beta 122.553824
_cell_angle_gamma 90.000000
_cell_volume 1806.649500
_symmetry_space_group_name_H-M "C 2/M"
_symmetry_group_IT_number 12
_symmetry_cell_setting 'monoclinic'
loop_
_space_group_symop_operation_xyz
x,y,z
-x,y,-z
-x,-y,-z
x,-y,z
1/2+x,1/2+y,z
1/2-x,1/2+y,-z
1/2-x,1/2-y,-z
1/2+x,1/2-y,z
loop_
_atom_site_type_symbol
_atom_site_label
_atom_site_fract_x
_atom_site_fract_y
_atom_site_fract_z
Si Si1 0.589740 0.216074 0.480107
Si Si2 0.922835 0.283286 0.820355
Si Si3 0.938314 0.294340 0.310759
Si Si4 0.348475 0.779726 0.132777
Si Si5 0.618790 0.294528 0.051296
Si Si6 0.243661 0.212694 0.652263
O O1 0.500000 0.279028 0.500000
O O2 0.544125 0.284905 0.390592
O O3 0.705200 0.256565 0.560312
O O4 0.582678 0.000000 0.473880
O O5 0.919947 0.500000 0.823844
O O6 0.049031 0.229165 0.872246
O O7 0.861124 0.204330 0.859860
O O8 0.861191 0.230194 0.727007
O O9 0.967212 0.500000 0.303599
O O10 0.886609 0.216880 0.222476
O O11 0.845522 0.295911 0.332070
O O12 0.229057 0.710977 0.066464
O O13 0.340707 0.000000 0.130381
O O14 0.608842 0.500000 0.023716
O O15 0.500000 0.205973 0.000000
O O16 0.237206 0.000000 0.660126
#
# Coordination Sequence:
#
# PCOD9171703 Si02
#       6
#     8   8   8   8   8   8
#     4   8  15  26  44  71  98 133 183 219 251 306
#     4  10  21  36  55  80 109 144 178 210 261 326
#     4   9  16  30  52  72  96 140 185 215 252 310
#     4   9  18  35  57  78 107 144 177 212 261 320
#     4  10  21  38  61  85 106 134 175 220 264 313
#     4  10  18  28  46  73 105 137 173 217 265 306
#
# _framework density 26.568517
#
# number of rings (size 3 to 8) (size 9 to 14) (size 15 to 20)
#    0.000    2.667    1.667    1.500    0.000    4.667 
#    0.000    2.500    0.000    0.000    0.000    0.000 
#    0.000    0.000    0.000    0.000    0.000    0.000 
#
# Total GULP energy -134112.149061 kJ/mol
# GULP energy per Si atom -5588.006211 kJ/mol
# Density = 2.650805 g / cm^3
# Si number density = 26.568517 Si / 1000 Ang^3
#
#
#
# Elastic Constant Matrix: (Units=GPa)
#
#
# Indices 1 2 3 4 5 6 
#
# 1 109.9210 1.5442 49.8215 0.0000 25.3417 0.0000
# 2 1.5442 96.4959 14.3676 0.0000 4.0207 0.0000
# 3 49.8215 14.3676 140.4387 0.0000 25.9854 0.0000
# 4 0.0000 0.0000 0.0000 16.3348 0.0000 1.2804
# 5 25.3417 4.0207 25.9854 0.0000 55.4242 0.0000
# 6 0.0000 0.0000 0.0000 1.2804 0.0000 0.9546
#
#
#
# Elastic Compliance Matrix: (Units=1/GPa)
#
#
# Indices 1 2 3 4 5 6 
#
# 1 0.011502 0.000483 -0.003449 0.000000 -0.003677 0.000000
# 2 0.000483 0.010548 -0.001169 0.000000 -0.000438 0.000000
# 3 -0.003449 -0.001169 0.008931 0.000000 -0.002525 0.000000
# 4 0.000000 0.000000 0.000000 0.068412 0.000000 -0.091766
# 5 -0.003677 -0.000438 -0.002525 0.000000 0.020940 0.000000
# 6 0.000000 0.000000 0.000000 -0.091766 0.000000 1.170690
#
#
# Mechanical properties :
#
#
# Convention : Reuss Voigt Hill
#
# Bulk Modulus (GPa) = 44.03621 53.14691 48.59156
# Shear Modulus (GPa) = 3.82595 33.28421 18.55508
#
# Velocity S-wave (km/s) = 1.20132 3.54329 2.64557
# Velocity P-wave (km/s) = 4.30520 6.06523 5.25936
#
# Compressibility (1/GPa) = 0.02270858
#
# Stress axis : x y z
#
# Youngs Moduli (GPa) = 86.94326 94.80694 111.96789
#
# Poissons Ratio (x) = -0.04577 0.38622
# Poissons Ratio (y) = -0.04197 0.13093
# Poissons Ratio (z) = 0.29990 0.11086
#
# Static dielectric constant tensor:
#      x y z
#    x 2.056810 0.000000 0.026720 
#    y 0.000000 1.992760 0.000000 
#    z 0.026720 0.000000 2.151100 
# 
# From -- ./inp_files/342053.got.cif
#   From: 2010.05.17/outbox.cif.g08.bks.cpg/sg12_172_cif.got.tgz:342053.got - 2010.06.03 13:09:07.
