data_PCOD9171483
_publ_section_title
;
Structure prediction by ZEFSAII (Michael W. Deem and Ramdas Pophale) SiO2 
 PCOD9171483
Probable space group: C 2/M
;
_chemical_formula_sum "Si O2"
_cell_formula_units_Z 48
_cell_length_a 7.813937
_cell_length_b 22.960624
_cell_length_c 14.964488
_cell_angle_alpha 90.000000
_cell_angle_beta 121.182701
_cell_angle_gamma 90.000000
_cell_volume 2296.920369
_symmetry_space_group_name_H-M "C 2/M"
_symmetry_group_IT_number 12
_symmetry_cell_setting 'monoclinic'
loop_
_space_group_symop_operation_xyz
x,y,z
-x,y,-z
-x,-y,-z
x,-y,z
1/2+x,1/2+y,z
1/2-x,1/2+y,-z
1/2-x,1/2-y,-z
1/2+x,1/2-y,z
loop_
_atom_site_type_symbol
_atom_site_label
_atom_site_fract_x
_atom_site_fract_y
_atom_site_fract_z
Si Si1 0.832405 0.326786 0.206667
Si Si2 0.993606 0.431565 0.347912
Si Si3 0.330175 0.567676 0.578428
Si Si4 0.406815 0.330199 0.307220
Si Si5 0.407466 0.276016 0.114395
Si Si6 0.189914 0.734861 0.609974
O O1 0.917925 0.391157 0.245606
O O2 0.594095 0.312478 0.124077
O O3 0.955472 0.286592 0.172184
O O4 0.843054 0.298058 0.306340
O O5 0.008803 0.500000 0.327813
O O6 0.821144 0.426883 0.377931
O O7 0.198429 0.414887 0.455797
O O8 0.379857 0.500000 0.580656
O O9 0.526465 0.604443 0.655822
O O10 0.345881 0.313938 0.187494
O O11 0.616609 0.295292 0.377088
O O12 0.286636 0.302158 0.356824
O O13 0.250000 0.250000 0.000000
O O14 0.000000 0.723878 0.500000
#
# Coordination Sequence:
#
# PCOD9171483 Si02
#       6
#     8   8   8   8   8   8
#     4  10  19  31  49  74  98 126 161 198 246 295
#     4   9  16  28  47  73 103 131 158 193 238 289
#     4   9  16  28  47  72 102 134 161 190 232 292
#     4  10  19  30  47  71  97 126 164 196 242 292
#     4  10  20  33  48  67  96 129 163 207 250 286
#     4  10  18  28  43  71 102 125 150 194 243 295
#
# _framework density 20.897548
#
# number of rings (size 3 to 8) (size 9 to 14) (size 15 to 20)
#    0.000    2.333    3.333    3.000    0.000    2.667 
#    0.000    0.000    0.000    3.500    0.000   21.000 
#    0.000   22.667    0.000    0.000    0.000    0.000 
#
# Total GULP energy -133622.003665 kJ/mol
# GULP energy per Si atom -5567.583486 kJ/mol
# Density = 2.084998 g / cm^3
# Si number density = 20.897548 Si / 1000 Ang^3
#
#
#
# Elastic Constant Matrix: (Units=GPa)
#
#
# Indices 1 2 3 4 5 6 
#
# 1 41.7886 9.6690 10.4131 0.0000 3.0615 0.0000
# 2 9.6690 123.8416 47.8589 0.0000 1.3406 0.0000
# 3 10.4131 47.8589 138.8332 0.0000 20.1075 0.0000
# 4 0.0000 0.0000 0.0000 32.4305 0.0000 5.2180
# 5 3.0615 1.3406 20.1075 0.0000 19.2815 0.0000
# 6 0.0000 0.0000 0.0000 5.2180 0.0000 19.0639
#
#
#
# Elastic Compliance Matrix: (Units=1/GPa)
#
#
# Indices 1 2 3 4 5 6 
#
# 1 0.024724 -0.001550 -0.000904 0.000000 -0.002876 0.000000
# 2 -0.001550 0.009582 -0.003682 0.000000 0.003420 0.000000
# 3 -0.000904 -0.003682 0.009991 0.000000 -0.010020 0.000000
# 4 0.000000 0.000000 0.000000 0.032256 0.000000 -0.008829
# 5 -0.002876 0.003420 -0.010020 0.000000 0.062531 0.000000
# 6 0.000000 0.000000 0.000000 -0.008829 0.000000 0.054872
#
#
# Mechanical properties :
#
#
# Convention : Reuss Voigt Hill
#
# Bulk Modulus (GPa) = 31.22476 48.92727 40.07602
# Shear Modulus (GPa) = 23.05185 29.92335 26.48760
#
# Velocity S-wave (km/s) = 3.32488 3.78816 3.56406
# Velocity P-wave (km/s) = 5.45106 6.52666 6.01296
#
# Compressibility (1/GPa) = 0.03202586
#
# Stress axis : x y z
#
# Youngs Moduli (GPa) = 40.44577 104.36476 100.08888
#
# Poissons Ratio (x) = 0.16177 0.09044
# Poissons Ratio (y) = 0.06269 0.36853
# Poissons Ratio (z) = 0.03655 0.38428
#
# Static dielectric constant tensor:
#      x y z
#    x 2.008840 0.000000 0.064990 
#    y 0.000000 1.834180 0.000000 
#    z 0.064990 0.000000 1.831450 
# 
# From -- ./inp_files/264877.got.cif
#   From: 2010.05.17/outbox.cif.g08.bks.cpg/sg12_133_cif.got.tgz:264877.got - 2010.06.03 13:09:07.
