data_PCOD9171116
_publ_section_title
;
Structure prediction by ZEFSAII (Michael W. Deem and Ramdas Pophale) SiO2 
 PCOD9171116
Probable space group: C 2/M
;
_chemical_formula_sum "Si O2"
_cell_formula_units_Z 48
_cell_length_a 14.225836
_cell_length_b 17.875083
_cell_length_c 8.554729
_cell_angle_alpha 90.000000
_cell_angle_beta 125.276174
_cell_angle_gamma 90.000000
_cell_volume 1775.919666
_symmetry_space_group_name_H-M "C 2/M"
_symmetry_group_IT_number 12
_symmetry_cell_setting 'monoclinic'
loop_
_space_group_symop_operation_xyz
x,y,z
-x,y,-z
-x,-y,-z
x,-y,z
1/2+x,1/2+y,z
1/2-x,1/2+y,-z
1/2-x,1/2-y,-z
1/2+x,1/2-y,z
loop_
_atom_site_type_symbol
_atom_site_label
_atom_site_fract_x
_atom_site_fract_y
_atom_site_fract_z
Si Si1 0.422945 0.583512 0.084667
Si Si2 0.148944 0.765862 0.526645
Si Si3 0.351380 0.578865 0.504237
Si Si4 0.425298 0.081447 0.173905
Si Si5 0.336352 0.892601 0.414442
Si Si6 0.568326 0.250163 0.903379
O O1 0.366816 0.500000 0.034641
O O2 0.517062 0.580102 0.314379
O O3 0.367500 0.667731 0.037923
O O4 0.500000 0.583930 0.000000
O O5 0.250000 0.750000 0.500000
O O6 0.169676 0.847066 0.614569
O O7 0.157246 0.693448 0.635469
O O8 0.027582 0.761070 0.323408
O O9 0.322027 0.500000 0.402216
O O10 0.275636 0.588220 0.591195
O O11 0.557406 0.091247 0.365624
O O12 0.355083 0.071811 0.266517
O O13 0.392806 0.162279 0.067131
O O14 0.418232 0.000000 0.082117
O O15 0.500000 0.252446 0.000000
#
# Coordination Sequence:
#
# PCOD9171116 Si02
#       6
#     8   8   8   8   8   8
#     4   8  14  25  42  61  78  99 130 169 209 246
#     4   8  15  26  42  61  82 108 138 173 209 245
#     4   9  14  22  40  63  83 102 130 170 210 247
#     4  10  18  27  41  60  85 115 143 172 204 244
#     4   9  16  27  41  61  85 109 142 176 206 240
#     4   9  17  28  42  61  86 111 138 173 213 252
#
# _framework density 27.028248000000001
#
# number of rings (size 3 to 8) (size 9 to 14) (size 15 to 20)
#    0.000    3.167    0.000    2.000    0.000    0.333 
#    0.000    0.000    0.000   17.000    0.000    7.000 
#    0.000    0.000    0.000    0.000    0.000    0.000 
#
# Total GULP energy -133775.465797 kJ/mol
# GULP energy per Si atom -5573.977742 kJ/mol
# Density = 2.696673 g / cm^3
# Si number density = 27.028248 Si / 1000 Ang^3
#
#
#
# Elastic Constant Matrix: (Units=GPa)
#
#
# Indices 1 2 3 4 5 6 
#
# 1 88.2567 24.7140 19.1029 0.0000 4.8199 0.0000
# 2 24.7140 398.9161 24.6833 0.0000 0.1264 0.0000
# 3 19.1029 24.6833 69.3020 0.0000 20.0267 0.0000
# 4 0.0000 0.0000 0.0000 4.6575 0.0000 -4.0070
# 5 4.8199 0.1264 20.0267 0.0000 37.0891 0.0000
# 6 0.0000 0.0000 0.0000 -4.0070 0.0000 11.2997
#
#
#
# Elastic Compliance Matrix: (Units=1/GPa)
#
#
# Indices 1 2 3 4 5 6 
#
# 1 0.012171 -0.000556 -0.003200 0.000000 0.000148 0.000000
# 2 -0.000556 0.002599 -0.000937 0.000000 0.000569 0.000000
# 3 -0.003200 -0.000937 0.018394 0.000000 -0.009513 0.000000
# 4 0.000000 0.000000 0.000000 0.308971 0.000000 0.109565
# 5 0.000148 0.000569 -0.009513 0.000000 0.032078 0.000000
# 6 0.000000 0.000000 0.000000 0.109565 0.000000 0.127351
#
#
# Mechanical properties :
#
#
# Convention : Reuss Voigt Hill
#
# Bulk Modulus (GPa) = 42.05377 77.05281 59.55329
# Shear Modulus (GPa) = 9.63623 43.14090 26.38856
#
# Velocity S-wave (km/s) = 1.89023 3.99951 3.12802
# Velocity P-wave (km/s) = 4.51187 7.06387 5.92685
#
# Compressibility (1/GPa) = 0.02377908
#
# Stress axis : x y z
#
# Youngs Moduli (GPa) = 82.16420 384.75790 54.36453
#
# Poissons Ratio (x) = 0.21396 0.17394
# Poissons Ratio (y) = 0.04569 0.05094
# Poissons Ratio (z) = 0.26288 0.36049
#
# Static dielectric constant tensor:
#      x y z
#    x 2.047860 0.000000 0.070660 
#    y 0.000000 2.226190 0.000000 
#    z 0.070660 0.000000 1.980780 
# 
# From -- ./inp_files/157414.got.cif
#   From: 2010.05.17/outbox.cif.g08.bks.cpg/sg12_79_cif.got.tgz:157414.got - 2010.06.03 13:09:07.
