data_PCOD9171934
_publ_section_title
;
Structure prediction by ZEFSAII (Michael W. Deem and Ramdas Pophale) SiO2 
 PCOD9171934
Probable space group: C 2/M
;
_chemical_formula_sum "Si O2"
_cell_formula_units_Z 56
_cell_length_a 28.137064
_cell_length_b 8.621981
_cell_length_c 16.656286
_cell_angle_alpha 90.000000
_cell_angle_beta 65.333651
_cell_angle_gamma 90.000000
_cell_volume 3672.062618
_symmetry_space_group_name_H-M "C 2/M"
_symmetry_group_IT_number 12
_symmetry_cell_setting 'monoclinic'
loop_
_space_group_symop_operation_xyz
x,y,z
-x,y,-z
-x,-y,-z
x,-y,z
1/2+x,1/2+y,z
1/2-x,1/2+y,-z
1/2-x,1/2-y,-z
1/2+x,1/2-y,z
loop_
_atom_site_type_symbol
_atom_site_label
_atom_site_fract_x
_atom_site_fract_y
_atom_site_fract_z
Si Si1 0.741542 0.814515 0.311327
Si Si2 0.051671 0.813190 0.866292
Si Si3 0.765122 0.185206 0.861562
Si Si4 0.560972 0.186452 0.038589
Si Si5 0.802821 0.813945 0.503816
Si Si6 0.668974 0.186931 0.043146
Si Si7 0.647610 0.688398 0.689824
O O1 0.732257 0.757424 0.228152
O O2 0.699285 0.751838 0.405133
O O3 0.799386 0.761671 0.301114
O O4 0.741066 0.000000 0.314501
O O5 0.095904 0.759953 0.772545
O O6 0.994036 0.748171 0.889189
O O7 0.049773 0.000000 0.868639
O O8 0.066109 0.754279 0.945197
O O9 0.811238 0.240052 0.888041
O O10 0.765478 0.000000 0.854731
O O11 0.711313 0.232174 0.944975
O O12 0.611191 0.231816 0.055603
O O13 0.559169 0.000000 0.034384
O O14 0.750000 0.750000 0.500000
O O15 0.846938 0.767399 0.407787
O O16 0.800907 0.000000 0.508480
O O17 0.670935 0.000000 0.049027
O O18 0.647662 0.500000 0.692073
#
# Coordination Sequence:
#
# PCOD9171934 Si02
#       7
#     8   8   8   8   8   8   8
#     4  10  18  29  44  64  91 120 147 177 216 259
#     4  10  18  29  45  65  87 115 150 180 212 253
#     4  10  19  30  46  67  87 113 149 182 215 257
#     4  10  19  31  44  62  89 117 145 179 218 254
#     4   9  16  28  43  62  88 116 146 179 217 259
#     4   9  19  33  46  62  88 118 146 180 219 258
#     4   8  16  28  43  63  88 117 146 178 213 252
#
# _framework density 15.250285
#
# number of rings (size 3 to 8) (size 9 to 14) (size 15 to 20)
#    0.000    2.571    0.000    4.714    0.000    1.714 
#    0.000    7.857    0.000    0.000    0.000    1.000 
#    0.000    8.000    0.000    0.000    0.000    0.000 
#
# Total GULP energy -156029.739714 kJ/mol
# GULP energy per Si atom -5572.490704 kJ/mol
# Density = 1.521557 g / cm^3
# Si number density = 15.250285 Si / 1000 Ang^3
#
#
#
# Elastic Constant Matrix: (Units=GPa)
#
#
# Indices 1 2 3 4 5 6 
#
# 1 103.3481 31.5718 70.2215 0.0000 -2.6082 0.0000
# 2 31.5718 43.9348 37.6365 0.0000 2.1753 0.0000
# 3 70.2215 37.6365 156.3563 0.0000 -3.0792 0.0000
# 4 0.0000 0.0000 0.0000 23.0785 0.0000 3.3034
# 5 -2.6082 2.1753 -3.0792 0.0000 23.8035 0.0000
# 6 0.0000 0.0000 0.0000 3.3034 0.0000 20.4015
#
#
#
# Elastic Compliance Matrix: (Units=1/GPa)
#
#
# Indices 1 2 3 4 5 6 
#
# 1 0.015294 -0.006566 -0.005257 0.000000 0.001596 0.000000
# 2 -0.006566 0.031790 -0.004787 0.000000 -0.004244 0.000000
# 3 -0.005257 -0.004787 0.009931 0.000000 0.001146 0.000000
# 4 0.000000 0.000000 0.000000 0.044358 0.000000 -0.007182
# 5 0.001596 -0.004244 0.001146 0.000000 0.042722 0.000000
# 6 0.000000 0.000000 0.000000 -0.007182 0.000000 0.050179
#
#
# Mechanical properties :
#
#
# Convention : Reuss Voigt Hill
#
# Bulk Modulus (GPa) = 42.02383 64.72207 53.37295
# Shear Modulus (GPa) = 21.23808 24.40400 22.82104
#
# Velocity S-wave (km/s) = 3.73585 4.00463 3.87257
# Velocity P-wave (km/s) = 6.79887 7.99467 7.42090
#
# Compressibility (1/GPa) = 0.02379603
#
# Stress axis : x y z
#
# Youngs Moduli (GPa) = 65.38518 31.45614 100.69143
#
# Poissons Ratio (x) = 0.20655 0.52931
# Poissons Ratio (y) = 0.42933 0.48200
# Poissons Ratio (z) = 0.34371 0.15058
#
# Static dielectric constant tensor:
#      x y z
#    x 1.535880 0.000000 0.018120 
#    y 0.000000 1.515830 0.000000 
#    z 0.018120 0.000000 1.540370 
# 
# From -- ./inp_files/243032.got.cif
#   From: 2010.05.17/outbox.cif.g08.bks.cpg/sg12_122_cif.got.tgz:243032.got - 2010.06.03 13:09:07.
