data_PCOD9171850
_publ_section_title
;
Structure prediction by ZEFSAII (Michael W. Deem and Ramdas Pophale) SiO2 
 PCOD9171850
Probable space group: C 2/M
;
_chemical_formula_sum "Si O2"
_cell_formula_units_Z 64
_cell_length_a 12.330276
_cell_length_b 19.981580
_cell_length_c 20.735875
_cell_angle_alpha 90.000000
_cell_angle_beta 142.579796
_cell_angle_gamma 90.000000
_cell_volume 3104.436158
_symmetry_space_group_name_H-M "C 2/M"
_symmetry_group_IT_number 12
_symmetry_cell_setting 'monoclinic'
loop_
_space_group_symop_operation_xyz
x,y,z
-x,y,-z
-x,-y,-z
x,-y,z
1/2+x,1/2+y,z
1/2-x,1/2+y,-z
1/2-x,1/2-y,-z
1/2+x,1/2-y,z
loop_
_atom_site_type_symbol
_atom_site_label
_atom_site_fract_x
_atom_site_fract_y
_atom_site_fract_z
Si Si1 0.119747 0.734220 0.609515
Si Si2 0.622024 0.076216 0.362718
Si Si3 0.088971 0.823520 0.926382
Si Si4 0.785380 0.657822 0.215883
Si Si5 0.535028 0.168020 0.939497
Si Si6 0.506594 0.727367 0.256775
Si Si7 0.729102 0.075340 0.264157
Si Si8 0.418353 0.645661 0.580823
O O1 0.169704 0.686764 0.692059
O O2 0.307879 0.762826 0.673629
O O3 0.000000 0.697454 0.500000
O O4 0.997393 0.794955 0.574461
O O5 0.416559 0.097484 0.264141
O O6 0.692219 0.081751 0.322804
O O7 0.731044 0.123340 0.463275
O O8 0.644967 0.000000 0.394588
O O9 0.062438 0.748106 0.942578
O O10 0.923194 0.859737 0.882273
O O11 0.054600 0.813479 0.833954
O O12 0.286032 0.855149 0.015882
O O13 0.853227 0.719937 0.203427
O O14 0.372195 0.132622 0.824946
O O15 0.500000 0.155903 0.000000
O O16 0.567080 0.677903 0.341898
O O17 0.939943 0.085885 0.354989
O O18 0.675033 0.000000 0.218374
#
# Coordination Sequence:
#
# PCOD9171850 Si02
#       8
#     8   8   8   8   8   8   8   8
#     4  10  18  28  49  81 112 142 177 225 277 326
#     4  11  23  38  56  79 112 154 195 231 270 326
#     4  10  21  36  60  87 114 143 178 230 288 343
#     4  10  19  33  53  79 111 145 180 222 274 332
#     4  11  22  39  61  87 114 144 185 233 288 339
#     4  10  19  33  55  85 116 144 176 226 285 337
#     4  11  23  38  57  81 111 147 190 239 281 325
#     4  11  20  34  58  84 114 149 187 228 277 334
#
# _framework density 20.615659999999998
#
# number of rings (size 3 to 8) (size 9 to 14) (size 15 to 20)
#    0.000    1.500    0.000    8.250    0.000    4.250 
#    0.000    0.625    0.000   15.375    0.000    0.000 
#    0.000    0.000    0.000    0.000    0.000    0.000 
#
# Total GULP energy -178582.605694 kJ/mol
# GULP energy per Si atom -5580.706428 kJ/mol
# Density = 2.056874 g / cm^3
# Si number density = 20.615660 Si / 1000 Ang^3
#
#
#
# Elastic Constant Matrix: (Units=GPa)
#
#
# Indices 1 2 3 4 5 6 
#
# 1 76.4964 3.4877 14.0670 0.0000 7.6121 0.0000
# 2 3.4877 40.5153 -4.7166 0.0001 -7.5108 0.0000
# 3 14.0670 -4.7166 50.9776 0.0002 3.5608 0.0000
# 4 0.0000 0.0001 0.0002 28.0416 0.0000 5.6491
# 5 7.6121 -7.5108 3.5608 0.0000 41.0138 0.0000
# 6 0.0000 0.0000 0.0000 5.6491 0.0000 11.9737
#
#
#
# Elastic Compliance Matrix: (Units=1/GPa)
#
#
# Indices 1 2 3 4 5 6 
#
# 1 0.014160 -0.002173 -0.003921 0.000000 -0.002686 0.000000
# 2 -0.002173 0.026098 0.002669 0.000000 0.004951 0.000000
# 3 -0.003921 0.002669 0.020988 0.000000 -0.000606 0.000000
# 4 0.000000 0.000000 0.000000 0.039407 0.000000 -0.018592
# 5 -0.002686 0.004951 -0.000606 0.000000 0.025840 0.000000
# 6 0.000000 0.000000 0.000000 -0.018592 0.000000 0.092287
#
#
# Mechanical properties :
#
#
# Convention : Reuss Voigt Hill
#
# Bulk Modulus (GPa) = 18.38439 21.51837 19.95138
# Shear Modulus (GPa) = 20.51188 26.54923 23.53056
#
# Velocity S-wave (km/s) = 3.15773 3.59251 3.38211
# Velocity P-wave (km/s) = 4.71509 5.26011 4.99504
#
# Compressibility (1/GPa) = 0.05439397
#
# Stress axis : x y z
#
# Youngs Moduli (GPa) = 70.62221 38.31771 47.64718
#
# Poissons Ratio (x) = 0.08327 0.18682
# Poissons Ratio (y) = 0.15348 -0.12715
# Poissons Ratio (z) = 0.27690 -0.10225
#
# Static dielectric constant tensor:
#      x y z
#    x 1.808680 0.000000 0.013040 
#    y 0.000000 1.714850 0.000000 
#    z 0.013040 0.000000 1.802670 
# 
# From -- ./inp_files/306806.got.cif
#   From: 2010.05.17/outbox.cif.g08.bks.cpg/sg12_154_cif.got.tgz:306806.got - 2010.06.03 13:09:07.
