data_PCOD9171292
_publ_section_title
;
Structure prediction by ZEFSAII (Michael W. Deem and Ramdas Pophale) SiO2 
 PCOD9171292
Probable space group: C 2/M
;
_chemical_formula_sum "Si O2"
_cell_formula_units_Z 64
_cell_length_a 25.968553
_cell_length_b 12.845197
_cell_length_c 10.806832
_cell_angle_alpha 90.000000
_cell_angle_beta 99.717148
_cell_angle_gamma 90.000000
_cell_volume 3553.128935
_symmetry_space_group_name_H-M "C 2/M"
_symmetry_group_IT_number 12
_symmetry_cell_setting 'monoclinic'
loop_
_space_group_symop_operation_xyz
x,y,z
-x,y,-z
-x,-y,-z
x,-y,z
1/2+x,1/2+y,z
1/2-x,1/2+y,-z
1/2-x,1/2-y,-z
1/2+x,1/2-y,z
loop_
_atom_site_type_symbol
_atom_site_label
_atom_site_fract_x
_atom_site_fract_y
_atom_site_fract_z
Si Si1 0.312283 0.875628 0.440967
Si Si2 0.502491 0.619956 0.147978
Si Si3 0.605886 0.620422 0.803376
Si Si4 0.138517 0.828033 0.554970
Si Si5 0.885305 0.123356 0.735928
Si Si6 0.275751 0.626442 0.802474
Si Si7 0.742501 0.878387 0.331207
Si Si8 0.222367 0.127053 0.915717
O O1 0.359127 0.797255 0.430484
O O2 0.266456 0.852054 0.322678
O O3 0.293164 0.841056 0.570214
O O4 0.322128 0.000000 0.442135
O O5 0.502964 0.500000 0.197230
O O6 0.448064 0.668927 0.171388
O O7 0.558246 0.668636 0.205333
O O8 0.500000 0.615234 0.000000
O O9 0.606094 0.500000 0.846756
O O10 0.606534 0.625301 0.655373
O O11 0.662168 0.663644 0.870549
O O12 0.121626 0.861811 0.412943
O O13 0.197878 0.867415 0.598973
O O14 0.833768 0.163794 0.786172
O O15 0.887335 0.000000 0.765903
O O16 0.279048 0.500000 0.803115
O O17 0.260455 0.652007 0.937979
O O18 0.743317 0.839127 0.189712
O O19 0.729591 0.000000 0.318009
O O20 0.220945 0.000000 0.906290
#
# Coordination Sequence:
#
# PCOD9171292 Si02
#       8
#     8   8   8   8   8   8   8   8
#     4  10  20  32  47  63  87 123 162 199 234 268
#     4   9  17  29  46  69  99 130 151 173 219 278
#     4   9  17  29  45  67  97 126 149 179 222 274
#     4  11  19  29  45  64  92 123 157 189 233 269
#     4  10  18  27  45  70  95 122 152 182 218 274
#     4   9  16  27  43  65  91 122 157 189 219 260
#     4   9  16  28  44  64  89 122 155 185 223 271
#     4   8  14  25  43  62  88 123 153 181 216 259
#
# _framework density 18.012293
#
# number of rings (size 3 to 8) (size 9 to 14) (size 15 to 20)
#    0.000    2.625    1.250    3.000    0.000    3.500 
#    0.000    4.375    2.750    0.000    0.000    1.750 
#    0.000    1.000    0.000    0.000    0.000    0.000 
#
# Total GULP energy -178263.222434 kJ/mol
# GULP energy per Si atom -5570.725701 kJ/mol
# Density = 1.797130 g / cm^3
# Si number density = 18.012293 Si / 1000 Ang^3
#
#
#
# Elastic Constant Matrix: (Units=GPa)
#
#
# Indices 1 2 3 4 5 6 
#
# 1 56.7729 6.1228 16.5545 0.0000 -4.0245 0.0000
# 2 6.1228 35.2706 1.1267 0.0000 -3.2820 0.0000
# 3 16.5545 1.1267 92.9708 0.0000 -8.7235 0.0000
# 4 0.0000 0.0000 0.0000 26.3136 0.0000 -4.5688
# 5 -4.0245 -3.2820 -8.7235 0.0000 19.3042 0.0000
# 6 0.0000 0.0000 0.0000 -4.5688 0.0000 11.8878
#
#
#
# Elastic Compliance Matrix: (Units=1/GPa)
#
#
# Indices 1 2 3 4 5 6 
#
# 1 0.019003 -0.003010 -0.003157 0.000000 0.002023 0.000000
# 2 -0.003010 0.029286 0.000615 0.000000 0.004630 0.000000
# 3 -0.003157 0.000615 0.011757 0.000000 0.004760 0.000000
# 4 0.000000 0.000000 0.000000 0.040720 0.000000 0.015650
# 5 0.002023 0.004630 0.004760 0.000000 0.055162 0.000000
# 6 0.000000 0.000000 0.000000 0.015650 0.000000 0.090135
#
#
# Mechanical properties :
#
#
# Convention : Reuss Voigt Hill
#
# Bulk Modulus (GPa) = 20.43206 25.84694 23.13950
# Shear Modulus (GPa) = 18.28286 22.24848 20.26567
#
# Velocity S-wave (km/s) = 3.18940 3.51833 3.35789
# Velocity P-wave (km/s) = 4.99310 5.55748 5.28283
#
# Compressibility (1/GPa) = 0.04894270
#
# Stress axis : x y z
#
# Youngs Moduli (GPa) = 52.62408 34.14623 85.05287
#
# Poissons Ratio (x) = 0.10277 0.26854
# Poissons Ratio (y) = 0.15838 -0.05234
# Poissons Ratio (z) = 0.16615 -0.02101
#
# Static dielectric constant tensor:
#      x y z
#    x 1.632130 0.000000 -0.009080 
#    y 0.000000 1.685060 0.000000 
#    z -0.009080 0.000000 1.631450 
# 
# From -- ./inp_files/176171.got.cif
#   From: 2010.05.17/outbox.cif.g08.bks.cpg/sg12_89_cif.got.tgz:176171.got - 2010.06.03 13:09:07.
