data_PCOD9171536
_publ_section_title
;
Structure prediction by ZEFSAII (Michael W. Deem and Ramdas Pophale) SiO2 
 PCOD9171536
Probable space group: C 2/M
;
_chemical_formula_sum "Si O2"
_cell_formula_units_Z 48
_cell_length_a 24.853045
_cell_length_b 9.192939
_cell_length_c 14.325721
_cell_angle_alpha 90.000000
_cell_angle_beta 110.226809
_cell_angle_gamma 90.000000
_cell_volume 3071.190115
_symmetry_space_group_name_H-M "C 2/M"
_symmetry_group_IT_number 12
_symmetry_cell_setting 'monoclinic'
loop_
_space_group_symop_operation_xyz
x,y,z
-x,y,-z
-x,-y,-z
x,-y,z
1/2+x,1/2+y,z
1/2-x,1/2+y,-z
1/2-x,1/2-y,-z
1/2+x,1/2-y,z
loop_
_atom_site_type_symbol
_atom_site_label
_atom_site_fract_x
_atom_site_fract_y
_atom_site_fract_z
Si Si1 0.375019 0.327802 0.837558
Si Si2 0.040673 0.325932 0.436873
Si Si3 0.172862 0.327779 0.522978
Si Si4 0.781774 0.672188 0.660184
Si Si5 0.556417 0.167723 0.967189
Si Si6 0.486720 0.672066 0.772796
O O1 0.367388 0.500000 0.845836
O O2 0.319327 0.254027 0.759650
O O3 0.427415 0.307012 0.795211
O O4 0.395437 0.251605 0.945086
O O5 0.039092 0.500000 0.417466
O O6 0.020921 0.242459 0.332774
O O7 0.000000 0.294818 0.500000
O O8 0.106758 0.288382 0.498558
O O9 0.180595 0.500000 0.546019
O O10 0.187912 0.304028 0.422676
O O11 0.218315 0.237019 0.609896
O O12 0.780668 0.500000 0.676931
O O13 0.536318 0.249600 0.862082
O O14 0.571785 0.000000 0.958935
O O15 0.500000 0.168176 0.000000
O O16 0.497212 0.500000 0.773484
#
# Coordination Sequence:
#
# PCOD9171536 Si02
#       6
#     8   8   8   8   8   8
#     4  10  18  28  44  68  97 126 155 189 235 285
#     4  10  20  34  51  69  92 126 165 200 235 276
#     4   9  18  31  45  65  93 123 157 196 236 278
#     4  10  18  28  46  68  93 125 157 191 235 284
#     4   9  17  28  44  65  92 124 157 191 231 281
#     4  10  19  30  45  66  95 126 157 195 237 279
#
# _framework density 15.62912
#
# number of rings (size 3 to 8) (size 9 to 14) (size 15 to 20)
#    0.000    2.333    1.667    2.000    0.000    5.000 
#    0.000    0.000    0.000    0.000    0.000    1.167 
#    0.000    0.000    0.000    0.000    0.000    0.000 
#
# Total GULP energy -133847.932004 kJ/mol
# GULP energy per Si atom -5576.997167 kJ/mol
# Density = 1.559355 g / cm^3
# Si number density = 15.629120 Si / 1000 Ang^3
#
#
#
# Elastic Constant Matrix: (Units=GPa)
#
#
# Indices 1 2 3 4 5 6 
#
# 1 74.8389 51.3487 61.2199 0.0000 15.2138 0.0000
# 2 51.3487 102.4864 96.9284 0.0000 20.7582 0.0000
# 3 61.2199 96.9284 142.7410 0.0000 36.1029 0.0000
# 4 0.0000 0.0000 0.0000 33.6054 0.0000 7.3167
# 5 15.2138 20.7582 36.1029 0.0000 23.9287 0.0000
# 6 0.0000 0.0000 0.0000 7.3167 0.0000 16.3464
#
#
#
# Elastic Compliance Matrix: (Units=1/GPa)
#
#
# Indices 1 2 3 4 5 6 
#
# 1 0.021768 -0.005918 -0.005038 0.000000 -0.001105 0.000000
# 2 -0.005918 0.029610 -0.019443 0.000000 0.007411 0.000000
# 3 -0.005038 -0.019443 0.027964 0.000000 -0.022122 0.000000
# 4 0.000000 0.000000 0.000000 0.032970 0.000000 -0.014758
# 5 -0.001105 0.007411 -0.022122 0.000000 0.069441 0.000000
# 6 0.000000 0.000000 0.000000 -0.014758 0.000000 0.067781
#
#
# Mechanical properties :
#
#
# Convention : Reuss Voigt Hill
#
# Bulk Modulus (GPa) = 53.92330 82.11782 68.02056
# Shear Modulus (GPa) = 15.79704 22.14739 18.97222
#
# Velocity S-wave (km/s) = 3.18267 3.76847 3.48789
# Velocity P-wave (km/s) = 6.93416 8.46113 7.73542
#
# Compressibility (1/GPa) = 0.01854486
#
# Stress axis : x y z
#
# Youngs Moduli (GPa) = 45.93820 33.77250 35.75963
#
# Poissons Ratio (x) = 0.19986 0.18016
# Poissons Ratio (y) = 0.27185 0.69527
# Poissons Ratio (z) = 0.23145 0.65664
#
# Static dielectric constant tensor:
#      x y z
#    x 1.498470 0.000000 0.009860 
#    y 0.000000 1.517980 0.000000 
#    z 0.009860 0.000000 1.497840 
# 
# From -- ./inp_files/172921.got.cif
#   From: 2010.05.17/outbox.cif.g08.bks.cpg/sg12_87_cif.got.tgz:172921.got - 2010.06.03 13:09:07.
