data_PCOD9171005
_publ_section_title
;
Structure prediction by ZEFSAII (Michael W. Deem and Ramdas Pophale) SiO2 
 PCOD9171005
Probable space group: C 2/M
;
_chemical_formula_sum "Si O2"
_cell_formula_units_Z 52
_cell_length_a 34.098805
_cell_length_b 9.313399
_cell_length_c 6.821679
_cell_angle_alpha 90.000000
_cell_angle_beta 92.134393
_cell_angle_gamma 90.000000
_cell_volume 2164.896994
_symmetry_space_group_name_H-M "C 2/M"
_symmetry_group_IT_number 12
_symmetry_cell_setting 'monoclinic'
loop_
_space_group_symop_operation_xyz
x,y,z
-x,y,-z
-x,-y,-z
x,-y,z
1/2+x,1/2+y,z
1/2-x,1/2+y,-z
1/2-x,1/2-y,-z
1/2+x,1/2-y,z
loop_
_atom_site_type_symbol
_atom_site_label
_atom_site_fract_x
_atom_site_fract_y
_atom_site_fract_z
Si Si1 0.054935 0.170745 0.322259
Si Si2 0.305337 0.713282 0.028662
Si Si3 0.631684 0.827820 0.441270
Si Si4 0.029160 0.167772 0.777494
Si Si5 0.612938 0.669853 0.842068
Si Si6 0.760700 0.500000 0.063585
Si Si7 0.790624 0.166329 0.485535
O O1 0.094547 0.262579 0.318914
O O2 0.042434 0.177457 0.551631
O O3 0.014841 0.227483 0.212138
O O4 0.062136 0.000000 0.280514
O O5 0.351028 0.683293 0.002656
O O6 0.299012 0.663632 0.253557
O O7 0.293252 0.876554 0.021787
O O8 0.273109 0.624024 0.906957
O O9 0.623266 0.774734 0.663474
O O10 0.673920 0.754449 0.408955
O O11 0.633996 0.000000 0.427682
O O12 0.068864 0.209966 0.898289
O O13 0.023566 0.000000 0.816890
O O14 0.611740 0.500000 0.779635
O O15 0.750000 0.250000 0.500000
O O16 0.787812 0.000000 0.538899
#
# Coordination Sequence:
#
# PCOD9171005 Si02
#       7
#     8   8   8   8   8   4   8
#     4   8  12  22  36  51  74 108 149 180 211 261
#     4  10  19  33  49  69  93 122 160 189 235 272
#     4  10  18  26  39  58  83 116 148 183 222 267
#     4   7  11  19  35  53  73 108 146 180 214 254
#     4   9  15  26  40  57  83 114 151 186 219 271
#     4  10  20  32  50  68  90 124 156 196 230 278
#     4  11  22  35  50  69  93 123 157 195 231 275
#
# _framework density 24.019618000000001
#
# number of rings (size 3 to 8) (size 9 to 14) (size 15 to 20)
#    0.000    2.769    1.538    4.615    5.385    0.000 
#    0.000    6.154    0.000    0.000    0.000    0.000 
#    0.000    0.000    0.000    8.308    0.000    4.000 
#
# Total GULP energy -144751.277737 kJ/mol
# GULP energy per Si atom -5567.356836 kJ/mol
# Density = 2.396495 g / cm^3
# Si number density = 24.019618 Si / 1000 Ang^3
#
#
#
# Elastic Constant Matrix: (Units=GPa)
#
#
# Indices 1 2 3 4 5 6 
#
# 1 267.3301 106.9737 26.7465 0.0000 10.6050 0.0000
# 2 106.9737 216.0034 26.1945 0.0000 17.7234 0.0000
# 3 26.7465 26.1945 73.2951 0.0000 1.7497 0.0000
# 4 0.0000 0.0000 0.0000 36.0398 0.0000 11.6099
# 5 10.6050 17.7234 1.7497 0.0000 35.3992 0.0000
# 6 0.0000 0.0000 0.0000 11.6099 0.0000 38.7044
#
#
#
# Elastic Compliance Matrix: (Units=1/GPa)
#
#
# Indices 1 2 3 4 5 6 
#
# 1 0.004727 -0.002207 -0.000930 0.000000 -0.000265 0.000000
# 2 -0.002207 0.006071 -0.001309 0.000000 -0.002314 0.000000
# 3 -0.000930 -0.001309 0.014446 0.000000 0.000220 0.000000
# 4 0.000000 0.000000 0.000000 0.030715 0.000000 -0.009213
# 5 -0.000265 -0.002314 0.000220 0.000000 0.029476 0.000000
# 6 0.000000 0.000000 0.000000 -0.009213 0.000000 0.028600
#
#
# Mechanical properties :
#
#
# Convention : Reuss Voigt Hill
#
# Bulk Modulus (GPa) = 61.15480 97.38422 79.26951
# Shear Modulus (GPa) = 38.94745 48.47628 43.71186
#
# Velocity S-wave (km/s) = 4.03114 4.49731 4.27059
# Velocity P-wave (km/s) = 6.86894 8.22188 7.57567
#
# Compressibility (1/GPa) = 0.01635195
#
# Stress axis : x y z
#
# Youngs Moduli (GPa) = 211.53969 164.71889 69.22554
#
# Poissons Ratio (x) = 0.36346 0.06439
# Poissons Ratio (y) = 0.46677 0.09063
# Poissons Ratio (z) = 0.19676 0.21565
#
# Static dielectric constant tensor:
#      x y z
#    x 1.965410 0.000000 0.000050 
#    y 0.000000 1.796550 0.000000 
#    z 0.000050 0.000000 2.185980 
# 
# From -- ./inp_files/185836.got.cif
#   From: 2010.05.17/outbox.cif.g08.bks.cpg/sg12_93_cif.got.tgz:185836.got - 2010.06.03 13:09:07.
