data_PCOD9171614
_publ_section_title
;
Structure prediction by ZEFSAII (Michael W. Deem and Ramdas Pophale) SiO2 
 PCOD9171614
Probable space group: C 2/M
;
_chemical_formula_sum "Si O2"
_cell_formula_units_Z 64
_cell_length_a 17.501783
_cell_length_b 27.064775
_cell_length_c 24.670983
_cell_angle_alpha 90.000000
_cell_angle_beta 160.775894
_cell_angle_gamma 90.000000
_cell_volume 3847.843022
_symmetry_space_group_name_H-M "C 2/M"
_symmetry_group_IT_number 12
_symmetry_cell_setting 'monoclinic'
loop_
_space_group_symop_operation_xyz
x,y,z
-x,y,-z
-x,-y,-z
x,-y,z
1/2+x,1/2+y,z
1/2-x,1/2+y,-z
1/2-x,1/2-y,-z
1/2+x,1/2-y,z
loop_
_atom_site_type_symbol
_atom_site_label
_atom_site_fract_x
_atom_site_fract_y
_atom_site_fract_z
Si Si1 0.171147 0.844726 0.068034
Si Si2 0.778968 0.204073 0.390253
Si Si3 0.271095 0.191598 0.018057
Si Si4 0.586640 0.055223 0.421479
Si Si5 0.199560 0.344912 0.447495
Si Si6 0.356006 0.683239 0.670761
Si Si7 0.241361 0.419685 0.637186
Si Si8 0.568910 0.557461 0.123421
O O1 0.146769 0.824033 0.990926
O O2 0.428533 0.831054 0.259307
O O3 0.000000 0.825771 0.000000
O O4 0.111789 0.903040 0.021226
O O5 0.544122 0.180745 0.206716
O O6 0.818727 0.175971 0.473715
O O7 0.722985 0.262017 0.364682
O O8 0.000000 0.200448 0.500000
O O9 0.250000 0.250000 0.000000
O O10 0.122264 0.173393 0.867290
O O11 0.679773 0.096137 0.442740
O O12 0.755617 0.057302 0.587199
O O13 0.327812 0.068004 0.272022
O O14 0.575039 0.000000 0.391890
O O15 0.307022 0.323279 0.574448
O O16 0.226213 0.638944 0.615335
O O17 0.419024 0.433192 0.803615
O O18 0.000000 0.438267 0.500000
O O19 0.516054 0.500000 0.077296
#
# Coordination Sequence:
#
# PCOD9171614 Si02
#       8
#     8   8   8   8   8   8   8   8
#     4  11  20  32  46  72 106 140 170 209 253 308
#     4  10  21  36  54  76 104 137 172 214 261 301
#     4   9  20  36  53  74 101 134 173 214 251 304
#     4   9  17  29  46  71 103 136 174 214 258 302
#     4  10  21  33  50  74 103 134 174 216 254 305
#     4  10  18  34  55  75 101 134 171 211 259 306
#     4   9  16  26  45  73 103 137 171 205 245 307
#     4  10  18  28  45  70 105 142 174 206 249 313
#
# _framework density 16.632694999999998
#
# number of rings (size 3 to 8) (size 9 to 14) (size 15 to 20)
#    0.000    2.250    2.500    1.125    0.000    4.250 
#    0.000    0.625    0.000    0.375    0.000    0.000 
#    0.000    2.250    0.000    0.000    0.000    0.000 
#
# Total GULP energy -178151.043549 kJ/mol
# GULP energy per Si atom -5567.220111 kJ/mol
# Density = 1.659484 g / cm^3
# Si number density = 16.632695 Si / 1000 Ang^3
#
#
#
# Elastic Constant Matrix: (Units=GPa)
#
#
# Indices 1 2 3 4 5 6 
#
# 1 102.4427 46.9850 55.4165 0.0257 -5.0686 -0.0563
# 2 46.9850 79.8551 7.7875 0.0235 -1.2246 -0.0126
# 3 55.4165 7.7875 87.9644 0.0418 -22.7316 0.0182
# 4 0.0257 0.0235 0.0418 15.4833 0.0174 0.5401
# 5 -5.0686 -1.2246 -22.7316 0.0174 25.8198 0.0018
# 6 -0.0563 -0.0126 0.0182 0.5401 0.0018 10.6063
#
#
#
# Elastic Compliance Matrix: (Units=1/GPa)
#
#
# Indices 1 2 3 4 5 6 
#
# 1 0.024242 -0.012778 -0.016916 0.000032 -0.010740 0.000143
# 2 -0.012778 0.019372 0.007669 -0.000033 0.005162 -0.000057
# 3 -0.016916 0.007669 0.026644 -0.000074 0.020500 -0.000126
# 4 0.000032 -0.000033 -0.000074 0.064701 -0.000104 -0.003294
# 5 -0.010740 0.005162 0.020500 -0.000104 0.054915 -0.000090
# 6 0.000143 -0.000057 -0.000126 -0.003294 -0.000090 0.094452
#
#
# Mechanical properties :
#
#
# Convention : Reuss Voigt Hill
#
# Bulk Modulus (GPa) = 38.15714 54.51556 46.33635
# Shear Modulus (GPa) = 14.83182 21.05344 17.94263
#
# Velocity S-wave (km/s) = 2.98942 3.56165 3.28801
# Velocity P-wave (km/s) = 5.90816 7.05415 6.50644
#
# Compressibility (1/GPa) = 0.02620742
#
# Stress axis : x y z
#
# Youngs Moduli (GPa) = 41.25083 51.61968 37.53176
#
# Poissons Ratio (x) = 0.65962 0.63490
# Poissons Ratio (y) = 0.52712 -0.28784
# Poissons Ratio (z) = 0.69781 -0.39588
#
# Static dielectric constant tensor:
#      x y z
#    x 1.554390 0.000020 -0.042160 
#    y 0.000020 1.587100 -0.000040 
#    z -0.042160 -0.000040 1.639340 
# 
# From -- ./inp_files/345147.got.cif
#   From: 2010.05.17/outbox.cif.g08.bks.cpg/sg12_173_cif.got.tgz:345147.got - 2010.06.03 13:09:07.
