data_PCOD9171140
_publ_section_title
;
Structure prediction by ZEFSAII (Michael W. Deem and Ramdas Pophale) SiO2 
 PCOD9171140
Probable space group: C 2/M
;
_chemical_formula_sum "Si O2"
_cell_formula_units_Z 56
_cell_length_a 30.250699
_cell_length_b 8.281683
_cell_length_c 14.090350
_cell_angle_alpha 90.000000
_cell_angle_beta 76.346752
_cell_angle_gamma 90.000000
_cell_volume 3430.258071
_symmetry_space_group_name_H-M "C 2/M"
_symmetry_group_IT_number 12
_symmetry_cell_setting 'monoclinic'
loop_
_space_group_symop_operation_xyz
x,y,z
-x,y,-z
-x,-y,-z
x,-y,z
1/2+x,1/2+y,z
1/2-x,1/2+y,-z
1/2-x,1/2-y,-z
1/2+x,1/2-y,z
loop_
_atom_site_type_symbol
_atom_site_label
_atom_site_fract_x
_atom_site_fract_y
_atom_site_fract_z
Si Si1 0.606357 0.192714 0.244080
Si Si2 0.055396 0.303773 0.078607
Si Si3 0.699925 0.805523 0.913305
Si Si4 0.981523 0.807150 0.610239
Si Si5 0.697878 0.307093 0.129299
Si Si6 0.109168 0.697707 0.864875
Si Si7 0.033493 0.695210 0.770092
O O1 0.585552 0.247884 0.153275
O O2 0.569256 0.246925 0.339564
O O3 0.657597 0.256357 0.219842
O O4 0.607589 0.000000 0.242803
O O5 0.055740 0.500000 0.075369
O O6 0.004157 0.256681 0.131494
O O7 0.078048 0.249952 0.969890
O O8 0.751457 0.748924 0.868120
O O9 0.660240 0.747474 0.863047
O O10 0.699978 0.000000 0.908597
O O11 0.688803 0.760041 0.027877
O O12 0.000000 0.746142 0.500000
O O13 0.014792 0.756335 0.679413
O O14 0.980129 0.000000 0.608288
O O15 0.698874 0.500000 0.122331
O O16 0.109683 0.500000 0.864155
O O17 0.082753 0.748165 0.783128
O O18 0.032943 0.500000 0.765816
#
# Coordination Sequence:
#
# PCOD9171140 Si02
#       7
#     8   8   8   8   8   8   8
#     4  10  18  30  50  69  89 120 156 193 228 268
#     4   8  13  22  39  62  87 116 150 183 213 253
#     4   9  17  28  42  61  91 132 168 193 219 261
#     4  10  21  36  51  68  93 119 142 180 235 286
#     4  10  18  27  41  64  94 126 161 197 230 262
#     4   9  14  24  42  64  91 123 160 189 215 257
#     4   9  17  27  45  69  89 117 154 190 222 261
#
# _framework density 16.325301
#
# number of rings (size 3 to 8) (size 9 to 14) (size 15 to 20)
#    0.000    2.714    1.429    2.571    0.000    3.429 
#    0.000    0.714    0.000    1.714    0.000    1.000 
#    0.000    0.000    0.000    0.000    0.000    0.000 
#
# Total GULP energy -155951.595233 kJ/mol
# GULP energy per Si atom -5569.699830 kJ/mol
# Density = 1.628814 g / cm^3
# Si number density = 16.325301 Si / 1000 Ang^3
#
#
#
# Elastic Constant Matrix: (Units=GPa)
#
#
# Indices 1 2 3 4 5 6 
#
# 1 144.2013 11.6956 52.9123 0.0000 -11.6782 0.0000
# 2 11.6956 3.9828 2.0627 0.0000 -1.2960 0.0000
# 3 52.9123 2.0627 73.7314 0.0000 -11.9656 0.0000
# 4 0.0000 0.0000 0.0000 15.8035 0.0000 -2.7868
# 5 -11.6782 -1.2960 -11.9656 0.0000 14.9867 0.0000
# 6 0.0000 0.0000 0.0000 -2.7868 0.0000 14.6450
#
#
#
# Elastic Compliance Matrix: (Units=1/GPa)
#
#
# Indices 1 2 3 4 5 6 
#
# 1 0.012560 -0.032548 -0.008009 0.000000 0.000578 0.000000
# 2 -0.032548 0.343798 0.016599 0.000000 0.017620 0.000000
# 3 -0.008009 0.016599 0.020756 0.000000 0.011766 0.000000
# 4 0.000000 0.000000 0.000000 0.065474 0.000000 0.012459
# 5 0.000578 0.017620 0.011766 0.000000 0.078094 0.000000
# 6 0.000000 0.000000 0.000000 0.012459 0.000000 0.070654
#
#
# Mechanical properties :
#
#
# Convention : Reuss Voigt Hill
#
# Bulk Modulus (GPa) = 3.03769 39.47295 21.25532
# Shear Modulus (GPa) = 6.67570 19.43669 13.05620
#
# Velocity S-wave (km/s) = 2.02436 3.45423 2.83106
# Velocity P-wave (km/s) = 2.70718 6.33565 4.87182
#
# Compressibility (1/GPa) = 0.32919780
#
# Stress axis : x y z
#
# Youngs Moduli (GPa) = 79.61598 2.90868 48.17974
#
# Poissons Ratio (x) = 0.09467 0.38589
# Poissons Ratio (y) = 2.59133 -0.79974
# Poissons Ratio (z) = 0.63767 -0.04828
#
# Static dielectric constant tensor:
#      x y z
#    x 1.601960 0.000000 -0.009320 
#    y 0.000000 1.567490 0.000000 
#    z -0.009320 0.000000 1.525520 
# 
# From -- ./inp_files/247724.got.cif
#   From: 2010.05.17/outbox.cif.g08.bks.cpg/sg12_124_cif.got.tgz:247724.got - 2010.06.03 13:09:07.
