data_PCOD9171639
_publ_section_title
;
Structure prediction by ZEFSAII (Michael W. Deem and Ramdas Pophale) SiO2 
 PCOD9171639
Probable space group: C 2/M
;
_chemical_formula_sum "Si O2"
_cell_formula_units_Z 56
_cell_length_a 28.667504
_cell_length_b 7.409118
_cell_length_c 16.736115
_cell_angle_alpha 90.000000
_cell_angle_beta 138.291187
_cell_angle_gamma 90.000000
_cell_volume 2365.146613
_symmetry_space_group_name_H-M "C 2/M"
_symmetry_group_IT_number 12
_symmetry_cell_setting 'monoclinic'
loop_
_space_group_symop_operation_xyz
x,y,z
-x,y,-z
-x,-y,-z
x,-y,z
1/2+x,1/2+y,z
1/2-x,1/2+y,-z
1/2-x,1/2-y,-z
1/2+x,1/2-y,z
loop_
_atom_site_type_symbol
_atom_site_label
_atom_site_fract_x
_atom_site_fract_y
_atom_site_fract_z
Si Si1 0.697953 0.705162 0.709000
Si Si2 0.333194 0.285487 0.605968
Si Si3 0.413864 0.278573 0.549797
Si Si4 0.461207 0.280258 0.029393
Si Si5 0.675284 0.282170 0.230059
Si Si6 0.456152 0.712643 0.196079
Si Si7 0.292149 0.212675 0.973354
O O1 0.681969 0.500000 0.714145
O O2 0.626871 0.785761 0.581411
O O3 0.750557 0.703217 0.700220
O O4 0.744782 0.789514 0.839739
O O5 0.345578 0.500000 0.621355
O O6 0.250000 0.250000 0.500000
O O7 0.371789 0.218496 0.576121
O O8 0.354013 0.221897 0.721493
O O9 0.409885 0.500000 0.540300
O O10 0.494182 0.221753 0.668887
O O11 0.468155 0.500000 0.038671
O O12 0.481537 0.213756 0.142549
O O13 0.500000 0.215920 0.000000
O O14 0.380084 0.237134 0.909395
O O15 0.682262 0.500000 0.241901
O O16 0.470333 0.500000 0.211467
O O17 0.372413 0.728777 0.089786
O O18 0.297305 0.000000 0.965192
O O19 0.250000 0.250000 0.000000
#
# Coordination Sequence:
#
# PCOD9171639 Si02
#       7
#     8   8   8   8   8   8   8
#     4  10  20  36  57  80 109 144 181 226 279 336
#     4  10  18  28  45  73 112 156 198 234 269 318
#     4   9  18  33  54  81 114 152 191 229 274 329
#     4   9  16  27  47  77 112 148 188 231 270 317
#     4  10  18  28  47  77 108 144 193 236 271 313
#     4  10  19  35  60  86 114 149 189 236 283 329
#     4  11  24  42  65  88 111 142 184 235 295 355
#
# _framework density 23.677178000000001
#
# number of rings (size 3 to 8) (size 9 to 14) (size 15 to 20)
#    0.000    2.143    2.857    1.286    0.000    4.000 
#    0.000    2.143    0.000    7.714    0.000    0.000 
#    0.000    0.000    0.000    0.000    0.000    0.000 
#
# Total GULP energy -156250.139917 kJ/mol
# GULP energy per Si atom -5580.362140 kJ/mol
# Density = 2.362329 g / cm^3
# Si number density = 23.677178 Si / 1000 Ang^3
#
#
#
# Elastic Constant Matrix: (Units=GPa)
#
#
# Indices 1 2 3 4 5 6 
#
# 1 70.6044 -13.0108 51.5850 0.0000 0.6533 0.0000
# 2 -13.0108 77.8597 4.9093 0.0000 -2.0301 0.0000
# 3 51.5850 4.9093 229.9454 0.0000 7.5228 0.0000
# 4 0.0000 0.0000 0.0000 8.2338 0.0000 7.3489
# 5 0.6533 -2.0301 7.5228 0.0000 23.0672 0.0000
# 6 0.0000 0.0000 0.0000 7.3489 0.0000 8.8195
#
#
#
# Elastic Compliance Matrix: (Units=1/GPa)
#
#
# Indices 1 2 3 4 5 6 
#
# 1 0.017737 0.003251 -0.004085 0.000000 0.001116 0.000000
# 2 0.003251 0.013492 -0.001064 0.000000 0.001442 0.000000
# 3 -0.004085 -0.001064 0.005344 0.000000 -0.001721 0.000000
# 4 0.000000 0.000000 0.000000 0.473850 0.000000 -0.394838
# 5 0.001116 0.001442 -0.001721 0.000000 0.044008 0.000000
# 6 0.000000 0.000000 0.000000 -0.394838 0.000000 0.442387
#
#
# Mechanical properties :
#
#
# Convention : Reuss Voigt Hill
#
# Bulk Modulus (GPa) = 30.51121 51.70849 41.10985
# Shear Modulus (GPa) = 4.94296 30.35251 17.64774
#
# Velocity S-wave (km/s) = 1.44644 3.58429 2.73307
# Velocity P-wave (km/s) = 3.96281 6.24627 5.23067
#
# Compressibility (1/GPa) = 0.03277484
#
# Stress axis : x y z
#
# Youngs Moduli (GPa) = 56.38071 74.12064 187.11657
#
# Poissons Ratio (x) = -0.24093 0.76434
# Poissons Ratio (y) = -0.18327 0.19917
# Poissons Ratio (z) = 0.23031 0.07890
#
# Static dielectric constant tensor:
#      x y z
#    x 1.854610 0.000000 0.004660 
#    y 0.000000 1.249710 0.000000 
#    z 0.004660 0.000000 1.993900 
# 
# From -- ./inp_files/280892.got.cif
#   From: 2010.05.17/outbox.cif.g08.bks.cpg/sg12_141_cif.got.tgz:280892.got - 2010.06.03 13:09:07.
