data_PCOD9171061
_publ_section_title
;
Structure prediction by ZEFSAII (Michael W. Deem and Ramdas Pophale) SiO2 
 PCOD9171061
Probable space group: C 2/M
;
_chemical_formula_sum "Si O2"
_cell_formula_units_Z 56
_cell_length_a 7.795211
_cell_length_b 35.093484
_cell_length_c 13.795837
_cell_angle_alpha 90.000000
_cell_angle_beta 137.153466
_cell_angle_gamma 90.000000
_cell_volume 2566.462690
_symmetry_space_group_name_H-M "C 2/M"
_symmetry_group_IT_number 12
_symmetry_cell_setting 'monoclinic'
loop_
_space_group_symop_operation_xyz
x,y,z
-x,y,-z
-x,-y,-z
x,-y,z
1/2+x,1/2+y,z
1/2-x,1/2+y,-z
1/2-x,1/2-y,-z
1/2+x,1/2-y,z
loop_
_atom_site_type_symbol
_atom_site_label
_atom_site_fract_x
_atom_site_fract_y
_atom_site_fract_z
Si Si1 0.218845 0.810518 0.840166
Si Si2 0.889113 0.883856 0.742244
Si Si3 0.629731 0.897762 0.949428
Si Si4 0.887606 0.457362 0.714496
Si Si5 0.332280 0.455865 0.582280
Si Si6 0.857818 0.763577 0.839056
Si Si7 0.209212 0.661479 0.834893
O O1 0.055506 0.849529 0.760494
O O2 0.257306 0.778494 0.772864
O O3 0.047428 0.785744 0.845833
O O4 0.500000 0.818764 0.000000
O O5 0.813468 0.919410 0.644732
O O6 0.687355 0.862677 0.726693
O O7 0.079687 0.899699 0.902294
O O8 0.561057 0.929718 0.845425
O O9 0.566167 0.859453 0.862168
O O10 0.500000 0.902518 0.000000
O O11 0.981923 0.500000 0.763803
O O12 0.613218 0.455055 0.652524
O O13 0.849809 0.450034 0.585223
O O14 0.296947 0.500000 0.604527
O O15 0.651968 0.795520 0.780832
O O16 0.000000 0.757318 0.000000
O O17 0.500000 0.662580 0.000000
#
# Coordination Sequence:
#
# PCOD9171061 Si02
#       7
#     8   8   8   8   8   8   8
#     4  10  18  26  44  71 106 135 175 213 250 306
#     4  10  19  32  50  77 107 138 170 213 262 310
#     4  11  19  30  51  79  99 130 174 218 257 302
#     4   9  19  34  52  76 104 130 171 220 257 308
#     4   9  18  35  54  73 104 140 169 209 264 312
#     4   9  16  28  41  65 105 147 165 205 262 301
#     4   8  18  32  45  69 115 139 164 211 265 308
#
# _framework density 21.819915000000002
#
# number of rings (size 3 to 8) (size 9 to 14) (size 15 to 20)
#    0.000    2.571    1.429    3.857    0.000    2.000 
#    0.000    1.429    0.000    4.286    0.000    1.000 
#    0.000    0.000    0.000    0.000    0.000    0.000 
#
# Total GULP energy -155906.050864 kJ/mol
# GULP energy per Si atom -5568.073245 kJ/mol
# Density = 2.177025 g / cm^3
# Si number density = 21.819915 Si / 1000 Ang^3
#
#
#
# Elastic Constant Matrix: (Units=GPa)
#
#
# Indices 1 2 3 4 5 6 
#
# 1 82.6277 49.9156 12.6021 0.0000 -15.9022 0.0000
# 2 49.9156 210.7986 74.1419 0.0000 -29.1409 0.0000
# 3 12.6021 74.1419 35.2293 0.0000 -10.2577 0.0000
# 4 0.0000 0.0000 0.0000 -13.1813 0.0000 -22.3546
# 5 -15.9022 -29.1409 -10.2577 0.0000 16.1379 0.0000
# 6 0.0000 0.0000 0.0000 -22.3546 0.0000 21.6629
#
#
#
# Elastic Compliance Matrix: (Units=1/GPa)
#
#
# Indices 1 2 3 4 5 6 
#
# 1 0.016279 -0.005284 0.008823 0.000000 0.012108 0.000000
# 2 -0.005284 0.021546 -0.041283 0.000000 0.007459 0.000000
# 3 0.008823 -0.041283 0.114045 0.000000 0.006637 0.000000
# 4 0.000000 0.000000 0.000000 -0.027586 0.000000 -0.028467
# 5 0.012108 0.007459 0.006637 0.000000 0.091585 0.000000
# 6 0.000000 0.000000 0.000000 -0.028467 0.000000 0.016786
#
#
# Mechanical properties :
#
#
# Convention : Reuss Voigt Hill
#
# Bulk Modulus (GPa) = 13.09222 66.88608 39.98915
# Shear Modulus (GPa) = 14.98780 17.72363 16.35571
#
# Velocity S-wave (km/s) = 2.62369 2.85312 2.74081
# Velocity P-wave (km/s) = 3.89763 6.44779 5.32755
#
# Compressibility (1/GPa) = 0.07638125
#
# Stress axis : x y z
#
# Youngs Moduli (GPa) = 61.42792 46.41130 8.76848
#
# Poissons Ratio (x) = 0.24525 -0.07736
# Poissons Ratio (y) = 0.32460 0.36199
# Poissons Ratio (z) = -0.54198 1.91602
#
# Static dielectric constant tensor:
#      x y z
#    x 1.955180 0.000000 0.001420 
#    y 0.000000 1.908510 0.000000 
#    z 0.001420 0.000000 1.754470 
# 
# From -- ./inp_files/200972.got.cif
#   From: 2010.05.17/outbox.cif.g08.bks.cpg/sg12_101_cif.got.tgz:200972.got - 2010.06.03 13:09:07.
