data_PCOD9171335
_publ_section_title
;
Structure prediction by ZEFSAII (Michael W. Deem and Ramdas Pophale) SiO2 
 PCOD9171335
Probable space group: C 2/M
;
_chemical_formula_sum "Si O2"
_cell_formula_units_Z 64
_cell_length_a 21.237573
_cell_length_b 17.143383
_cell_length_c 19.976604
_cell_angle_alpha 90.000000
_cell_angle_beta 148.855085
_cell_angle_gamma 90.000000
_cell_volume 3761.709836
_symmetry_space_group_name_H-M "C 2/M"
_symmetry_group_IT_number 12
_symmetry_cell_setting 'monoclinic'
loop_
_space_group_symop_operation_xyz
x,y,z
-x,y,-z
-x,-y,-z
x,-y,z
1/2+x,1/2+y,z
1/2-x,1/2+y,-z
1/2-x,1/2-y,-z
1/2+x,1/2-y,z
loop_
_atom_site_type_symbol
_atom_site_label
_atom_site_fract_x
_atom_site_fract_y
_atom_site_fract_z
Si Si1 0.000414 0.188023 0.921728
Si Si2 0.268726 0.784500 0.713560
Si Si3 0.990568 0.193106 0.303233
Si Si4 0.772869 0.275296 0.176224
Si Si5 0.340482 0.173883 0.500089
Si Si6 0.586969 0.408399 0.514505
Si Si7 0.449706 0.909633 0.380231
Si Si8 0.411995 0.407114 0.720973
O O1 0.909399 0.261839 0.831091
O O2 0.945955 0.119204 0.826985
O O3 0.137665 0.209094 0.027135
O O4 0.000000 0.167254 0.000000
O O5 0.238938 0.771012 0.764353
O O6 0.197143 0.723195 0.600658
O O7 0.217368 0.868516 0.647023
O O8 0.090964 0.263045 0.390848
O O9 0.029309 0.137976 0.400236
O O10 0.995590 0.139233 0.242947
O O11 0.862478 0.231676 0.206703
O O12 0.838556 0.355344 0.257780
O O13 0.439804 0.110571 0.568714
O O14 0.220532 0.129997 0.416097
O O15 0.500000 0.396641 0.500000
O O16 0.596054 0.500000 0.509342
O O17 0.500000 0.890094 0.500000
O O18 0.417004 0.000000 0.349562
O O19 0.413207 0.500000 0.713760
#
# Coordination Sequence:
#
# PCOD9171335 Si02
#       8
#     8   8   8   8   8   8   8   8
#     4   9  21  37  55  74  97 141 184 216 256 306
#     4   9  16  32  52  75 103 135 174 213 250 306
#     4  10  20  32  55  78 106 139 176 211 260 311
#     4  10  18  33  52  74 103 137 180 219 250 300
#     4   9  18  32  52  74 105 137 174 204 261 316
#     4  10  18  29  52  83 109 131 165 214 267 307
#     4  10  18  27  47  78 108 134 168 217 271 309
#     4  11  22  36  51  75 110 139 172 217 264 311
#
# _framework density 17.013539999999999
#
# number of rings (size 3 to 8) (size 9 to 14) (size 15 to 20)
#    0.000    2.250    2.500    1.125    0.000    1.250 
#    0.000    0.000    0.000    4.875    0.000    0.000 
#    0.000    0.000    0.000    0.000    0.000    0.000 
#
# Total GULP energy -178371.234752 kJ/mol
# GULP energy per Si atom -5574.101086 kJ/mol
# Density = 1.697482 g / cm^3
# Si number density = 17.013540 Si / 1000 Ang^3
#
#
#
# Elastic Constant Matrix: (Units=GPa)
#
#
# Indices 1 2 3 4 5 6 
#
# 1 49.0878 39.7040 27.7654 0.0000 11.0564 0.0000
# 2 39.7040 101.6328 40.6361 0.0001 16.9339 0.0000
# 3 27.7654 40.6361 79.3589 0.0000 27.0208 -0.0001
# 4 0.0000 0.0001 0.0000 12.3914 0.0000 -0.7555
# 5 11.0564 16.9339 27.0208 0.0000 25.5171 0.0000
# 6 0.0000 0.0000 -0.0001 -0.7555 0.0000 19.2872
#
#
#
# Elastic Compliance Matrix: (Units=1/GPa)
#
#
# Indices 1 2 3 4 5 6 
#
# 1 0.031936 -0.010023 -0.005621 0.000000 -0.001234 0.000000
# 2 -0.010023 0.015609 -0.003812 0.000000 -0.001979 0.000000
# 3 -0.005621 -0.003812 0.023190 0.000000 -0.019592 0.000000
# 4 0.000000 0.000000 0.000000 0.080895 0.000000 0.003169
# 5 -0.001234 -0.001979 -0.019592 0.000000 0.061783 0.000000
# 6 0.000000 0.000000 0.000000 0.003169 0.000000 0.051972
#
#
# Mechanical properties :
#
#
# Convention : Reuss Voigt Hill
#
# Bulk Modulus (GPa) = 31.42393 49.58785 40.50589
# Shear Modulus (GPa) = 15.87780 19.57073 17.72427
#
# Velocity S-wave (km/s) = 3.05822 3.39529 3.23115
# Velocity P-wave (km/s) = 5.56600 6.67683 6.14656
#
# Compressibility (1/GPa) = 0.03182289
#
# Stress axis : x y z
#
# Youngs Moduli (GPa) = 31.31254 64.06607 43.12151
#
# Poissons Ratio (x) = 0.64214 0.24239
# Poissons Ratio (y) = 0.31385 0.16438
# Poissons Ratio (z) = 0.17601 0.24422
#
# Static dielectric constant tensor:
#      x y z
#    x 1.597840 0.000000 0.001810 
#    y 0.000000 1.550560 0.000000 
#    z 0.001810 0.000000 1.574500 
# 
# From -- ./inp_files/168084.got.cif
#   From: 2010.05.17/outbox.cif.g08.bks.cpg/sg12_85_cif.got.tgz:168084.got - 2010.06.03 13:09:07.
