data_PCOD9171789
_publ_section_title
;
Structure prediction by ZEFSAII (Michael W. Deem and Ramdas Pophale) SiO2 
 PCOD9171789
Probable space group: C 2/M
;
_chemical_formula_sum "Si O2"
_cell_formula_units_Z 64
_cell_length_a 28.158814
_cell_length_b 14.104840
_cell_length_c 14.249576
_cell_angle_alpha 90.000000
_cell_angle_beta 135.417276
_cell_angle_gamma 90.000000
_cell_volume 3972.678523
_symmetry_space_group_name_H-M "C 2/M"
_symmetry_group_IT_number 12
_symmetry_cell_setting 'monoclinic'
loop_
_space_group_symop_operation_xyz
x,y,z
-x,y,-z
-x,-y,-z
x,-y,z
1/2+x,1/2+y,z
1/2-x,1/2+y,-z
1/2-x,1/2-y,-z
1/2+x,1/2-y,z
loop_
_atom_site_type_symbol
_atom_site_label
_atom_site_fract_x
_atom_site_fract_y
_atom_site_fract_z
Si Si1 0.030905 0.386197 0.185303
Si Si2 0.840865 0.674386 0.295702
Si Si3 0.050872 0.789023 0.645717
Si Si4 0.891080 0.614480 0.887605
Si Si5 0.700409 0.757132 0.124698
Si Si6 0.964627 0.389722 0.592053
Si Si7 0.871829 0.891411 0.089944
Si Si8 0.773768 0.604863 0.013800
O O1 0.033018 0.500000 0.183049
O O2 0.084229 0.354929 0.181334
O O3 0.044856 0.362221 0.312346
O O4 0.954978 0.361883 0.045389
O O5 0.880974 0.765938 0.314676
O O6 0.771461 0.706493 0.246676
O O7 0.894290 0.620974 0.436697
O O8 0.819278 0.619679 0.170596
O O9 0.069268 0.848007 0.763103
O O10 0.000000 0.835890 0.500000
O O11 0.017667 0.687048 0.626461
O O12 0.881109 0.500000 0.875749
O O13 0.827671 0.671998 0.837031
O O14 0.646007 0.676388 0.021863
O O15 0.711374 0.817087 0.043707
O O16 0.987548 0.500000 0.617856
O O17 0.884632 0.000000 0.081811
O O18 0.802888 0.889914 0.055806
O O19 0.786386 0.500000 0.992237
#
# Coordination Sequence:
#
# PCOD9171789 Si02
#       8
#     8   8   8   8   8   8   8   8
#     4   8  16  31  48  74 103 125 151 196 244 294
#     4  10  19  31  42  68 105 125 158 197 230 280
#     4  10  19  31  46  66  94 128 164 198 228 286
#     4   9  17  30  52  77 100 122 157 200 247 289
#     4  11  18  31  49  70  95 128 162 203 237 282
#     4  10  20  32  50  72 100 130 156 191 249 297
#     4  10  19  32  44  62  93 129 160 196 235 275
#     4  10  18  28  48  68  94 127 157 192 241 281
#
# _framework density 16.110036999999998
#
# number of rings (size 3 to 8) (size 9 to 14) (size 15 to 20)
#    0.000    2.250    2.500    3.000    0.000    3.500 
#    0.000    0.625    0.000    0.000    0.000    7.000 
#    0.000    0.000    0.000    0.000    0.000    0.000 
#
# Total GULP energy -178295.295023 kJ/mol
# GULP energy per Si atom -5571.727969 kJ/mol
# Density = 1.607337 g / cm^3
# Si number density = 16.110037 Si / 1000 Ang^3
#
#
#
# Elastic Constant Matrix: (Units=GPa)
#
#
# Indices 1 2 3 4 5 6 
#
# 1 48.5883 7.1098 12.9215 0.0000 -1.7677 0.0000
# 2 7.1098 64.2302 13.8185 0.0000 4.5455 0.0000
# 3 12.9215 13.8185 75.9524 0.0000 -0.3230 0.0000
# 4 0.0000 0.0000 0.0000 19.3071 0.0000 -0.1948
# 5 -1.7677 4.5455 -0.3230 0.0000 18.2697 0.0000
# 6 0.0000 0.0000 0.0000 -0.1948 0.0000 17.6050
#
#
#
# Elastic Compliance Matrix: (Units=1/GPa)
#
#
# Indices 1 2 3 4 5 6 
#
# 1 0.021841 -0.001872 -0.003364 0.000000 0.002520 0.000000
# 2 -0.001872 0.016674 -0.002734 0.000000 -0.004378 0.000000
# 3 -0.003364 -0.002734 0.014238 0.000000 0.000606 0.000000
# 4 0.000000 0.000000 0.000000 0.051800 0.000000 0.000573
# 5 0.002520 -0.004378 0.000606 0.000000 0.056079 0.000000
# 6 0.000000 0.000000 0.000000 0.000573 0.000000 0.056808
#
#
# Mechanical properties :
#
#
# Convention : Reuss Voigt Hill
#
# Bulk Modulus (GPa) = 27.16406 28.49671 27.83038
# Shear Modulus (GPa) = 20.35384 21.36443 20.85914
#
# Velocity S-wave (km/s) = 3.55833 3.64559 3.60222
# Velocity P-wave (km/s) = 5.81209 5.95379 5.88337
#
# Compressibility (1/GPa) = 0.03681335
#
# Stress axis : x y z
#
# Youngs Moduli (GPa) = 45.78455 59.97294 70.23221
#
# Poissons Ratio (x) = 0.11228 0.23629
# Poissons Ratio (y) = 0.08572 0.19200
# Poissons Ratio (z) = 0.15404 0.16395
#
# Static dielectric constant tensor:
#      x y z
#    x 1.545380 0.000000 0.003730 
#    y 0.000000 1.553760 0.000000 
#    z 0.003730 0.000000 1.567290 
# 
# From -- ./inp_files/233165.got.cif
#   From: 2010.05.17/outbox.cif.g08.bks.cpg/sg12_117_cif.got.tgz:233165.got - 2010.06.03 13:09:07.
