data_PCOD9171612
_publ_section_title
;
Structure prediction by ZEFSAII (Michael W. Deem and Ramdas Pophale) SiO2 
 PCOD9171612
Probable space group: C 2/M
;
_chemical_formula_sum "Si O2"
_cell_formula_units_Z 64
_cell_length_a 19.584789
_cell_length_b 9.225751
_cell_length_c 20.599612
_cell_angle_alpha 90.000000
_cell_angle_beta 94.431706
_cell_angle_gamma 90.000000
_cell_volume 3710.899937
_symmetry_space_group_name_H-M "C 2/M"
_symmetry_group_IT_number 12
_symmetry_cell_setting 'monoclinic'
loop_
_space_group_symop_operation_xyz
x,y,z
-x,y,-z
-x,-y,-z
x,-y,z
1/2+x,1/2+y,z
1/2-x,1/2+y,-z
1/2-x,1/2-y,-z
1/2+x,1/2-y,z
loop_
_atom_site_type_symbol
_atom_site_label
_atom_site_fract_x
_atom_site_fract_y
_atom_site_fract_z
Si Si1 0.969763 0.172819 0.784631
Si Si2 0.077891 0.167090 0.477337
Si Si3 0.370466 0.830034 0.396974
Si Si4 0.791670 0.828626 0.278657
Si Si5 0.474623 0.169530 0.647624
Si Si6 0.728965 0.172664 0.932314
Si Si7 0.383177 0.671457 0.156869
Si Si8 0.818186 0.171531 0.812574
O O1 0.898764 0.200130 0.816002
O O2 0.968903 0.256728 0.716847
O O3 0.037605 0.212146 0.829645
O O4 0.974803 0.000000 0.771599
O O5 0.123522 0.250368 0.533471
O O6 0.000000 0.167765 0.500000
O O7 0.072002 0.249107 0.408688
O O8 0.098662 0.000000 0.471374
O O9 0.318393 0.752914 0.344171
O O10 0.446441 0.818372 0.370581
O O11 0.355081 0.000000 0.403406
O O12 0.847118 0.807027 0.224528
O O13 0.722122 0.762222 0.244654
O O14 0.785745 0.000000 0.289877
O O15 0.457426 0.000000 0.648892
O O16 0.658540 0.236519 0.898354
O O17 0.784601 0.203672 0.879763
O O18 0.724733 0.000000 0.940633
O O19 0.750000 0.250000 0.000000
O O20 0.377547 0.500000 0.141166
O O21 0.807101 0.000000 0.799088
#
# Coordination Sequence:
#
# PCOD9171612 Si02
#       8
#     8   8   8   8   8   8   8   8
#     4  10  19  34  54  76 105 138 172 212 256 306
#     4   9  17  28  43  65  96 133 174 218 262 309
#     4  10  18  28  45  70 101 133 171 218 264 309
#     4  10  18  30  50  75 102 133 172 217 260 305
#     4  10  19  29  45  71 103 136 170 212 263 311
#     4  10  20  36  58  81 106 137 172 208 250 299
#     4   9  18  32  53  79 104 133 171 211 251 297
#     4   9  20  36  54  77 105 137 172 210 254 304
#
# _framework density 17.246490000000001
#
# number of rings (size 3 to 8) (size 9 to 14) (size 15 to 20)
#    0.000    2.375    1.250    1.875    0.000    4.500 
#    0.000    0.625    0.000    4.500    0.000    0.000 
#    0.000    0.000    0.000    0.000    0.000    0.000 
#
# Total GULP energy -178541.668345 kJ/mol
# GULP energy per Si atom -5579.427136 kJ/mol
# Density = 1.720724 g / cm^3
# Si number density = 17.246490 Si / 1000 Ang^3
#
#
#
# Elastic Constant Matrix: (Units=GPa)
#
#
# Indices 1 2 3 4 5 6 
#
# 1 99.6747 62.0418 57.8161 0.0000 21.6543 0.0000
# 2 62.0418 103.1053 85.1229 0.0000 23.7318 0.0000
# 3 57.8161 85.1229 127.6431 0.0000 37.7894 0.0000
# 4 0.0000 0.0000 0.0000 32.3862 0.0000 8.9879
# 5 21.6543 23.7318 37.7894 0.0000 21.5833 0.0000
# 6 0.0000 0.0000 0.0000 8.9879 0.0000 22.0455
#
#
#
# Elastic Compliance Matrix: (Units=1/GPa)
#
#
# Indices 1 2 3 4 5 6 
#
# 1 0.016981 -0.008881 0.000797 0.000000 -0.008667 0.000000
# 2 -0.008881 0.026323 -0.015780 0.000000 0.007597 0.000000
# 3 0.000797 -0.015780 0.027192 0.000000 -0.031057 0.000000
# 4 0.000000 0.000000 0.000000 0.034817 0.000000 -0.014195
# 5 -0.008667 0.007597 -0.031057 0.000000 0.101052 0.000000
# 6 0.000000 0.000000 0.000000 -0.014195 0.000000 0.051148
#
#
# Mechanical properties :
#
#
# Convention : Reuss Voigt Hill
#
# Bulk Modulus (GPa) = 43.92444 82.26495 63.09470
# Shear Modulus (GPa) = 15.98315 23.56584 19.77449
#
# Velocity S-wave (km/s) = 3.04756 3.70051 3.38979
# Velocity P-wave (km/s) = 6.15690 8.12782 7.21002
#
# Compressibility (1/GPa) = 0.02276637
#
# Stress axis : x y z
#
# Youngs Moduli (GPa) = 58.88792 37.99029 36.77611
#
# Poissons Ratio (x) = 0.33740 -0.02931
# Poissons Ratio (y) = 0.52300 0.58034
# Poissons Ratio (z) = -0.04694 0.59950
#
# Static dielectric constant tensor:
#      x y z
#    x 1.581290 0.000000 -0.006890 
#    y 0.000000 1.574640 0.000000 
#    z -0.006890 0.000000 1.549010 
# 
# From -- ./inp_files/281286.got.cif
#   From: 2010.05.17/outbox.cif.g08.bks.cpg/sg12_141_cif.got.tgz:281286.got - 2010.06.03 13:09:07.
