data_PCOD9171078
_publ_section_title
;
Structure prediction by ZEFSAII (Michael W. Deem and Ramdas Pophale) SiO2 
 PCOD9171078
Probable space group: C 2/M
;
_chemical_formula_sum "Si O2"
_cell_formula_units_Z 64
_cell_length_a 25.661712
_cell_length_b 7.829241
_cell_length_c 17.247137
_cell_angle_alpha 90.000000
_cell_angle_beta 70.546529
_cell_angle_gamma 90.000000
_cell_volume 3267.334390
_symmetry_space_group_name_H-M "C 2/M"
_symmetry_group_IT_number 12
_symmetry_cell_setting 'monoclinic'
loop_
_space_group_symop_operation_xyz
x,y,z
-x,y,-z
-x,-y,-z
x,-y,z
1/2+x,1/2+y,z
1/2-x,1/2+y,-z
1/2-x,1/2-y,-z
1/2+x,1/2-y,z
loop_
_atom_site_type_symbol
_atom_site_label
_atom_site_fract_x
_atom_site_fract_y
_atom_site_fract_z
Si Si1 0.901932 0.694636 0.037596
Si Si2 0.240116 0.307200 0.245906
Si Si3 0.140501 0.203046 0.775878
Si Si4 0.121927 0.289878 0.264995
Si Si5 0.064716 0.297486 0.139690
Si Si6 0.988873 0.294471 0.591829
Si Si7 0.273368 0.192959 0.069358
Si Si8 0.545940 0.704179 0.715433
O O1 0.921453 0.500000 0.041125
O O2 0.893424 0.772364 0.126951
O O3 0.839459 0.693352 0.035626
O O4 0.934666 0.774118 0.948432
O O5 0.235316 0.500000 0.279960
O O6 0.296916 0.224643 0.249933
O O7 0.178902 0.228974 0.275592
O O8 0.253309 0.312894 0.147818
O O9 0.102582 0.269066 0.725244
O O10 0.147615 0.000000 0.763567
O O11 0.123756 0.500000 0.262150
O O12 0.109131 0.234286 0.182266
O O13 0.069195 0.236736 0.342111
O O14 0.075340 0.500000 0.125291
O O15 0.005765 0.274538 0.209813
O O16 0.985967 0.500000 0.589743
O O17 0.000000 0.229290 0.500000
O O18 0.035485 0.248741 0.631401
O O19 0.255510 0.000000 0.096819
O O20 0.250000 0.250000 0.000000
O O21 0.544716 0.500000 0.724089
#
# Coordination Sequence:
#
# PCOD9171078 Si02
#       8
#     8   8   8   8   8   8   8   8
#     4   9  18  30  44  62  87 122 165 206 236 266
#     4   9  16  29  47  64  86 119 155 190 226 264
#     4   9  19  32  45  64  92 127 163 193 225 269
#     4   8  14  27  49  72  92 115 147 188 230 272
#     4   9  17  30  46  66  91 121 160 202 240 273
#     4   9  18  34  56  79  97 114 142 182 228 278
#     4  10  18  27  39  58  85 118 156 197 237 272
#     4  10  20  33  48  69  96 124 153 185 227 279
#
# _framework density 19.587834000000001
#
# number of rings (size 3 to 8) (size 9 to 14) (size 15 to 20)
#    0.000    2.875    0.000    2.250    0.000    4.750 
#    0.000    7.500    0.000    0.750    0.000    0.000 
#    0.000    0.000    0.000    0.000    0.000    0.125 
#
# Total GULP energy -178228.257938 kJ/mol
# GULP energy per Si atom -5569.633061 kJ/mol
# Density = 1.954325 g / cm^3
# Si number density = 19.587834 Si / 1000 Ang^3
#
#
#
# Elastic Constant Matrix: (Units=GPa)
#
#
# Indices 1 2 3 4 5 6 
#
# 1 130.1526 -0.3422 52.6821 0.0000 26.6151 0.0000
# 2 -0.3422 29.6031 -0.4457 0.0000 -1.1769 0.0000
# 3 52.6821 -0.4457 72.6543 0.0000 18.8508 0.0000
# 4 0.0000 0.0000 0.0000 9.4809 0.0000 -0.2272
# 5 26.6151 -1.1769 18.8508 0.0000 21.0772 0.0000
# 6 0.0000 0.0000 0.0000 -0.2272 0.0000 4.5514
#
#
#
# Elastic Compliance Matrix: (Units=1/GPa)
#
#
# Indices 1 2 3 4 5 6 
#
# 1 0.012259 -0.000344 -0.006341 0.000000 -0.009828 0.000000
# 2 -0.000344 0.033873 -0.000190 0.000000 0.002496 0.000000
# 3 -0.006341 -0.000190 0.021207 0.000000 -0.010970 0.000000
# 4 0.000000 0.000000 0.000000 0.105602 0.000000 0.005272
# 5 -0.009828 0.002496 -0.010970 0.000000 0.069805 0.000000
# 6 0.000000 0.000000 0.000000 0.005272 0.000000 0.219978
#
#
# Mechanical properties :
#
#
# Convention : Reuss Voigt Hill
#
# Bulk Modulus (GPa) = 18.66127 37.35535 28.00831
# Shear Modulus (GPa) = 10.11455 19.05626 14.58540
#
# Velocity S-wave (km/s) = 2.27484 3.12246 2.73172
# Velocity P-wave (km/s) = 4.05555 5.66672 4.92744
#
# Compressibility (1/GPa) = 0.05358693
#
# Stress axis : x y z
#
# Youngs Moduli (GPa) = 81.57421 29.52230 47.15421
#
# Poissons Ratio (x) = 0.01017 0.29901
# Poissons Ratio (y) = 0.02810 0.00897
# Poissons Ratio (z) = 0.51728 0.00561
#
# Static dielectric constant tensor:
#      x y z
#    x 1.748090 0.000000 0.001120 
#    y 0.000000 1.737350 0.000000 
#    z 0.001120 0.000000 1.675190 
# 
# From -- ./inp_files/287490.got.cif
#   From: 2010.05.17/outbox.cif.g08.bks.cpg/sg12_144_cif.got.tgz:287490.got - 2010.06.03 13:09:07.
