data_PCOD9171163
_publ_section_title
;
Structure prediction by ZEFSAII (Michael W. Deem and Ramdas Pophale) SiO2 
 PCOD9171163
Probable space group: C 2/M
;
_chemical_formula_sum "Si O2"
_cell_formula_units_Z 64
_cell_length_a 30.467285
_cell_length_b 7.660330
_cell_length_c 14.643839
_cell_angle_alpha 90.000000
_cell_angle_beta 87.231389
_cell_angle_gamma 90.000000
_cell_volume 3413.728304
_symmetry_space_group_name_H-M "C 2/M"
_symmetry_group_IT_number 12
_symmetry_cell_setting 'monoclinic'
loop_
_space_group_symop_operation_xyz
x,y,z
-x,y,-z
-x,-y,-z
x,-y,z
1/2+x,1/2+y,z
1/2-x,1/2+y,-z
1/2-x,1/2-y,-z
1/2+x,1/2-y,z
loop_
_atom_site_type_symbol
_atom_site_label
_atom_site_fract_x
_atom_site_fract_y
_atom_site_fract_z
Si Si1 0.698346 0.291923 0.514975
Si Si2 0.453043 0.790338 0.971718
Si Si3 0.629006 0.711078 0.891518
Si Si4 0.750436 0.201966 0.808947
Si Si5 0.603664 0.795198 0.182982
Si Si6 0.833659 0.800726 0.290041
Si Si7 0.166831 0.707268 0.320709
Si Si8 0.312734 0.711816 0.952871
O O1 0.696174 0.500000 0.520974
O O2 0.750000 0.250000 0.500000
O O3 0.677791 0.218992 0.611106
O O4 0.672783 0.235219 0.427117
O O5 0.435230 0.720001 0.875940
O O6 0.456715 0.000000 0.961981
O O7 0.500000 0.721995 0.000000
O O8 0.415101 0.757791 0.050293
O O9 0.631179 0.500000 0.888265
O O10 0.633182 0.778692 0.787838
O O11 0.670862 0.769410 0.949129
O O12 0.711852 0.302601 0.762428
O O13 0.792132 0.208023 0.736079
O O14 0.769209 0.273226 0.903710
O O15 0.737499 0.000000 0.820227
O O16 0.621656 0.727454 0.278146
O O17 0.646666 0.772901 0.114656
O O18 0.593919 0.000000 0.196181
O O19 0.848048 0.000000 0.305505
O O20 0.170003 0.500000 0.302480
O O21 0.311332 0.500000 0.951109
#
# Coordination Sequence:
#
# PCOD9171163 Si02
#       8
#     8   8   8   8   8   8   8   8
#     4  11  21  32  46  64  87 120 163 205 242 273
#     4   9  17  31  52  77 101 121 143 177 224 279
#     4   9  18  33  48  64  91 123 152 184 224 274
#     4  10  18  27  42  63  86 117 156 194 228 265
#     4   8  15  27  44  67  93 120 147 178 223 275
#     4  10  21  33  44  60  87 122 157 194 235 273
#     4  10  18  29  45  64  89 120 156 197 234 268
#     4   8  15  27  42  61  86 116 151 187 220 259
#
# _framework density 18.74783
#
# number of rings (size 3 to 8) (size 9 to 14) (size 15 to 20)
#    0.000    2.625    1.250    1.125    0.000    2.750 
#    0.000    0.000    0.000    0.000    0.000    0.875 
#    0.000    7.000    0.000    0.000    0.000    0.000 
#
# Total GULP energy -178317.726426 kJ/mol
# GULP energy per Si atom -5572.428951 kJ/mol
# Density = 1.870516 g / cm^3
# Si number density = 18.747830 Si / 1000 Ang^3
#
#
#
# Elastic Constant Matrix: (Units=GPa)
#
#
# Indices 1 2 3 4 5 6 
#
# 1 90.7961 -1.8438 50.3959 0.0000 21.5428 0.0000
# 2 -1.8438 52.4436 -0.2852 0.0000 1.4963 0.0000
# 3 50.3959 -0.2852 163.5829 0.0000 17.8694 0.0000
# 4 0.0000 0.0000 0.0000 11.8309 0.0000 -2.4250
# 5 21.5428 1.4963 17.8694 0.0000 22.9463 0.0000
# 6 0.0000 0.0000 0.0000 -2.4250 0.0000 6.5550
#
#
#
# Elastic Compliance Matrix: (Units=1/GPa)
#
#
# Indices 1 2 3 4 5 6 
#
# 1 0.015909 0.000889 -0.003565 0.000000 -0.012218 0.000000
# 2 0.000889 0.019158 -0.000014 0.000000 -0.002073 0.000000
# 3 -0.003565 -0.000014 0.007482 0.000000 -0.002479 0.000000
# 4 0.000000 0.000000 0.000000 0.091460 0.000000 0.033836
# 5 -0.012218 -0.002073 -0.002479 0.000000 0.057116 0.000000
# 6 0.000000 0.000000 0.000000 0.033836 0.000000 0.165072
#
#
# Mechanical properties :
#
#
# Convention : Reuss Voigt Hill
#
# Bulk Modulus (GPa) = 26.90411 44.81739 35.86075
# Shear Modulus (GPa) = 13.37010 25.50348 19.43679
#
# Velocity S-wave (km/s) = 2.67339 3.69228 3.22335
# Velocity P-wave (km/s) = 4.88989 6.49111 5.74655
#
# Compressibility (1/GPa) = 0.03716905
#
# Stress axis : x y z
#
# Youngs Moduli (GPa) = 62.85584 52.19645 133.65080
#
# Poissons Ratio (x) = -0.04638 0.47648
# Poissons Ratio (y) = -0.05585 0.00186
# Poissons Ratio (z) = 0.22409 0.00073
#
# Static dielectric constant tensor:
#      x y z
#    x 1.644430 0.000000 0.002660 
#    y 0.000000 1.708820 0.000000 
#    z 0.002660 0.000000 1.695540 
# 
# From -- ./inp_files/248415.got.cif
#   From: 2010.05.17/outbox.cif.g08.bks.cpg/sg12_125_cif.got.tgz:248415.got - 2010.06.03 13:09:07.
