data_PCOD9171974
_publ_section_title
;
Structure prediction by ZEFSAII (Michael W. Deem and Ramdas Pophale) SiO2 
 PCOD9171974
Probable space group: C 2/M
;
_chemical_formula_sum "Si O2"
_cell_formula_units_Z 64
_cell_length_a 27.704210
_cell_length_b 7.307806
_cell_length_c 28.716026
_cell_angle_alpha 90.000000
_cell_angle_beta 152.461192
_cell_angle_gamma 90.000000
_cell_volume 2687.988004
_symmetry_space_group_name_H-M "C 2/M"
_symmetry_group_IT_number 12
_symmetry_cell_setting 'monoclinic'
loop_
_space_group_symop_operation_xyz
x,y,z
-x,y,-z
-x,-y,-z
x,-y,z
1/2+x,1/2+y,z
1/2-x,1/2+y,-z
1/2-x,1/2-y,-z
1/2+x,1/2-y,z
loop_
_atom_site_type_symbol
_atom_site_label
_atom_site_fract_x
_atom_site_fract_y
_atom_site_fract_z
Si Si1 0.778075 0.276900 0.357271
Si Si2 0.083334 0.222786 0.034692
Si Si3 0.016890 0.722927 0.412110
Si Si4 0.293765 0.223407 0.263028
Si Si5 0.528993 0.781034 0.316286
Si Si6 0.801244 0.282870 0.094134
Si Si7 0.914598 0.778056 0.063614
Si Si8 0.104495 0.782151 0.283501
O O1 0.772519 0.500000 0.351864
O O2 0.890169 0.224174 0.474004
O O3 0.772228 0.219852 0.298190
O O4 0.691303 0.215520 0.321037
O O5 0.198281 0.280490 0.148461
O O6 0.086123 0.000000 0.037508
O O7 0.040351 0.271643 0.947455
O O8 0.000000 0.286509 0.000000
O O9 0.014776 0.500000 0.409416
O O10 0.042492 0.782951 0.380998
O O11 0.904613 0.781356 0.336075
O O12 0.295869 0.000000 0.265345
O O13 0.415475 0.708647 0.202032
O O14 0.610908 0.745937 0.344568
O O15 0.524623 0.000000 0.315419
O O16 0.810667 0.500000 0.109048
O O17 0.750000 0.250000 0.000000
O O18 0.704752 0.214225 0.041946
O O19 0.990813 0.711153 0.169199
O O20 0.909442 0.000000 0.063945
O O21 0.103787 0.000000 0.276980
#
# Coordination Sequence:
#
# PCOD9171974 Si02
#       8
#     8   8   8   8   8   8   8   8
#     4   9  17  28  44  66  91 121 158 197 240 287
#     4   9  15  22  35  58  89 121 149 181 226 280
#     4   9  17  29  44  64  92 124 156 197 243 283
#     4   9  15  25  42  64  91 122 156 193 238 288
#     4  10  20  32  47  69  97 128 162 194 231 282
#     4  10  18  29  45  65  89 119 154 187 222 267
#     4   9  16  26  40  60  89 121 150 184 228 272
#     4  10  19  31  47  68  96 129 161 195 235 279
#
# _framework density 23.809629999999999
#
# number of rings (size 3 to 8) (size 9 to 14) (size 15 to 20)
#    0.000    2.625    1.250    1.875    0.000    8.000 
#    0.000    0.000    0.000    0.000    0.000    0.875 
#    0.000   13.000    0.000    0.000    0.000    0.000 
#
# Total GULP energy -178562.448076 kJ/mol
# GULP energy per Si atom -5580.076502 kJ/mol
# Density = 2.375544 g / cm^3
# Si number density = 23.809630 Si / 1000 Ang^3
#
#
#
# Elastic Constant Matrix: (Units=GPa)
#
#
# Indices 1 2 3 4 5 6 
#
# 1 138.4629 -3.7113 17.9060 0.0004 -6.3400 0.0008
# 2 -3.7113 97.8421 -0.7585 0.0008 2.9694 0.0032
# 3 17.9060 -0.7585 65.1943 0.0001 -4.5064 0.0000
# 4 0.0004 0.0008 0.0001 -12.0402 0.0000 -4.3544
# 5 -6.3400 2.9694 -4.5064 0.0000 37.2771 0.0003
# 6 0.0008 0.0032 0.0000 -4.3544 0.0003 4.6452
#
#
#
# Elastic Compliance Matrix: (Units=1/GPa)
#
#
# Indices 1 2 3 4 5 6 
#
# 1 0.007533 0.000239 -0.001996 0.000001 0.001021 -0.000001
# 2 0.000239 0.010253 0.000000 0.000002 -0.000776 -0.000005
# 3 -0.001996 0.000000 0.015997 0.000000 0.001594 0.000000
# 4 0.000001 0.000002 0.000000 -0.062027 0.000000 -0.058143
# 5 0.001021 -0.000776 0.001594 0.000000 0.027254 -0.000001
# 6 -0.000001 -0.000005 0.000000 -0.058143 -0.000001 0.160772
#
#
# Mechanical properties :
#
#
# Convention : Reuss Voigt Hill
#
# Bulk Modulus (GPa) = 33.03530 36.48576 34.76053
# Shear Modulus (GPa) = 28.83741 25.18063 27.00902
#
# Velocity S-wave (km/s) = 3.48396 3.25558 3.37170
# Velocity P-wave (km/s) = 5.48533 5.43037 5.45792
#
# Compressibility (1/GPa) = 0.03027065
#
# Stress axis : x y z
#
# Youngs Moduli (GPa) = 132.74215 97.53077 62.51130
#
# Poissons Ratio (x) = -0.02334 0.12476
# Poissons Ratio (y) = -0.03176 0.00000
# Poissons Ratio (z) = 0.26492 0.00001
#
# Static dielectric constant tensor:
#      x y z
#    x 1.986530 0.000000 0.035540 
#    y 0.000000 1.893650 0.000000 
#    z 0.035540 0.000000 1.852450 
# 
# From -- ./inp_files/367850.got.cif
#   From: 2010.05.17/outbox.cif.g08.bks.cpg/sg12_184_cif.got.tgz:367850.got - 2010.06.03 13:09:07.
