data_PCOD9171367
_publ_section_title
;
Structure prediction by ZEFSAII (Michael W. Deem and Ramdas Pophale) SiO2 
 PCOD9171367
Probable space group: C 2/M
;
_chemical_formula_sum "Si O2"
_cell_formula_units_Z 64
_cell_length_a 27.752167
_cell_length_b 8.625611
_cell_length_c 17.829705
_cell_angle_alpha 90.000000
_cell_angle_beta 101.260035
_cell_angle_gamma 90.000000
_cell_volume 4185.908478
_symmetry_space_group_name_H-M "C 2/M"
_symmetry_group_IT_number 12
_symmetry_cell_setting 'monoclinic'
loop_
_space_group_symop_operation_xyz
x,y,z
-x,y,-z
-x,-y,-z
x,-y,z
1/2+x,1/2+y,z
1/2-x,1/2+y,-z
1/2-x,1/2-y,-z
1/2+x,1/2-y,z
loop_
_atom_site_type_symbol
_atom_site_label
_atom_site_fract_x
_atom_site_fract_y
_atom_site_fract_z
Si Si1 0.675460 0.314165 0.338072
Si Si2 0.055944 0.685283 0.034394
Si Si3 0.804688 0.685249 0.502760
Si Si4 0.127157 0.814534 0.172166
Si Si5 0.812216 0.186773 0.182584
Si Si6 0.207437 0.684673 0.084311
Si Si7 0.635774 0.684878 0.945191
Si Si8 0.212169 0.313435 0.665392
O O1 0.677847 0.500000 0.346035
O O2 0.665195 0.245997 0.417001
O O3 0.636130 0.275877 0.261829
O O4 0.730300 0.263766 0.326645
O O5 0.058954 0.500000 0.043866
O O6 0.077278 0.764276 0.116028
O O7 0.091716 0.735658 0.977170
O O8 0.000000 0.729047 0.000000
O O9 0.803427 0.500000 0.504894
O O10 0.750000 0.750000 0.500000
O O11 0.815628 0.731595 0.420190
O O12 0.169415 0.726482 0.138779
O O13 0.133835 0.000000 0.165344
O O14 0.760712 0.235278 0.128659
O O15 0.855113 0.234138 0.137923
O O16 0.811582 0.248729 0.266555
O O17 0.812116 0.000000 0.185213
O O18 0.207497 0.500000 0.070540
O O19 0.185301 0.772521 0.006097
O O20 0.628922 0.500000 0.946143
O O21 0.212717 0.500000 0.670349
#
# Coordination Sequence:
#
# PCOD9171367 Si02
#       8
#     8   8   8   8   8   8   8   8
#     4   9  17  28  41  61  86 114 149 185 217 253
#     4  10  21  36  51  67  87 110 141 181 225 270
#     4   9  17  27  39  57  81 114 153 187 218 253
#     4  10  18  29  46  67  89 114 148 183 218 261
#     4  10  20  29  40  61  87 116 150 183 212 252
#     4  10  18  28  41  60  86 116 149 179 215 253
#     4  10  20  32  45  63  85 111 146 181 217 260
#     4   9  17  28  40  57  84 118 153 183 215 250
#
# _framework density 15.289393
#
# number of rings (size 3 to 8) (size 9 to 14) (size 15 to 20)
#    0.000    2.375    1.250    4.500    0.000    6.000 
#    0.000    0.000    0.000    0.000    0.000    0.000 
#    0.000    1.000    0.000   11.000    0.000    8.000 
#
# Total GULP energy -178272.331428 kJ/mol
# GULP energy per Si atom -5571.010357 kJ/mol
# Density = 1.525459 g / cm^3
# Si number density = 15.289393 Si / 1000 Ang^3
#
#
#
# Elastic Constant Matrix: (Units=GPa)
#
#
# Indices 1 2 3 4 5 6 
#
# 1 44.5433 11.8189 44.7872 0.0000 7.0829 0.0000
# 2 11.8189 17.1260 21.1155 0.0000 2.3701 0.0000
# 3 44.7872 21.1155 148.4927 0.0000 -1.3427 0.0000
# 4 0.0000 0.0000 0.0000 27.9646 0.0000 1.5840
# 5 7.0829 2.3701 -1.3427 0.0000 14.0563 0.0000
# 6 0.0000 0.0000 0.0000 1.5840 0.0000 13.5134
#
#
#
# Elastic Compliance Matrix: (Units=1/GPa)
#
#
# Indices 1 2 3 4 5 6 
#
# 1 0.038728 -0.011584 -0.010201 0.000000 -0.018536 0.000000
# 2 -0.011584 0.076691 -0.007482 0.000000 -0.007809 0.000000
# 3 -0.010201 -0.007482 0.010942 0.000000 0.007447 0.000000
# 4 0.000000 0.000000 0.000000 0.035999 0.000000 -0.004220
# 5 -0.018536 -0.007809 0.007447 0.000000 0.082511 0.000000
# 6 0.000000 0.000000 0.000000 -0.004220 0.000000 0.074495
#
#
# Mechanical properties :
#
#
# Convention : Reuss Voigt Hill
#
# Bulk Modulus (GPa) = 14.74344 40.62280 27.68312
# Shear Modulus (GPa) = 12.48410 19.93622 16.21016
#
# Velocity S-wave (km/s) = 2.86058 3.61491 3.25964
# Velocity P-wave (km/s) = 4.53590 6.63704 5.68440
#
# Compressibility (1/GPa) = 0.06782676
#
# Stress axis : x y z
#
# Youngs Moduli (GPa) = 25.82091 13.03941 91.38711
#
# Poissons Ratio (x) = 0.15105 0.93227
# Poissons Ratio (y) = 0.29911 0.68376
# Poissons Ratio (z) = 0.26341 0.09756
#
# Static dielectric constant tensor:
#      x y z
#    x 1.485290 0.000000 0.003550 
#    y 0.000000 1.508620 0.000000 
#    z 0.003550 0.000000 1.550260 
# 
# From -- ./inp_files/291625.got.cif
#   From: 2010.05.17/outbox.cif.g08.bks.cpg/sg12_146_cif.got.tgz:291625.got - 2010.06.03 13:09:07.
