data_PCOD9171278
_publ_section_title
;
Structure prediction by ZEFSAII (Michael W. Deem and Ramdas Pophale) SiO2 
 PCOD9171278
Probable space group: C 2/M
;
_chemical_formula_sum "Si O2"
_cell_formula_units_Z 48
_cell_length_a 14.599966
_cell_length_b 13.400285
_cell_length_c 12.052267
_cell_angle_alpha 90.000000
_cell_angle_beta 103.024138
_cell_angle_gamma 90.000000
_cell_volume 2297.292399
_symmetry_space_group_name_H-M "C 2/M"
_symmetry_group_IT_number 12
_symmetry_cell_setting 'monoclinic'
loop_
_space_group_symop_operation_xyz
x,y,z
-x,y,-z
-x,-y,-z
x,-y,z
1/2+x,1/2+y,z
1/2-x,1/2+y,-z
1/2-x,1/2-y,-z
1/2+x,1/2-y,z
loop_
_atom_site_type_symbol
_atom_site_label
_atom_site_fract_x
_atom_site_fract_y
_atom_site_fract_z
Si Si1 0.567185 0.620473 0.668930
Si Si2 0.315998 0.615583 0.088069
Si Si3 0.745634 0.377932 0.573613
Si Si4 0.637416 0.380261 0.342741
Si Si5 0.090386 0.190161 0.087485
Si Si6 0.129855 0.614349 0.191349
O O1 0.565387 0.500000 0.656271
O O2 0.601733 0.642293 0.802733
O O3 0.650613 0.654277 0.611794
O O4 0.460748 0.656162 0.628759
O O5 0.327838 0.500000 0.056495
O O6 0.221940 0.617278 0.136765
O O7 0.328410 0.681531 0.982703
O O8 0.748460 0.500000 0.578111
O O9 0.727113 0.347564 0.440976
O O10 0.833725 0.351881 0.676400
O O11 0.636032 0.500000 0.352106
O O12 0.629677 0.357988 0.210718
O O13 0.064636 0.301956 0.120495
O O14 0.000000 0.144719 0.000000
O O15 0.095814 0.500000 0.185589
#
# Coordination Sequence:
#
# PCOD9171278 Si02
#       6
#     8   8   8   8   8   8
#     4   8  13  24  44  68  95 122 145 177 225 287
#     4   9  17  32  51  70  95 125 153 188 238 289
#     4   8  15  29  48  67  89 123 160 190 228 276
#     4  10  18  27  44  73 104 123 141 184 245 296
#     4  12  22  30  46  73 103 127 151 190 241 285
#     4   9  20  37  52  64  87 129 174 202 218 259
#
# _framework density 20.894162000000001
#
# number of rings (size 3 to 8) (size 9 to 14) (size 15 to 20)
#    0.000    2.667    1.667    3.500    0.000    3.667 
#    0.000    0.000    0.000    0.000    0.000    0.000 
#    0.000    2.667    0.000    1.000    0.000    0.000 
#
# Total GULP energy -133667.902549 kJ/mol
# GULP energy per Si atom -5569.495940 kJ/mol
# Density = 2.084661 g / cm^3
# Si number density = 20.894162 Si / 1000 Ang^3
#
#
#
# Elastic Constant Matrix: (Units=GPa)
#
#
# Indices 1 2 3 4 5 6 
#
# 1 25.1294 -5.2358 11.3383 0.0000 -1.0014 0.0000
# 2 -5.2358 42.9580 20.8367 0.0000 5.3817 0.0000
# 3 11.3383 20.8367 129.8833 0.0000 7.4539 0.0000
# 4 0.0000 0.0000 0.0000 28.8380 0.0000 2.3206
# 5 -1.0014 5.3817 7.4539 0.0000 20.0547 0.0000
# 6 0.0000 0.0000 0.0000 2.3206 0.0000 17.2147
#
#
#
# Elastic Compliance Matrix: (Units=1/GPa)
#
#
# Indices 1 2 3 4 5 6 
#
# 1 0.043782 0.007578 -0.005156 0.000000 0.002069 0.000000
# 2 0.007578 0.027136 -0.004719 0.000000 -0.005150 0.000000
# 3 -0.005156 -0.004719 0.009041 0.000000 -0.002351 0.000000
# 4 0.000000 0.000000 0.000000 0.035057 0.000000 -0.004726
# 5 0.002069 -0.005150 -0.002351 0.000000 0.052223 0.000000
# 6 0.000000 0.000000 0.000000 -0.004726 0.000000 0.058727
#
#
# Mechanical properties :
#
#
# Convention : Reuss Voigt Hill
#
# Bulk Modulus (GPa) = 13.26886 27.98322 20.62604
# Shear Modulus (GPa) = 19.55543 24.62357 22.08950
#
# Velocity S-wave (km/s) = 3.06261 3.43664 3.25500
# Velocity P-wave (km/s) = 4.34401 5.40085 4.90100
#
# Compressibility (1/GPa) = 0.07536445
#
# Stress axis : x y z
#
# Youngs Moduli (GPa) = 22.84045 36.85074 110.60203
#
# Poissons Ratio (x) = -0.27926 0.57031
# Poissons Ratio (y) = -0.17309 0.52198
# Poissons Ratio (z) = 0.11778 0.17391
#
# Static dielectric constant tensor:
#      x y z
#    x 1.748510 0.000000 -0.001270 
#    y 0.000000 1.814140 0.000000 
#    z -0.001270 0.000000 1.794750 
# 
# From -- ./inp_files/142738.got.cif
#   From: 2010.05.17/outbox.cif.g08.bks.cpg/sg12_72_cif.got.tgz:142738.got - 2010.06.03 13:09:07.
