data_PCOD9171670
_publ_section_title
;
Structure prediction by ZEFSAII (Michael W. Deem and Ramdas Pophale) SiO2 
 PCOD9171670
Probable space group: C 2/M
;
_chemical_formula_sum "Si O2"
_cell_formula_units_Z 48
_cell_length_a 18.598822
_cell_length_b 9.175491
_cell_length_c 18.435033
_cell_angle_alpha 90.000000
_cell_angle_beta 61.250849
_cell_angle_gamma 90.000000
_cell_volume 2758.204495
_symmetry_space_group_name_H-M "C 2/M"
_symmetry_group_IT_number 12
_symmetry_cell_setting 'monoclinic'
loop_
_space_group_symop_operation_xyz
x,y,z
-x,y,-z
-x,-y,-z
x,-y,z
1/2+x,1/2+y,z
1/2-x,1/2+y,-z
1/2-x,1/2-y,-z
1/2+x,1/2-y,z
loop_
_atom_site_type_symbol
_atom_site_label
_atom_site_fract_x
_atom_site_fract_y
_atom_site_fract_z
Si Si1 0.585123 0.667194 0.005369
Si Si2 0.669711 0.832811 0.842050
Si Si3 0.750187 0.676602 0.340767
Si Si4 0.581710 0.322982 0.499724
Si Si5 0.000587 0.332000 0.829612
Si Si6 0.907013 0.175379 0.337588
O O1 0.601828 0.500000 0.015408
O O2 0.567243 0.760697 0.085653
O O3 0.500000 0.670799 0.000000
O O4 0.653650 0.733778 0.919291
O O5 0.738191 0.788483 0.750171
O O6 0.585181 0.830012 0.835907
O O7 0.683159 0.000000 0.858021
O O8 0.760671 0.500000 0.341886
O O9 0.663596 0.719408 0.416943
O O10 0.822557 0.756494 0.348783
O O11 0.500000 0.269528 0.500000
O O12 0.580252 0.500000 0.499001
O O13 0.583707 0.281822 0.583045
O O14 0.982624 0.500000 0.821643
O O15 0.021582 0.240103 0.747968
O O16 0.905282 0.000000 0.332421
#
# Coordination Sequence:
#
# PCOD9171670 Si02
#       6
#     8   8   8   8   8   8
#     4   9  15  22  35  58  88 118 147 181 222 266
#     4   8  14  23  36  57  85 117 149 179 218 267
#     4   9  17  30  48  68  92 123 156 189 226 272
#     4   9  18  32  49  69  92 120 155 192 230 274
#     4   9  16  26  40  59  88 122 152 183 222 271
#     4  10  18  28  46  70  94 120 153 193 231 268
#
# _framework density 17.402626000000001
#
# number of rings (size 3 to 8) (size 9 to 14) (size 15 to 20)
#    0.000    3.000    0.000    3.000    0.000    6.000 
#    0.000    0.833    0.000    4.500    0.000    1.167 
#    0.000    0.000    0.000    0.000    0.000    0.000 
#
# Total GULP energy -133692.001250 kJ/mol
# GULP energy per Si atom -5570.500052 kJ/mol
# Density = 1.736302 g / cm^3
# Si number density = 17.402626 Si / 1000 Ang^3
#
#
#
# Elastic Constant Matrix: (Units=GPa)
#
#
# Indices 1 2 3 4 5 6 
#
# 1 35.9550 25.9957 51.8269 0.0000 -2.1236 0.0000
# 2 25.9957 73.5144 74.0858 0.0000 -6.2107 -0.0001
# 3 51.8269 74.0858 195.1031 0.0000 -11.7422 0.0000
# 4 0.0000 0.0000 0.0000 28.7527 0.0000 -0.9835
# 5 -2.1236 -6.2107 -11.7422 0.0000 -2.6107 0.0000
# 6 0.0000 -0.0001 0.0000 -0.9835 0.0000 6.7159
#
#
#
# Elastic Compliance Matrix: (Units=1/GPa)
#
#
# Indices 1 2 3 4 5 6 
#
# 1 0.045950 -0.005745 -0.009012 0.000000 0.016824 0.000000
# 2 -0.005745 0.022313 -0.007760 0.000000 -0.013507 0.000000
# 3 -0.009012 -0.007760 0.009458 0.000000 -0.016749 0.000000
# 4 0.000000 0.000000 0.000000 0.034954 0.000000 0.005119
# 5 0.016824 -0.013507 -0.016749 0.000000 -0.289256 0.000000
# 6 0.000000 0.000000 0.000000 0.005119 0.000000 0.149650
#
#
# Mechanical properties :
#
#
# Convention : Reuss Voigt Hill
#
# Bulk Modulus (GPa) = 30.59265 67.59879 49.09572
# Shear Modulus (GPa) = 172.41567 16.74920 94.58243
#
# Velocity S-wave (km/s) = 9.96442 3.10571 7.38021
# Velocity P-wave (km/s) = 12.24760 7.19645 10.04471
#
# Compressibility (1/GPa) = 0.03268759
#
# Stress axis : x y z
#
# Youngs Moduli (GPa) = 21.76265 44.81648 105.73082
#
# Poissons Ratio (x) = 0.25748 0.95285
# Poissons Ratio (y) = 0.12503 0.82044
# Poissons Ratio (z) = 0.19613 0.34776
#
# Static dielectric constant tensor:
#      x y z
#    x 1.564110 0.000000 -0.010440 
#    y 0.000000 1.582360 0.000000 
#    z -0.010440 0.000000 1.605530 
# 
# From -- ./inp_files/274622.got.cif
#   From: 2010.05.17/outbox.cif.g08.bks.cpg/sg12_138_cif.got.tgz:274622.got - 2010.06.03 13:09:07.
