data_PCOD9171512
_publ_section_title
;
Structure prediction by ZEFSAII (Michael W. Deem and Ramdas Pophale) SiO2 
 PCOD9171512
Probable space group: C 2/M
;
_chemical_formula_sum "Si O2"
_cell_formula_units_Z 64
_cell_length_a 32.531794
_cell_length_b 15.034803
_cell_length_c 7.442073
_cell_angle_alpha 90.000000
_cell_angle_beta 116.910011
_cell_angle_gamma 90.000000
_cell_volume 3245.842487
_symmetry_space_group_name_H-M "C 2/M"
_symmetry_group_IT_number 12
_symmetry_cell_setting 'monoclinic'
loop_
_space_group_symop_operation_xyz
x,y,z
-x,y,-z
-x,-y,-z
x,-y,z
1/2+x,1/2+y,z
1/2-x,1/2+y,-z
1/2-x,1/2-y,-z
1/2+x,1/2-y,z
loop_
_atom_site_type_symbol
_atom_site_label
_atom_site_fract_x
_atom_site_fract_y
_atom_site_fract_z
Si Si1 0.164437 0.405440 0.302223
Si Si2 0.638753 0.716045 0.805331
Si Si3 0.330342 0.099008 0.101372
Si Si4 0.263422 0.649829 0.578514
Si Si5 0.948155 0.101288 0.931796
Si Si6 0.947615 0.898783 0.360272
Si Si7 0.640161 0.292178 0.249769
Si Si8 0.227037 0.894865 0.982266
O O1 0.148212 0.500000 0.350006
O O2 0.220166 0.404883 0.422179
O O3 0.147714 0.308576 0.334666
O O4 0.152249 0.406844 0.067684
O O5 0.643679 0.818551 0.758871
O O6 0.592387 0.666750 0.654702
O O7 0.640450 0.713518 0.029691
O O8 0.683982 0.662622 0.831680
O O9 0.276006 0.123663 0.986734
O O10 0.333276 0.000000 0.188653
O O11 0.250000 0.750000 0.500000
O O12 0.316261 0.644351 0.617708
O O13 0.264943 0.630326 0.793538
O O14 0.942474 0.096594 0.135176
O O15 0.944682 0.000000 0.854637
O O16 0.907425 0.164084 0.784421
O O17 0.000000 0.133661 0.000000
O O18 0.000000 0.869658 0.500000
O O19 0.942315 0.000000 0.419405
O O20 0.217020 0.000000 0.948488
#
# Coordination Sequence:
#
# PCOD9171512 Si02
#       8
#     8   8   8   8   8   8   8   8
#     4   9  16  28  44  62  87 117 146 177 212 249
#     4   9  16  28  46  64  85 115 148 178 213 260
#     4   9  18  30  44  64  90 120 152 183 215 254
#     4   9  17  28  42  63  89 117 149 179 211 253
#     4   9  17  30  47  64  83 108 137 173 217 260
#     4   9  17  30  47  66  86 107 137 177 220 266
#     4   8  16  28  43  63  84 110 145 176 206 256
#     4  10  18  28  44  66  91 120 151 181 216 259
#
# _framework density 19.71753
#
# number of rings (size 3 to 8) (size 9 to 14) (size 15 to 20)
#    0.000    3.000    0.000    1.875    0.000    3.500 
#    0.000    3.750    0.000    5.250    0.000    0.000 
#    0.000    0.000    0.000    0.000    0.000    0.000 
#
# Total GULP energy -178344.078047 kJ/mol
# GULP energy per Si atom -5573.252439 kJ/mol
# Density = 1.967265 g / cm^3
# Si number density = 19.717530 Si / 1000 Ang^3
#
#
#
# Elastic Constant Matrix: (Units=GPa)
#
#
# Indices 1 2 3 4 5 6 
#
# 1 79.6479 49.7385 21.2237 0.0000 30.5736 0.0000
# 2 49.7385 115.4055 23.9059 0.0000 42.3166 0.0000
# 3 21.2237 23.9059 52.9875 0.0000 6.6901 0.0000
# 4 0.0000 0.0000 0.0000 5.8244 0.0000 12.3921
# 5 30.5736 42.3166 6.6901 0.0000 41.1845 0.0000
# 6 0.0000 0.0000 0.0000 12.3921 0.0000 21.6435
#
#
#
# Elastic Compliance Matrix: (Units=1/GPa)
#
#
# Indices 1 2 3 4 5 6 
#
# 1 0.020278 -0.003971 -0.005049 0.000000 -0.010153 0.000000
# 2 -0.003971 0.015852 -0.003958 0.000000 -0.012697 0.000000
# 3 -0.005049 -0.003958 0.022148 0.000000 0.004217 0.000000
# 4 0.000000 0.000000 0.000000 -0.786896 0.000000 0.450543
# 5 -0.010153 -0.012697 0.004217 0.000000 0.044180 0.000000
# 6 0.000000 0.000000 0.000000 0.450543 0.000000 -0.211758
#
#
# Mechanical properties :
#
#
# Convention : Reuss Voigt Hill
#
# Bulk Modulus (GPa) = 30.93825 48.64189 39.79007
# Shear Modulus (GPa) = -5.81756 23.94198 9.06221
#
# Velocity S-wave (km/s) = -1.71955 3.48839 2.14616
# Velocity P-wave (km/s) = 3.43254 6.39907 5.13470
#
# Compressibility (1/GPa) = 0.03232245
#
# Stress axis : x y z
#
# Youngs Moduli (GPa) = 49.31538 63.08291 45.15080
#
# Poissons Ratio (x) = 0.25048 0.22795
# Poissons Ratio (y) = 0.19581 0.17872
# Poissons Ratio (z) = 0.24898 0.24970
#
# Static dielectric constant tensor:
#      x y z
#    x 1.695790 0.000000 -0.039360 
#    y 0.000000 1.666120 0.000000 
#    z -0.039360 0.000000 1.734480 
# 
# From -- ./inp_files/111665.got.cif
#   From: 2010.05.17/outbox.cif.g08.bks.cpg/sg12_56_cif.got.tgz:111665.got - 2010.06.03 13:09:07.
