data_PCOD9171548
_publ_section_title
;
Structure prediction by ZEFSAII (Michael W. Deem and Ramdas Pophale) SiO2 
 PCOD9171548
Probable space group: C 2/M
;
_chemical_formula_sum "Si O2"
_cell_formula_units_Z 64
_cell_length_a 19.766802
_cell_length_b 8.639198
_cell_length_c 21.213513
_cell_angle_alpha 90.000000
_cell_angle_beta 94.660748
_cell_angle_gamma 90.000000
_cell_volume 3610.638157
_symmetry_space_group_name_H-M "C 2/M"
_symmetry_group_IT_number 12
_symmetry_cell_setting 'monoclinic'
loop_
_space_group_symop_operation_xyz
x,y,z
-x,y,-z
-x,-y,-z
x,-y,z
1/2+x,1/2+y,z
1/2-x,1/2+y,-z
1/2-x,1/2-y,-z
1/2+x,1/2-y,z
loop_
_atom_site_type_symbol
_atom_site_label
_atom_site_fract_x
_atom_site_fract_y
_atom_site_fract_z
Si Si1 0.774869 0.683533 0.207183
Si Si2 0.820573 0.813408 0.477235
Si Si3 0.584820 0.685201 0.824160
Si Si4 0.492165 0.186415 0.927050
Si Si5 0.237440 0.813784 0.653964
Si Si6 0.463650 0.686767 0.727773
Si Si7 0.368855 0.815281 0.830295
Si Si8 0.621330 0.687575 0.392589
O O1 0.771837 0.500000 0.208236
O O2 0.841923 0.740378 0.177076
O O3 0.777224 0.746430 0.278885
O O4 0.706088 0.748170 0.171301
O O5 0.750000 0.750000 0.500000
O O6 0.818019 0.767567 0.403709
O O7 0.876360 0.765608 0.533469
O O8 0.818599 0.000000 0.477495
O O9 0.590754 0.500000 0.822474
O O10 0.546297 0.736055 0.884585
O O11 0.535575 0.736370 0.762438
O O12 0.418134 0.222632 0.892503
O O13 0.500842 0.000000 0.924149
O O14 0.500000 0.234159 0.000000
O O15 0.310400 0.753399 0.634737
O O16 0.239770 0.000000 0.658158
O O17 0.462760 0.500000 0.729861
O O18 0.406382 0.747698 0.771471
O O19 0.441929 0.735163 0.655835
O O20 0.365265 0.000000 0.823581
O O21 0.625219 0.500000 0.390702
#
# Coordination Sequence:
#
# PCOD9171548 Si02
#       8
#     8   8   8   8   8   8   8   8
#     4  12  23  35  51  73 104 140 177 218 263 308
#     4   8  15  25  39  63  96 129 165 208 256 309
#     4  10  21  36  54  79 108 137 173 214 255 302
#     4   9  19  38  62  86 112 140 167 198 243 301
#     4  10  18  28  44  69  99 133 171 214 261 308
#     4   9  17  30  50  75 103 133 168 212 260 308
#     4  10  19  32  54  81 107 135 170 209 248 297
#     4   9  15  26  45  70  99 131 166 209 260 313
#
# _framework density 17.725398999999999
#
# number of rings (size 3 to 8) (size 9 to 14) (size 15 to 20)
#    0.000    2.375    1.250    2.250    0.000    1.750 
#    0.000    0.625    0.000    0.750    0.000    5.250 
#    0.000    0.000    0.000    0.000    0.000    0.000 
#
# Total GULP energy -178352.267929 kJ/mol
# GULP energy per Si atom -5573.508373 kJ/mol
# Density = 1.768506 g / cm^3
# Si number density = 17.725399 Si / 1000 Ang^3
#
#
#
# Elastic Constant Matrix: (Units=GPa)
#
#
# Indices 1 2 3 4 5 6 
#
# 1 97.8415 20.9324 40.0292 0.0000 11.8245 0.0000
# 2 20.9324 16.7380 18.9147 0.0000 4.8234 0.0000
# 3 40.0292 18.9147 106.0538 0.0000 25.6716 0.0000
# 4 0.0000 0.0000 0.0000 20.1314 0.0000 -1.4908
# 5 11.8245 4.8234 25.6716 0.0000 20.4059 0.0000
# 6 0.0000 0.0000 0.0000 -1.4908 0.0000 20.3216
#
#
#
# Elastic Compliance Matrix: (Units=1/GPa)
#
#
# Indices 1 2 3 4 5 6 
#
# 1 0.014653 -0.015087 -0.002369 0.000000 -0.001944 0.000000
# 2 -0.015087 0.090382 -0.010597 0.000000 0.000710 0.000000
# 3 -0.002369 -0.010597 0.016212 0.000000 -0.016517 0.000000
# 4 0.000000 0.000000 0.000000 0.049945 0.000000 0.003664
# 5 -0.001944 0.000710 -0.016517 0.000000 0.070744 0.000000
# 6 0.000000 0.000000 0.000000 0.003664 0.000000 0.049478
#
#
# Mechanical properties :
#
#
# Convention : Reuss Voigt Hill
#
# Bulk Modulus (GPa) = 15.35156 42.26510 28.80833
# Shear Modulus (GPa) = 13.54161 21.55558 17.54859
#
# Velocity S-wave (km/s) = 2.76699 3.49102 3.14988
# Velocity P-wave (km/s) = 4.34602 6.33607 5.43294
#
# Compressibility (1/GPa) = 0.06513997
#
# Stress axis : x y z
#
# Youngs Moduli (GPa) = 68.24745 11.06413 61.68411
#
# Poissons Ratio (x) = 0.16692 0.14614
# Poissons Ratio (y) = 1.02964 0.65368
# Poissons Ratio (z) = 0.16169 0.11725
#
# Static dielectric constant tensor:
#      x y z
#    x 1.587090 0.000000 0.049820 
#    y 0.000000 1.598650 0.000000 
#    z 0.049820 0.000000 1.630020 
# 
# From -- ./inp_files/314203.got.cif
#   From: 2010.05.17/outbox.cif.g08.bks.cpg/sg12_158_cif.got.tgz:314203.got - 2010.06.03 13:09:07.
