data_PCOD9171716
_publ_section_title
;
Structure prediction by ZEFSAII (Michael W. Deem and Ramdas Pophale) SiO2 
 PCOD9171716
Probable space group: C 2/M
;
_chemical_formula_sum "Si O2"
_cell_formula_units_Z 56
_cell_length_a 15.178309
_cell_length_b 18.127594
_cell_length_c 17.760618
_cell_angle_alpha 90.000000
_cell_angle_beta 37.484775
_cell_angle_gamma 90.000000
_cell_volume 2973.844932
_symmetry_space_group_name_H-M "C 2/M"
_symmetry_group_IT_number 12
_symmetry_cell_setting 'monoclinic'
loop_
_space_group_symop_operation_xyz
x,y,z
-x,y,-z
-x,-y,-z
x,-y,z
1/2+x,1/2+y,z
1/2-x,1/2+y,-z
1/2-x,1/2-y,-z
1/2+x,1/2-y,z
loop_
_atom_site_type_symbol
_atom_site_label
_atom_site_fract_x
_atom_site_fract_y
_atom_site_fract_z
Si Si1 0.639063 0.912464 0.961755
Si Si2 0.333818 0.915493 0.406996
Si Si3 0.809392 0.778981 0.266453
Si Si4 0.818836 0.223216 0.795022
Si Si5 0.159578 0.415458 0.417002
Si Si6 0.358882 0.710802 0.486099
Si Si7 0.438565 0.818775 0.838728
O O1 0.607806 0.874009 0.063501
O O2 0.670742 0.000000 0.946586
O O3 0.500000 0.905277 0.000000
O O4 0.766261 0.860288 0.843788
O O5 0.338602 0.912538 0.494025
O O6 0.187193 0.874526 0.482123
O O7 0.463994 0.868271 0.283612
O O8 0.341595 0.000000 0.377169
O O9 0.784437 0.758701 0.197395
O O10 0.785057 0.864848 0.298379
O O11 0.683262 0.742972 0.404349
O O12 0.956362 0.743316 0.196815
O O13 0.822956 0.273761 0.867167
O O14 0.980464 0.223307 0.651461
O O15 0.175234 0.500000 0.381852
O O16 0.000000 0.389888 0.500000
O O17 0.250000 0.750000 0.500000
#
# Coordination Sequence:
#
# PCOD9171716 Si02
#       7
#     8   8   8   8   8   8   8
#     4  11  25  45  64  89 120 158 211 264 310 356
#     4  10  19  32  54  83 119 158 192 242 302 355
#     4  11  20  35  59  87 122 160 198 249 300 365
#     4  12  22  38  66  89 118 164 204 246 311 367
#     4  10  18  28  46  80 121 155 189 232 292 362
#     4  11  19  35  55  89 125 156 196 247 297 368
#     4  11  21  40  62  87 116 156 208 254 302 360
#
# _framework density 18.830840999999999
#
# number of rings (size 3 to 8) (size 9 to 14) (size 15 to 20)
#    0.000    1.143    5.714    3.000    0.000    0.571 
#    0.000    1.429    0.000    2.571    0.000    2.000 
#    0.000    0.000    0.000    0.000    0.000    0.000 
#
# Total GULP energy -156322.730418 kJ/mol
# GULP energy per Si atom -5582.954658 kJ/mol
# Density = 1.878798 g / cm^3
# Si number density = 18.830841 Si / 1000 Ang^3
#
#
#
# Elastic Constant Matrix: (Units=GPa)
#
#
# Indices 1 2 3 4 5 6 
#
# 1 89.6203 52.6156 15.6541 0.0001 18.6306 0.0000
# 2 52.6156 128.2560 13.4198 0.0001 6.9079 0.0000
# 3 15.6541 13.4198 37.4621 0.0008 13.9174 -0.0003
# 4 0.0001 0.0001 0.0008 31.5494 -0.0002 0.4211
# 5 18.6306 6.9079 13.9174 -0.0002 17.8185 0.0000
# 6 0.0000 0.0000 -0.0003 0.4211 0.0000 27.9525
#
#
#
# Elastic Compliance Matrix: (Units=1/GPa)
#
#
# Indices 1 2 3 4 5 6 
#
# 1 0.018654 -0.006825 0.001286 0.000000 -0.017863 0.000000
# 2 -0.006825 0.010617 -0.002921 0.000000 0.005301 0.000000
# 3 0.001286 -0.002921 0.038434 -0.000001 -0.030232 0.000000
# 4 0.000000 0.000000 -0.000001 0.031703 0.000001 -0.000478
# 5 -0.017863 0.005301 -0.030232 0.000001 0.096356 0.000000
# 6 0.000000 0.000000 0.000000 -0.000478 0.000000 0.035782
#
#
# Mechanical properties :
#
#
# Convention : Reuss Voigt Hill
#
# Bulk Modulus (GPa) = 19.69080 46.52416 33.10748
# Shear Modulus (GPa) = 18.84001 27.04067 22.94034
#
# Velocity S-wave (km/s) = 3.16648 3.79354 3.49411
# Velocity P-wave (km/s) = 4.88346 6.62932 5.82220
#
# Compressibility (1/GPa) = 0.05078513
#
# Stress axis : x y z
#
# Youngs Moduli (GPa) = 53.60837 94.18979 26.01881
#
# Poissons Ratio (x) = 0.64285 -0.03346
# Poissons Ratio (y) = 0.36588 0.07599
# Poissons Ratio (z) = -0.06895 0.27511
#
# Static dielectric constant tensor:
#      x y z
#    x 1.668420 0.000000 0.014740 
#    y 0.000000 1.677920 0.000000 
#    z 0.014740 0.000000 1.665730 
# 
# From -- ./inp_files/271390.got.cif
#   From: 2010.05.17/outbox.cif.g08.bks.cpg/sg12_136_cif.got.tgz:271390.got - 2010.06.03 13:09:07.
