data_PCOD9171197
_publ_section_title
;
Structure prediction by ZEFSAII (Michael W. Deem and Ramdas Pophale) SiO2 
 PCOD9171197
Probable space group: C 2/M
;
_chemical_formula_sum "Si O2"
_cell_formula_units_Z 48
_cell_length_a 27.505086
_cell_length_b 8.808155
_cell_length_c 11.822738
_cell_angle_alpha 90.000000
_cell_angle_beta 90.378498
_cell_angle_gamma 90.000000
_cell_volume 2864.221133
_symmetry_space_group_name_H-M "C 2/M"
_symmetry_group_IT_number 12
_symmetry_cell_setting 'monoclinic'
loop_
_space_group_symop_operation_xyz
x,y,z
-x,y,-z
-x,-y,-z
x,-y,z
1/2+x,1/2+y,z
1/2-x,1/2+y,-z
1/2-x,1/2-y,-z
1/2+x,1/2-y,z
loop_
_atom_site_type_symbol
_atom_site_label
_atom_site_fract_x
_atom_site_fract_y
_atom_site_fract_z
Si Si1 0.203179 0.183229 0.643018
Si Si2 0.192365 0.819214 0.378422
Si Si3 0.372379 0.328410 0.173074
Si Si4 0.298782 0.328165 0.963359
Si Si5 0.127832 0.678859 0.199072
Si Si6 0.056087 0.316869 0.000619
O O1 0.192051 0.218956 0.511848
O O2 0.256660 0.251287 0.668561
O O3 0.158702 0.236332 0.722196
O O4 0.206421 0.000000 0.656457
O O5 0.144120 0.758191 0.315315
O O6 0.194260 0.000000 0.367213
O O7 0.388605 0.500000 0.202548
O O8 0.332526 0.338886 0.073540
O O9 0.415904 0.240755 0.110998
O O10 0.292426 0.500000 0.918102
O O11 0.325907 0.218721 0.877530
O O12 0.250000 0.250000 0.000000
O O13 0.122242 0.500000 0.217439
O O14 0.083549 0.733502 0.117253
O O15 0.058451 0.500000 0.000277
O O16 0.000000 0.269146 0.000000
#
# Coordination Sequence:
#
# PCOD9171197 Si02
#       6
#     8   8   8   8   8   8
#     4   9  18  32  48  69 100 133 162 193 229 271
#     4  10  19  30  47  71  99 131 165 196 226 270
#     4   9  18  31  47  68  93 121 153 190 233 281
#     4  10  18  27  42  66  95 123 152 187 229 280
#     4  10  19  31  47  66  92 124 156 193 237 283
#     4   9  19  35  53  72  92 116 151 198 248 291
#
# _framework density 16.758482999999998
#
# number of rings (size 3 to 8) (size 9 to 14) (size 15 to 20)
#    0.000    2.500    0.000    2.500    0.000    4.333 
#    0.000    0.000    0.000    1.000    0.000    7.000 
#    0.000    0.000    0.000    0.000    0.000    0.000 
#
# Total GULP energy -133621.696899 kJ/mol
# GULP energy per Si atom -5567.570704 kJ/mol
# Density = 1.672034 g / cm^3
# Si number density = 16.758483 Si / 1000 Ang^3
#
#
#
# Elastic Constant Matrix: (Units=GPa)
#
#
# Indices 1 2 3 4 5 6 
#
# 1 115.2284 29.8708 50.6194 0.0000 -0.9257 0.0000
# 2 29.8708 19.4907 16.7925 0.0000 1.2504 0.0000
# 3 50.6194 16.7925 87.6150 0.0000 2.2082 0.0000
# 4 0.0000 0.0000 0.0000 23.1519 0.0000 0.5731
# 5 -0.9257 1.2504 2.2082 0.0000 25.0005 0.0000
# 6 0.0000 0.0000 0.0000 0.5731 0.0000 19.2644
#
#
#
# Elastic Compliance Matrix: (Units=1/GPa)
#
#
# Indices 1 2 3 4 5 6 
#
# 1 0.016511 -0.020573 -0.005650 0.000000 0.002139 0.000000
# 2 -0.020573 0.087194 -0.004707 0.000000 -0.004707 0.000000
# 3 -0.005650 -0.004707 0.015614 0.000000 -0.001353 0.000000
# 4 0.000000 0.000000 0.000000 0.043225 0.000000 -0.001286
# 5 0.002139 -0.004707 -0.001353 0.000000 0.040433 0.000000
# 6 0.000000 0.000000 0.000000 -0.001286 0.000000 0.051947
#
#
# Mechanical properties :
#
#
# Convention : Reuss Voigt Hill
#
# Bulk Modulus (GPa) = 17.40393 46.32216 31.86304
# Shear Modulus (GPa) = 14.88372 21.82013 18.35192
#
# Velocity S-wave (km/s) = 2.98339 3.61229 3.31279
# Velocity P-wave (km/s) = 4.71965 6.71559 5.80406
#
# Compressibility (1/GPa) = 0.05745830
#
# Stress axis : x y z
#
# Youngs Moduli (GPa) = 60.56616 11.46870 64.04506
#
# Poissons Ratio (x) = 0.23595 0.36185
# Poissons Ratio (y) = 1.24606 0.30145
# Poissons Ratio (z) = 0.34219 0.05398
#
# Static dielectric constant tensor:
#      x y z
#    x 1.531650 0.000000 0.025500 
#    y 0.000000 1.592060 0.000000 
#    z 0.025500 0.000000 1.603250 
# 
# From -- ./inp_files/172428.got.cif
#   From: 2010.05.17/outbox.cif.g08.bks.cpg/sg12_87_cif.got.tgz:172428.got - 2010.06.03 13:09:07.
