data_PCOD9171117
_publ_section_title
;
Structure prediction by ZEFSAII (Michael W. Deem and Ramdas Pophale) SiO2 
 PCOD9171117
Probable space group: C 2/M
;
_chemical_formula_sum "Si O2"
_cell_formula_units_Z 64
_cell_length_a 18.766823
_cell_length_b 11.858675
_cell_length_c 14.817370
_cell_angle_alpha 90.000000
_cell_angle_beta 42.805265
_cell_angle_gamma 90.000000
_cell_volume 2240.748364
_symmetry_space_group_name_H-M "C 2/M"
_symmetry_group_IT_number 12
_symmetry_cell_setting 'monoclinic'
loop_
_space_group_symop_operation_xyz
x,y,z
-x,y,-z
-x,-y,-z
x,-y,z
1/2+x,1/2+y,z
1/2-x,1/2+y,-z
1/2-x,1/2-y,-z
1/2+x,1/2-y,z
loop_
_atom_site_type_symbol
_atom_site_label
_atom_site_fract_x
_atom_site_fract_y
_atom_site_fract_z
Si Si1 0.572330 0.880232 0.789550
Si Si2 0.199323 0.119297 0.831067
Si Si3 0.881261 0.626989 0.804418
Si Si4 0.367439 0.626456 0.306277
Si Si5 0.894286 0.876653 0.480136
Si Si6 0.645184 0.150944 0.923477
Si Si7 0.134298 0.876289 0.185401
Si Si8 0.918809 0.373144 0.493735
O O1 0.586851 0.753293 0.740097
O O2 0.629114 0.881965 0.834760
O O3 0.605384 0.000000 0.715241
O O4 0.448958 0.889414 0.927263
O O5 0.310545 0.129842 0.778001
O O6 0.200491 0.127344 0.721929
O O7 0.128842 0.215655 0.935399
O O8 0.153045 0.000000 0.897663
O O9 0.856021 0.500000 0.862451
O O10 0.859107 0.751626 0.866921
O O11 0.003320 0.628561 0.665395
O O12 0.420646 0.500000 0.250700
O O13 0.330273 0.623721 0.444843
O O14 0.020333 0.874880 0.340477
O O15 0.872674 0.754859 0.542885
O O16 0.875162 0.000000 0.542243
O O17 0.761608 0.123945 0.849119
O O18 0.137059 0.000000 0.135781
O O19 0.870492 0.500000 0.536008
O O20 0.000000 0.377612 0.500000
#
# Coordination Sequence:
#
# PCOD9171117 Si02
#       8
#     8   8   8   8   8   8   8   8
#     4  10  18  27  41  61  83 108 139 175 215 253
#     4   8  14  25  43  63  82 108 141 175 208 241
#     4   8  14  25  41  63  86 105 131 166 202 241
#     4   9  18  31  43  58  82 112 144 173 203 241
#     4   9  18  31  46  63  84 111 141 169 198 240
#     4   9  16  26  41  61  84 107 136 178 220 251
#     4   9  15  25  42  60  79 106 137 170 208 243
#     4   9  17  29  47  70  91 108 128 161 205 247
#
# _framework density 28.561886000000001
#
# number of rings (size 3 to 8) (size 9 to 14) (size 15 to 20)
#    0.000    3.125    0.000    1.500    0.000    1.250 
#    0.000    3.125    0.000    0.750    0.000    0.000 
#    0.000    0.000    0.000    0.000    0.000    0.000 
#
# Total GULP energy -178417.258468 kJ/mol
# GULP energy per Si atom -5575.539327 kJ/mol
# Density = 2.849688 g / cm^3
# Si number density = 28.561886 Si / 1000 Ang^3
#
#
#
# Elastic Constant Matrix: (Units=GPa)
#
#
# Indices 1 2 3 4 5 6 
#
# 1 146.8097 55.0256 23.7526 0.0000 20.6836 0.0000
# 2 55.0256 430.2197 60.8414 0.0000 8.5408 0.0000
# 3 23.7526 60.8414 43.4515 0.0000 -12.5264 0.0000
# 4 0.0000 0.0000 0.0000 -37.6889 0.0000 -18.8930
# 5 20.6836 8.5408 -12.5264 0.0000 35.0641 0.0000
# 6 0.0000 0.0000 0.0000 -18.8930 0.0000 33.4582
#
#
#
# Elastic Compliance Matrix: (Units=1/GPa)
#
#
# Indices 1 2 3 4 5 6 
#
# 1 0.009114 0.000030 -0.007331 0.000000 -0.008002 0.000000
# 2 0.000030 0.003092 -0.005093 0.000000 -0.002590 0.000000
# 3 -0.007331 -0.005093 0.039862 0.000000 0.019805 0.000000
# 4 0.000000 0.000000 0.000000 -0.020679 0.000000 -0.011677
# 5 -0.008002 -0.002590 0.019805 0.000000 0.040946 0.000000
# 6 0.000000 0.000000 0.000000 -0.011677 0.000000 0.023294
#
#
# Mechanical properties :
#
#
# Convention : Reuss Voigt Hill
#
# Bulk Modulus (GPa) = 36.65603 99.96891 68.31247
# Shear Modulus (GPa) = 38.60711 38.22409 38.41560
#
# Velocity S-wave (km/s) = 3.68054 3.66223 3.67140
# Velocity P-wave (km/s) = 5.56090 7.27732 6.47622
#
# Compressibility (1/GPa) = 0.02728064
#
# Stress axis : x y z
#
# Youngs Moduli (GPa) = 109.72365 323.39297 25.08648
#
# Poissons Ratio (x) = -0.00967 0.18390
# Poissons Ratio (y) = -0.00328 0.12776
# Poissons Ratio (z) = 0.80437 1.64699
#
# Static dielectric constant tensor:
#      x y z
#    x 2.255800 0.000000 -0.005220 
#    y 0.000000 2.161050 0.000000 
#    z -0.005220 0.000000 2.228500 
# 
# From -- ./inp_files/282866.got.cif
#   From: 2010.05.17/outbox.cif.g08.bks.cpg/sg12_142_cif.got.tgz:282866.got - 2010.06.03 13:09:07.
