data_PCOD9171578
_publ_section_title
;
Structure prediction by ZEFSAII (Michael W. Deem and Ramdas Pophale) SiO2 
 PCOD9171578
Probable space group: C 2/M
;
_chemical_formula_sum "Si O2"
_cell_formula_units_Z 26
_cell_length_a 21.833240
_cell_length_b 7.444141
_cell_length_c 13.653564
_cell_angle_alpha 90.000000
_cell_angle_beta 29.281368
_cell_angle_gamma 90.000000
_cell_volume 1085.364070
_symmetry_space_group_name_H-M "C 2/M"
_symmetry_group_IT_number 12
_symmetry_cell_setting 'monoclinic'
loop_
_space_group_symop_operation_xyz
x,y,z
-x,y,-z
-x,-y,-z
x,-y,z
1/2+x,1/2+y,z
1/2-x,1/2+y,-z
1/2-x,1/2-y,-z
1/2+x,1/2-y,z
loop_
_atom_site_type_symbol
_atom_site_label
_atom_site_fract_x
_atom_site_fract_y
_atom_site_fract_z
Si Si1 0.482149 0.000000 0.864285
Si Si2 0.500000 0.500000 0.500000
Si Si3 0.173894 0.203557 0.008563
Si Si4 0.290198 0.000000 0.318670
Si Si5 0.129927 0.713691 0.445106
O O1 0.441584 0.169483 0.856035
O O2 0.389097 0.000000 0.088974
O O3 0.622026 0.000000 0.709080
O O4 0.520420 0.340594 0.555673
O O5 0.272654 0.227731 0.782624
O O6 0.134782 0.000000 0.062835
O O7 0.250000 0.250000 0.000000
O O8 0.203847 0.176358 0.426213
O O9 0.108319 0.500000 0.488482
#
# Coordination Sequence:
#
# PCOD9171578 Si02
#       5
#     4   2   8   4   8
#     4   9  16  28  42  66  96 128 154 178 228 276
#     4  10  18  30  48  68  96 122 154 194 234 272
#     4  10  18  28  45  68 100 126 147 185 229 281
#     4   8  16  28  44  64  96 126 152 186 223 280
#     4   9  18  30  46  70  94 121 155 192 231 273
#
# _framework density 23.955095
#
# number of rings (size 3 to 8) (size 9 to 14) (size 15 to 20)
#    0.000    2.769    1.538    1.385    0.000    1.231 
#    0.000    6.154    0.000    0.000    0.000    8.615 
#    0.000    0.000    0.000    0.000    0.000    0.000 
#
# Total GULP energy -72462.063529 kJ/mol
# GULP energy per Si atom -5574.004887 kJ/mol
# Density = 2.390057 g / cm^3
# Si number density = 23.955095 Si / 1000 Ang^3
#
#
#
# Elastic Constant Matrix: (Units=GPa)
#
#
# Indices 1 2 3 4 5 6 
#
# 1 162.8600 97.5099 35.3411 0.0001 -53.6957 0.0000
# 2 97.5099 213.4688 33.5263 0.0007 -46.6307 0.0001
# 3 35.3411 33.5263 74.4185 0.0005 -17.8095 0.0001
# 4 0.0001 0.0007 0.0005 33.6063 0.0000 -1.5040
# 5 -53.6957 -46.6307 -17.8095 0.0000 52.1667 0.0000
# 6 0.0000 0.0001 0.0001 -1.5040 0.0000 34.8739
#
#
#
# Elastic Compliance Matrix: (Units=1/GPa)
#
#
# Indices 1 2 3 4 5 6 
#
# 1 0.010967 -0.002959 -0.001967 0.000000 0.007972 0.000000
# 2 -0.002959 0.006778 -0.001010 0.000000 0.002668 0.000000
# 3 -0.001967 -0.001010 0.015383 0.000000 0.002324 0.000000
# 4 0.000000 0.000000 0.000000 0.029814 0.000000 0.001286
# 5 0.007972 0.002668 0.002324 0.000000 0.030553 0.000000
# 6 0.000000 0.000000 0.000000 0.001286 0.000000 0.028730
#
#
# Mechanical properties :
#
#
# Convention : Reuss Voigt Hill
#
# Bulk Modulus (GPa) = 47.04734 87.05577 67.05156
# Shear Modulus (GPa) = 35.41517 43.08739 39.25128
#
# Velocity S-wave (km/s) = 3.84917 4.24568 4.05227
# Velocity P-wave (km/s) = 6.27991 7.77525 7.06724
#
# Compressibility (1/GPa) = 0.02125518
#
# Stress axis : x y z
#
# Youngs Moduli (GPa) = 91.17913 147.54462 65.00743
#
# Poissons Ratio (x) = 0.43664 0.12789
# Poissons Ratio (y) = 0.26984 0.06563
# Poissons Ratio (z) = 0.17938 0.14896
#
# Static dielectric constant tensor:
#      x y z
#    x 2.065800 0.000000 0.108480 
#    y 0.000000 1.812380 0.000000 
#    z 0.108480 0.000000 2.147170 
# 
# From -- ./inp_files/171097.got.cif
#   From: 2010.05.17/outbox.cif.g08.bks.cpg/sg12_86_cif.got.tgz:171097.got - 2010.06.03 13:09:07.
