data_PCOD9171107
_publ_section_title
;
Structure prediction by ZEFSAII (Michael W. Deem and Ramdas Pophale) SiO2 
 PCOD9171107
Probable space group: C 2/M
;
_chemical_formula_sum "Si O2"
_cell_formula_units_Z 56
_cell_length_a 23.368022
_cell_length_b 9.113326
_cell_length_c 26.469625
_cell_angle_alpha 90.000000
_cell_angle_beta 141.116826
_cell_angle_gamma 90.000000
_cell_volume 3538.527986
_symmetry_space_group_name_H-M "C 2/M"
_symmetry_group_IT_number 12
_symmetry_cell_setting 'monoclinic'
loop_
_space_group_symop_operation_xyz
x,y,z
-x,y,-z
-x,-y,-z
x,-y,z
1/2+x,1/2+y,z
1/2-x,1/2+y,-z
1/2-x,1/2-y,-z
1/2+x,1/2-y,z
loop_
_atom_site_type_symbol
_atom_site_label
_atom_site_fract_x
_atom_site_fract_y
_atom_site_fract_z
Si Si1 0.393571 0.331178 0.594952
Si Si2 0.856503 0.324792 0.729197
Si Si3 0.279379 0.177681 0.072582
Si Si4 0.229627 0.330877 0.565171
Si Si5 0.485217 0.175425 0.242948
Si Si6 0.876820 0.822347 0.957842
Si Si7 0.581190 0.322396 0.126208
O O1 0.412940 0.500000 0.596183
O O2 0.310420 0.329047 0.578547
O O3 0.356183 0.244807 0.520771
O O4 0.476514 0.254839 0.681110
O O5 0.848212 0.500000 0.726948
O O6 0.770617 0.257111 0.640488
O O7 0.872158 0.252765 0.794200
O O8 0.945310 0.291334 0.755294
O O9 0.382698 0.217460 0.158125
O O10 0.208113 0.225078 0.066900
O O11 0.275349 0.000000 0.065343
O O12 0.250000 0.250000 0.000000
O O13 0.211515 0.500000 0.565426
O O14 0.488567 0.000000 0.253340
O O15 0.876403 0.778350 0.898813
O O16 0.876859 0.000000 0.957364
O O17 0.974090 0.780030 0.048903
O O18 0.586084 0.500000 0.134186
#
# Coordination Sequence:
#
# PCOD9171107 Si02
#       7
#     8   8   8   8   8   8   8
#     4   9  16  26  41  61  86 115 146 179 214 254
#     4  10  18  27  40  63  92 117 143 178 218 258
#     4  10  19  31  46  65  89 117 148 182 218 256
#     4   9  16  26  41  61  86 116 146 176 213 258
#     4   9  18  29  41  60  89 121 148 175 213 262
#     4   8  16  30  47  64  84 113 149 185 219 257
#     4   9  16  29  47  64  83 112 149 185 220 258
#
# _framework density 15.82579
#
# number of rings (size 3 to 8) (size 9 to 14) (size 15 to 20)
#    0.000    2.857    0.000    3.000    0.000    4.571 
#    0.000    2.143    0.000    0.000    0.000    1.000 
#    0.000    8.000    0.000    0.000    0.000    0.000 
#
# Total GULP energy -156012.744541 kJ/mol
# GULP energy per Si atom -5571.883734 kJ/mol
# Density = 1.578977 g / cm^3
# Si number density = 15.825790 Si / 1000 Ang^3
#
#
#
# Elastic Constant Matrix: (Units=GPa)
#
#
# Indices 1 2 3 4 5 6 
#
# 1 60.5272 29.4557 61.6301 0.0000 -4.3577 0.0000
# 2 29.4557 54.1444 66.8151 0.0000 -7.7177 0.0000
# 3 61.6301 66.8151 177.7175 0.0000 -14.1409 0.0000
# 4 0.0000 0.0000 0.0000 31.6459 0.0000 -6.1501
# 5 -4.3577 -7.7177 -14.1409 0.0000 21.7137 0.0000
# 6 0.0000 0.0000 0.0000 -6.1501 0.0000 12.6976
#
#
#
# Elastic Compliance Matrix: (Units=1/GPa)
#
#
# Indices 1 2 3 4 5 6 
#
# 1 0.026499 -0.005853 -0.007099 0.000000 -0.001386 0.000000
# 2 -0.005853 0.036082 -0.011189 0.000000 0.004364 0.000000
# 3 -0.007099 -0.011189 0.012514 0.000000 0.002748 0.000000
# 4 0.000000 0.000000 0.000000 0.034883 0.000000 0.016896
# 5 -0.001386 0.004364 0.002748 0.000000 0.049117 0.000000
# 6 0.000000 0.000000 0.000000 0.016896 0.000000 0.086938
#
#
# Mechanical properties :
#
#
# Convention : Reuss Voigt Hill
#
# Bulk Modulus (GPa) = 37.29469 67.57677 52.43573
# Shear Modulus (GPa) = 16.48795 22.17731 19.33263
#
# Velocity S-wave (km/s) = 3.23126 3.74751 3.49892
# Velocity P-wave (km/s) = 6.12685 7.84335 7.03763
#
# Compressibility (1/GPa) = 0.02681347
#
# Stress axis : x y z
#
# Youngs Moduli (GPa) = 37.73792 27.71452 79.91055
#
# Poissons Ratio (x) = 0.16221 0.56730
# Poissons Ratio (y) = 0.22087 0.89409
# Poissons Ratio (z) = 0.26791 0.31009
#
# Static dielectric constant tensor:
#      x y z
#    x 1.518060 0.000000 0.004150 
#    y 0.000000 1.528240 0.000000 
#    z 0.004150 0.000000 1.512120 
# 
# From -- ./inp_files/348630.got.cif
#   From: 2010.05.17/outbox.cif.g08.bks.cpg/sg12_175_cif.got.tgz:348630.got - 2010.06.03 13:09:07.
