data_PCOD9171658
_publ_section_title
;
Structure prediction by ZEFSAII (Michael W. Deem and Ramdas Pophale) SiO2 
 PCOD9171658
Probable space group: C 2/M
;
_chemical_formula_sum "Si O2"
_cell_formula_units_Z 64
_cell_length_a 28.037778
_cell_length_b 8.713362
_cell_length_c 17.454491
_cell_angle_alpha 90.000000
_cell_angle_beta 101.870571
_cell_angle_gamma 90.000000
_cell_volume 4172.999230
_symmetry_space_group_name_H-M "C 2/M"
_symmetry_group_IT_number 12
_symmetry_cell_setting 'monoclinic'
loop_
_space_group_symop_operation_xyz
x,y,z
-x,y,-z
-x,-y,-z
x,-y,z
1/2+x,1/2+y,z
1/2-x,1/2+y,-z
1/2-x,1/2-y,-z
1/2+x,1/2-y,z
loop_
_atom_site_type_symbol
_atom_site_label
_atom_site_fract_x
_atom_site_fract_y
_atom_site_fract_z
Si Si1 0.056322 0.314640 0.522821
Si Si2 0.303786 0.816407 0.999456
Si Si3 0.675743 0.682310 0.838401
Si Si4 0.634535 0.318400 0.433119
Si Si5 0.188205 0.318774 0.314084
Si Si6 0.126220 0.680842 0.681587
Si Si7 0.283055 0.682860 0.837098
Si Si8 0.296555 0.680365 0.403810
O O1 0.059407 0.500000 0.518950
O O2 0.088487 0.245473 0.464890
O O3 0.081581 0.270361 0.611966
O O4 0.000000 0.269125 0.500000
O O5 0.197247 0.500000 0.002235
O O6 0.313814 0.749877 0.918693
O O7 0.250000 0.750000 0.000000
O O8 0.334316 0.755900 0.081755
O O9 0.680061 0.500000 0.846564
O O10 0.635529 0.729256 0.762882
O O11 0.728301 0.746761 0.826373
O O12 0.629628 0.500000 0.420787
O O13 0.646111 0.238946 0.356581
O O14 0.680511 0.291423 0.505476
O O15 0.183647 0.500000 0.298197
O O16 0.193604 0.232003 0.235490
O O17 0.239601 0.292740 0.374948
O O18 0.122544 0.500000 0.696134
O O19 0.173544 0.715235 0.645006
O O20 0.279061 0.500000 0.842234
O O21 0.305937 0.500000 0.387998
#
# Coordination Sequence:
#
# PCOD9171658 Si02
#       8
#     8   8   8   8   8   8   8   8
#     4   9  19  36  54  70  91 119 151 190 237 285
#     4  10  18  29  43  60  84 118 157 193 228 267
#     4  11  19  29  43  62  90 121 155 193 229 269
#     4  10  20  32  46  67  90 117 153 192 231 273
#     4  11  20  30  44  63  90 125 158 190 225 268
#     4  10  18  28  46  69  90 118 155 192 231 274
#     4  11  20  30  43  62  88 122 159 193 229 267
#     4   9  18  30  43  60  88 121 153 188 226 267
#
# _framework density 15.336691999999999
#
# number of rings (size 3 to 8) (size 9 to 14) (size 15 to 20)
#    0.000    1.875    1.250    6.375    0.000    1.750 
#    0.000    0.000    0.000    0.000    0.000    0.000 
#    0.000    1.000    0.000   10.750    0.000    4.750 
#
# Total GULP energy -178486.120598 kJ/mol
# GULP energy per Si atom -5577.691269 kJ/mol
# Density = 1.530178 g / cm^3
# Si number density = 15.336692 Si / 1000 Ang^3
#
#
#
# Elastic Constant Matrix: (Units=GPa)
#
#
# Indices 1 2 3 4 5 6 
#
# 1 53.6410 30.6293 45.7466 0.0000 3.6424 0.0000
# 2 30.6293 96.0155 59.6363 0.0000 -1.9391 0.0000
# 3 45.7466 59.6363 111.7807 0.0000 -3.5958 0.0000
# 4 0.0000 0.0000 0.0000 28.9608 0.0000 -2.0783
# 5 3.6424 -1.9391 -3.5958 0.0000 12.3748 0.0000
# 6 0.0000 0.0000 0.0000 -2.0783 0.0000 14.4285
#
#
#
# Elastic Compliance Matrix: (Units=1/GPa)
#
#
# Indices 1 2 3 4 5 6 
#
# 1 0.031074 -0.003016 -0.011525 0.000000 -0.012968 0.000000
# 2 -0.003016 0.015869 -0.007191 0.000000 0.001285 0.000000
# 3 -0.011525 -0.007191 0.017738 0.000000 0.007420 0.000000
# 4 0.000000 0.000000 0.000000 0.034890 0.000000 0.005026
# 5 -0.012968 0.001285 0.007420 0.000000 0.086984 0.000000
# 6 0.000000 0.000000 0.000000 0.005026 0.000000 0.070031
#
#
# Mechanical properties :
#
#
# Convention : Reuss Voigt Hill
#
# Bulk Modulus (GPa) = 47.13178 59.27350 53.20264
# Shear Modulus (GPa) = 16.28011 19.51450 17.89731
#
# Velocity S-wave (km/s) = 3.26162 3.57095 3.41979
# Velocity P-wave (km/s) = 6.70689 7.46554 7.09636
#
# Compressibility (1/GPa) = 0.02121711
#
# Stress axis : x y z
#
# Youngs Moduli (GPa) = 32.18087 63.01443 56.37668
#
# Poissons Ratio (x) = 0.19007 0.64975
# Poissons Ratio (y) = 0.09707 0.40539
# Poissons Ratio (z) = 0.37089 0.45312
#
# Static dielectric constant tensor:
#      x y z
#    x 1.480000 0.000000 0.015590 
#    y 0.000000 1.522930 0.000000 
#    z 0.015590 0.000000 1.551690 
# 
# From -- ./inp_files/287581.got.cif
#   From: 2010.05.17/outbox.cif.g08.bks.cpg/sg12_144_cif.got.tgz:287581.got - 2010.06.03 13:09:07.
