data_PCOD9171661
_publ_section_title
;
Structure prediction by ZEFSAII (Michael W. Deem and Ramdas Pophale) SiO2 
 PCOD9171661
Probable space group: C 2/M
;
_chemical_formula_sum "Si O2"
_cell_formula_units_Z 56
_cell_length_a 28.370501
_cell_length_b 9.121551
_cell_length_c 14.135867
_cell_angle_alpha 90.000000
_cell_angle_beta 82.384038
_cell_angle_gamma 90.000000
_cell_volume 3625.852123
_symmetry_space_group_name_H-M "C 2/M"
_symmetry_group_IT_number 12
_symmetry_cell_setting 'monoclinic'
loop_
_space_group_symop_operation_xyz
x,y,z
-x,y,-z
-x,-y,-z
x,-y,z
1/2+x,1/2+y,z
1/2-x,1/2+y,-z
1/2-x,1/2-y,-z
1/2+x,1/2-y,z
loop_
_atom_site_type_symbol
_atom_site_label
_atom_site_fract_x
_atom_site_fract_y
_atom_site_fract_z
Si Si1 0.945625 0.668618 0.975625
Si Si2 0.587045 0.325041 0.833019
Si Si3 0.518272 0.324831 0.212878
Si Si4 0.264830 0.675608 0.594993
Si Si5 0.358954 0.824885 0.536006
Si Si6 0.662544 0.174026 0.679586
Si Si7 0.044891 0.824378 0.421290
O O1 0.930625 0.500000 0.972880
O O2 0.915654 0.754760 0.062118
O O3 0.949087 0.744495 0.872828
O O4 0.000000 0.671797 0.000000
O O5 0.589660 0.500000 0.839204
O O6 0.536869 0.287346 0.794576
O O7 0.629956 0.262421 0.759937
O O8 0.522766 0.500000 0.198660
O O9 0.531778 0.288918 0.316520
O O10 0.269008 0.500000 0.582836
O O11 0.250000 0.750000 0.500000
O O12 0.315628 0.746763 0.603099
O O13 0.219085 0.704108 0.673170
O O14 0.352220 0.792687 0.425424
O O15 0.408877 0.761880 0.557116
O O16 0.355931 0.000000 0.547920
O O17 0.655254 0.000000 0.695352
O O18 0.000000 0.790727 0.500000
O O19 0.053583 0.000000 0.425476
#
# Coordination Sequence:
#
# PCOD9171661 Si02
#       7
#     8   8   8   8   8   8   8
#     4   9  17  29  45  64  88 118 150 186 229 273
#     4  10  18  28  46  69  92 119 150 187 229 272
#     4   9  18  31  45  64  91 122 157 191 222 264
#     4   9  17  30  47  66  90 120 153 190 231 274
#     4  10  20  32  46  66  93 125 159 193 228 270
#     4   9  18  30  44  66  94 120 148 186 230 272
#     4  10  20  33  48  67  93 126 161 193 226 266
#
# _framework density 15.444646000000001
#
# number of rings (size 3 to 8) (size 9 to 14) (size 15 to 20)
#    0.000    2.571    0.000    3.429    0.000    7.714 
#    0.000    0.000    0.000    0.000    0.000    1.000 
#    0.000    0.000    0.000    0.000    0.000    0.000 
#
# Total GULP energy -156047.823278 kJ/mol
# GULP energy per Si atom -5573.136546 kJ/mol
# Density = 1.540949 g / cm^3
# Si number density = 15.444646 Si / 1000 Ang^3
#
#
#
# Elastic Constant Matrix: (Units=GPa)
#
#
# Indices 1 2 3 4 5 6 
#
# 1 96.7116 55.7902 61.8224 0.0000 -20.1427 0.0000
# 2 55.7902 67.8426 69.1706 0.0000 -18.3289 0.0000
# 3 61.8224 69.1706 124.3395 0.0000 -19.2532 0.0000
# 4 0.0000 0.0000 0.0000 28.3873 0.0000 -5.2896
# 5 -20.1427 -18.3289 -19.2532 0.0000 23.8308 0.0000
# 6 0.0000 0.0000 0.0000 -5.2896 0.0000 25.8593
#
#
#
# Elastic Compliance Matrix: (Units=1/GPa)
#
#
# Indices 1 2 3 4 5 6 
#
# 1 0.020389 -0.013452 -0.001815 0.000000 0.005421 0.000000
# 2 -0.013452 0.046499 -0.017604 0.000000 0.010171 0.000000
# 3 -0.001815 -0.017604 0.018750 0.000000 0.000074 0.000000
# 4 0.000000 0.000000 0.000000 0.036623 0.000000 0.007491
# 5 0.005421 0.010171 0.000074 0.000000 0.054427 0.000000
# 6 0.000000 0.000000 0.000000 0.007491 0.000000 0.040203
#
#
# Mechanical properties :
#
#
# Convention : Reuss Voigt Hill
#
# Bulk Modulus (GPa) = 50.26234 73.60667 61.93451
# Shear Modulus (GPa) = 17.28512 22.42285 19.85398
#
# Velocity S-wave (km/s) = 3.34902 3.81441 3.58927
# Velocity P-wave (km/s) = 6.89701 8.19521 7.57398
#
# Compressibility (1/GPa) = 0.01989561
#
# Stress axis : x y z
#
# Youngs Moduli (GPa) = 49.04487 21.50578 53.33444
#
# Poissons Ratio (x) = 0.28930 0.09679
# Poissons Ratio (y) = 0.65977 0.93891
# Poissons Ratio (z) = 0.08900 0.37859
#
# Static dielectric constant tensor:
#      x y z
#    x 1.515960 0.000000 -0.007260 
#    y 0.000000 1.514960 0.000000 
#    z -0.007260 0.000000 1.499380 
# 
# From -- ./inp_files/243053.got.cif
#   From: 2010.05.17/outbox.cif.g08.bks.cpg/sg12_122_cif.got.tgz:243053.got - 2010.06.03 13:09:07.
