data_PCOD9171215
_publ_section_title
;
Structure prediction by ZEFSAII (Michael W. Deem and Ramdas Pophale) SiO2 
 PCOD9171215
Probable space group: C 2/M
;
_chemical_formula_sum "Si O2"
_cell_formula_units_Z 48
_cell_length_a 23.018459
_cell_length_b 7.609548
_cell_length_c 24.662009
_cell_angle_alpha 90.000000
_cell_angle_beta 35.430724
_cell_angle_gamma 90.000000
_cell_volume 2504.266163
_symmetry_space_group_name_H-M "C 2/M"
_symmetry_group_IT_number 12
_symmetry_cell_setting 'monoclinic'
loop_
_space_group_symop_operation_xyz
x,y,z
-x,y,-z
-x,-y,-z
x,-y,z
1/2+x,1/2+y,z
1/2-x,1/2+y,-z
1/2-x,1/2-y,-z
1/2+x,1/2-y,z
loop_
_atom_site_type_symbol
_atom_site_label
_atom_site_fract_x
_atom_site_fract_y
_atom_site_fract_z
Si Si1 0.452240 0.215251 0.093551
Si Si2 0.447686 0.204073 0.671856
Si Si3 0.225540 0.206151 0.279803
Si Si4 0.841203 0.712283 0.858787
Si Si5 0.913493 0.287586 0.523308
Si Si6 0.882753 0.710216 0.948261
O O1 0.337706 0.273930 0.186535
O O2 0.524812 0.276226 0.086626
O O3 0.451104 0.000000 0.095664
O O4 0.500000 0.267286 0.000000
O O5 0.355461 0.209392 0.699150
O O6 0.407493 0.281361 0.758607
O O7 0.544698 0.277521 0.566254
O O8 0.470772 0.000000 0.665010
O O9 0.187657 0.228426 0.370530
O O10 0.224375 0.000000 0.267560
O O11 0.848048 0.500000 0.853751
O O12 0.874151 0.778044 0.893171
O O13 0.723722 0.754948 0.942017
O O14 0.911819 0.500000 0.523129
O O15 0.000000 0.232960 0.500000
O O16 0.893245 0.500000 0.936551
#
# Coordination Sequence:
#
# PCOD9171215 Si02
#       6
#     8   8   8   8   8   8
#     4   9  17  28  42  62  88 115 140 166 204 256
#     4   9  17  29  44  63  87 113 141 173 212 256
#     4  10  18  27  43  66  88 111 141 176 210 247
#     4   9  17  29  46  66  85 108 143 181 210 245
#     4   8  15  28  43  59  84 115 141 170 212 255
#     4   9  17  30  46  63  86 115 142 172 213 252
#
# _framework density 19.167290999999999
#
# number of rings (size 3 to 8) (size 9 to 14) (size 15 to 20)
#    0.000    3.000    0.000    2.500    0.000    5.000 
#    0.000    1.667    0.000    5.500    0.000    0.000 
#    0.000    0.000    0.000    0.000    0.000    1.667 
#
# Total GULP energy -133726.993659 kJ/mol
# GULP energy per Si atom -5571.958069 kJ/mol
# Density = 1.912367 g / cm^3
# Si number density = 19.167291 Si / 1000 Ang^3
#
#
#
# Elastic Constant Matrix: (Units=GPa)
#
#
# Indices 1 2 3 4 5 6 
#
# 1 46.9884 -6.2206 41.3811 0.0004 4.9635 -0.0006
# 2 -6.2206 37.1138 -4.7229 0.0015 1.5384 -0.0050
# 3 41.3811 -4.7229 163.3229 -0.0002 20.6749 -0.0010
# 4 0.0004 0.0015 -0.0002 22.2664 -0.0004 1.5765
# 5 4.9635 1.5384 20.6749 -0.0004 30.4026 0.0010
# 6 -0.0006 -0.0050 -0.0010 1.5765 0.0010 2.4998
#
#
#
# Elastic Compliance Matrix: (Units=1/GPa)
#
#
# Indices 1 2 3 4 5 6 
#
# 1 0.027917 0.003794 -0.006962 -0.000002 -0.000015 0.000012
# 2 0.003794 0.027680 0.000104 -0.000006 -0.002091 0.000062
# 3 -0.006962 0.000104 0.008476 0.000000 -0.004633 0.000004
# 4 -0.000002 -0.000006 0.000000 0.047010 0.000002 -0.029646
# 5 -0.000015 -0.002091 -0.004633 0.000002 0.036151 -0.000022
# 6 0.000012 0.000062 0.000004 -0.029646 -0.000022 0.418721
#
#
# Mechanical properties :
#
#
# Convention : Reuss Voigt Hill
#
# Bulk Modulus (GPa) = 17.25781 34.25560 25.75671
# Shear Modulus (GPa) = 8.45456 25.49962 16.97709
#
# Velocity S-wave (km/s) = 2.10250 3.65138 2.97935
# Velocity P-wave (km/s) = 3.86230 5.97390 5.03015
#
# Compressibility (1/GPa) = 0.05794477
#
# Stress axis : x y z
#
# Youngs Moduli (GPa) = 35.82105 36.12733 117.97792
#
# Poissons Ratio (x) = -0.13706 0.82131
# Poissons Ratio (y) = -0.13590 -0.01225
# Poissons Ratio (z) = 0.24937 -0.00375
#
# Static dielectric constant tensor:
#      x y z
#    x 1.655790 0.000000 0.037750 
#    y 0.000000 1.721890 0.000000 
#    z 0.037750 0.000000 1.699230 
# 
# From -- ./inp_files/172095.got.cif
#   From: 2010.05.17/outbox.cif.g08.bks.cpg/sg12_87_cif.got.tgz:172095.got - 2010.06.03 13:09:07.
