data_PCOD9171566
_publ_section_title
;
Structure prediction by ZEFSAII (Michael W. Deem and Ramdas Pophale) SiO2 
 PCOD9171566
Probable space group: C 2/M
;
_chemical_formula_sum "Si O2"
_cell_formula_units_Z 56
_cell_length_a 29.785194
_cell_length_b 8.841194
_cell_length_c 14.244821
_cell_angle_alpha 90.000000
_cell_angle_beta 75.636730
_cell_angle_gamma 90.000000
_cell_volume 3633.930795
_symmetry_space_group_name_H-M "C 2/M"
_symmetry_group_IT_number 12
_symmetry_cell_setting 'monoclinic'
loop_
_space_group_symop_operation_xyz
x,y,z
-x,y,-z
-x,-y,-z
x,-y,z
1/2+x,1/2+y,z
1/2-x,1/2+y,-z
1/2-x,1/2-y,-z
1/2+x,1/2-y,z
loop_
_atom_site_type_symbol
_atom_site_label
_atom_site_fract_x
_atom_site_fract_y
_atom_site_fract_z
Si Si1 0.201016 0.682375 0.415564
Si Si2 0.699919 0.819629 0.636223
Si Si3 0.607570 0.320378 0.740568
Si Si4 0.463114 0.821349 0.741099
Si Si5 0.106289 0.316111 0.371806
Si Si6 0.515047 0.317474 0.888938
Si Si7 0.941279 0.321669 0.410936
O O1 0.203872 0.500000 0.409912
O O2 0.250253 0.752311 0.362942
O O3 0.192109 0.722380 0.529903
O O4 0.157885 0.732613 0.373917
O O5 0.657526 0.756755 0.718961
O O6 0.701035 0.000000 0.640710
O O7 0.612874 0.500000 0.744918
O O8 0.567398 0.269612 0.833791
O O9 0.586571 0.274822 0.650475
O O10 0.417108 0.763162 0.712615
O O11 0.480637 0.740741 0.825777
O O12 0.504961 0.807381 0.643696
O O13 0.458137 0.000000 0.763901
O O14 0.106811 0.500000 0.366592
O O15 0.073323 0.277807 0.477123
O O16 0.514428 0.500000 0.887360
O O17 0.500000 0.266335 0.000000
O O18 0.928688 0.500000 0.405215
#
# Coordination Sequence:
#
# PCOD9171566 Si02
#       7
#     8   8   8   8   8   8   8
#     4   9  17  28  42  60  88 124 157 183 210 253
#     4  10  18  29  43  62  88 119 154 188 222 256
#     4  10  18  28  45  66  87 115 151 186 222 263
#     4   9  17  27  45  68  89 114 148 185 217 258
#     4   9  15  26  42  63  90 122 152 177 212 257
#     4   9  19  35  50  65  89 118 146 181 227 275
#     4   9  15  26  41  61  89 121 151 177 210 254
#
# _framework density 15.410310000000001
#
# number of rings (size 3 to 8) (size 9 to 14) (size 15 to 20)
#    0.000    2.714    1.429    1.286    0.000    3.143 
#    0.000    1.429    0.000    3.429    0.000    1.000 
#    0.000    0.000    0.000    0.000    0.000    0.000 
#
# Total GULP energy -155963.483034 kJ/mol
# GULP energy per Si atom -5570.124394 kJ/mol
# Density = 1.537524 g / cm^3
# Si number density = 15.410310 Si / 1000 Ang^3
#
#
#
# Elastic Constant Matrix: (Units=GPa)
#
#
# Indices 1 2 3 4 5 6 
#
# 1 121.8806 28.3277 64.5945 0.0000 -0.0639 0.0000
# 2 28.3277 13.1032 19.6272 0.0000 -3.0158 0.0000
# 3 64.5945 19.6272 90.7128 0.0000 -3.9375 0.0000
# 4 0.0000 0.0000 0.0000 13.2782 0.0000 -1.4000
# 5 -0.0639 -3.0158 -3.9375 0.0000 12.1213 0.0000
# 6 0.0000 0.0000 0.0000 -1.4000 0.0000 20.9541
#
#
#
# Elastic Compliance Matrix: (Units=1/GPa)
#
#
# Indices 1 2 3 4 5 6 
#
# 1 0.020320 -0.035643 -0.007240 0.000000 -0.011113 0.000000
# 2 -0.035643 0.180658 -0.011933 0.000000 0.040883 0.000000
# 3 -0.007240 -0.011933 0.018897 0.000000 0.003131 0.000000
# 4 0.000000 0.000000 0.000000 0.075846 0.000000 0.005067
# 5 -0.011113 0.040883 0.003131 0.000000 0.093630 0.000000
# 6 0.000000 0.000000 0.000000 0.005067 0.000000 0.048062
#
#
# Mechanical properties :
#
#
# Convention : Reuss Voigt Hill
#
# Bulk Modulus (GPa) = 9.07088 50.08839 29.57964
# Shear Modulus (GPa) = 8.56470 16.81387 12.68928
#
# Velocity S-wave (km/s) = 2.36005 3.30673 2.87266
# Velocity P-wave (km/s) = 3.65041 6.86681 5.49902
#
# Compressibility (1/GPa) = 0.11024283
#
# Stress axis : x y z
#
# Youngs Moduli (GPa) = 49.21240 5.53533 52.91831
#
# Poissons Ratio (x) = 0.19729 0.38312
# Poissons Ratio (y) = 1.75407 0.63149
# Poissons Ratio (z) = 0.35629 0.06605
#
# Static dielectric constant tensor:
#      x y z
#    x 1.535280 0.000000 -0.011140 
#    y 0.000000 1.518050 0.000000 
#    z -0.011140 0.000000 1.496090 
# 
# From -- ./inp_files/247752.got.cif
#   From: 2010.05.17/outbox.cif.g08.bks.cpg/sg12_124_cif.got.tgz:247752.got - 2010.06.03 13:09:07.
