data_PCOD9171479
_publ_section_title
;
Structure prediction by ZEFSAII (Michael W. Deem and Ramdas Pophale) SiO2 
 PCOD9171479
Probable space group: C 2/M
;
_chemical_formula_sum "Si O2"
_cell_formula_units_Z 56
_cell_length_a 15.289550
_cell_length_b 16.317310
_cell_length_c 16.822334
_cell_angle_alpha 90.000000
_cell_angle_beta 35.029793
_cell_angle_gamma 90.000000
_cell_volume 2409.035261
_symmetry_space_group_name_H-M "C 2/M"
_symmetry_group_IT_number 12
_symmetry_cell_setting 'monoclinic'
loop_
_space_group_symop_operation_xyz
x,y,z
-x,y,-z
-x,-y,-z
x,-y,z
1/2+x,1/2+y,z
1/2-x,1/2+y,-z
1/2-x,1/2-y,-z
1/2+x,1/2-y,z
loop_
_atom_site_type_symbol
_atom_site_label
_atom_site_fract_x
_atom_site_fract_y
_atom_site_fract_z
Si Si1 0.585616 0.087711 0.077224
Si Si2 0.715444 0.599106 0.492202
Si Si3 0.033564 0.591449 0.304823
Si Si4 0.474018 0.263734 0.113436
Si Si5 0.328655 0.705080 0.634284
Si Si6 0.124076 0.093618 0.246913
Si Si7 0.141828 0.092929 0.954965
O O1 0.752123 0.093766 0.914568
O O2 0.519690 0.000000 0.097042
O O3 0.570591 0.086262 0.182938
O O4 0.507990 0.171728 0.112985
O O5 0.736531 0.500000 0.467092
O O6 0.702429 0.643236 0.416274
O O7 0.547917 0.613385 0.653251
O O8 0.864522 0.630202 0.429878
O O9 0.017816 0.500000 0.351180
O O10 0.201480 0.621276 0.205284
O O11 0.300775 0.273639 0.268787
O O12 0.587576 0.335807 0.055033
O O13 0.500000 0.260367 0.000000
O O14 0.500000 0.738166 0.500000
O O15 0.326689 0.654045 0.718611
O O16 0.117673 0.000000 0.283759
O O17 0.161636 0.000000 0.971715
O O18 0.000000 0.085463 0.000000
#
# Coordination Sequence:
#
# PCOD9171479 Si02
#       7
#     8   8   8   8   8   8   8
#     4  10  19  29  45  76 114 141 162 192 239 303
#     4   9  16  27  44  69 102 142 179 198 227 285
#     4   9  17  31  52  75  99 128 167 213 254 298
#     4  11  20  32  51  76 100 138 173 204 248 298
#     4  10  18  28  43  68 106 143 174 200 228 281
#     4   9  17  27  42  67 107 151 173 189 225 284
#     4   9  20  38  58  76  92 118 170 233 273 294
#
# _framework density 23.245819999999998
#
# number of rings (size 3 to 8) (size 9 to 14) (size 15 to 20)
#    0.000    2.429    2.857    0.429    0.000    3.143 
#    0.000    0.000    0.000    4.714    0.000    6.000 
#    0.000    0.000    0.000    0.000    0.000    0.000 
#
# Total GULP energy -155952.661258 kJ/mol
# GULP energy per Si atom -5569.737902 kJ/mol
# Density = 2.319291 g / cm^3
# Si number density = 23.245820 Si / 1000 Ang^3
#
#
#
# Elastic Constant Matrix: (Units=GPa)
#
#
# Indices 1 2 3 4 5 6 
#
# 1 38.2106 13.3773 3.1567 0.0002 -24.4005 0.0002
# 2 13.3773 90.7277 15.5701 0.0009 -12.9910 -0.0003
# 3 3.1567 15.5701 119.8862 0.0011 -40.4258 -0.0004
# 4 0.0002 0.0009 0.0011 51.5662 -0.0006 -24.6242
# 5 -24.4005 -12.9910 -40.4258 -0.0006 47.5500 0.0002
# 6 0.0002 -0.0003 -0.0004 -24.6242 0.0002 20.8527
#
#
#
# Elastic Compliance Matrix: (Units=1/GPa)
#
#
# Indices 1 2 3 4 5 6 
#
# 1 0.046728 -0.004107 0.009828 0.000000 0.031212 -0.000001
# 2 -0.004107 0.011863 -0.001473 0.000000 -0.000118 0.000000
# 3 0.009828 -0.001473 0.013793 0.000000 0.016367 0.000000
# 4 0.000000 0.000000 0.000000 0.044467 0.000000 0.052510
# 5 0.031212 -0.000118 0.016367 0.000000 0.050929 -0.000001
# 6 -0.000001 0.000000 0.000000 0.052510 -0.000001 0.109962
#
#
# Mechanical properties :
#
#
# Convention : Reuss Voigt Hill
#
# Bulk Modulus (GPa) = 12.36403 34.78139 23.57271
# Shear Modulus (GPa) = 16.88009 38.44181 27.66095
#
# Velocity S-wave (km/s) = 2.69765 4.07099 3.45328
# Velocity P-wave (km/s) = 3.87730 6.09034 5.10518
#
# Compressibility (1/GPa) = 0.08087979
#
# Stress axis : x y z
#
# Youngs Moduli (GPa) = 21.40052 84.29336 72.50218
#
# Poissons Ratio (x) = 0.34621 -0.71253
# Poissons Ratio (y) = 0.08790 0.10676
# Poissons Ratio (z) = -0.21032 0.12412
#
# Static dielectric constant tensor:
#      x y z
#    x 1.985130 0.000000 -0.115650 
#    y 0.000000 1.970100 0.000000 
#    z -0.115650 0.000000 1.955670 
# 
# From -- ./inp_files/317133.got.cif
#   From: 2010.05.17/outbox.cif.g08.bks.cpg/sg12_159_cif.got.tgz:317133.got - 2010.06.03 13:09:07.
