data_PCOD9171111
_publ_section_title
;
Structure prediction by ZEFSAII (Michael W. Deem and Ramdas Pophale) SiO2 
 PCOD9171111
Probable space group: C 2/M
;
_chemical_formula_sum "Si O2"
_cell_formula_units_Z 64
_cell_length_a 28.541795
_cell_length_b 9.001149
_cell_length_c 22.964422
_cell_angle_alpha 90.000000
_cell_angle_beta 133.847220
_cell_angle_gamma 90.000000
_cell_volume 4254.849291
_symmetry_space_group_name_H-M "C 2/M"
_symmetry_group_IT_number 12
_symmetry_cell_setting 'monoclinic'
loop_
_space_group_symop_operation_xyz
x,y,z
-x,y,-z
-x,-y,-z
x,-y,z
1/2+x,1/2+y,z
1/2-x,1/2+y,-z
1/2-x,1/2-y,-z
1/2+x,1/2-y,z
loop_
_atom_site_type_symbol
_atom_site_label
_atom_site_fract_x
_atom_site_fract_y
_atom_site_fract_z
Si Si1 0.763199 0.322180 0.574406
Si Si2 0.604960 0.323437 0.319042
Si Si3 0.530954 0.179096 0.803701
Si Si4 0.837586 0.670589 0.028724
Si Si5 0.284380 0.830232 0.116397
Si Si6 0.498546 0.824590 0.567525
Si Si7 0.379975 0.324915 0.528199
Si Si8 0.410140 0.676642 0.262484
O O1 0.770323 0.500000 0.574770
O O2 0.750000 0.250000 0.500000
O O3 0.830323 0.249114 0.652439
O O4 0.695877 0.294079 0.550416
O O5 0.603676 0.500000 0.308202
O O6 0.539048 0.245269 0.241937
O O7 0.609173 0.300322 0.393079
O O8 0.587736 0.217794 0.898795
O O9 0.553509 0.247881 0.761355
O O10 0.529163 0.000000 0.797029
O O11 0.835007 0.500000 0.006425
O O12 0.809912 0.672072 0.071287
O O13 0.788764 0.769458 0.949251
O O14 0.335525 0.729476 0.194855
O O15 0.287477 0.000000 0.139190
O O16 0.500000 0.796712 0.500000
O O17 0.430164 0.772481 0.535614
O O18 0.553875 0.734648 0.649315
O O19 0.507787 0.000000 0.585833
O O20 0.392421 0.500000 0.528396
O O21 0.415019 0.500000 0.261343
#
# Coordination Sequence:
#
# PCOD9171111 Si02
#       8
#     8   8   8   8   8   8   8   8
#     4   9  17  28  42  60  82 106 137 172 208 251
#     4  10  18  27  41  63  86 110 142 173 208 252
#     4  10  18  27  41  59  83 113 142 174 209 245
#     4   8  15  25  36  55  79 105 137 169 203 242
#     4   9  16  26  40  56  76 103 136 171 206 245
#     4  11  23  35  47  63  82 107 142 182 222 260
#     4   9  18  31  45  61  80 106 139 175 214 255
#     4  11  20  30  44  59  78 106 139 176 215 255
#
# _framework density 15.04166
#
# number of rings (size 3 to 8) (size 9 to 14) (size 15 to 20)
#    0.000    2.375    1.250    4.500    0.000    7.000 
#    0.000    0.000    0.000    0.000    0.000    0.000 
#    0.000    0.000    0.000    1.125    0.000   21.000 
#
# Total GULP energy -178291.991708 kJ/mol
# GULP energy per Si atom -5571.624741 kJ/mol
# Density = 1.500742 g / cm^3
# Si number density = 15.041660 Si / 1000 Ang^3
#
#
#
# Elastic Constant Matrix: (Units=GPa)
#
#
# Indices 1 2 3 4 5 6 
#
# 1 41.5578 39.1660 42.1613 0.0000 24.2031 0.0000
# 2 39.1660 88.1012 52.4612 0.0000 19.2969 0.0000
# 3 42.1613 52.4612 79.0024 0.0000 36.5854 0.0000
# 4 0.0000 0.0000 0.0000 23.4982 0.0000 9.7932
# 5 24.2031 19.2969 36.5854 0.0000 31.2780 0.0000
# 6 0.0000 0.0000 0.0000 9.7932 0.0000 19.4034
#
#
#
# Elastic Compliance Matrix: (Units=1/GPa)
#
#
# Indices 1 2 3 4 5 6 
#
# 1 0.069683 -0.017312 -0.012366 0.000000 -0.028777 0.000000
# 2 -0.017312 0.023710 -0.012950 0.000000 0.013915 0.000000
# 3 -0.012366 -0.012950 0.043038 0.000000 -0.032782 0.000000
# 4 0.000000 0.000000 0.000000 0.053893 0.000000 -0.027201
# 5 -0.028777 0.013915 -0.032782 0.000000 0.083999 0.000000
# 6 0.000000 0.000000 0.000000 -0.027201 0.000000 0.065266
#
#
# Mechanical properties :
#
#
# Convention : Reuss Voigt Hill
#
# Bulk Modulus (GPa) = 19.54034 52.91536 36.22785
# Shear Modulus (GPa) = 11.31475 19.82745 15.57110
#
# Velocity S-wave (km/s) = 2.74565 3.63460 3.22094
# Velocity P-wave (km/s) = 4.80318 7.27113 6.16197
#
# Compressibility (1/GPa) = 0.05117617
#
# Stress axis : x y z
#
# Youngs Moduli (GPa) = 14.35073 42.17668 23.23548
#
# Poissons Ratio (x) = 0.73015 0.28732
# Poissons Ratio (y) = 0.24843 0.30089
# Poissons Ratio (z) = 0.17746 0.54618
#
# Static dielectric constant tensor:
#      x y z
#    x 1.491610 0.000000 0.042280 
#    y 0.000000 1.501770 0.000000 
#    z 0.042280 0.000000 1.508770 
# 
# From -- ./inp_files/326876.got.cif
#   From: 2010.05.17/outbox.cif.g08.bks.cpg/sg12_164_cif.got.tgz:326876.got - 2010.06.03 13:09:07.
