data_PCOD9171119
_publ_section_title
;
Structure prediction by ZEFSAII (Michael W. Deem and Ramdas Pophale) SiO2 
 PCOD9171119
Probable space group: C 2/M
;
_chemical_formula_sum "Si O2"
_cell_formula_units_Z 64
_cell_length_a 24.831351
_cell_length_b 9.157519
_cell_length_c 18.728549
_cell_angle_alpha 90.000000
_cell_angle_beta 80.885286
_cell_angle_gamma 90.000000
_cell_volume 4204.977008
_symmetry_space_group_name_H-M "C 2/M"
_symmetry_group_IT_number 12
_symmetry_cell_setting 'monoclinic'
loop_
_space_group_symop_operation_xyz
x,y,z
-x,y,-z
-x,-y,-z
x,-y,z
1/2+x,1/2+y,z
1/2-x,1/2+y,-z
1/2-x,1/2-y,-z
1/2+x,1/2-y,z
loop_
_atom_site_type_symbol
_atom_site_label
_atom_site_fract_x
_atom_site_fract_y
_atom_site_fract_z
Si Si1 0.995434 0.168248 0.333609
Si Si2 0.554825 0.173156 0.200615
Si Si3 0.166324 0.172520 0.999679
Si Si4 0.446027 0.173186 0.967590
Si Si5 0.269961 0.172793 0.884380
Si Si6 0.889293 0.167812 0.604056
Si Si7 0.162562 0.824283 0.241354
Si Si8 0.057936 0.667574 0.530619
O O1 0.007458 0.261172 0.260405
O O2 0.053032 0.170428 0.364985
O O3 0.951813 0.238506 0.396326
O O4 0.983197 0.000000 0.319835
O O5 0.545257 0.196030 0.118853
O O6 0.610248 0.255368 0.211985
O O7 0.560817 0.000000 0.212799
O O8 0.106729 0.235715 0.998381
O O9 0.192164 0.258950 0.061267
O O10 0.164499 0.000000 0.016870
O O11 0.208407 0.192617 0.925423
O O12 0.435341 0.000000 0.980357
O O13 0.500000 0.212255 0.000000
O O14 0.285598 0.255507 0.808739
O O15 0.281128 0.000000 0.875771
O O16 0.845447 0.212169 0.673250
O O17 0.898060 0.266440 0.533141
O O18 0.879750 0.000000 0.584838
O O19 0.161191 0.000000 0.235103
O O20 0.069423 0.500000 0.545590
O O21 0.000000 0.671347 0.500000
#
# Coordination Sequence:
#
# PCOD9171119 Si02
#       8
#     8   8   8   8   8   8   8   8
#     4   9  16  25  37  51  72 102 135 173 211 247
#     4  10  18  28  42  59  80 106 140 179 216 257
#     4  10  20  32  47  66  86 110 144 181 220 264
#     4  10  21  35  49  65  87 115 145 181 226 269
#     4  10  19  30  45  65  88 113 141 180 222 260
#     4   8  15  24  33  49  75 105 135 167 204 245
#     4  10  18  27  41  61  84 111 142 176 213 255
#     4   9  15  22  33  50  71  99 136 171 203 243
#
# _framework density 15.22006
#
# number of rings (size 3 to 8) (size 9 to 14) (size 15 to 20)
#    0.000    2.500    1.250    3.000    0.000    7.250 
#    0.000    0.000    0.000    0.000    0.000    0.000 
#    0.000    0.000    0.000    1.125    0.000   14.375 
#
# Total GULP energy -178294.316992 kJ/mol
# GULP energy per Si atom -5571.697406 kJ/mol
# Density = 1.518542 g / cm^3
# Si number density = 15.220060 Si / 1000 Ang^3
#
#
#
# Elastic Constant Matrix: (Units=GPa)
#
#
# Indices 1 2 3 4 5 6 
#
# 1 51.3749 38.1773 36.8732 0.0000 -12.8816 0.0000
# 2 38.1773 95.4766 63.3230 0.0000 -22.5869 0.0000
# 3 36.8732 63.3230 93.8717 0.0000 -35.9752 0.0000
# 4 0.0000 0.0000 0.0000 26.3297 0.0000 -10.4300
# 5 -12.8816 -22.5869 -35.9752 0.0000 22.0065 0.0000
# 6 0.0000 0.0000 0.0000 -10.4300 0.0000 15.3448
#
#
#
# Elastic Compliance Matrix: (Units=1/GPa)
#
#
# Indices 1 2 3 4 5 6 
#
# 1 0.029893 -0.007441 -0.007881 0.000000 -0.003023 0.000000
# 2 -0.007441 0.020930 -0.012403 0.000000 -0.003149 0.000000
# 3 -0.007881 -0.012403 0.041415 0.000000 0.050361 0.000000
# 4 0.000000 0.000000 0.000000 0.051974 0.000000 0.035327
# 5 -0.003023 -0.003149 0.050361 0.000000 0.122767 0.000000
# 6 0.000000 0.000000 0.000000 0.035327 0.000000 0.089181
#
#
# Mechanical properties :
#
#
# Convention : Reuss Voigt Hill
#
# Bulk Modulus (GPa) = 27.18244 57.49668 42.33956
# Shear Modulus (GPa) = 11.79601 19.55952 15.67777
#
# Velocity S-wave (km/s) = 2.78696 3.58874 3.21296
# Velocity P-wave (km/s) = 5.31550 7.41829 6.45312
#
# Compressibility (1/GPa) = 0.03678845
#
# Stress axis : x y z
#
# Youngs Moduli (GPa) = 33.45289 47.77801 24.14579
#
# Poissons Ratio (x) = 0.35553 0.19029
# Poissons Ratio (y) = 0.24893 0.29947
# Poissons Ratio (z) = 0.26364 0.59258
#
# Static dielectric constant tensor:
#      x y z
#    x 1.480230 0.000000 -0.033670 
#    y 0.000000 1.510180 0.000000 
#    z -0.033670 0.000000 1.520930 
# 
# From -- ./inp_files/287573.got.cif
#   From: 2010.05.17/outbox.cif.g08.bks.cpg/sg12_144_cif.got.tgz:287573.got - 2010.06.03 13:09:07.
