data_PCOD9171682
_publ_section_title
;
Structure prediction by ZEFSAII (Michael W. Deem and Ramdas Pophale) SiO2 
 PCOD9171682
Probable space group: C 2/M
;
_chemical_formula_sum "Si O2"
_cell_formula_units_Z 64
_cell_length_a 19.234158
_cell_length_b 9.679614
_cell_length_c 19.082265
_cell_angle_alpha 90.000000
_cell_angle_beta 95.755175
_cell_angle_gamma 90.000000
_cell_volume 3534.813694
_symmetry_space_group_name_H-M "C 2/M"
_symmetry_group_IT_number 12
_symmetry_cell_setting 'monoclinic'
loop_
_space_group_symop_operation_xyz
x,y,z
-x,y,-z
-x,-y,-z
x,-y,z
1/2+x,1/2+y,z
1/2-x,1/2+y,-z
1/2-x,1/2-y,-z
1/2+x,1/2-y,z
loop_
_atom_site_type_symbol
_atom_site_label
_atom_site_fract_x
_atom_site_fract_y
_atom_site_fract_z
Si Si1 0.836416 0.340635 0.435414
Si Si2 0.880525 0.838929 0.562821
Si Si3 0.848654 0.337520 0.812148
Si Si4 0.393438 0.660955 0.942705
Si Si5 0.217263 0.838899 0.313794
Si Si6 0.990076 0.659675 0.385945
Si Si7 0.445485 0.340363 0.095600
Si Si8 0.509539 0.839199 0.776659
O O1 0.819578 0.500000 0.453826
O O2 0.833446 0.238491 0.500622
O O3 0.785854 0.304353 0.365936
O O4 0.915687 0.336204 0.415786
O O5 0.844906 0.827617 0.635455
O O6 0.953868 0.760142 0.574128
O O7 0.888034 0.000000 0.546371
O O8 0.833314 0.500000 0.817056
O O9 0.850744 0.259667 0.886951
O O10 0.798489 0.259650 0.752697
O O11 0.927665 0.324348 0.788809
O O12 0.371445 0.500000 0.936042
O O13 0.474012 0.664612 0.923615
O O14 0.398215 0.703704 0.024706
O O15 0.221428 0.000000 0.291990
O O16 0.016027 0.500000 0.391629
O O17 0.981533 0.698138 0.303508
O O18 0.429680 0.500000 0.109385
O O19 0.445009 0.249513 0.164928
O O20 0.527646 0.000000 0.786427
#
# Coordination Sequence:
#
# PCOD9171682 Si02
#       8
#     8   8   8   8   8   8   8   8
#     4  10  22  38  55  72  96 131 168 203 243 296
#     4  11  22  35  54  77 100 125 159 207 254 295
#     4  10  18  28  46  71  97 128 163 201 244 288
#     4   8  14  25  40  62  95 130 161 195 236 287
#     4  10  21  36  52  73  98 130 167 202 246 295
#     4  10  20  36  54  73  99 132 167 201 242 295
#     4   8  14  24  40  63  93 129 162 193 237 286
#     4   9  17  28  44  68  96 125 160 199 239 285
#
# _framework density 18.105622
#
# number of rings (size 3 to 8) (size 9 to 14) (size 15 to 20)
#    0.000    2.500    1.250    2.250    0.000    4.500 
#    0.000    2.500    0.000    0.000    0.000    0.875 
#    0.000    0.000    0.000    0.000    0.000    0.000 
#
# Total GULP energy -178480.930029 kJ/mol
# GULP energy per Si atom -5577.529063 kJ/mol
# Density = 1.806441 g / cm^3
# Si number density = 18.105622 Si / 1000 Ang^3
#
#
#
# Elastic Constant Matrix: (Units=GPa)
#
#
# Indices 1 2 3 4 5 6 
#
# 1 28.7518 25.1361 15.1856 0.0000 16.9048 0.0000
# 2 25.1361 106.1570 95.8149 0.0000 33.7365 0.0000
# 3 15.1856 95.8149 139.8731 0.0000 35.6617 0.0000
# 4 0.0000 0.0000 0.0000 37.2154 0.0000 7.4542
# 5 16.9048 33.7365 35.6617 0.0000 24.5074 0.0000
# 6 0.0000 0.0000 0.0000 7.4542 0.0000 11.8228
#
#
#
# Elastic Compliance Matrix: (Units=1/GPa)
#
#
# Indices 1 2 3 4 5 6 
#
# 1 0.067870 -0.013348 0.014350 0.000000 -0.049323 0.000000
# 2 -0.013348 0.031277 -0.018038 0.000000 -0.007600 0.000000
# 3 0.014350 -0.018038 0.022481 0.000000 -0.017781 0.000000
# 4 0.000000 0.000000 0.000000 0.030754 0.000000 -0.019390
# 5 -0.049323 -0.007600 -0.017781 0.000000 0.111161 0.000000
# 6 0.000000 0.000000 0.000000 -0.019390 0.000000 0.096808
#
#
# Mechanical properties :
#
#
# Convention : Reuss Voigt Hill
#
# Bulk Modulus (GPa) = 11.42126 60.78390 36.10258
# Shear Modulus (GPa) = 11.80337 23.95214 17.87775
#
# Velocity S-wave (km/s) = 2.55604 3.64113 3.14572
# Velocity P-wave (km/s) = 3.87723 7.16393 5.75998
#
# Compressibility (1/GPa) = 0.08755601
#
# Stress axis : x y z
#
# Youngs Moduli (GPa) = 14.73402 31.97286 44.48199
#
# Poissons Ratio (x) = 0.42678 -0.63833
# Poissons Ratio (y) = 0.19667 0.80237
# Poissons Ratio (z) = -0.21144 0.57673
#
# Static dielectric constant tensor:
#      x y z
#    x 1.618430 0.000000 0.002930 
#    y 0.000000 1.609650 0.000000 
#    z 0.002930 0.000000 1.620540 
# 
# From -- ./inp_files/319211.got.cif
#   From: 2010.05.17/outbox.cif.g08.bks.cpg/sg12_160_cif.got.tgz:319211.got - 2010.06.03 13:09:07.
