data_PCOD9171977
_publ_section_title
;
Structure prediction by ZEFSAII (Michael W. Deem and Ramdas Pophale) SiO2 
 PCOD9171977
Probable space group: C 2/M
;
_chemical_formula_sum "Si O2"
_cell_formula_units_Z 64
_cell_length_a 31.435041
_cell_length_b 7.567855
_cell_length_c 15.471428
_cell_angle_alpha 90.000000
_cell_angle_beta 100.939936
_cell_angle_gamma 90.000000
_cell_volume 3613.699702
_symmetry_space_group_name_H-M "C 2/M"
_symmetry_group_IT_number 12
_symmetry_cell_setting 'monoclinic'
loop_
_space_group_symop_operation_xyz
x,y,z
-x,y,-z
-x,-y,-z
x,-y,z
1/2+x,1/2+y,z
1/2-x,1/2+y,-z
1/2-x,1/2-y,-z
1/2+x,1/2-y,z
loop_
_atom_site_type_symbol
_atom_site_label
_atom_site_fract_x
_atom_site_fract_y
_atom_site_fract_z
Si Si1 0.128117 0.790154 0.748573
Si Si2 0.054706 0.283706 0.433846
Si Si3 0.318636 0.296847 0.075988
Si Si4 0.283656 0.787158 0.696382
Si Si5 0.041521 0.712411 0.626188
Si Si6 0.273926 0.289600 0.889944
Si Si7 0.187006 0.214342 0.611835
Si Si8 0.853783 0.708238 0.589187
O O1 0.145831 0.716409 0.846064
O O2 0.077865 0.765245 0.708167
O O3 0.156169 0.721932 0.678011
O O4 0.136676 0.000000 0.754775
O O5 0.055509 0.500000 0.434159
O O6 0.055607 0.228672 0.535122
O O7 0.097558 0.219403 0.402037
O O8 0.007978 0.228413 0.379070
O O9 0.331257 0.500000 0.064172
O O10 0.273439 0.292123 0.111926
O O11 0.305847 0.220570 0.977593
O O12 0.289163 0.743554 0.799030
O O13 0.236179 0.725301 0.647279
O O14 0.321911 0.717878 0.649959
O O15 0.282839 0.000000 0.688380
O O16 0.040707 0.500000 0.623553
O O17 0.268691 0.500000 0.900796
O O18 0.168927 0.273287 0.512736
O O19 0.186508 0.000000 0.611748
O O20 0.858524 0.500000 0.609503
#
# Coordination Sequence:
#
# PCOD9171977 Si02
#       8
#     8   8   8   8   8   8   8   8
#     4  10  18  29  45  65  92 121 144 174 222 272
#     4   8  15  28  44  64  87 114 147 187 226 257
#     4   9  18  33  48  64  92 121 145 182 230 269
#     4  10  20  33  46  62  91 126 153 185 226 261
#     4   9  16  28  46  64  88 115 145 186 224 262
#     4  10  19  30  48  69  87 116 154 188 220 263
#     4  10  19  30  42  61  93 126 149 180 222 255
#     4  10  19  31  48  65  85 121 162 188 215 262
#
# _framework density 17.710383
#
# number of rings (size 3 to 8) (size 9 to 14) (size 15 to 20)
#    0.000    2.500    2.500    1.500    0.000    2.000 
#    0.000    1.875    0.000    0.000    0.000    0.875 
#    0.000    7.000    0.000    0.000    0.000    0.000 
#
# Total GULP energy -178460.051228 kJ/mol
# GULP energy per Si atom -5576.876601 kJ/mol
# Density = 1.767007 g / cm^3
# Si number density = 17.710383 Si / 1000 Ang^3
#
#
#
# Elastic Constant Matrix: (Units=GPa)
#
#
# Indices 1 2 3 4 5 6 
#
# 1 134.4603 -0.8732 76.7266 0.0000 13.4366 0.0000
# 2 -0.8732 38.5754 -13.0579 0.0000 -1.5768 0.0000
# 3 76.7266 -13.0579 100.9421 0.0000 17.5090 0.0000
# 4 0.0000 0.0000 0.0000 13.0277 0.0000 1.8018
# 5 13.4366 -1.5768 17.5090 0.0000 28.5836 0.0000
# 6 0.0000 0.0000 0.0000 1.8018 0.0000 8.5759
#
#
#
# Elastic Compliance Matrix: (Units=1/GPa)
#
#
# Indices 1 2 3 4 5 6 
#
# 1 0.013528 -0.003320 -0.010716 0.000000 0.000022 0.000000
# 2 -0.003320 0.027939 0.006266 0.000000 -0.000736 0.000000
# 3 -0.010716 0.006266 0.020060 0.000000 -0.006905 0.000000
# 4 0.000000 0.000000 0.000000 0.079057 0.000000 -0.016610
# 5 0.000022 -0.000736 -0.006905 0.000000 0.039164 0.000000
# 6 0.000000 0.000000 0.000000 -0.016610 0.000000 0.120096
#
#
# Mechanical properties :
#
#
# Convention : Reuss Voigt Hill
#
# Bulk Modulus (GPa) = 21.74583 44.39652 33.07118
# Shear Modulus (GPa) = 15.11874 24.11624 19.61749
#
# Velocity S-wave (km/s) = 2.92492 3.69413 3.33180
# Velocity P-wave (km/s) = 4.86951 6.58164 5.78922
#
# Compressibility (1/GPa) = 0.04598583
#
# Stress axis : x y z
#
# Youngs Moduli (GPa) = 73.91845 35.79227 49.84939
#
# Poissons Ratio (x) = 0.11884 0.53420
# Poissons Ratio (y) = 0.24544 -0.31234
# Poissons Ratio (z) = 0.79213 -0.22426
#
# Static dielectric constant tensor:
#      x y z
#    x 1.608510 0.000000 0.016050 
#    y 0.000000 1.646260 0.000000 
#    z 0.016050 0.000000 1.603380 
# 
# From -- ./inp_files/248530.got.cif
#   From: 2010.05.17/outbox.cif.g08.bks.cpg/sg12_125_cif.got.tgz:248530.got - 2010.06.03 13:09:07.
