data_PCOD9171915
_publ_section_title
;
Structure prediction by ZEFSAII (Michael W. Deem and Ramdas Pophale) SiO2 
 PCOD9171915
Probable space group: C 2/M
;
_chemical_formula_sum "Si O2"
_cell_formula_units_Z 40
_cell_length_a 23.470531
_cell_length_b 13.702544
_cell_length_c 7.063767
_cell_angle_alpha 90.000000
_cell_angle_beta 87.439551
_cell_angle_gamma 90.000000
_cell_volume 2269.481724
_symmetry_space_group_name_H-M "C 2/M"
_symmetry_group_IT_number 12
_symmetry_cell_setting 'monoclinic'
loop_
_space_group_symop_operation_xyz
x,y,z
-x,y,-z
-x,-y,-z
x,-y,z
1/2+x,1/2+y,z
1/2-x,1/2+y,-z
1/2-x,1/2-y,-z
1/2+x,1/2-y,z
loop_
_atom_site_type_symbol
_atom_site_label
_atom_site_fract_x
_atom_site_fract_y
_atom_site_fract_z
Si Si1 0.450471 0.385182 0.777052
Si Si2 0.270681 0.111184 0.865838
Si Si3 0.829741 0.191737 0.870117
Si Si4 0.689821 0.616878 0.546130
Si Si5 0.428379 0.614475 0.325904
O O1 0.449403 0.500000 0.826648
O O2 0.396224 0.334992 0.881370
O O3 0.515270 0.346104 0.786643
O O4 0.439386 0.380383 0.551299
O O5 0.315251 0.195273 0.910244
O O6 0.247280 0.127963 0.656300
O O7 0.290649 0.000000 0.882393
O O8 0.214325 0.127582 0.001814
O O9 0.813197 0.167651 0.655039
O O10 0.681578 0.500000 0.517580
O O11 0.635718 0.653753 0.679042
O O12 0.426821 0.500000 0.275293
#
# Coordination Sequence:
#
# PCOD9171915 Si02
#       5
#     8   8   8   8   8
#     4   8  12  21  39  61  82 105 132 160 197 245
#     4  10  20  30  41  61  85 109 142 175 199 236
#     4  10  18  29  44  59  83 114 140 166 204 243
#     4   9  16  28  45  64  87 110 131 163 207 249
#     4   7  11  20  37  61  84 104 127 157 198 248
#
# _framework density 17.625169
#
# number of rings (size 3 to 8) (size 9 to 14) (size 15 to 20)
#    0.000    3.200    0.000    4.800    0.000    0.000 
#    0.000    1.000    0.000    4.800    0.000   11.200 
#    0.000    6.400    0.000    0.000    0.000    3.200 
#
# Total GULP energy -111394.723306 kJ/mol
# GULP energy per Si atom -5569.736165 kJ/mol
# Density = 1.758505 g / cm^3
# Si number density = 17.625169 Si / 1000 Ang^3
#
#
#
# Elastic Constant Matrix: (Units=GPa)
#
#
# Indices 1 2 3 4 5 6 
#
# 1 63.9794 26.4939 2.5160 0.0000 -11.7693 0.0000
# 2 26.4939 61.1315 -1.3761 0.0000 -1.9075 0.0000
# 3 2.5160 -1.3761 59.9991 0.0000 -11.3623 0.0000
# 4 0.0000 0.0000 0.0000 9.4377 0.0000 -7.2860
# 5 -11.7693 -1.9075 -11.3623 0.0000 16.6633 0.0000
# 6 0.0000 0.0000 0.0000 -7.2860 0.0000 7.5043
#
#
#
# Elastic Compliance Matrix: (Units=1/GPa)
#
#
# Indices 1 2 3 4 5 6 
#
# 1 0.022265 -0.009109 0.001881 0.000000 0.015966 0.000000
# 2 -0.009109 0.020180 0.000073 0.000000 -0.004074 0.000000
# 3 0.001881 0.000073 0.019340 0.000000 0.014525 0.000000
# 4 0.000000 0.000000 0.000000 0.423087 0.000000 0.410781
# 5 0.015966 -0.004074 0.014525 0.000000 0.080726 0.000000
# 6 0.000000 0.000000 0.000000 0.410781 0.000000 0.532091
#
#
# Mechanical properties :
#
#
# Convention : Reuss Voigt Hill
#
# Bulk Modulus (GPa) = 21.06305 26.70861 23.88583
# Shear Modulus (GPa) = 4.43331 17.21945 10.82638
#
# Velocity S-wave (km/s) = 1.58770 3.12906 2.48111
# Velocity P-wave (km/s) = 3.91632 5.31425 4.66791
#
# Compressibility (1/GPa) = 0.04747650
#
# Stress axis : x y z
#
# Youngs Moduli (GPa) = 44.91340 49.55279 51.70546
#
# Poissons Ratio (x) = 0.45138 -0.09725
# Poissons Ratio (y) = 0.40912 -0.00379
# Poissons Ratio (z) = -0.08448 -0.00364
#
# Static dielectric constant tensor:
#      x y z
#    x 1.666470 0.000000 0.016320 
#    y 0.000000 1.571210 0.000000 
#    z 0.016320 0.000000 1.683730 
# 
# From -- ./inp_files/84550.got.cif
#   From: 2010.05.17/outbox.cif.g08.bks.cpg/sg12_43_cif.got.tgz:84550.got - 2010.06.03 13:09:07.
