data_PCOD9171258
_publ_section_title
;
Structure prediction by ZEFSAII (Michael W. Deem and Ramdas Pophale) SiO2 
 PCOD9171258
Probable space group: C 2/M
;
_chemical_formula_sum "Si O2"
_cell_formula_units_Z 64
_cell_length_a 26.052588
_cell_length_b 7.451409
_cell_length_c 18.313693
_cell_angle_alpha 90.000000
_cell_angle_beta 101.684570
_cell_angle_gamma 90.000000
_cell_volume 3481.536312
_symmetry_space_group_name_H-M "C 2/M"
_symmetry_group_IT_number 12
_symmetry_cell_setting 'monoclinic'
loop_
_space_group_symop_operation_xyz
x,y,z
-x,y,-z
-x,-y,-z
x,-y,z
1/2+x,1/2+y,z
1/2-x,1/2+y,-z
1/2-x,1/2-y,-z
1/2+x,1/2-y,z
loop_
_atom_site_type_symbol
_atom_site_label
_atom_site_fract_x
_atom_site_fract_y
_atom_site_fract_z
Si Si1 0.573265 0.282713 0.903323
Si Si2 0.238183 0.784640 0.081618
Si Si3 0.620293 0.280448 0.072087
Si Si4 0.660464 0.789759 0.807129
Si Si5 0.029199 0.715466 0.334937
Si Si6 0.042208 0.786463 0.173338
Si Si7 0.911690 0.720689 0.340877
Si Si8 0.438247 0.791508 0.504113
O O1 0.572802 0.500000 0.901952
O O2 0.616399 0.224220 0.857173
O O3 0.515469 0.216971 0.865140
O O4 0.590767 0.227105 0.989184
O O5 0.180379 0.718818 0.085720
O O6 0.285690 0.713266 0.145018
O O7 0.237577 0.000000 0.089440
O O8 0.250000 0.750000 0.000000
O O9 0.621382 0.500000 0.072724
O O10 0.587447 0.219062 0.132703
O O11 0.634082 0.716542 0.725891
O O12 0.669887 0.000000 0.795847
O O13 0.027572 0.500000 0.342063
O O14 0.050666 0.756460 0.261436
O O15 0.061882 0.785299 0.414179
O O16 0.968547 0.776187 0.325075
O O17 0.040025 0.000000 0.161207
O O18 0.911875 0.500000 0.341289
O O19 0.909289 0.782470 0.424352
O O20 0.500000 0.788458 0.500000
O O21 0.422173 0.000000 0.504676
#
# Coordination Sequence:
#
# PCOD9171258 Si02
#       8
#     8   8   8   8   8   8   8   8
#     4  10  18  29  45  61  81 113 147 173 204 248
#     4  10  19  31  47  64  83 109 142 177 214 249
#     4   9  18  32  45  58  81 115 149 177 201 242
#     4  10  18  27  44  68  88 107 135 175 217 249
#     4   9  15  25  42  62  85 111 137 168 210 251
#     4  10  19  29  43  62  84 113 148 175 202 246
#     4   8  13  23  39  61  88 110 132 167 208 250
#     4   7  11  20  37  59  81 110 139 159 196 255
#
# _framework density 18.382688000000002
#
# number of rings (size 3 to 8) (size 9 to 14) (size 15 to 20)
#    0.000    2.875    2.500    1.875    0.000    1.500 
#    0.000    1.250    0.000    5.625    0.000    0.875 
#    0.000    0.000    0.000    0.000    0.000    0.000 
#
# Total GULP energy -178395.306861 kJ/mol
# GULP energy per Si atom -5574.853339 kJ/mol
# Density = 1.834085 g / cm^3
# Si number density = 18.382688 Si / 1000 Ang^3
#
#
#
# Elastic Constant Matrix: (Units=GPa)
#
#
# Indices 1 2 3 4 5 6 
#
# 1 95.7092 0.5775 83.8925 0.0000 -2.2523 0.0000
# 2 0.5775 54.4035 -0.2661 0.0000 3.8891 0.0000
# 3 83.8925 -0.2661 195.0659 0.0000 16.2400 0.0000
# 4 0.0000 0.0000 0.0000 12.3270 0.0000 -6.7289
# 5 -2.2523 3.8891 16.2400 0.0000 17.0494 0.0000
# 6 0.0000 0.0000 0.0000 -6.7289 0.0000 7.6895
#
#
#
# Elastic Compliance Matrix: (Units=1/GPa)
#
#
# Indices 1 2 3 4 5 6 
#
# 1 0.018509 -0.001037 -0.008890 0.000000 0.011150 0.000000
# 2 -0.001037 0.018775 0.000912 0.000000 -0.005288 0.000000
# 3 -0.008890 0.000912 0.009847 0.000000 -0.010762 0.000000
# 4 0.000000 0.000000 0.000000 0.155309 0.000000 0.135906
# 5 0.011150 -0.005288 -0.010762 0.000000 0.071583 0.000000
# 6 0.000000 0.000000 0.000000 0.135906 0.000000 0.248974
#
#
# Mechanical properties :
#
#
# Convention : Reuss Voigt Hill
#
# Bulk Modulus (GPa) = 34.36339 57.06515 45.71427
# Shear Modulus (GPa) = 9.07888 24.81152 16.94520
#
# Velocity S-wave (km/s) = 2.22476 3.67784 3.03941
# Velocity P-wave (km/s) = 5.03322 7.01039 6.10242
#
# Compressibility (1/GPa) = 0.02910074
#
# Stress axis : x y z
#
# Youngs Moduli (GPa) = 54.02656 53.26320 101.55310
#
# Poissons Ratio (x) = 0.05524 0.90281
# Poissons Ratio (y) = 0.05603 -0.09260
# Poissons Ratio (z) = 0.48030 -0.04857
#
# Static dielectric constant tensor:
#      x y z
#    x 1.603050 0.000000 0.020660 
#    y 0.000000 1.724690 0.000000 
#    z 0.020660 0.000000 1.664550 
# 
# From -- ./inp_files/287743.got.cif
#   From: 2010.05.17/outbox.cif.g08.bks.cpg/sg12_144_cif.got.tgz:287743.got - 2010.06.03 13:09:07.
