data_PCOD9171345
_publ_section_title
;
Structure prediction by ZEFSAII (Michael W. Deem and Ramdas Pophale) SiO2 
 PCOD9171345
Probable space group: C 2/M
;
_chemical_formula_sum "Si O2"
_cell_formula_units_Z 36
_cell_length_a 17.935681
_cell_length_b 14.270391
_cell_length_c 7.035964
_cell_angle_alpha 90.000000
_cell_angle_beta 126.077129
_cell_angle_gamma 90.000000
_cell_volume 1455.491383
_symmetry_space_group_name_H-M "C 2/M"
_symmetry_group_IT_number 12
_symmetry_cell_setting 'monoclinic'
loop_
_space_group_symop_operation_xyz
x,y,z
-x,y,-z
-x,-y,-z
x,-y,z
1/2+x,1/2+y,z
1/2-x,1/2+y,-z
1/2-x,1/2-y,-z
1/2+x,1/2-y,z
loop_
_atom_site_type_symbol
_atom_site_label
_atom_site_fract_x
_atom_site_fract_y
_atom_site_fract_z
Si Si1 0.703913 0.801033 0.149031
Si Si2 0.230960 0.000000 0.683240
Si Si3 0.526006 0.294968 0.825617
Si Si4 0.918284 0.500000 0.715655
Si Si5 0.985468 0.000000 0.701503
Si Si6 0.138899 0.310472 0.495552
O O1 0.750760 0.901645 0.179770
O O2 0.772725 0.712614 0.245835
O O3 0.675157 0.805704 0.330743
O O4 0.611388 0.770484 0.904573
O O5 0.316828 0.000000 0.663444
O O6 0.126898 0.000000 0.439242
O O7 0.536101 0.406269 0.847281
O O8 0.433468 0.272292 0.573614
O O9 0.500000 0.265608 0.000000
O O10 0.916496 0.407340 0.584330
O O11 0.000000 0.500000 0.000000
O O12 0.000000 0.000000 0.500000
#
# Coordination Sequence:
#
# PCOD9171345 Si02
#       6
#     8   4   8   4   4   8
#     4   9  17  29  53  81 109 144 185 223 284 341
#     4  10  18  35  56  76 115 158 179 227 291 337
#     4  10  20  35  58  85 112 144 191 241 285 337
#     4  10  18  27  49  85 119 143 180 233 298 347
#     4  12  25  40  55  80 118 159 196 230 282 342
#     4   9  16  28  47  81 117 140 172 231 288 333
#
# _framework density 24.733915
#
# number of rings (size 3 to 8) (size 9 to 14) (size 15 to 20)
#    0.000    2.222    2.222    3.667    3.111    0.889 
#    0.000    1.111    0.000    0.000    0.000    1.556 
#    0.000    0.000    0.000    0.000    0.000    0.000 
#
# Total GULP energy -100403.939213 kJ/mol
# GULP energy per Si atom -5577.996623 kJ/mol
# Density = 2.467762 g / cm^3
# Si number density = 24.733915 Si / 1000 Ang^3
#
#
#
# Elastic Constant Matrix: (Units=GPa)
#
#
# Indices 1 2 3 4 5 6 
#
# 1 70.0614 -1.4514 1.8882 0.0000 -1.4809 0.0000
# 2 -1.4514 178.9345 30.4933 0.0000 32.3804 0.0000
# 3 1.8882 30.4933 80.3348 0.0000 27.6031 0.0000
# 4 0.0000 0.0000 0.0000 40.2522 0.0000 11.3648
# 5 -1.4809 32.3804 27.6031 0.0000 35.3971 0.0000
# 6 0.0000 0.0000 0.0000 11.3648 0.0000 13.8843
#
#
#
# Elastic Compliance Matrix: (Units=1/GPa)
#
#
# Indices 1 2 3 4 5 6 
#
# 1 0.014318 0.000035 -0.000744 0.000000 0.001147 0.000000
# 2 0.000035 0.006718 -0.000601 0.000000 -0.005676 0.000000
# 3 -0.000744 -0.000601 0.017096 0.000000 -0.012813 0.000000
# 4 0.000000 0.000000 0.000000 0.032311 0.000000 -0.026448
# 5 0.001147 -0.005676 -0.012813 0.000000 0.043483 0.000000
# 6 0.000000 0.000000 0.000000 -0.026448 0.000000 0.093672
#
#
# Mechanical properties :
#
#
# Convention : Reuss Voigt Hill
#
# Bulk Modulus (GPa) = 28.15796 43.46568 35.81182
# Shear Modulus (GPa) = 22.51689 37.80007 30.15848
#
# Velocity S-wave (km/s) = 3.02050 3.91355 3.49566
# Velocity P-wave (km/s) = 4.85527 6.16706 5.55006
#
# Compressibility (1/GPa) = 0.03551393
#
# Stress axis : x y z
#
# Youngs Moduli (GPa) = 69.84106 148.84449 58.49285
#
# Poissons Ratio (x) = -0.00527 0.04352
# Poissons Ratio (y) = -0.00247 0.03514
# Poissons Ratio (z) = 0.05196 0.08942
#
# Static dielectric constant tensor:
#      x y z
#    x 2.080510 0.000000 -0.040780 
#    y 0.000000 2.018220 0.000000 
#    z -0.040780 0.000000 1.936980 
# 
# From -- ./inp_files/58635.got.cif
#   From: 2010.05.17/outbox.cif.g08.bks.cpg/sg12_30_cif.got.tgz:58635.got - 2010.06.03 13:09:07.
