data_PCOD9171473
_publ_section_title
;
Structure prediction by ZEFSAII (Michael W. Deem and Ramdas Pophale) SiO2 
 PCOD9171473
Probable space group: C 2/M
;
_chemical_formula_sum "Si O2"
_cell_formula_units_Z 48
_cell_length_a 23.367062
_cell_length_b 11.561599
_cell_length_c 20.562486
_cell_angle_alpha 90.000000
_cell_angle_beta 152.804552
_cell_angle_gamma 90.000000
_cell_volume 2538.865776
_symmetry_space_group_name_H-M "C 2/M"
_symmetry_group_IT_number 12
_symmetry_cell_setting 'monoclinic'
loop_
_space_group_symop_operation_xyz
x,y,z
-x,y,-z
-x,-y,-z
x,-y,z
1/2+x,1/2+y,z
1/2-x,1/2+y,-z
1/2-x,1/2-y,-z
1/2+x,1/2-y,z
loop_
_atom_site_type_symbol
_atom_site_label
_atom_site_fract_x
_atom_site_fract_y
_atom_site_fract_z
Si Si1 0.352428 0.626600 0.226649
Si Si2 0.564204 0.300599 0.346863
Si Si3 0.269651 0.131880 0.150786
Si Si4 0.989768 0.138384 0.916960
Si Si5 0.867835 0.374808 0.102612
Si Si6 0.770514 0.868555 0.603320
O O1 0.347732 0.500000 0.255717
O O2 0.476809 0.630843 0.308142
O O3 0.340654 0.752928 0.249111
O O4 0.234518 0.629417 0.057443
O O5 0.468737 0.225603 0.206511
O O6 0.650811 0.211554 0.473844
O O7 0.653999 0.368334 0.388748
O O8 0.299024 0.129814 0.103226
O O9 0.301184 0.000000 0.206437
O O10 0.123211 0.150650 0.016954
O O11 0.869787 0.180310 0.755862
O O12 0.969556 0.000000 0.901243
O O13 0.000000 0.186621 0.000000
O O14 0.932364 0.500000 0.163670
O O15 0.734868 0.000000 0.583547
#
# Coordination Sequence:
#
# PCOD9171473 Si02
#       6
#     8   8   8   8   8   8
#     4  10  18  28  45  68  93 122 157 194 235 285
#     4  10  18  28  43  66  97 127 155 187 237 294
#     4   9  16  27  45  68  91 116 150 194 238 276
#     4   9  17  30  49  71  94 123 161 201 238 278
#     4   9  16  26  42  65  93 123 155 193 235 281
#     4  10  19  29  43  66  98 130 158 193 237 286
#
# _framework density 18.906079999999999
#
# number of rings (size 3 to 8) (size 9 to 14) (size 15 to 20)
#    0.000    2.500    0.000    5.000    0.000    3.333 
#    0.000    0.000    0.000    5.500    0.000   21.000 
#    0.000    0.000    0.000    0.000    0.000    0.000 
#
# Total GULP energy -133621.135376 kJ/mol
# GULP energy per Si atom -5567.547307 kJ/mol
# Density = 1.886305 g / cm^3
# Si number density = 18.906080 Si / 1000 Ang^3
#
#
#
# Elastic Constant Matrix: (Units=GPa)
#
#
# Indices 1 2 3 4 5 6 
#
# 1 21.1192 8.9545 19.2201 0.0000 -1.4123 0.0000
# 2 8.9545 129.0056 24.5622 0.0000 6.0694 0.0000
# 3 19.2201 24.5622 64.9588 0.0000 7.5677 0.0000
# 4 0.0000 0.0000 0.0000 11.3967 0.0000 -2.3815
# 5 -1.4123 6.0694 7.5677 0.0000 15.3767 0.0000
# 6 0.0000 0.0000 0.0000 -2.3815 0.0000 3.1413
#
#
#
# Elastic Compliance Matrix: (Units=1/GPa)
#
#
# Indices 1 2 3 4 5 6 
#
# 1 0.069156 -0.001450 -0.021981 0.000000 0.017742 0.000000
# 2 -0.001450 0.008433 -0.002500 0.000000 -0.002232 0.000000
# 3 -0.021981 -0.002500 0.024360 0.000000 -0.013021 0.000000
# 4 0.000000 0.000000 0.000000 0.104261 0.000000 0.079042
# 5 0.017742 -0.002232 -0.013021 0.000000 0.073952 0.000000
# 6 0.000000 0.000000 0.000000 0.079042 0.000000 0.378262
#
#
# Mechanical properties :
#
#
# Convention : Reuss Voigt Hill
#
# Bulk Modulus (GPa) = 19.96469 35.61746 27.79108
# Shear Modulus (GPa) = 6.87776 16.80608 11.84192
#
# Velocity S-wave (km/s) = 1.90939 2.98472 2.50542
# Velocity P-wave (km/s) = 3.92987 5.54600 4.80635
#
# Compressibility (1/GPa) = 0.05008844
#
# Stress axis : x y z
#
# Youngs Moduli (GPa) = 14.46016 118.57929 41.05057
#
# Poissons Ratio (x) = 0.17193 0.90232
# Poissons Ratio (y) = 0.02097 0.10262
# Poissons Ratio (z) = 0.31784 0.29642
#
# Static dielectric constant tensor:
#      x y z
#    x 1.647270 0.000000 -0.007570 
#    y 0.000000 1.743490 0.000000 
#    z -0.007570 0.000000 1.640550 
# 
# From -- ./inp_files/351940.got.cif
#   From: 2010.05.17/outbox.cif.g08.bks.cpg/sg12_176_cif.got.tgz:351940.got - 2010.06.03 13:09:07.
