data_PCOD9171164
_publ_section_title
;
Structure prediction by ZEFSAII (Michael W. Deem and Ramdas Pophale) SiO2 
 PCOD9171164
Probable space group: C 2/M
;
_chemical_formula_sum "Si O2"
_cell_formula_units_Z 64
_cell_length_a 30.489727
_cell_length_b 7.821286
_cell_length_c 14.665474
_cell_angle_alpha 90.000000
_cell_angle_beta 91.087313
_cell_angle_gamma 90.000000
_cell_volume 3496.629363
_symmetry_space_group_name_H-M "C 2/M"
_symmetry_group_IT_number 12
_symmetry_cell_setting 'monoclinic'
loop_
_space_group_symop_operation_xyz
x,y,z
-x,y,-z
-x,-y,-z
x,-y,z
1/2+x,1/2+y,z
1/2-x,1/2+y,-z
1/2-x,1/2-y,-z
1/2+x,1/2-y,z
loop_
_atom_site_type_symbol
_atom_site_label
_atom_site_fract_x
_atom_site_fract_y
_atom_site_fract_z
Si Si1 0.548669 0.294256 0.981037
Si Si2 0.831910 0.703985 0.322489
Si Si3 0.692820 0.698011 0.967151
Si Si4 0.387109 0.796724 0.163347
Si Si5 0.199077 0.202139 0.483542
Si Si6 0.665907 0.303615 0.292792
Si Si7 0.250890 0.701275 0.192438
Si Si8 0.628448 0.289045 0.112775
O O1 0.547859 0.500000 0.986819
O O2 0.567147 0.248084 0.881913
O O3 0.500000 0.229700 0.000000
O O4 0.585218 0.235206 0.055943
O O5 0.826332 0.500000 0.318622
O O6 0.875817 0.748349 0.267302
O O7 0.827891 0.756713 0.426692
O O8 0.791601 0.782517 0.264060
O O9 0.703243 0.500000 0.982807
O O10 0.650294 0.706364 0.898643
O O11 0.731749 0.769976 0.905070
O O12 0.671497 0.772932 0.057931
O O13 0.380451 0.000000 0.153115
O O14 0.250000 0.250000 0.500000
O O15 0.177440 0.277874 0.390710
O O16 0.199790 0.000000 0.470510
O O17 0.652327 0.500000 0.307851
O O18 0.711321 0.299595 0.237834
O O19 0.631987 0.230169 0.217294
O O20 0.240460 0.500000 0.184040
O O21 0.629798 0.500000 0.111426
#
# Coordination Sequence:
#
# PCOD9171164 Si02
#       8
#     8   8   8   8   8   8   8   8
#     4   9  17  31  53  77  98 121 147 176 218 277
#     4  10  19  31  46  64  89 121 158 198 238 273
#     4   8  15  28  44  61  85 119 155 186 220 264
#     4   9  17  28  45  70  96 120 147 185 230 273
#     4  11  21  31  45  64  87 120 163 205 240 270
#     4  10  20  31  43  60  86 121 156 190 231 273
#     4  10  18  27  42  63  86 117 156 195 229 263
#     4   8  15  30  47  63  89 120 148 181 221 271
#
# _framework density 18.303341
#
# number of rings (size 3 to 8) (size 9 to 14) (size 15 to 20)
#    0.000    2.625    1.250    2.250    0.000    3.250 
#    0.000    2.500    0.000    0.000    0.000    0.875 
#    0.000    7.000    0.000    0.000    0.000    0.000 
#
# Total GULP energy -178333.162137 kJ/mol
# GULP energy per Si atom -5572.911317 kJ/mol
# Density = 1.826168 g / cm^3
# Si number density = 18.303341 Si / 1000 Ang^3
#
#
#
# Elastic Constant Matrix: (Units=GPa)
#
#
# Indices 1 2 3 4 5 6 
#
# 1 87.0051 2.2028 46.2069 0.0000 -8.5009 0.0000
# 2 2.2028 36.6080 5.3990 0.0000 3.6665 0.0000
# 3 46.2069 5.3990 160.0644 0.0000 -12.1537 0.0000
# 4 0.0000 0.0000 0.0000 14.6165 0.0000 -5.3924
# 5 -8.5009 3.6665 -12.1537 0.0000 16.9241 0.0000
# 6 0.0000 0.0000 0.0000 -5.3924 0.0000 12.1738
#
#
#
# Elastic Compliance Matrix: (Units=1/GPa)
#
#
# Indices 1 2 3 4 5 6 
#
# 1 0.013888 -0.000752 -0.003640 0.000000 0.004525 0.000000
# 2 -0.000752 0.028299 -0.001303 0.000000 -0.007444 0.000000
# 3 -0.003640 -0.001303 0.007642 0.000000 0.003941 0.000000
# 4 0.000000 0.000000 0.000000 0.081780 0.000000 0.036224
# 5 0.004525 -0.007444 0.003941 0.000000 0.065803 0.000000
# 6 0.000000 0.000000 0.000000 0.036224 0.000000 0.098189
#
#
# Mechanical properties :
#
#
# Convention : Reuss Voigt Hill
#
# Bulk Modulus (GPa) = 26.01515 43.47719 34.74617
# Shear Modulus (GPa) = 15.63458 24.06747 19.85103
#
# Velocity S-wave (km/s) = 2.92583 3.63012 3.29683
# Velocity P-wave (km/s) = 5.06539 6.43239 5.78938
#
# Compressibility (1/GPa) = 0.03843914
#
# Stress axis : x y z
#
# Youngs Moduli (GPa) = 72.00490 35.33644 130.86371
#
# Poissons Ratio (x) = 0.02657 0.47637
# Poissons Ratio (y) = 0.05415 0.17048
# Poissons Ratio (z) = 0.26211 0.04603
#
# Static dielectric constant tensor:
#      x y z
#    x 1.632140 0.000000 0.003980 
#    y 0.000000 1.666170 0.000000 
#    z 0.003980 0.000000 1.696460 
# 
# From -- ./inp_files/248471.got.cif
#   From: 2010.05.17/outbox.cif.g08.bks.cpg/sg12_125_cif.got.tgz:248471.got - 2010.06.03 13:09:07.
