data_PCOD9171313
_publ_section_title
;
Structure prediction by ZEFSAII (Michael W. Deem and Ramdas Pophale) SiO2 
 PCOD9171313
Probable space group: C 2/M
;
_chemical_formula_sum "Si O2"
_cell_formula_units_Z 40
_cell_length_a 21.127505
_cell_length_b 7.700863
_cell_length_c 15.029988
_cell_angle_alpha 90.000000
_cell_angle_beta 59.847167
_cell_angle_gamma 90.000000
_cell_volume 2114.491677
_symmetry_space_group_name_H-M "C 2/M"
_symmetry_group_IT_number 12
_symmetry_cell_setting 'monoclinic'
loop_
_space_group_symop_operation_xyz
x,y,z
-x,y,-z
-x,-y,-z
x,-y,z
1/2+x,1/2+y,z
1/2-x,1/2+y,-z
1/2-x,1/2-y,-z
1/2+x,1/2-y,z
loop_
_atom_site_type_symbol
_atom_site_label
_atom_site_fract_x
_atom_site_fract_y
_atom_site_fract_z
Si Si1 0.900824 0.293161 0.783450
Si Si2 0.700618 0.709253 0.450479
Si Si3 0.965558 0.790904 0.431263
Si Si4 0.241801 0.204678 0.229335
Si Si5 0.177510 0.708468 0.993875
O O1 0.890220 0.500000 0.790823
O O2 0.837046 0.219995 0.764159
O O3 0.979337 0.253929 0.686881
O O4 0.886633 0.229817 0.894750
O O5 0.696605 0.500000 0.445280
O O6 0.750000 0.750000 0.500000
O O7 0.617280 0.773045 0.520572
O O8 0.733758 0.777655 0.333992
O O9 0.000000 0.726863 0.500000
O O10 0.963124 0.000000 0.438248
O O11 0.302833 0.278068 0.118095
O O12 0.257486 0.000000 0.227281
O O13 0.170432 0.500000 0.990505
O O14 0.250000 0.750000 0.000000
#
# Coordination Sequence:
#
# PCOD9171313 Si02
#       5
#     8   8   8   8   8
#     4  10  18  27  45  77 104 122 154 206 250 277
#     4  10  21  35  52  72  96 129 166 202 241 289
#     4  10  19  34  52  70  96 132 168 196 237 298
#     4   9  16  31  50  67  95 135 166 192 236 296
#     4   8  15  26  43  68  97 125 157 195 239 287
#
# _framework density 18.917076000000002
#
# number of rings (size 3 to 8) (size 9 to 14) (size 15 to 20)
#    0.000    2.600    2.000    0.600    0.000    2.800 
#    0.000    0.000    0.000    1.200    0.000    8.400 
#    0.000    0.000    0.000    0.000    0.000    0.000 
#
# Total GULP energy -111410.703597 kJ/mol
# GULP energy per Si atom -5570.535180 kJ/mol
# Density = 1.887402 g / cm^3
# Si number density = 18.917076 Si / 1000 Ang^3
#
#
#
# Elastic Constant Matrix: (Units=GPa)
#
#
# Indices 1 2 3 4 5 6 
#
# 1 81.0998 -3.5683 82.7867 0.0000 1.4683 -0.0001
# 2 -3.5683 29.5583 4.2428 0.0000 0.1241 -0.0001
# 3 82.7867 4.2428 252.9457 0.0000 -1.8239 0.0000
# 4 0.0000 0.0000 0.0000 14.6382 0.0000 -0.1818
# 5 1.4683 0.1241 -1.8239 0.0000 20.2467 0.0000
# 6 -0.0001 -0.0001 0.0000 -0.1818 0.0000 17.8105
#
#
#
# Elastic Compliance Matrix: (Units=1/GPa)
#
#
# Indices 1 2 3 4 5 6 
#
# 1 0.018884 0.003185 -0.006248 0.000000 -0.001952 0.000000
# 2 0.003185 0.034452 -0.001624 0.000000 -0.000589 0.000000
# 3 -0.006248 -0.001624 0.006033 0.000000 0.001007 0.000000
# 4 0.000000 0.000000 0.000000 0.068323 0.000000 0.000697
# 5 -0.001952 -0.000589 0.001007 0.000000 0.049627 0.000000
# 6 0.000000 0.000000 0.000000 0.000697 0.000000 0.056154
#
#
# Mechanical properties :
#
#
# Convention : Reuss Voigt Hill
#
# Bulk Modulus (GPa) = 20.00288 58.94733 39.47511
# Shear Modulus (GPa) = 19.26696 29.21525 24.24111
#
# Velocity S-wave (km/s) = 3.19485 3.93413 3.58360
# Velocity P-wave (km/s) = 4.92000 7.20174 6.16731
#
# Compressibility (1/GPa) = 0.04999280
#
# Stress axis : x y z
#
# Youngs Moduli (GPa) = 52.95506 29.02631 165.75946
#
# Poissons Ratio (x) = -0.09244 1.03567
# Poissons Ratio (y) = -0.16865 0.26927
# Poissons Ratio (z) = 0.33086 0.04715
#
# Static dielectric constant tensor:
#      x y z
#    x 1.596360 0.000000 -0.004520 
#    y 0.000000 1.568050 0.000000 
#    z -0.004520 0.000000 1.739040 
# 
# From -- ./inp_files/162746.got.cif
#   From: 2010.05.17/outbox.cif.g08.bks.cpg/sg12_82_cif.got.tgz:162746.got - 2010.06.03 13:09:07.
