data_PCOD9171202
_publ_section_title
;
Structure prediction by ZEFSAII (Michael W. Deem and Ramdas Pophale) SiO2 
 PCOD9171202
Probable space group: C 2/M
;
_chemical_formula_sum "Si O2"
_cell_formula_units_Z 64
_cell_length_a 26.053503
_cell_length_b 7.424923
_cell_length_c 15.382897
_cell_angle_alpha 90.000000
_cell_angle_beta 104.195083
_cell_angle_gamma 90.000000
_cell_volume 2884.888095
_symmetry_space_group_name_H-M "C 2/M"
_symmetry_group_IT_number 12
_symmetry_cell_setting 'monoclinic'
loop_
_space_group_symop_operation_xyz
x,y,z
-x,y,-z
-x,-y,-z
x,-y,z
1/2+x,1/2+y,z
1/2-x,1/2+y,-z
1/2-x,1/2-y,-z
1/2+x,1/2-y,z
loop_
_atom_site_type_symbol
_atom_site_label
_atom_site_fract_x
_atom_site_fract_y
_atom_site_fract_z
Si Si1 0.051803 0.779744 0.965191
Si Si2 0.755164 0.204348 0.741411
Si Si3 0.684665 0.218377 0.409787
Si Si4 0.167437 0.282123 0.590297
Si Si5 0.960471 0.201094 0.233681
Si Si6 0.548151 0.287048 0.579557
Si Si7 0.421851 0.792456 0.717034
Si Si8 0.859351 0.218307 0.867020
O O1 0.051153 0.715628 0.865376
O O2 0.049194 0.000000 0.962303
O O3 0.106173 0.727757 0.035707
O O4 0.000000 0.723189 0.000000
O O5 0.784911 0.201756 0.659844
O O6 0.699061 0.285619 0.688524
O O7 0.799251 0.284003 0.824684
O O8 0.745215 0.000000 0.766830
O O9 0.695629 0.278934 0.512451
O O10 0.623115 0.266257 0.368199
O O11 0.688828 0.000000 0.405143
O O12 0.170713 0.500000 0.592037
O O13 0.106051 0.234045 0.563210
O O14 0.947234 0.289262 0.320534
O O15 0.024007 0.188370 0.262223
O O16 0.936432 0.000000 0.222611
O O17 0.500000 0.215314 0.500000
O O18 0.536973 0.500000 0.586073
O O19 0.394303 0.776667 0.799219
O O20 0.434699 0.000000 0.704763
O O21 0.857044 0.000000 0.864550
#
# Coordination Sequence:
#
# PCOD9171202 Si02
#       8
#     8   8   8   8   8   8   8   8
#     4   9  15  26  48  73  94 122 158 192 235 286
#     4   9  18  30  48  73  96 123 159 198 237 280
#     4   9  18  30  45  68  98 129 158 191 233 286
#     4  10  20  34  50  69  95 126 162 198 237 285
#     4  10  19  32  49  68  93 125 162 199 233 281
#     4  10  22  37  52  72  95 123 163 204 239 274
#     4  10  18  27  42  68  99 127 155 187 232 284
#     4   9  16  29  47  68  96 126 155 189 233 281
#
# _framework density 22.184570000000001
#
# number of rings (size 3 to 8) (size 9 to 14) (size 15 to 20)
#    0.000    2.500    1.250    1.500    0.000    2.250 
#    0.000    1.250    0.000    0.750    0.000    0.000 
#    0.000    0.000    0.000    0.000    0.000    0.000 
#
# Total GULP energy -178469.877102 kJ/mol
# GULP energy per Si atom -5577.183659 kJ/mol
# Density = 2.213408 g / cm^3
# Si number density = 22.184570 Si / 1000 Ang^3
#
#
#
# Elastic Constant Matrix: (Units=GPa)
#
#
# Indices 1 2 3 4 5 6 
#
# 1 79.9343 -5.3064 37.8238 0.0000 22.9561 0.0000
# 2 -5.3064 70.6638 5.3212 0.0000 5.9517 0.0000
# 3 37.8238 5.3212 142.0076 0.0000 16.4013 0.0000
# 4 0.0000 0.0000 0.0000 -0.1785 0.0000 8.2988
# 5 22.9561 5.9517 16.4013 0.0000 37.8803 0.0000
# 6 0.0000 0.0000 0.0000 8.2988 0.0000 25.8004
#
#
#
# Elastic Compliance Matrix: (Units=1/GPa)
#
#
# Indices 1 2 3 4 5 6 
#
# 1 0.016958 0.002307 -0.003552 0.000000 -0.009101 0.000000
# 2 0.002307 0.014667 -0.000775 0.000000 -0.003367 0.000000
# 3 -0.003552 -0.000775 0.008163 0.000000 -0.001260 0.000000
# 4 0.000000 0.000000 0.000000 -0.351142 0.000000 0.112947
# 5 -0.009101 -0.003367 -0.001260 0.000000 0.032989 0.000000
# 6 0.000000 0.000000 0.000000 0.112947 0.000000 0.002429
#
#
# Mechanical properties :
#
#
# Convention : Reuss Voigt Hill
#
# Bulk Modulus (GPa) = 27.97389 40.92032 34.44710
# Shear Modulus (GPa) = -19.23219 29.68491 5.22636
#
# Velocity S-wave (km/s) = -2.94754 3.66196 1.53654
# Velocity P-wave (km/s) = 1.02616 6.03037 4.32541
#
# Compressibility (1/GPa) = 0.03574762
#
# Stress axis : x y z
#
# Youngs Moduli (GPa) = 58.96904 68.18128 122.51122
#
# Poissons Ratio (x) = -0.15733 0.43517
# Poissons Ratio (y) = -0.13607 0.09498
# Poissons Ratio (z) = 0.20946 0.05286
#
# Static dielectric constant tensor:
#      x y z
#    x 1.815440 0.000000 0.044760 
#    y 0.000000 1.875790 0.000000 
#    z 0.044760 0.000000 1.849880 
# 
# From -- ./inp_files/244124.got.cif
#   From: 2010.05.17/outbox.cif.g08.bks.cpg/sg12_123_cif.got.tgz:244124.got - 2010.06.03 13:09:07.
