data_PCOD9171549
_publ_section_title
;
Structure prediction by ZEFSAII (Michael W. Deem and Ramdas Pophale) SiO2 
 PCOD9171549
Probable space group: C 2/M
;
_chemical_formula_sum "Si O2"
_cell_formula_units_Z 56
_cell_length_a 20.620664
_cell_length_b 7.549356
_cell_length_c 17.391177
_cell_angle_alpha 90.000000
_cell_angle_beta 89.126228
_cell_angle_gamma 90.000000
_cell_volume 2707.017248
_symmetry_space_group_name_H-M "C 2/M"
_symmetry_group_IT_number 12
_symmetry_cell_setting 'monoclinic'
loop_
_space_group_symop_operation_xyz
x,y,z
-x,y,-z
-x,-y,-z
x,-y,z
1/2+x,1/2+y,z
1/2-x,1/2+y,-z
1/2-x,1/2-y,-z
1/2+x,1/2-y,z
loop_
_atom_site_type_symbol
_atom_site_label
_atom_site_fract_x
_atom_site_fract_y
_atom_site_fract_z
Si Si1 0.410693 0.705081 0.342262
Si Si2 0.924546 0.785848 0.506808
Si Si3 0.139897 0.705267 0.180022
Si Si4 0.389873 0.282788 0.176045
Si Si5 0.263619 0.286999 0.088928
Si Si6 0.981854 0.785492 0.914310
Si Si7 0.938582 0.292356 0.673832
O O1 0.390693 0.500000 0.344767
O O2 0.394272 0.779887 0.427055
O O3 0.382407 0.780732 0.263902
O O4 0.489465 0.709224 0.332246
O O5 0.903796 0.727176 0.591777
O O6 0.000000 0.730752 0.500000
O O7 0.922638 0.000000 0.506109
O O8 0.153657 0.500000 0.198846
O O9 0.205666 0.782821 0.144099
O O10 0.105064 0.782383 0.256303
O O11 0.085976 0.713968 0.114442
O O12 0.390142 0.500000 0.177031
O O13 0.332700 0.225222 0.120300
O O14 0.459920 0.229545 0.142672
O O15 0.263767 0.500000 0.095474
O O16 0.250000 0.250000 0.000000
O O17 0.977609 0.000000 0.913018
O O18 0.000000 0.731868 0.000000
O O19 0.950042 0.500000 0.688232
#
# Coordination Sequence:
#
# PCOD9171549 Si02
#       7
#     8   8   8   8   8   8   8
#     4   9  16  29  48  71  96 125 162 203 245 284
#     4   8  15  26  43  68  97 126 159 199 241 284
#     4  10  21  34  49  72 102 133 161 196 245 301
#     4   9  17  31  52  73  95 126 165 207 244 284
#     4  10  21  38  55  72  97 130 169 206 244 293
#     4  10  19  31  51  76  96 120 161 209 250 288
#     4  10  18  28  44  70 101 131 161 191 238 296
#
# _framework density 20.686975
#
# number of rings (size 3 to 8) (size 9 to 14) (size 15 to 20)
#    0.000    2.571    1.429    2.143    0.000    5.143 
#    0.000    1.429    0.000    0.857    0.000    0.000 
#    0.000    0.000    0.000    0.000    0.000    1.429 
#
# Total GULP energy -156142.626575 kJ/mol
# GULP energy per Si atom -5576.522378 kJ/mol
# Density = 2.063989 g / cm^3
# Si number density = 20.686975 Si / 1000 Ang^3
#
#
#
# Elastic Constant Matrix: (Units=GPa)
#
#
# Indices 1 2 3 4 5 6 
#
# 1 42.8796 -7.4780 -13.3920 0.0000 4.6756 0.0000
# 2 -7.4780 48.3774 -6.9082 0.0000 0.6364 0.0000
# 3 -13.3920 -6.9082 99.6600 0.0000 15.7008 0.0000
# 4 0.0000 0.0000 0.0000 14.0005 0.0000 1.0209
# 5 4.6756 0.6364 15.7008 0.0000 29.5951 0.0000
# 6 0.0000 0.0000 0.0000 1.0209 0.0000 8.1567
#
#
#
# Elastic Compliance Matrix: (Units=1/GPa)
#
#
# Indices 1 2 3 4 5 6 
#
# 1 0.026491 0.004899 0.004993 0.000000 -0.006939 0.000000
# 2 0.004899 0.021831 0.002583 0.000000 -0.002614 0.000000
# 3 0.004993 0.002583 0.012022 0.000000 -0.007222 0.000000
# 4 0.000000 0.000000 0.000000 0.072084 0.000000 -0.009022
# 5 -0.006939 -0.002614 -0.007222 0.000000 0.038773 0.000000
# 6 0.000000 0.000000 0.000000 -0.009022 0.000000 0.123729
#
#
# Mechanical properties :
#
#
# Convention : Reuss Voigt Hill
#
# Bulk Modulus (GPa) = 11.72395 15.04007 13.38201
# Shear Modulus (GPa) = 16.75536 24.93013 20.84275
#
# Velocity S-wave (km/s) = 2.84905 3.47524 3.17760
# Velocity P-wave (km/s) = 4.06231 4.83623 4.46607
#
# Compressibility (1/GPa) = 0.08529546
#
# Stress axis : x y z
#
# Youngs Moduli (GPa) = 37.74798 45.80559 83.18148
#
# Poissons Ratio (x) = -0.22441 -0.41530
# Poissons Ratio (y) = -0.18493 -0.21490
# Poissons Ratio (z) = -0.18846 -0.11834
#
# Static dielectric constant tensor:
#      x y z
#    x 1.698120 0.000000 0.000330 
#    y 0.000000 1.823290 0.000000 
#    z 0.000330 0.000000 1.791180 
# 
# From -- ./inp_files/280242.got.cif
#   From: 2010.05.17/outbox.cif.g08.bks.cpg/sg12_141_cif.got.tgz:280242.got - 2010.06.03 13:09:07.
