data_PCOD9171879
_publ_section_title
;
Structure prediction by ZEFSAII (Michael W. Deem and Ramdas Pophale) SiO2 
 PCOD9171879
Probable space group: C 2/M
;
_chemical_formula_sum "Si O2"
_cell_formula_units_Z 52
_cell_length_a 20.622654
_cell_length_b 20.120784
_cell_length_c 13.668591
_cell_angle_alpha 90.000000
_cell_angle_beta 144.623363
_cell_angle_gamma 90.000000
_cell_volume 3283.623240
_symmetry_space_group_name_H-M "C 2/M"
_symmetry_group_IT_number 12
_symmetry_cell_setting 'monoclinic'
loop_
_space_group_symop_operation_xyz
x,y,z
-x,y,-z
-x,-y,-z
x,-y,z
1/2+x,1/2+y,z
1/2-x,1/2+y,-z
1/2-x,1/2-y,-z
1/2+x,1/2-y,z
loop_
_atom_site_type_symbol
_atom_site_label
_atom_site_fract_x
_atom_site_fract_y
_atom_site_fract_z
Si Si1 0.717289 0.144727 0.370905
Si Si2 0.305894 0.131208 0.886654
Si Si3 0.458664 0.635787 0.735922
Si Si4 0.581121 0.500000 0.195030
Si Si5 0.421275 0.420853 0.307345
Si Si6 0.545165 0.000000 0.943008
Si Si7 0.502333 0.771476 0.884699
Si Si8 0.313010 0.000000 0.576367
O O1 0.724751 0.148432 0.263127
O O2 0.835138 0.164221 0.561300
O O3 0.611478 0.187011 0.278971
O O4 0.707493 0.066987 0.387241
O O5 0.195423 0.115076 0.811620
O O6 0.379906 0.064809 0.974785
O O7 0.390760 0.188491 0.023892
O O8 0.449236 0.567860 0.785757
O O9 0.519047 0.614598 0.710186
O O10 0.512603 0.696446 0.860479
O O11 0.720423 0.500000 0.374030
O O12 0.500000 0.500000 0.000000
O O13 0.500000 0.416575 0.500000
O O14 0.404628 0.500000 0.267158
O O15 0.448491 0.000000 0.740664
O O16 0.500000 0.000000 0.000000
O O17 0.500000 0.771920 0.000000
#
# Coordination Sequence:
#
# PCOD9171879 Si02
#       8
#     8   8   8   4   8   4   8   4
#     4  10  18  31  51  83 111 139 168 222 275 331
#     4  11  19  31  52  80 114 144 171 219 276 327
#     4  11  21  36  54  76 106 146 185 219 268 327
#     4  10  22  37  55  77 106 142 191 231 265 309
#     4  11  22  34  54  82 111 144 179 221 269 334
#     4  12  16  27  52  84 119 136 170 218 281 335
#     4  10  21  34  52  78 109 141 181 224 276 316
#     4  10  18  28  53  84 110 140 171 213 281 330
#
# _framework density 15.836164999999999
#
# number of rings (size 3 to 8) (size 9 to 14) (size 15 to 20)
#    0.000    1.385    6.154    1.385    0.000    0.615 
#    0.000    0.000    0.000    0.000    0.000    2.154 
#    0.000    0.000    0.000    0.000    0.000    0.000 
#
# Total GULP energy -144761.819782 kJ/mol
# GULP energy per Si atom -5567.762299 kJ/mol
# Density = 1.580012 g / cm^3
# Si number density = 15.836165 Si / 1000 Ang^3
#
#
#
# Elastic Constant Matrix: (Units=GPa)
#
#
# Indices 1 2 3 4 5 6 
#
# 1 65.3542 31.6864 39.6834 0.0000 13.4233 0.0000
# 2 31.6864 108.5144 33.9862 0.0000 9.9052 0.0000
# 3 39.6834 33.9862 94.3678 0.0000 11.9234 0.0000
# 4 0.0000 0.0000 0.0000 23.3519 0.0000 -3.2647
# 5 13.4233 9.9052 11.9234 0.0000 19.3817 0.0000
# 6 0.0000 0.0000 0.0000 -3.2647 0.0000 15.7565
#
#
#
# Elastic Compliance Matrix: (Units=1/GPa)
#
#
# Indices 1 2 3 4 5 6 
#
# 1 0.023581 -0.003681 -0.007335 0.000000 -0.009938 0.000000
# 2 -0.003681 0.011155 -0.002246 0.000000 -0.001770 0.000000
# 3 -0.007335 -0.002246 0.014858 0.000000 -0.002913 0.000000
# 4 0.000000 0.000000 0.000000 0.044100 0.000000 0.009137
# 5 -0.009938 -0.001770 -0.002913 0.000000 0.061175 0.000000
# 6 0.000000 0.000000 0.000000 0.009137 0.000000 0.065359
#
#
# Mechanical properties :
#
#
# Convention : Reuss Voigt Hill
#
# Bulk Modulus (GPa) = 43.34536 53.21647 48.28092
# Shear Modulus (GPa) = 19.65082 22.55672 21.10377
#
# Velocity S-wave (km/s) = 3.52644 3.77819 3.65448
# Velocity P-wave (km/s) = 6.63412 7.26019 6.95420
#
# Compressibility (1/GPa) = 0.02307052
#
# Stress axis : x y z
#
# Youngs Moduli (GPa) = 42.40701 89.64384 67.30333
#
# Poissons Ratio (x) = 0.33001 0.49365
# Poissons Ratio (y) = 0.15611 0.15115
# Poissons Ratio (z) = 0.31104 0.20133
#
# Static dielectric constant tensor:
#      x y z
#    x 1.502570 0.000000 0.024160 
#    y 0.000000 1.522990 0.000000 
#    z 0.024160 0.000000 1.574640 
# 
# From -- ./inp_files/147013.got.cif
#   From: 2010.05.17/outbox.cif.g08.bks.cpg/sg12_74_cif.got.tgz:147013.got - 2010.06.03 13:09:07.
