data_PCOD9171979
_publ_section_title
;
Structure prediction by ZEFSAII (Michael W. Deem and Ramdas Pophale) SiO2 
 PCOD9171979
Probable space group: C 2/M
;
_chemical_formula_sum "Si O2"
_cell_formula_units_Z 40
_cell_length_a 27.454827
_cell_length_b 13.713425
_cell_length_c 27.532118
_cell_angle_alpha 90.000000
_cell_angle_beta 164.608894
_cell_angle_gamma 90.000000
_cell_volume 2751.159412
_symmetry_space_group_name_H-M "C 2/M"
_symmetry_group_IT_number 12
_symmetry_cell_setting 'monoclinic'
loop_
_space_group_symop_operation_xyz
x,y,z
-x,y,-z
-x,-y,-z
x,-y,z
1/2+x,1/2+y,z
1/2-x,1/2+y,-z
1/2-x,1/2-y,-z
1/2+x,1/2-y,z
loop_
_atom_site_type_symbol
_atom_site_label
_atom_site_fract_x
_atom_site_fract_y
_atom_site_fract_z
Si Si1 0.328729 0.382471 0.691755
Si Si2 0.998100 0.618295 0.553381
Si Si3 0.757622 0.117602 0.887768
Si Si4 0.781240 0.115396 0.531441
Si Si5 0.431283 0.227000 0.205607
O O1 0.324324 0.500000 0.690891
O O2 0.172931 0.345858 0.578580
O O3 0.294238 0.361911 0.601961
O O4 0.532303 0.352384 0.902830
O O5 0.983968 0.500000 0.537516
O O6 0.000000 0.654266 0.500000
O O7 0.179077 0.639108 0.758941
O O8 0.636345 0.171906 0.811299
O O9 0.741997 0.000000 0.880492
O O10 0.582526 0.157012 0.325260
O O11 0.950236 0.175092 0.671105
O O12 0.795060 0.000000 0.537784
O O13 0.250000 0.250000 0.000000
#
# Coordination Sequence:
#
# PCOD9171979 Si02
#       5
#     8   8   8   8   8
#     4   9  16  27  43  60  85 120 152 182 218 261
#     4   9  17  28  42  60  85 120 157 189 220 259
#     4  10  18  29  45  65  93 124 153 185 223 265
#     4  10  20  32  45  65  93 124 156 189 226 270
#     4  11  20  29  47  69  88 122 161 189 222 274
#
# _framework density 14.539325
#
# number of rings (size 3 to 8) (size 9 to 14) (size 15 to 20)
#    0.000    2.200    4.000    0.600    0.000    1.600 
#    0.000    4.000    0.000    0.000    0.000    0.000 
#    0.000    0.800    0.000    3.800    0.000    0.200 
#
# Total GULP energy -111349.786523 kJ/mol
# GULP energy per Si atom -5567.489326 kJ/mol
# Density = 1.450623 g / cm^3
# Si number density = 14.539325 Si / 1000 Ang^3
#
#
#
# Elastic Constant Matrix: (Units=GPa)
#
#
# Indices 1 2 3 4 5 6 
#
# 1 39.7852 8.2219 24.1707 0.0000 -5.3816 0.0016
# 2 8.2219 54.6835 24.5397 -0.0049 -0.7170 -0.0011
# 3 24.1707 24.5397 114.6307 -0.0067 1.1342 -0.0025
# 4 0.0000 -0.0049 -0.0067 19.1502 -0.0054 4.5473
# 5 -5.3816 -0.7170 1.1342 -0.0054 19.0443 -0.0013
# 6 0.0016 -0.0011 -0.0025 4.5473 -0.0013 15.3613
#
#
#
# Elastic Compliance Matrix: (Units=1/GPa)
#
#
# Indices 1 2 3 4 5 6 
#
# 1 0.030419 -0.001703 -0.006138 0.000001 0.008897 -0.000004
# 2 -0.001703 0.020346 -0.004002 0.000004 0.000523 0.000000
# 3 -0.006138 -0.004002 0.010900 0.000002 -0.002534 0.000001
# 4 0.000001 0.000004 0.000002 0.056167 0.000015 -0.016627
# 5 0.008897 0.000523 -0.002534 0.000015 0.055194 -0.000001
# 6 -0.000004 0.000000 0.000001 -0.016627 -0.000001 0.070020
#
#
# Mechanical properties :
#
#
# Convention : Reuss Voigt Hill
#
# Bulk Modulus (GPa) = 26.32931 35.88487 31.10709
# Shear Modulus (GPa) = 17.89615 20.85564 19.37590
#
# Velocity S-wave (km/s) = 3.51219 3.79150 3.65451
# Velocity P-wave (km/s) = 5.88181 6.62586 6.26489
#
# Compressibility (1/GPa) = 0.03798048
#
# Stress axis : x y z
#
# Youngs Moduli (GPa) = 32.87402 49.15045 91.74676
#
# Poissons Ratio (x) = 0.08369 0.56311
# Poissons Ratio (y) = 0.05597 0.36714
# Poissons Ratio (z) = 0.20177 0.19668
#
# Static dielectric constant tensor:
#      x y z
#    x 1.479370 0.000000 0.003300 
#    y 0.000000 1.474720 -0.000010 
#    z 0.003300 -0.000010 1.522360 
# 
# From -- ./inp_files/349220.got.cif
#   From: 2010.05.17/outbox.cif.g08.bks.cpg/sg12_175_cif.got.tgz:349220.got - 2010.06.03 13:09:07.
