data_PCOD9171646
_publ_section_title
;
Structure prediction by ZEFSAII (Michael W. Deem and Ramdas Pophale) SiO2 
 PCOD9171646
Probable space group: C 2/M
;
_chemical_formula_sum "Si O2"
_cell_formula_units_Z 56
_cell_length_a 9.620202
_cell_length_b 21.236271
_cell_length_c 30.233205
_cell_angle_alpha 90.000000
_cell_angle_beta 30.915223
_cell_angle_gamma 90.000000
_cell_volume 3173.326192
_symmetry_space_group_name_H-M "C 2/M"
_symmetry_group_IT_number 12
_symmetry_cell_setting 'monoclinic'
loop_
_space_group_symop_operation_xyz
x,y,z
-x,y,-z
-x,-y,-z
x,-y,z
1/2+x,1/2+y,z
1/2-x,1/2+y,-z
1/2-x,1/2-y,-z
1/2+x,1/2-y,z
loop_
_atom_site_type_symbol
_atom_site_label
_atom_site_fract_x
_atom_site_fract_y
_atom_site_fract_z
Si Si1 0.958512 0.216437 0.411237
Si Si2 0.296026 0.825046 0.906847
Si Si3 0.253149 0.158381 0.691865
Si Si4 0.009111 0.349133 0.710379
Si Si5 0.625110 0.071602 0.764104
Si Si6 0.745645 0.391574 0.596263
Si Si7 0.262613 0.763277 0.161652
O O1 0.111665 0.272505 0.344994
O O2 0.183509 0.177001 0.376766
O O3 0.750000 0.250000 0.500000
O O4 0.817263 0.172447 0.413805
O O5 0.492031 0.879649 0.834866
O O6 0.445257 0.789571 0.905907
O O7 0.260257 0.773200 0.878041
O O8 0.000000 0.849492 0.000000
O O9 0.379951 0.126460 0.700351
O O10 0.312029 0.124744 0.629125
O O11 0.939527 0.176966 0.781327
O O12 0.835551 0.289172 0.775617
O O13 0.026650 0.401607 0.743642
O O14 0.953269 0.074896 0.675677
O O15 0.540480 0.000000 0.794572
O O16 0.000000 0.420703 0.500000
#
# Coordination Sequence:
#
# PCOD9171646 Si02
#       7
#     8   8   8   8   8   8   8
#     4  10  18  28  45  79 117 143 174 219 284 340
#     4  11  21  35  61  91 117 149 179 221 285 342
#     4  11  18  30  52  77 117 144 178 223 278 341
#     4   9  20  32  54  77 106 154 183 222 284 337
#     4  10  23  43  58  74 110 153 198 238 270 324
#     4  11  21  34  53  82 109 149 194 234 279 325
#     4  10  18  34  54  85 123 142 169 221 281 346
#
# _framework density 17.647099999999998
#
# number of rings (size 3 to 8) (size 9 to 14) (size 15 to 20)
#    0.000    1.714    4.286    3.000    0.000    0.571 
#    0.000    0.714    0.000    0.857    0.000    1.000 
#    0.000    0.000    0.000    0.000    0.000    0.000 
#
# Total GULP energy -156148.624572 kJ/mol
# GULP energy per Si atom -5576.736592 kJ/mol
# Density = 1.760693 g / cm^3
# Si number density = 17.647100 Si / 1000 Ang^3
#
#
#
# Elastic Constant Matrix: (Units=GPa)
#
#
# Indices 1 2 3 4 5 6 
#
# 1 97.2419 18.9513 14.5939 0.0071 -4.2423 -0.0405
# 2 18.9513 62.2256 12.8062 -0.0520 -5.3680 -0.0189
# 3 14.5939 12.8062 81.3314 -0.1074 -13.9492 0.0159
# 4 0.0071 -0.0520 -0.1074 3.9446 0.0184 -1.4915
# 5 -4.2423 -5.3680 -13.9492 0.0184 23.6098 0.0142
# 6 -0.0405 -0.0189 0.0159 -1.4915 0.0142 4.0917
#
#
#
# Elastic Compliance Matrix: (Units=1/GPa)
#
#
# Indices 1 2 3 4 5 6 
#
# 1 0.011113 -0.003050 -0.001436 -0.000074 0.000455 0.000073
# 2 -0.003050 0.017578 -0.001812 0.000227 0.002377 0.000133
# 3 -0.001436 -0.001812 0.014159 0.000335 0.007695 0.000018
# 4 -0.000074 0.000227 0.000335 0.294051 -0.000057 0.107187
# 5 0.000455 0.002377 0.007695 -0.000057 0.047524 -0.000200
# 6 0.000073 0.000133 0.000018 0.107187 -0.000200 0.283470
#
#
# Mechanical properties :
#
#
# Convention : Reuss Voigt Hill
#
# Bulk Modulus (GPa) = 33.05453 37.05576 35.05515
# Shear Modulus (GPa) = 7.24033 19.29239 13.26636
#
# Velocity S-wave (km/s) = 2.02775 3.30999 2.74480
# Velocity P-wave (km/s) = 4.92482 5.97092 5.47292
#
# Compressibility (1/GPa) = 0.03025304
#
# Stress axis : x y z
#
# Youngs Moduli (GPa) = 89.98119 56.89006 70.62835
#
# Poissons Ratio (x) = 0.17351 0.10142
# Poissons Ratio (y) = 0.27444 0.12801
# Poissons Ratio (z) = 0.12921 0.10311
#
# Static dielectric constant tensor:
#      x y z
#    x 1.619750 0.000000 -0.022110 
#    y 0.000000 1.571290 0.000000 
#    z -0.022110 0.000000 1.657580 
# 
# From -- ./inp_files/258006.got.cif
#   From: 2010.05.17/outbox.cif.g08.bks.cpg/sg12_130_cif.got.tgz:258006.got - 2010.06.03 13:09:07.
