data_PCOD9171056
_publ_section_title
;
Structure prediction by ZEFSAII (Michael W. Deem and Ramdas Pophale) SiO2 
 PCOD9171056
Probable space group: C 2/M
;
_chemical_formula_sum "Si O2"
_cell_formula_units_Z 36
_cell_length_a 7.605560
_cell_length_b 13.804494
_cell_length_c 13.738832
_cell_angle_alpha 90.000000
_cell_angle_beta 89.230183
_cell_angle_gamma 90.000000
_cell_volume 1442.322243
_symmetry_space_group_name_H-M "C 2/M"
_symmetry_group_IT_number 12
_symmetry_cell_setting 'monoclinic'
loop_
_space_group_symop_operation_xyz
x,y,z
-x,y,-z
-x,-y,-z
x,-y,z
1/2+x,1/2+y,z
1/2-x,1/2+y,-z
1/2-x,1/2-y,-z
1/2+x,1/2-y,z
loop_
_atom_site_type_symbol
_atom_site_label
_atom_site_fract_x
_atom_site_fract_y
_atom_site_fract_z
Si Si1 0.000000 0.835373 0.000000
Si Si2 0.616712 0.382496 0.641201
Si Si3 0.460808 0.114607 0.715382
Si Si4 0.360367 0.146728 0.081798
Si Si5 0.252873 0.382025 0.575104
O O1 0.888194 0.763009 0.070157
O O2 0.159748 0.883478 0.058795
O O3 0.604425 0.500000 0.644422
O O4 0.414981 0.352155 0.643005
O O5 0.698764 0.355887 0.535282
O O6 0.760170 0.349334 0.718270
O O7 0.569899 0.122879 0.812794
O O8 0.574568 0.154267 0.624454
O O9 0.444558 0.000000 0.696533
O O10 0.500000 0.108787 0.000000
O O11 0.244319 0.500000 0.573321
#
# Coordination Sequence:
#
# PCOD9171056 Si02
#       5
#     4   8   8   8   8
#     4   8  18  38  54  62  78 112 166 198 216 252
#     4   8  14  25  40  60  94 130 154 174 202 258
#     4  10  18  26  43  74 100 117 140 178 233 278
#     4   9  18  34  52  66  86 113 152 195 223 262
#     4   8  14  25  39  61  95 130 154 171 203 260
#
# _framework density 24.959748999999999
#
# number of rings (size 3 to 8) (size 9 to 14) (size 15 to 20)
#    0.667    2.667    0.000    2.000    0.000    4.889 
#    0.000    0.556    0.000    0.000    0.000    6.222 
#    0.000    0.000    0.000    0.000    0.000    0.000 
#
# Total GULP energy -100439.349412 kJ/mol
# GULP energy per Si atom -5579.963856 kJ/mol
# Density = 2.490294 g / cm^3
# Si number density = 24.959749 Si / 1000 Ang^3
#
#
#
# Elastic Constant Matrix: (Units=GPa)
#
#
# Indices 1 2 3 4 5 6 
#
# 1 156.5262 5.8418 47.1150 0.0000 53.9977 0.0000
# 2 5.8418 76.4600 -2.9242 0.0000 -1.0450 0.0000
# 3 47.1150 -2.9242 44.5148 0.0000 15.2136 0.0000
# 4 0.0000 0.0000 0.0000 21.1634 0.0000 -0.5755
# 5 53.9977 -1.0450 15.2136 0.0000 48.9783 0.0000
# 6 0.0000 0.0000 0.0000 -0.5755 0.0000 31.9014
#
#
#
# Elastic Compliance Matrix: (Units=1/GPa)
#
#
# Indices 1 2 3 4 5 6 
#
# 1 0.013736 -0.001617 -0.010581 0.000000 -0.011892 0.000000
# 2 -0.001617 0.013302 0.002102 0.000000 0.001413 0.000000
# 3 -0.010581 0.002102 0.033338 0.000000 0.001354 0.000000
# 4 0.000000 0.000000 0.000000 0.047275 0.000000 0.000853
# 5 -0.011892 0.001413 0.001354 0.000000 0.033137 0.000000
# 6 0.000000 0.000000 0.000000 0.000853 0.000000 0.031362
#
#
# Mechanical properties :
#
#
# Convention : Reuss Voigt Hill
#
# Bulk Modulus (GPa) = 24.88439 41.95178 33.41809
# Shear Modulus (GPa) = 24.30295 35.57319 29.93807
#
# Velocity S-wave (km/s) = 3.12378 3.77931 3.46707
# Velocity P-wave (km/s) = 4.79605 5.99070 5.42635
#
# Compressibility (1/GPa) = 0.04018583
#
# Stress axis : x y z
#
# Youngs Moduli (GPa) = 72.79995 75.17695 29.99558
#
# Poissons Ratio (x) = 0.12154 0.31737
# Poissons Ratio (y) = 0.11769 -0.06305
# Poissons Ratio (z) = 0.77026 -0.15802
#
# Static dielectric constant tensor:
#      x y z
#    x 2.007720 0.000000 0.065610 
#    y 0.000000 2.059380 0.000000 
#    z 0.065610 0.000000 1.928290 
# 
# From -- ./inp_files/119737.got.cif
#   From: 2010.05.17/outbox.cif.g08.bks.cpg/sg12_60_cif.got.tgz:119737.got - 2010.06.03 13:09:07.
