data_PCOD9171439
_publ_section_title
;
Structure prediction by ZEFSAII (Michael W. Deem and Ramdas Pophale) SiO2 
 PCOD9171439
Probable space group: C 2/M
;
_chemical_formula_sum "Si O2"
_cell_formula_units_Z 56
_cell_length_a 27.892994
_cell_length_b 7.592130
_cell_length_c 18.136893
_cell_angle_alpha 90.000000
_cell_angle_beta 124.925204
_cell_angle_gamma 90.000000
_cell_volume 3149.072119
_symmetry_space_group_name_H-M "C 2/M"
_symmetry_group_IT_number 12
_symmetry_cell_setting 'monoclinic'
loop_
_space_group_symop_operation_xyz
x,y,z
-x,y,-z
-x,-y,-z
x,-y,z
1/2+x,1/2+y,z
1/2-x,1/2+y,-z
1/2-x,1/2-y,-z
1/2+x,1/2-y,z
loop_
_atom_site_type_symbol
_atom_site_label
_atom_site_fract_x
_atom_site_fract_y
_atom_site_fract_z
Si Si1 0.267280 0.208446 0.896434
Si Si2 0.710459 0.208922 0.535161
Si Si3 0.044206 0.715695 0.722584
Si Si4 0.781551 0.792981 0.294747
Si Si5 0.342172 0.213637 0.096359
Si Si6 0.084956 0.702128 0.599731
Si Si7 0.577927 0.784330 0.430353
O O1 0.260669 0.275314 0.807130
O O2 0.205051 0.235402 0.882630
O O3 0.278581 0.000000 0.901621
O O4 0.315878 0.280400 0.995702
O O5 0.750000 0.250000 0.500000
O O6 0.736282 0.273202 0.635926
O O7 0.643405 0.275670 0.468205
O O8 0.706413 0.000000 0.538345
O O9 0.045920 0.500000 0.724900
O O10 0.093203 0.773777 0.823860
O O11 0.065142 0.777929 0.660028
O O12 0.976344 0.767860 0.668694
O O13 0.844777 0.704722 0.341931
O O14 0.791000 0.000000 0.289349
O O15 0.342383 0.000000 0.094789
O O16 0.064817 0.500000 0.583124
O O17 0.065509 0.776397 0.503667
O O18 0.578894 0.000000 0.432701
#
# Coordination Sequence:
#
# PCOD9171439 Si02
#       7
#     8   8   8   8   8   8   8
#     4   9  17  27  38  58  88 119 148 181 214 241
#     4  10  20  34  51  68  86 106 136 177 222 266
#     4   9  14  22  39  62  86 114 147 178 207 245
#     4  10  18  28  43  62  89 119 146 176 213 253
#     4   9  16  25  40  60  84 117 154 183 206 239
#     4   9  15  24  39  60  85 115 149 178 204 243
#     4   8  15  25  40  63  86 108 137 175 215 256
#
# _framework density 17.783016
#
# number of rings (size 3 to 8) (size 9 to 14) (size 15 to 20)
#    0.000    2.857    1.429    2.143    0.000    2.286 
#    0.000    0.000    0.000   12.000    0.000    1.000 
#    0.000    8.000    0.000    0.000    0.000    0.000 
#
# Total GULP energy -155969.781589 kJ/mol
# GULP energy per Si atom -5570.349342 kJ/mol
# Density = 1.774254 g / cm^3
# Si number density = 17.783016 Si / 1000 Ang^3
#
#
#
# Elastic Constant Matrix: (Units=GPa)
#
#
# Indices 1 2 3 4 5 6 
#
# 1 65.8368 -1.4425 70.0500 0.0000 -1.5259 0.0000
# 2 -1.4425 39.3565 1.1367 0.0000 1.5195 0.0000
# 3 70.0500 1.1367 180.3141 0.0000 15.4079 0.0000
# 4 0.0000 0.0000 0.0000 9.6206 0.0000 -2.1110
# 5 -1.5259 1.5195 15.4079 0.0000 23.1104 0.0000
# 6 0.0000 0.0000 0.0000 -2.1110 0.0000 8.7239
#
#
#
# Elastic Compliance Matrix: (Units=1/GPa)
#
#
# Indices 1 2 3 4 5 6 
#
# 1 0.027790 0.000987 -0.011615 0.000000 0.009514 0.000000
# 2 0.000987 0.025509 -0.000431 0.000000 -0.001325 0.000000
# 3 -0.011615 -0.000431 0.010736 0.000000 -0.007896 0.000000
# 4 0.000000 0.000000 0.000000 0.109772 0.000000 0.026562
# 5 0.009514 -0.001325 -0.007896 0.000000 0.049250 0.000000
# 6 0.000000 0.000000 0.000000 0.026562 0.000000 0.121055
#
#
# Mechanical properties :
#
#
# Convention : Reuss Voigt Hill
#
# Bulk Modulus (GPa) = 23.85779 47.22177 35.53978
# Shear Modulus (GPa) = 13.15092 22.67519 17.91306
#
# Velocity S-wave (km/s) = 2.72236 3.57473 3.17726
# Velocity P-wave (km/s) = 4.82979 6.60684 5.78693
#
# Compressibility (1/GPa) = 0.04191503
#
# Stress axis : x y z
#
# Youngs Moduli (GPa) = 35.98460 39.20261 93.14724
#
# Poissons Ratio (x) = -0.03868 1.08192
# Poissons Ratio (y) = -0.03550 0.04014
# Poissons Ratio (z) = 0.41797 0.01689
#
# Static dielectric constant tensor:
#      x y z
#    x 1.594450 0.000000 0.011770 
#    y 0.000000 1.570860 0.000000 
#    z 0.011770 0.000000 1.673000 
# 
# From -- ./inp_files/291661.got.cif
#   From: 2010.05.17/outbox.cif.g08.bks.cpg/sg12_146_cif.got.tgz:291661.got - 2010.06.03 13:09:07.
