data_PCOD9171433
_publ_section_title
;
Structure prediction by ZEFSAII (Michael W. Deem and Ramdas Pophale) SiO2 
 PCOD9171433
Probable space group: C 2/M
;
_chemical_formula_sum "Si O2"
_cell_formula_units_Z 64
_cell_length_a 32.931111
_cell_length_b 9.024960
_cell_length_c 31.116350
_cell_angle_alpha 90.000000
_cell_angle_beta 150.412417
_cell_angle_gamma 90.000000
_cell_volume 4566.152725
_symmetry_space_group_name_H-M "C 2/M"
_symmetry_group_IT_number 12
_symmetry_cell_setting 'monoclinic'
loop_
_space_group_symop_operation_xyz
x,y,z
-x,y,-z
-x,-y,-z
x,-y,z
1/2+x,1/2+y,z
1/2-x,1/2+y,-z
1/2-x,1/2-y,-z
1/2+x,1/2-y,z
loop_
_atom_site_type_symbol
_atom_site_label
_atom_site_fract_x
_atom_site_fract_y
_atom_site_fract_z
Si Si1 0.340471 0.177458 0.175387
Si Si2 0.547654 0.823494 0.805412
Si Si3 0.783989 0.821818 0.466648
Si Si4 0.079439 0.176787 0.667691
Si Si5 0.371881 0.676812 0.636671
Si Si6 0.204880 0.322298 0.999451
Si Si7 0.113921 0.177507 0.522998
Si Si8 0.599121 0.170394 0.597555
O O1 0.402326 0.212551 0.192479
O O2 0.378321 0.242866 0.253497
O O3 0.252583 0.251010 0.083230
O O4 0.332610 0.000000 0.170068
O O5 0.462191 0.738975 0.728147
O O6 0.532751 0.000000 0.791184
O O7 0.609085 0.790983 0.901761
O O8 0.696793 0.746396 0.395445
O O9 0.842463 0.783972 0.561056
O O10 0.827532 0.778092 0.462399
O O11 0.774126 0.000000 0.457537
O O12 0.114581 0.237027 0.654916
O O13 0.981244 0.209106 0.576912
O O14 0.089440 0.000000 0.679993
O O15 0.371211 0.500000 0.639700
O O16 0.215575 0.500000 0.008932
O O17 0.250000 0.250000 0.000000
O O18 0.133614 0.257477 0.585865
O O19 0.119618 0.000000 0.534216
O O20 0.500000 0.172365 0.500000
O O21 0.624774 0.000000 0.626159
#
# Coordination Sequence:
#
# PCOD9171433 Si02
#       8
#     8   8   8   8   8   8   8   8
#     4  10  19  29  42  62  86 112 142 174 209 248
#     4   9  18  30  43  59  82 112 141 171 209 249
#     4   9  18  31  43  58  83 111 140 176 214 248
#     4  10  18  28  43  62  85 112 142 174 207 248
#     4  10  19  29  43  62  82 108 143 178 210 245
#     4   9  17  29  43  60  82 109 140 172 208 248
#     4   9  17  29  44  60  80 111 146 175 209 251
#     4   9  17  28  41  59  83 109 138 173 210 247
#
# _framework density 14.016176
#
# number of rings (size 3 to 8) (size 9 to 14) (size 15 to 20)
#    0.000    2.625    0.000    3.375    0.000    7.000 
#    0.000    0.000    0.000    0.000    0.000    0.000 
#    0.000    1.000    0.000   10.500    0.000    5.000 
#
# Total GULP energy -178301.384312 kJ/mol
# GULP energy per Si atom -5571.918260 kJ/mol
# Density = 1.398427 g / cm^3
# Si number density = 14.016176 Si / 1000 Ang^3
#
#
#
# Elastic Constant Matrix: (Units=GPa)
#
#
# Indices 1 2 3 4 5 6 
#
# 1 104.3169 44.9884 51.0900 0.0000 -2.9427 0.0000
# 2 44.9884 55.5619 53.1106 0.0000 -2.0291 0.0000
# 3 51.0900 53.1106 101.4574 0.0000 -1.6696 0.0000
# 4 0.0000 0.0000 0.0000 25.1107 0.0000 -2.6444
# 5 -2.9427 -2.0291 -1.6696 0.0000 19.1873 0.0000
# 6 0.0000 0.0000 0.0000 -2.6444 0.0000 22.5637
#
#
#
# Elastic Compliance Matrix: (Units=1/GPa)
#
#
# Indices 1 2 3 4 5 6 
#
# 1 0.015036 -0.009838 -0.002404 0.000000 0.001056 0.000000
# 2 -0.009838 0.042551 -0.017296 0.000000 0.001486 0.000000
# 3 -0.002404 -0.017296 0.020114 0.000000 -0.000448 0.000000
# 4 0.000000 0.000000 0.000000 0.040321 0.000000 0.004726
# 5 0.001056 0.001486 -0.000448 0.000000 0.052398 0.000000
# 6 0.000000 0.000000 0.000000 0.004726 0.000000 0.044873
#
#
# Mechanical properties :
#
#
# Convention : Reuss Voigt Hill
#
# Bulk Modulus (GPa) = 53.69307 62.19048 57.94177
# Shear Modulus (GPa) = 17.82037 20.84881 19.33459
#
# Velocity S-wave (km/s) = 3.56956 3.86097 3.71812
# Velocity P-wave (km/s) = 7.44178 8.02141 7.73702
#
# Compressibility (1/GPa) = 0.01862438
#
# Stress axis : x y z
#
# Youngs Moduli (GPa) = 66.50546 23.50126 49.71739
#
# Poissons Ratio (x) = 0.23121 0.11954
# Poissons Ratio (y) = 0.65429 0.85991
# Poissons Ratio (z) = 0.15990 0.40647
#
# Static dielectric constant tensor:
#      x y z
#    x 1.445230 0.000000 -0.010440 
#    y 0.000000 1.464980 0.000000 
#    z -0.010440 0.000000 1.458110 
# 
# From -- ./inp_files/248498.got.cif
#   From: 2010.05.17/outbox.cif.g08.bks.cpg/sg12_125_cif.got.tgz:248498.got - 2010.06.03 13:09:07.
