data_PCOD9171575
_publ_section_title
;
Structure prediction by ZEFSAII (Michael W. Deem and Ramdas Pophale) SiO2 
 PCOD9171575
Probable space group: C 2/M
;
_chemical_formula_sum "Si O2"
_cell_formula_units_Z 56
_cell_length_a 32.469354
_cell_length_b 9.146083
_cell_length_c 13.630754
_cell_angle_alpha 90.000000
_cell_angle_beta 66.406251
_cell_angle_gamma 90.000000
_cell_volume 3709.512006
_symmetry_space_group_name_H-M "C 2/M"
_symmetry_group_IT_number 12
_symmetry_cell_setting 'monoclinic'
loop_
_space_group_symop_operation_xyz
x,y,z
-x,y,-z
-x,-y,-z
x,-y,z
1/2+x,1/2+y,z
1/2-x,1/2+y,-z
1/2-x,1/2-y,-z
1/2+x,1/2-y,z
loop_
_atom_site_type_symbol
_atom_site_label
_atom_site_fract_x
_atom_site_fract_y
_atom_site_fract_z
Si Si1 0.406574 0.826615 0.474844
Si Si2 0.229948 0.326545 0.868021
Si Si3 0.410656 0.173364 0.705372
Si Si4 0.232800 0.827058 0.666903
Si Si5 0.682741 0.326698 0.510737
Si Si6 0.501735 0.668118 0.617522
Si Si7 0.685225 0.174383 0.117176
O O1 0.403116 0.803023 0.596008
O O2 0.365094 0.745607 0.464022
O O3 0.454313 0.760236 0.396587
O O4 0.404879 0.000000 0.458957
O O5 0.233143 0.500000 0.849117
O O6 0.215658 0.245706 0.782808
O O7 0.278175 0.261910 0.854702
O O8 0.197221 0.300082 0.991852
O O9 0.454905 0.260602 0.694907
O O10 0.365241 0.214813 0.805111
O O11 0.418559 0.000000 0.711170
O O12 0.279657 0.750452 0.592469
O O13 0.199551 0.805705 0.606497
O O14 0.239983 0.000000 0.673172
O O15 0.681628 0.500000 0.491633
O O16 0.500000 0.670518 0.500000
O O17 0.505791 0.500000 0.644771
O O18 0.690757 0.000000 0.130961
#
# Coordination Sequence:
#
# PCOD9171575 Si02
#       7
#     8   8   8   8   8   8   8
#     4  10  18  28  45  67  92 121 148 178 220 267
#     4  10  19  30  46  67  91 120 153 188 223 263
#     4   9  17  29  44  63  89 119 149 180 218 264
#     4  10  20  33  47  64  90 121 150 185 226 265
#     4  10  20  32  47  67  89 116 152 188 222 264
#     4   9  17  28  42  62  89 118 148 182 217 257
#     4   9  18  31  46  66  92 121 152 186 225 266
#
# _framework density 15.096325
#
# number of rings (size 3 to 8) (size 9 to 14) (size 15 to 20)
#    0.000    2.429    0.000    3.000    0.000    6.286 
#    0.000    0.000    0.000    0.000    0.000    1.000 
#    0.000    8.000    0.000    0.000    0.000    0.000 
#
# Total GULP energy -156165.108489 kJ/mol
# GULP energy per Si atom -5577.325303 kJ/mol
# Density = 1.506197 g / cm^3
# Si number density = 15.096325 Si / 1000 Ang^3
#
#
#
# Elastic Constant Matrix: (Units=GPa)
#
#
# Indices 1 2 3 4 5 6 
#
# 1 109.8556 68.0567 41.5436 0.0000 -23.8703 0.0000
# 2 68.0567 92.9273 49.4810 0.0000 -6.5045 0.0000
# 3 41.5436 49.4810 66.4361 0.0000 -12.6943 0.0000
# 4 0.0000 0.0000 0.0000 22.2626 0.0000 -0.5060
# 5 -23.8703 -6.5045 -12.6943 0.0000 24.1722 0.0000
# 6 0.0000 0.0000 0.0000 -0.5060 0.0000 30.6588
#
#
#
# Elastic Compliance Matrix: (Units=1/GPa)
#
#
# Indices 1 2 3 4 5 6 
#
# 1 0.022474 -0.015855 0.001312 0.000000 0.018616 0.000000
# 2 -0.015855 0.029147 -0.014769 0.000000 -0.015570 0.000000
# 3 0.001312 -0.014769 0.027477 0.000000 0.011751 0.000000
# 4 0.000000 0.000000 0.000000 0.044935 0.000000 0.000742
# 5 0.018616 -0.015570 0.011751 0.000000 0.061735 0.000000
# 6 0.000000 0.000000 0.000000 0.000742 0.000000 0.032629
#
#
# Mechanical properties :
#
#
# Convention : Reuss Voigt Hill
#
# Bulk Modulus (GPa) = 48.84171 65.26462 57.05317
# Shear Modulus (GPa) = 17.61526 22.76122 20.18824
#
# Velocity S-wave (km/s) = 3.41964 3.88717 3.66087
# Velocity P-wave (km/s) = 6.92932 7.96698 7.46620
#
# Compressibility (1/GPa) = 0.02047430
#
# Stress axis : x y z
#
# Youngs Moduli (GPa) = 44.49624 34.30906 36.39444
#
# Poissons Ratio (x) = 0.54396 -0.04776
# Poissons Ratio (y) = 0.70548 0.53751
# Poissons Ratio (z) = -0.05839 0.50671
#
# Static dielectric constant tensor:
#      x y z
#    x 1.478060 0.000000 -0.000360 
#    y 0.000000 1.503250 0.000000 
#    z -0.000360 0.000000 1.493330 
# 
# From -- ./inp_files/186386.got.cif
#   From: 2010.05.17/outbox.cif.g08.bks.cpg/sg12_94_cif.got.tgz:186386.got - 2010.06.03 13:09:07.
