data_PCOD9171874
_publ_section_title
;
Structure prediction by ZEFSAII (Michael W. Deem and Ramdas Pophale) SiO2 
 PCOD9171874
Probable space group: C 2/M
;
_chemical_formula_sum "Si O2"
_cell_formula_units_Z 64
_cell_length_a 14.456279
_cell_length_b 23.537591
_cell_length_c 17.465306
_cell_angle_alpha 90.000000
_cell_angle_beta 148.426281
_cell_angle_gamma 90.000000
_cell_volume 3111.647310
_symmetry_space_group_name_H-M "C 2/M"
_symmetry_group_IT_number 12
_symmetry_cell_setting 'monoclinic'
loop_
_space_group_symop_operation_xyz
x,y,z
-x,y,-z
-x,-y,-z
x,-y,z
1/2+x,1/2+y,z
1/2-x,1/2+y,-z
1/2-x,1/2-y,-z
1/2+x,1/2-y,z
loop_
_atom_site_type_symbol
_atom_site_label
_atom_site_fract_x
_atom_site_fract_y
_atom_site_fract_z
Si Si1 0.566206 0.855958 0.822426
Si Si2 0.536585 0.654536 0.842101
Si Si3 0.126182 0.220141 0.153561
Si Si4 0.510955 0.213374 0.380586
Si Si5 0.867895 0.648018 0.843493
Si Si6 0.492980 0.346495 0.629106
Si Si7 0.310372 0.063101 0.574602
Si Si8 0.178008 0.609269 0.578269
O O1 0.521295 0.805585 0.730115
O O2 0.456412 0.853742 0.823480
O O3 0.499192 0.913052 0.733980
O O4 0.771335 0.857344 0.988798
O O5 0.473661 0.713211 0.837014
O O6 0.542361 0.653769 0.754457
O O7 0.373239 0.613789 0.752616
O O8 0.325704 0.198353 0.291706
O O9 0.150298 0.285455 0.148709
O O10 0.000000 0.193246 0.000000
O O11 0.551132 0.280127 0.420193
O O12 0.651558 0.170903 0.517010
O O13 0.664629 0.629964 0.705644
O O14 0.000000 0.621866 0.000000
O O15 0.332263 0.389216 0.501791
O O16 0.309162 0.065233 0.481961
O O17 0.273338 0.000000 0.576934
O O18 0.000000 0.598395 0.500000
#
# Coordination Sequence:
#
# PCOD9171874 Si02
#       8
#     8   8   8   8   8   8   8   8
#     4  11  22  37  60  87 123 164 199 252 303 360
#     4  11  20  33  57  88 125 168 198 238 298 362
#     4  10  18  28  51  87 130 170 189 228 289 373
#     4  10  20  35  55  93 132 163 197 234 299 366
#     4  10  20  34  55  88 126 157 202 244 296 357
#     4  10  22  39  60  88 123 164 207 250 295 361
#     4  10  25  47  65  83 115 160 211 265 311 354
#     4  10  21  38  63  97 126 160 194 244 300 376
#
# _framework density 20.567882999999998
#
# number of rings (size 3 to 8) (size 9 to 14) (size 15 to 20)
#    0.000    1.750    3.750    0.750    0.000    7.250 
#    0.000    3.750    0.000    1.500    0.000    0.000 
#    0.000    0.000    0.000    0.000    0.000    0.000 
#
# Total GULP energy -178495.219244 kJ/mol
# GULP energy per Si atom -5577.975601 kJ/mol
# Density = 2.052107 g / cm^3
# Si number density = 20.567883 Si / 1000 Ang^3
#
#
#
# Elastic Constant Matrix: (Units=GPa)
#
#
# Indices 1 2 3 4 5 6 
#
# 1 102.1749 7.3861 25.4263 0.0000 23.3758 0.0000
# 2 7.3861 78.2855 30.7079 0.0000 12.6899 0.0000
# 3 25.4263 30.7079 110.0920 0.0002 24.7937 0.0001
# 4 0.0000 0.0000 0.0002 0.9142 0.0001 -0.3978
# 5 23.3758 12.6899 24.7937 0.0001 34.5991 0.0001
# 6 0.0000 0.0000 0.0001 -0.3978 0.0001 8.2646
#
#
#
# Elastic Compliance Matrix: (Units=1/GPa)
#
#
# Indices 1 2 3 4 5 6 
#
# 1 0.011707 0.000550 -0.001229 0.000002 -0.007231 0.000000
# 2 0.000550 0.014609 -0.003472 0.000001 -0.003242 0.000000
# 3 -0.001229 -0.003472 0.011760 -0.000001 -0.006323 0.000000
# 4 0.000002 0.000001 -0.000001 1.117206 -0.000005 0.053773
# 5 -0.007231 -0.003242 -0.006323 -0.000005 0.039508 -0.000001
# 6 0.000000 0.000000 0.000000 0.053773 -0.000001 0.123587
#
#
# Mechanical properties :
#
#
# Convention : Reuss Voigt Hill
#
# Bulk Modulus (GPa) = 33.58616 46.39921 39.99269
# Shear Modulus (GPa) = 3.74083 23.89105 13.81594
#
# Velocity S-wave (km/s) = 1.35008 3.41188 2.59458
# Velocity P-wave (km/s) = 4.33534 6.17489 5.33500
#
# Compressibility (1/GPa) = 0.02977417
#
# Stress axis : x y z
#
# Youngs Moduli (GPa) = 85.41554 68.44999 85.03717
#
# Poissons Ratio (x) = -0.03761 0.10449
# Poissons Ratio (y) = -0.04694 0.29523
# Poissons Ratio (z) = 0.10495 0.23765
#
# Static dielectric constant tensor:
#      x y z
#    x 1.782560 0.000000 0.002440 
#    y 0.000000 1.733310 0.000000 
#    z 0.002440 0.000000 1.798750 
# 
# From -- ./inp_files/272886.got.cif
#   From: 2010.05.17/outbox.cif.g08.bks.cpg/sg12_137_cif.got.tgz:272886.got - 2010.06.03 13:09:07.
