data_PCOD9171283
_publ_section_title
;
Structure prediction by ZEFSAII (Michael W. Deem and Ramdas Pophale) SiO2 
 PCOD9171283
Probable space group: C 2/M
;
_chemical_formula_sum "Si O2"
_cell_formula_units_Z 64
_cell_length_a 13.048748
_cell_length_b 14.183531
_cell_length_c 16.582562
_cell_angle_alpha 90.000000
_cell_angle_beta 107.363697
_cell_angle_gamma 90.000000
_cell_volume 2929.198081
_symmetry_space_group_name_H-M "C 2/M"
_symmetry_group_IT_number 12
_symmetry_cell_setting 'monoclinic'
loop_
_space_group_symop_operation_xyz
x,y,z
-x,y,-z
-x,-y,-z
x,-y,z
1/2+x,1/2+y,z
1/2-x,1/2+y,-z
1/2-x,1/2-y,-z
1/2+x,1/2-y,z
loop_
_atom_site_type_symbol
_atom_site_label
_atom_site_fract_x
_atom_site_fract_y
_atom_site_fract_z
Si Si1 0.345663 0.632906 0.010853
Si Si2 0.123376 0.653198 0.025961
Si Si3 0.130613 0.391860 0.528730
Si Si4 0.162853 0.891058 0.174889
Si Si5 0.258576 0.115511 0.782320
Si Si6 0.123918 0.615796 0.704136
Si Si7 0.960644 0.894022 0.204439
Si Si8 0.878852 0.615518 0.649145
O O1 0.372398 0.744027 0.013402
O O2 0.371860 0.606017 0.926016
O O3 0.221266 0.606070 0.999532
O O4 0.410115 0.597512 0.102773
O O5 0.168231 0.655013 0.127860
O O6 0.000000 0.618619 0.000000
O O7 0.170334 0.500000 0.537908
O O8 0.159604 0.351891 0.622857
O O9 0.158039 0.349622 0.447975
O O10 0.000000 0.395276 0.500000
O O11 0.283301 0.854136 0.212713
O O12 0.074284 0.845824 0.212878
O O13 0.167666 0.000000 0.201746
O O14 0.135743 0.147603 0.766064
O O15 0.304943 0.140263 0.706645
O O16 0.261219 0.000000 0.791711
O O17 0.118130 0.500000 0.701636
O O18 0.002265 0.645717 0.692798
O O19 0.978126 0.000000 0.240825
O O20 0.879838 0.500000 0.644728
#
# Coordination Sequence:
#
# PCOD9171283 Si02
#       8
#     8   8   8   8   8   8   8   8
#     4  10  20  33  46  61  82 114 150 176 211 258
#     4  10  21  33  45  61  85 114 141 178 218 252
#     4   7  10  19  35  56  85 115 136 159 201 254
#     4  10  18  27  45  66  85 110 143 186 217 243
#     4   9  18  30  44  63  85 112 145 176 212 257
#     4   8  14  22  36  64  91 109 134 170 213 250
#     4   9  17  30  45  61  82 112 151 185 211 245
#     4   8  13  23  40  60  86 115 137 164 206 261
#
# _framework density 21.848983
#
# number of rings (size 3 to 8) (size 9 to 14) (size 15 to 20)
#    0.000    3.125    0.000    3.000    1.750    1.750 
#    0.000    0.000    0.000    0.750    0.000    6.125 
#    0.000    0.000    0.000    0.000    0.000    0.000 
#
# Total GULP energy -178234.090056 kJ/mol
# GULP energy per Si atom -5569.815314 kJ/mol
# Density = 2.179925 g / cm^3
# Si number density = 21.848983 Si / 1000 Ang^3
#
#
#
# Elastic Constant Matrix: (Units=GPa)
#
#
# Indices 1 2 3 4 5 6 
#
# 1 133.5065 -7.8310 29.1893 0.0000 -32.0141 0.0000
# 2 -7.8310 48.9520 -10.7601 0.0000 -1.3124 0.0000
# 3 29.1893 -10.7601 66.4839 0.0000 -33.3297 0.0000
# 4 0.0000 0.0000 0.0000 67.9089 0.0000 -21.0732
# 5 -32.0141 -1.3124 -33.3297 0.0000 38.1605 0.0000
# 6 0.0000 0.0000 0.0000 -21.0732 0.0000 14.7662
#
#
#
# Elastic Compliance Matrix: (Units=1/GPa)
#
#
# Indices 1 2 3 4 5 6 
#
# 1 0.009525 0.001803 0.000262 0.000000 0.008281 0.000000
# 2 0.001803 0.022508 0.007111 0.000000 0.008498 0.000000
# 3 0.000262 0.007111 0.029014 0.000000 0.025805 0.000000
# 4 0.000000 0.000000 0.000000 0.026431 0.000000 0.037720
# 5 0.008281 0.008498 0.025805 0.000000 0.055983 0.000000
# 6 0.000000 0.000000 0.000000 0.037720 0.000000 0.121553
#
#
# Mechanical properties :
#
#
# Convention : Reuss Voigt Hill
#
# Bulk Modulus (GPa) = 12.59481 30.01542 21.30512
# Shear Modulus (GPa) = 18.30657 40.05674 29.18165
#
# Velocity S-wave (km/s) = 2.89774 4.28640 3.65856
# Velocity P-wave (km/s) = 4.11981 6.18588 5.25538
#
# Compressibility (1/GPa) = 0.07939779
#
# Stress axis : x y z
#
# Youngs Moduli (GPa) = 104.99158 44.42944 34.46632
#
# Poissons Ratio (x) = -0.08011 -0.00901
# Poissons Ratio (y) = -0.18932 -0.24510
# Poissons Ratio (z) = -0.02746 -0.31595
#
# Static dielectric constant tensor:
#      x y z
#    x 1.840700 0.000000 0.003790 
#    y 0.000000 1.880020 0.000000 
#    z 0.003790 0.000000 1.780500 
# 
# From -- ./inp_files/263948.got.cif
#   From: 2010.05.17/outbox.cif.g08.bks.cpg/sg12_132_cif.got.tgz:263948.got - 2010.06.03 13:09:07.
