data_PCOD9171261
_publ_section_title
;
Structure prediction by ZEFSAII (Michael W. Deem and Ramdas Pophale) SiO2 
 PCOD9171261
Probable space group: C 2/M
;
_chemical_formula_sum "Si O2"
_cell_formula_units_Z 56
_cell_length_a 9.658755
_cell_length_b 18.104985
_cell_length_c 14.345582
_cell_angle_alpha 90.000000
_cell_angle_beta 112.343852
_cell_angle_gamma 90.000000
_cell_volume 2320.284319
_symmetry_space_group_name_H-M "C 2/M"
_symmetry_group_IT_number 12
_symmetry_cell_setting 'monoclinic'
loop_
_space_group_symop_operation_xyz
x,y,z
-x,y,-z
-x,-y,-z
x,-y,z
1/2+x,1/2+y,z
1/2-x,1/2+y,-z
1/2-x,1/2-y,-z
1/2+x,1/2-y,z
loop_
_atom_site_type_symbol
_atom_site_label
_atom_site_fract_x
_atom_site_fract_y
_atom_site_fract_z
Si Si1 0.921535 0.583763 0.081892
Si Si2 0.407965 0.912541 0.335301
Si Si3 0.178709 0.177375 0.938568
Si Si4 0.518999 0.411220 0.637552
Si Si5 0.787081 0.587871 0.517313
Si Si6 0.125244 0.834881 0.222321
Si Si7 0.688935 0.829855 0.238310
O O1 0.920286 0.500000 0.113702
O O2 0.032313 0.629810 0.176430
O O3 0.756237 0.612434 0.016532
O O4 0.000000 0.586383 0.000000
O O5 0.576787 0.881256 0.385567
O O6 0.346281 0.905359 0.425768
O O7 0.284398 0.871888 0.241601
O O8 0.412030 0.000000 0.317592
O O9 0.236665 0.178013 0.846316
O O10 0.999426 0.175598 0.888924
O O11 0.250000 0.250000 0.000000
O O12 0.531055 0.500000 0.635168
O O13 0.384111 0.386351 0.534581
O O14 0.454117 0.387316 0.721915
O O15 0.683010 0.375416 0.674376
O O16 0.780511 0.500000 0.536074
O O17 0.160567 0.752571 0.268296
#
# Coordination Sequence:
#
# PCOD9171261 Si02
#       7
#     8   8   8   8   8   8   8
#     4   9  17  29  46  65  83 107 148 191 227 266
#     4   8  13  23  41  65  90 122 156 184 223 276
#     4  10  19  31  45  61  87 123 153 186 232 286
#     4   9  17  30  49  72  94 123 160 193 227 275
#     4   7  11  22  41  64  91 118 150 190 225 263
#     4  10  18  27  44  68  95 120 147 186 240 280
#     4  10  19  29  45  70  95 117 148 192 236 275
#
# _framework density 24.134971
#
# number of rings (size 3 to 8) (size 9 to 14) (size 15 to 20)
#    0.000    3.000    1.429    2.571    0.000    4.000 
#    0.000    0.714    0.000    1.714    0.000   10.000 
#    0.000    0.000    0.000   36.571    0.000    4.571 
#
# Total GULP energy -156477.948553 kJ/mol
# GULP energy per Si atom -5588.498163 kJ/mol
# Density = 2.408004 g / cm^3
# Si number density = 24.134971 Si / 1000 Ang^3
#
#
#
# Elastic Constant Matrix: (Units=GPa)
#
#
# Indices 1 2 3 4 5 6 
#
# 1 131.4801 28.2372 65.5784 0.0000 43.0869 0.0000
# 2 28.2372 96.9326 47.9809 0.0000 34.2210 0.0000
# 3 65.5784 47.9809 195.0615 0.0000 49.5836 0.0000
# 4 0.0000 0.0000 0.0000 10.6216 0.0000 25.5833
# 5 43.0869 34.2210 49.5836 0.0000 68.1399 0.0000
# 6 0.0000 0.0000 0.0000 25.5833 0.0000 14.7372
#
#
#
# Elastic Compliance Matrix: (Units=1/GPa)
#
#
# Indices 1 2 3 4 5 6 
#
# 1 0.010327 -0.000220 -0.002191 0.000000 -0.004825 0.000000
# 2 -0.000220 0.013094 -0.001853 0.000000 -0.005088 0.000000
# 3 -0.002191 -0.001853 0.007031 0.000000 -0.002800 0.000000
# 4 0.000000 0.000000 0.000000 -0.029595 0.000000 0.051375
# 5 -0.004825 -0.005088 -0.002800 0.000000 0.022319 0.000000
# 6 0.000000 0.000000 0.000000 0.051375 0.000000 -0.021330
#
#
# Mechanical properties :
#
#
# Convention : Reuss Voigt Hill
#
# Bulk Modulus (GPa) = 45.61554 78.56302 62.08928
# Shear Modulus (GPa) = 282.72714 37.47828 160.10271
#
# Velocity S-wave (km/s) = 10.83506 3.94491 8.15355
# Velocity P-wave (km/s) = 13.24660 7.30561 10.69683
#
# Compressibility (1/GPa) = 0.02192235
#
# Stress axis : x y z
#
# Youngs Moduli (GPa) = 96.83226 76.36847 142.23017
#
# Poissons Ratio (x) = 0.01682 0.31166
# Poissons Ratio (y) = 0.02133 0.26362
# Poissons Ratio (z) = 0.21218 0.14155
#
# Static dielectric constant tensor:
#      x y z
#    x 2.136200 0.000000 -0.070410 
#    y 0.000000 1.892500 0.000000 
#    z -0.070410 0.000000 1.981110 
# 
# From -- ./inp_files/339944.got.cif
#   From: 2010.05.17/outbox.cif.g08.bks.cpg/sg12_170_cif.got.tgz:339944.got - 2010.06.03 13:09:07.
