data_PCOD9171877
_publ_section_title
;
Structure prediction by ZEFSAII (Michael W. Deem and Ramdas Pophale) SiO2 
 PCOD9171877
Probable space group: C 2/M
;
_chemical_formula_sum "Si O2"
_cell_formula_units_Z 56
_cell_length_a 25.682867
_cell_length_b 20.383062
_cell_length_c 17.967337
_cell_angle_alpha 90.000000
_cell_angle_beta 19.456488
_cell_angle_gamma 90.000000
_cell_volume 3132.992847
_symmetry_space_group_name_H-M "C 2/M"
_symmetry_group_IT_number 12
_symmetry_cell_setting 'monoclinic'
loop_
_space_group_symop_operation_xyz
x,y,z
-x,y,-z
-x,-y,-z
x,-y,z
1/2+x,1/2+y,z
1/2-x,1/2+y,-z
1/2-x,1/2-y,-z
1/2+x,1/2-y,z
loop_
_atom_site_type_symbol
_atom_site_label
_atom_site_fract_x
_atom_site_fract_y
_atom_site_fract_z
Si Si1 0.014043 0.000000 0.606969
Si Si2 0.769569 0.575836 0.631278
Si Si3 0.548185 0.258538 0.703312
Si Si4 0.319801 0.078921 0.733286
Si Si5 0.614554 0.298849 0.778195
Si Si6 0.758456 0.500000 0.152369
Si Si7 0.595050 0.882210 0.124460
Si Si8 0.374981 0.626029 0.864415
O O1 0.987276 0.065492 0.691014
O O2 0.876362 0.000000 0.729919
O O3 0.174009 0.000000 0.345337
O O4 0.725848 0.500000 0.680096
O O5 0.760245 0.594044 0.730844
O O6 0.666898 0.626228 0.722732
O O7 0.950872 0.585603 0.363908
O O8 0.546417 0.290522 0.787547
O O9 0.725586 0.243556 0.438769
O O10 0.463572 0.188333 0.823217
O O11 0.465723 0.306578 0.755925
O O12 0.500000 0.100368 0.500000
O O13 0.317820 0.000000 0.744359
O O14 0.214580 0.109059 0.938936
O O15 0.500000 0.279613 0.000000
O O16 0.856600 0.434319 0.003760
O O17 0.742899 0.870918 0.978839
#
# Coordination Sequence:
#
# PCOD9171877 Si02
#       8
#     4   8   8   8   8   4   8   8
#     4   9  20  32  50  80 114 158 183 222 279 327
#     4  10  19  33  57  88 112 145 186 227 286 350
#     4  10  23  38  58  83 110 151 198 237 289 342
#     4  10  18  28  52  87 120 146 172 213 286 352
#     4  10  22  42  57  75 110 155 195 238 284 327
#     4   9  18  34  55  77 111 149 195 226 270 342
#     4  10  19  34  59  85 114 148 184 238 291 345
#     4  11  19  35  55  85 122 150 179 235 289 349
#
# _framework density 17.874282999999998
#
# number of rings (size 3 to 8) (size 9 to 14) (size 15 to 20)
#    0.000    2.000    2.857    1.286    0.000    1.429 
#    1.286    0.000    3.143    0.000    0.000    4.000 
#    0.000    0.000    0.000    0.000    0.000    0.000 
#
# Total GULP energy -156263.069077 kJ/mol
# GULP energy per Si atom -5580.823896 kJ/mol
# Density = 1.783360 g / cm^3
# Si number density = 17.874283 Si / 1000 Ang^3
#
#
#
# Elastic Constant Matrix: (Units=GPa)
#
#
# Indices 1 2 3 4 5 6 
#
# 1 65.9150 49.7367 37.9339 0.0022 4.0251 -0.0022
# 2 49.7367 102.1364 42.1337 0.0018 1.8369 -0.0030
# 3 37.9339 42.1337 107.1415 0.0004 15.2672 -0.0025
# 4 0.0022 0.0018 0.0004 12.0738 -0.0007 5.8892
# 5 4.0251 1.8369 15.2672 -0.0007 14.2535 0.0018
# 6 -0.0022 -0.0030 -0.0025 5.8892 0.0018 19.4060
#
#
#
# Elastic Compliance Matrix: (Units=1/GPa)
#
#
# Indices 1 2 3 4 5 6 
#
# 1 0.026105 -0.010656 -0.004953 -0.000004 -0.000693 0.000002
# 2 -0.010656 0.016236 -0.003237 0.000000 0.004384 0.000001
# 3 -0.004953 -0.003237 0.014281 -0.000001 -0.013481 0.000002
# 4 -0.000004 0.000000 -0.000001 0.097213 0.000011 -0.029501
# 5 -0.000693 0.004384 -0.013481 0.000011 0.084228 -0.000012
# 6 0.000002 0.000001 0.000002 -0.029501 -0.000012 0.060483
#
#
# Mechanical properties :
#
#
# Convention : Reuss Voigt Hill
#
# Bulk Modulus (GPa) = 52.82700 59.42238 56.12469
# Shear Modulus (GPa) = 14.59646 18.83926 16.71786
#
# Velocity S-wave (km/s) = 2.86075 3.25004 3.06159
# Velocity P-wave (km/s) = 6.36638 6.88480 6.63066
#
# Compressibility (1/GPa) = 0.01892971
#
# Stress axis : x y z
#
# Youngs Moduli (GPa) = 38.30738 61.58979 70.02354
#
# Poissons Ratio (x) = 0.65632 0.34683
# Poissons Ratio (y) = 0.40821 0.22665
# Poissons Ratio (z) = 0.18974 0.19935
#
# Static dielectric constant tensor:
#      x y z
#    x 1.600690 0.000000 -0.016210 
#    y 0.000000 1.593140 0.000000 
#    z -0.016210 0.000000 1.615760 
# 
# From -- ./inp_files/294091.got.cif
#   From: 2010.05.17/outbox.cif.g08.bks.cpg/sg12_148_cif.got.tgz:294091.got - 2010.06.03 13:09:07.
