data_PCOD9171797
_publ_section_title
;
Structure prediction by ZEFSAII (Michael W. Deem and Ramdas Pophale) SiO2 
 PCOD9171797
Probable space group: C 2/M
;
_chemical_formula_sum "Si O2"
_cell_formula_units_Z 52
_cell_length_a 8.110333
_cell_length_b 27.189567
_cell_length_c 10.361748
_cell_angle_alpha 90.000000
_cell_angle_beta 79.867511
_cell_angle_gamma 90.000000
_cell_volume 2249.298992
_symmetry_space_group_name_H-M "C 2/M"
_symmetry_group_IT_number 12
_symmetry_cell_setting 'monoclinic'
loop_
_space_group_symop_operation_xyz
x,y,z
-x,y,-z
-x,-y,-z
x,-y,z
1/2+x,1/2+y,z
1/2-x,1/2+y,-z
1/2-x,1/2-y,-z
1/2+x,1/2-y,z
loop_
_atom_site_type_symbol
_atom_site_label
_atom_site_fract_x
_atom_site_fract_y
_atom_site_fract_z
Si Si1 0.689481 0.554807 0.917469
Si Si2 0.031008 0.785273 0.360055
Si Si3 0.241900 0.624582 0.871993
Si Si4 0.120030 0.148857 0.805031
Si Si5 0.453871 0.186744 0.783760
Si Si6 0.179594 0.885561 0.415231
Si Si7 0.500000 0.132183 0.500000
O O1 0.750189 0.500000 0.883761
O O2 0.672822 0.591968 0.799897
O O3 0.500000 0.551724 0.000000
O O4 0.791409 0.585299 0.011297
O O5 0.043705 0.744497 0.248918
O O6 0.169338 0.825863 0.382146
O O7 0.000000 0.759112 0.500000
O O8 0.887251 0.821619 0.328192
O O9 0.425014 0.649599 0.874392
O O10 0.281567 0.594866 0.733194
O O11 0.095599 0.663121 0.855816
O O12 0.268201 0.175119 0.862012
O O13 0.469114 0.160530 0.640569
O O14 0.331494 0.896729 0.488141
O O15 0.000000 0.898697 0.500000
#
# Coordination Sequence:
#
# PCOD9171797 Si02
#       7
#     8   8   8   8   8   8   4
#     4   9  19  42  72  87 105 146 199 255 308 351
#     4  10  20  33  52  82 123 162 200 225 272 347
#     4   9  20  37  55  83 116 144 198 244 290 342
#     4  10  22  36  56  85 117 148 198 247 286 336
#     4  11  21  32  52  82 122 159 195 229 275 343
#     4   9  18  32  48  78 116 156 195 237 270 335
#     4  10  18  28  48  74 109 164 193 222 270 330
#
# _framework density 23.118314000000002
#
# number of rings (size 3 to 8) (size 9 to 14) (size 15 to 20)
#    0.000    2.308    0.769    2.769    6.462    1.846 
#    0.000    2.308    6.769    0.923    0.000   35.000 
#    0.000    0.000    0.000    0.000    0.000    0.000 
#
# Total GULP energy -144776.350723 kJ/mol
# GULP energy per Si atom -5568.321182 kJ/mol
# Density = 2.306570 g / cm^3
# Si number density = 23.118314 Si / 1000 Ang^3
#
#
#
# Elastic Constant Matrix: (Units=GPa)
#
#
# Indices 1 2 3 4 5 6 
#
# 1 177.3987 36.3441 44.4875 0.0000 34.9944 0.0000
# 2 36.3441 125.8173 45.3603 0.0000 19.5711 0.0000
# 3 44.4875 45.3603 93.0780 0.0000 16.7558 0.0000
# 4 0.0000 0.0000 0.0000 15.9007 0.0000 1.7415
# 5 34.9944 19.5711 16.7558 0.0000 35.5288 0.0000
# 6 0.0000 0.0000 0.0000 1.7415 0.0000 9.2053
#
#
#
# Elastic Compliance Matrix: (Units=1/GPa)
#
#
# Indices 1 2 3 4 5 6 
#
# 1 0.007493 -0.000391 -0.002296 0.000000 -0.006082 0.000000
# 2 -0.000391 0.010049 -0.004134 0.000000 -0.003201 0.000000
# 3 -0.002296 -0.004134 0.014249 0.000000 -0.002181 0.000000
# 4 0.000000 0.000000 0.000000 0.064221 0.000000 -0.012149
# 5 -0.006082 -0.003201 -0.002181 0.000000 0.036929 0.000000
# 6 0.000000 0.000000 0.000000 -0.012149 0.000000 0.110931
#
#
# Mechanical properties :
#
#
# Convention : Reuss Voigt Hill
#
# Bulk Modulus (GPa) = 55.10093 72.07531 63.58812
# Shear Modulus (GPa) = 18.97083 30.13378 24.55231
#
# Velocity S-wave (km/s) = 2.86772 3.61426 3.26241
# Velocity P-wave (km/s) = 5.90348 6.97579 6.46192
#
# Compressibility (1/GPa) = 0.01814851
#
# Stress axis : x y z
#
# Youngs Moduli (GPa) = 133.46604 99.50861 70.18267
#
# Poissons Ratio (x) = 0.03886 0.16114
# Poissons Ratio (y) = 0.05212 0.29017
# Poissons Ratio (z) = 0.30643 0.41142
#
# Static dielectric constant tensor:
#      x y z
#    x 1.973510 0.000000 -0.028780 
#    y 0.000000 1.848780 0.000000 
#    z -0.028780 0.000000 2.019590 
# 
# From -- ./inp_files/123703.got.cif
#   From: 2010.05.17/outbox.cif.g08.bks.cpg/sg12_62_cif.got.tgz:123703.got - 2010.06.03 13:09:07.
