data_PCOD9171839
_publ_section_title
;
Structure prediction by ZEFSAII (Michael W. Deem and Ramdas Pophale) SiO2 
 PCOD9171839
Probable space group: C 2/M
;
_chemical_formula_sum "Si O2"
_cell_formula_units_Z 44
_cell_length_a 12.123056
_cell_length_b 24.751344
_cell_length_c 9.696687
_cell_angle_alpha 90.000000
_cell_angle_beta 68.378152
_cell_angle_gamma 90.000000
_cell_volume 2704.875182
_symmetry_space_group_name_H-M "C 2/M"
_symmetry_group_IT_number 12
_symmetry_cell_setting 'monoclinic'
loop_
_space_group_symop_operation_xyz
x,y,z
-x,y,-z
-x,-y,-z
x,-y,z
1/2+x,1/2+y,z
1/2-x,1/2+y,-z
1/2-x,1/2-y,-z
1/2+x,1/2-y,z
loop_
_atom_site_type_symbol
_atom_site_label
_atom_site_fract_x
_atom_site_fract_y
_atom_site_fract_z
Si Si1 0.500000 0.690229 0.000000
Si Si2 0.705526 0.232284 0.796352
Si Si3 0.348051 0.164049 0.694252
Si Si4 0.873081 0.435621 0.130770
Si Si5 0.783223 0.858565 0.971159
Si Si6 0.623696 0.856865 0.622493
O O1 0.592824 0.729580 0.880210
O O2 0.421714 0.653498 0.932968
O O3 0.812164 0.272972 0.714127
O O4 0.732225 0.194559 0.916147
O O5 0.680712 0.191877 0.682790
O O6 0.322506 0.140082 0.555054
O O7 0.485517 0.156570 0.664627
O O8 0.273939 0.137405 0.851303
O O9 0.865276 0.500000 0.136820
O O10 0.765826 0.408362 0.094663
O O11 0.869082 0.409396 0.284305
O O12 0.000000 0.420516 0.000000
#
# Coordination Sequence:
#
# PCOD9171839 Si02
#       6
#     4   8   8   8   8   8
#     4  10  18  28  49  76  97 130 162 200 236 286
#     4  10  18  29  48  71 103 138 165 184 232 295
#     4  10  18  29  44  73 104 130 153 199 242 290
#     4  10  20  36  55  70  90 127 171 212 254 295
#     4  10  19  32  51  73 101 129 169 201 239 285
#     4  10  19  30  47  70 103 128 159 200 246 289
#
# _framework density 16.266925000000001
#
# number of rings (size 3 to 8) (size 9 to 14) (size 15 to 20)
#    0.000    2.000    1.818    4.909    2.545    0.000 
#    0.000    3.182    0.000    9.818    0.000    5.091 
#    0.000    0.000    0.000    0.000    0.000    0.000 
#
# Total GULP energy -122622.793505 kJ/mol
# GULP energy per Si atom -5573.763341 kJ/mol
# Density = 1.622990 g / cm^3
# Si number density = 16.266925 Si / 1000 Ang^3
#
#
#
# Elastic Constant Matrix: (Units=GPa)
#
#
# Indices 1 2 3 4 5 6 
#
# 1 95.0655 39.7305 32.2243 0.0000 17.0082 0.0000
# 2 39.7305 87.2666 37.6937 0.0000 13.0527 0.0000
# 3 32.2243 37.6937 112.4968 0.0000 23.0006 0.0000
# 4 0.0000 0.0000 0.0000 7.7363 0.0000 -9.1026
# 5 17.0082 13.0527 23.0006 0.0000 21.6046 0.0000
# 6 0.0000 0.0000 0.0000 -9.1026 0.0000 11.3119
#
#
#
# Elastic Compliance Matrix: (Units=1/GPa)
#
#
# Indices 1 2 3 4 5 6 
#
# 1 0.014204 -0.004992 -0.000929 0.000000 -0.007178 0.000000
# 2 -0.004992 0.015463 -0.003380 0.000000 -0.001813 0.000000
# 3 -0.000929 -0.003380 0.012425 0.000000 -0.010455 0.000000
# 4 0.000000 0.000000 0.000000 2.430112 0.000000 1.955494
# 5 -0.007178 -0.001813 -0.010455 0.000000 0.064163 0.000000
# 6 0.000000 0.000000 0.000000 1.955494 0.000000 1.661975
#
#
# Mechanical properties :
#
#
# Convention : Reuss Voigt Hill
#
# Bulk Modulus (GPa) = 42.57032 57.12512 49.84772
# Shear Modulus (GPa) = 1.18349 20.47592 10.82971
#
# Velocity S-wave (km/s) = 0.85389 3.55173 2.58301
# Velocity P-wave (km/s) = 5.21525 7.21202 6.29334
#
# Compressibility (1/GPa) = 0.02349055
#
# Stress axis : x y z
#
# Youngs Moduli (GPa) = 70.40080 64.66894 80.48063
#
# Poissons Ratio (x) = 0.32285 0.07473
# Poissons Ratio (y) = 0.35146 0.27206
# Poissons Ratio (z) = 0.06537 0.21861
#
# Static dielectric constant tensor:
#      x y z
#    x 1.570990 0.000000 0.001930 
#    y 0.000000 1.525360 0.000000 
#    z 0.001930 0.000000 1.568120 
# 
# From -- ./inp_files/50510.got.cif
#   From: 2010.05.17/outbox.cif.g08.bks.cpg/sg12_26_cif.got.tgz:50510.got - 2010.06.03 13:09:07.
