data_PCOD9171337
_publ_section_title
;
Structure prediction by ZEFSAII (Michael W. Deem and Ramdas Pophale) SiO2 
 PCOD9171337
Probable space group: C 2/M
;
_chemical_formula_sum "Si O2"
_cell_formula_units_Z 36
_cell_length_a 10.185389
_cell_length_b 16.103742
_cell_length_c 9.692670
_cell_angle_alpha 90.000000
_cell_angle_beta 97.762123
_cell_angle_gamma 90.000000
_cell_volume 1575.252643
_symmetry_space_group_name_H-M "C 2/M"
_symmetry_group_IT_number 12
_symmetry_cell_setting 'monoclinic'
loop_
_space_group_symop_operation_xyz
x,y,z
-x,y,-z
-x,-y,-z
x,-y,z
1/2+x,1/2+y,z
1/2-x,1/2+y,-z
1/2-x,1/2-y,-z
1/2+x,1/2-y,z
loop_
_atom_site_type_symbol
_atom_site_label
_atom_site_fract_x
_atom_site_fract_y
_atom_site_fract_z
Si Si1 0.853637 0.139455 0.493463
Si Si2 0.753751 0.000000 0.174269
Si Si3 0.550132 0.500000 0.163927
Si Si4 0.799835 0.818853 0.167017
Si Si5 0.896809 0.184555 0.791372
Si Si6 0.146907 0.500000 0.460313
O O1 0.818283 0.170282 0.336024
O O2 0.877149 0.201905 0.624314
O O3 0.000000 0.099034 0.500000
O O4 0.733751 0.079185 0.515893
O O5 0.742970 0.908053 0.105996
O O6 0.659686 0.000000 0.294749
O O7 0.912439 0.000000 0.231289
O O8 0.625178 0.585700 0.197803
O O9 0.500000 0.500000 0.000000
O O10 0.701863 0.742039 0.138360
O O11 0.950642 0.803876 0.143658
O O12 0.000000 0.500000 0.500000
#
# Coordination Sequence:
#
# PCOD9171337 Si02
#       6
#     8   4   4   8   8   4
#     4   9  17  30  48  73 112 152 180 212 271 347
#     4   8  18  36  50  71 109 142 172 221 276 328
#     4  10  21  39  60  78 101 148 204 242 272 317
#     4   9  18  32  53  79 111 147 177 217 278 341
#     4  10  19  33  53  80 109 142 183 228 274 333
#     4  10  18  27  47  81 112 146 182 221 274 337
#
# _framework density 22.853477999999999
#
# number of rings (size 3 to 8) (size 9 to 14) (size 15 to 20)
#    0.000    2.667    0.000    3.000    0.000    5.333 
#    0.000    6.667    0.000    0.000    0.000   22.556 
#    0.000    0.000    0.000    0.000    0.000    0.000 
#
# Total GULP energy -100376.079962 kJ/mol
# GULP energy per Si atom -5576.448887 kJ/mol
# Density = 2.280146 g / cm^3
# Si number density = 22.853478 Si / 1000 Ang^3
#
#
#
# Elastic Constant Matrix: (Units=GPa)
#
#
# Indices 1 2 3 4 5 6 
#
# 1 198.6687 86.0794 17.6882 0.0000 -10.3186 0.0000
# 2 86.0794 143.1675 -9.2430 0.0000 7.9860 0.0000
# 3 17.6882 -9.2430 75.8228 0.0000 -9.8010 0.0000
# 4 0.0000 0.0000 0.0000 3.3195 0.0000 9.6060
# 5 -10.3186 7.9860 -9.8010 0.0000 27.5939 0.0000
# 6 0.0000 0.0000 0.0000 9.6060 0.0000 40.4037
#
#
#
# Elastic Compliance Matrix: (Units=1/GPa)
#
#
# Indices 1 2 3 4 5 6 
#
# 1 0.007465 -0.004805 -0.001873 0.000000 0.003517 0.000000
# 2 -0.004805 0.010222 0.001837 0.000000 -0.004103 0.000000
# 3 -0.001873 0.001837 0.014349 0.000000 0.003865 0.000000
# 4 0.000000 0.000000 0.000000 0.965550 0.000000 -0.229561
# 5 0.003517 -0.004103 0.003865 0.000000 0.040115 0.000000
# 6 0.000000 0.000000 0.000000 -0.229561 0.000000 0.079329
#
#
# Mechanical properties :
#
#
# Convention : Reuss Voigt Hill
#
# Bulk Modulus (GPa) = 44.73704 67.41201 56.07453
# Shear Modulus (GPa) = 4.40854 35.80574 20.10714
#
# Velocity S-wave (km/s) = 1.39041 3.96252 2.96941
# Velocity P-wave (km/s) = 4.71123 7.10612 6.02879
#
# Compressibility (1/GPa) = 0.02235284
#
# Stress axis : x y z
#
# Youngs Moduli (GPa) = 133.95845 97.83279 69.69146
#
# Poissons Ratio (x) = 0.47013 0.13051
# Poissons Ratio (y) = 0.64373 -0.12800
# Poissons Ratio (z) = 0.25085 -0.17969
#
# Static dielectric constant tensor:
#      x y z
#    x 1.813490 0.000000 -0.049490 
#    y 0.000000 1.931880 0.000000 
#    z -0.049490 0.000000 1.943240 
# 
# From -- ./inp_files/118833.got.cif
#   From: 2010.05.17/outbox.cif.g08.bks.cpg/sg12_60_cif.got.tgz:118833.got - 2010.06.03 13:09:07.
