data_PCOD9171400
_publ_section_title
;
Structure prediction by ZEFSAII (Michael W. Deem and Ramdas Pophale) SiO2 
 PCOD9171400
Probable space group: C 2/M
;
_chemical_formula_sum "Si O2"
_cell_formula_units_Z 44
_cell_length_a 17.897507
_cell_length_b 21.490718
_cell_length_c 8.425983
_cell_angle_alpha 90.000000
_cell_angle_beta 148.100978
_cell_angle_gamma 90.000000
_cell_volume 1712.562580
_symmetry_space_group_name_H-M "C 2/M"
_symmetry_group_IT_number 12
_symmetry_cell_setting 'monoclinic'
loop_
_space_group_symop_operation_xyz
x,y,z
-x,y,-z
-x,-y,-z
x,-y,z
1/2+x,1/2+y,z
1/2-x,1/2+y,-z
1/2-x,1/2-y,-z
1/2+x,1/2-y,z
loop_
_atom_site_type_symbol
_atom_site_label
_atom_site_fract_x
_atom_site_fract_y
_atom_site_fract_z
Si Si1 0.685177 0.000000 0.662263
Si Si2 0.298864 0.321516 0.051534
Si Si3 0.996098 0.711508 0.157589
Si Si4 0.653996 0.000000 0.981333
Si Si5 0.000000 0.306803 0.500000
Si Si6 0.780686 0.129397 0.688890
Si Si7 0.218567 0.873151 0.663336
O O1 0.703892 0.000000 0.887063
O O2 0.516469 0.000000 0.325451
O O3 0.754450 0.939654 0.706127
O O4 0.137004 0.350067 0.753663
O O5 0.348156 0.333643 0.960604
O O6 0.250000 0.250000 0.000000
O O7 0.362857 0.353571 0.322570
O O8 0.126766 0.662750 0.385828
O O9 0.013998 0.735097 0.368484
O O10 0.000000 0.748186 0.000000
O O11 0.846202 0.677047 0.888820
O O12 0.714070 0.940052 0.181023
O O13 0.846366 0.128159 0.630327
#
# Coordination Sequence:
#
# PCOD9171400 Si02
#       7
#     4   8   8   4   4   8   8
#     4  11  19  25  43  68  99 129 155 185 226 285
#     4  10  20  33  46  63  89 122 162 203 229 263
#     4   8  14  23  37  57  82 112 145 176 206 252
#     4  11  19  25  43  68  99 129 155 185 226 285
#     4   8  16  28  44  59  80 111 150 190 228 260
#     4  10  18  28  42  62  89 122 155 185 224 272
#     4  10  18  28  42  62  89 122 155 185 224 272
#
# _framework density 25.692492000000001
#
# number of rings (size 3 to 8) (size 9 to 14) (size 15 to 20)
#    0.000    2.364    3.636    0.545    0.000    1.455 
#    0.000    0.000    0.000    0.000    0.000    0.000 
#    0.000    2.909    0.000    3.455    0.000    0.000 
#
# Total GULP energy -122760.889593 kJ/mol
# GULP energy per Si atom -5580.040436 kJ/mol
# Density = 2.563401 g / cm^3
# Si number density = 25.692492 Si / 1000 Ang^3
#
#
#
# Elastic Constant Matrix: (Units=GPa)
#
#
# Indices 1 2 3 4 5 6 
#
# 1 160.0011 34.0239 85.0037 0.0000 -73.2657 0.0000
# 2 34.0239 123.5701 52.0055 0.0000 -31.7150 0.0000
# 3 85.0037 52.0055 143.8015 0.0000 -79.0140 0.0000
# 4 0.0000 0.0000 0.0000 38.0615 0.0000 -11.5210
# 5 -73.2657 -31.7150 -79.0140 0.0000 83.7960 0.0000
# 6 0.0000 0.0000 0.0000 -11.5210 0.0000 18.0117
#
#
#
# Elastic Compliance Matrix: (Units=1/GPa)
#
#
# Indices 1 2 3 4 5 6 
#
# 1 0.010838 -0.000126 -0.002449 0.000000 0.007118 0.000000
# 2 -0.000126 0.009569 -0.003023 0.000000 0.000661 0.000000
# 3 -0.002449 -0.003023 0.015957 0.000000 0.011761 0.000000
# 4 0.000000 0.000000 0.000000 0.032582 0.000000 0.020840
# 5 0.007118 0.000661 0.011761 0.000000 0.029498 0.000000
# 6 0.000000 0.000000 0.000000 0.020840 0.000000 0.068850
#
#
# Mechanical properties :
#
#
# Convention : Reuss Voigt Hill
#
# Bulk Modulus (GPa) = 39.73412 85.49322 62.61367
# Shear Modulus (GPa) = 26.75525 45.06316 35.90920
#
# Velocity S-wave (km/s) = 3.23052 4.19255 3.74258
# Velocity P-wave (km/s) = 5.42345 7.53555 6.56499
#
# Compressibility (1/GPa) = 0.02516729
#
# Stress axis : x y z
#
# Youngs Moduli (GPa) = 92.27119 104.50230 62.66657
#
# Poissons Ratio (x) = 0.01319 0.15350
# Poissons Ratio (y) = 0.01165 0.18943
# Poissons Ratio (z) = 0.22601 0.31589
#
# Static dielectric constant tensor:
#      x y z
#    x 2.185360 0.000000 0.074720 
#    y 0.000000 1.978250 0.000000 
#    z 0.074720 0.000000 2.235710 
# 
# From -- ./inp_files/73241.got.cif
#   From: 2010.05.17/outbox.cif.g08.bks.cpg/sg12_37_cif.got.tgz:73241.got - 2010.06.03 13:09:07.
