data_PCOD9171108
_publ_section_title
;
Structure prediction by ZEFSAII (Michael W. Deem and Ramdas Pophale) SiO2 
 PCOD9171108
Probable space group: C 2/M
;
_chemical_formula_sum "Si O2"
_cell_formula_units_Z 48
_cell_length_a 25.028694
_cell_length_b 7.480941
_cell_length_c 15.826566
_cell_angle_alpha 90.000000
_cell_angle_beta 123.139108
_cell_angle_gamma 90.000000
_cell_volume 2481.338096
_symmetry_space_group_name_H-M "C 2/M"
_symmetry_group_IT_number 12
_symmetry_cell_setting 'monoclinic'
loop_
_space_group_symop_operation_xyz
x,y,z
-x,y,-z
-x,-y,-z
x,-y,z
1/2+x,1/2+y,z
1/2-x,1/2+y,-z
1/2-x,1/2-y,-z
1/2+x,1/2-y,z
loop_
_atom_site_type_symbol
_atom_site_label
_atom_site_fract_x
_atom_site_fract_y
_atom_site_fract_z
Si Si1 0.942401 0.218761 0.887803
Si Si2 0.808719 0.797694 0.840475
Si Si3 0.677076 0.216691 0.774166
Si Si4 0.530877 0.288305 0.611890
Si Si5 0.843163 0.292148 0.055280
Si Si6 0.010865 0.783322 0.780843
O O1 0.872799 0.283856 0.856648
O O2 0.960223 0.270868 0.807830
O O3 0.941380 0.000000 0.891781
O O4 0.000000 0.274997 0.000000
O O5 0.737823 0.717483 0.773553
O O6 0.804743 0.000000 0.803488
O O7 0.820976 0.803477 0.951814
O O8 0.607334 0.265477 0.680212
O O9 0.681280 0.278391 0.875622
O O10 0.679719 0.000000 0.778985
O O11 0.500000 0.213151 0.500000
O O12 0.517535 0.500000 0.601093
O O13 0.504438 0.218354 0.678891
O O14 0.825843 0.500000 0.032499
O O15 0.919598 0.276444 0.127600
O O16 0.011856 0.000000 0.780442
#
# Coordination Sequence:
#
# PCOD9171108 Si02
#       6
#     8   8   8   8   8   8
#     4   9  15  25  44  66  86 116 156 183 204 246
#     4  10  18  29  44  62  89 122 154 181 209 254
#     4   9  19  31  44  65  90 117 147 181 221 265
#     4   9  18  32  51  71  87 108 143 187 231 268
#     4  10  18  27  40  63  93 120 148 178 216 260
#     4   9  16  29  47  65  87 116 149 184 218 253
#
# _framework density 19.344401000000001
#
# number of rings (size 3 to 8) (size 9 to 14) (size 15 to 20)
#    0.000    2.667    1.667    1.000    0.000    1.667 
#    0.000    1.667    0.000    1.000    0.000    0.000 
#    0.000    0.000    0.000    0.000    0.000    0.000 
#
# Total GULP energy -133834.261369 kJ/mol
# GULP energy per Si atom -5576.427557 kJ/mol
# Density = 1.930037 g / cm^3
# Si number density = 19.344401 Si / 1000 Ang^3
#
#
#
# Elastic Constant Matrix: (Units=GPa)
#
#
# Indices 1 2 3 4 5 6 
#
# 1 177.3723 -1.6605 63.1648 0.0000 9.8593 0.0000
# 2 -1.6605 59.1082 -0.9415 0.0000 -3.7366 0.0000
# 3 63.1648 -0.9415 93.8695 0.0000 -13.8706 0.0000
# 4 0.0000 0.0000 0.0000 7.4212 0.0000 3.9325
# 5 9.8593 -3.7366 -13.8706 0.0000 13.8812 0.0000
# 6 0.0000 0.0000 0.0000 3.9325 0.0000 4.0658
#
#
#
# Elastic Compliance Matrix: (Units=1/GPa)
#
#
# Indices 1 2 3 4 5 6 
#
# 1 0.009685 -0.000881 -0.008890 0.000000 -0.015999 0.000000
# 2 -0.000881 0.017372 0.001819 0.000000 0.007120 0.000000
# 3 -0.008890 0.001819 0.020717 0.000000 0.027505 0.000000
# 4 0.000000 0.000000 0.000000 0.276424 0.000000 -0.267363
# 5 -0.015999 0.007120 0.027505 0.000000 0.112804 0.000000
# 6 0.000000 0.000000 0.000000 -0.267363 0.000000 0.504556
#
#
# Mechanical properties :
#
#
# Convention : Reuss Voigt Hill
#
# Bulk Modulus (GPa) = 31.37599 50.16397 40.76998
# Shear Modulus (GPa) = 5.16484 23.05945 14.11215
#
# Velocity S-wave (km/s) = 1.63577 3.45635 2.70389
# Velocity P-wave (km/s) = 4.45225 6.47432 5.55605
#
# Compressibility (1/GPa) = 0.03187150
#
# Stress axis : x y z
#
# Youngs Moduli (GPa) = 103.25646 57.56250 48.26844
#
# Poissons Ratio (x) = 0.05071 0.42909
# Poissons Ratio (y) = 0.09096 -0.08780
# Poissons Ratio (z) = 0.91791 -0.10471
#
# Static dielectric constant tensor:
#      x y z
#    x 1.718080 0.000000 0.002510 
#    y 0.000000 1.734480 0.000000 
#    z 0.002510 0.000000 1.647790 
# 
# From -- ./inp_files/236580.got.cif
#   From: 2010.05.17/outbox.cif.g08.bks.cpg/sg12_119_cif.got.tgz:236580.got - 2010.06.03 13:09:07.
