data_PCOD9171695
_publ_section_title
;
Structure prediction by ZEFSAII (Michael W. Deem and Ramdas Pophale) SiO2 
 PCOD9171695
Probable space group: C 2/M
;
_chemical_formula_sum "Si O2"
_cell_formula_units_Z 64
_cell_length_a 23.560435
_cell_length_b 9.359771
_cell_length_c 17.305032
_cell_angle_alpha 90.000000
_cell_angle_beta 83.435475
_cell_angle_gamma 90.000000
_cell_volume 3791.091022
_symmetry_space_group_name_H-M "C 2/M"
_symmetry_group_IT_number 12
_symmetry_cell_setting 'monoclinic'
loop_
_space_group_symop_operation_xyz
x,y,z
-x,y,-z
-x,-y,-z
x,-y,z
1/2+x,1/2+y,z
1/2-x,1/2+y,-z
1/2-x,1/2-y,-z
1/2+x,1/2-y,z
loop_
_atom_site_type_symbol
_atom_site_label
_atom_site_fract_x
_atom_site_fract_y
_atom_site_fract_z
Si Si1 0.389111 0.669292 0.090474
Si Si2 0.700721 0.332071 0.754977
Si Si3 0.523190 0.835191 0.826109
Si Si4 0.512739 0.829238 0.587253
Si Si5 0.313336 0.331171 0.784763
Si Si6 0.442185 0.329240 0.729333
Si Si7 0.807786 0.829233 0.966693
Si Si8 0.615566 0.837273 0.670957
O O1 0.402888 0.500000 0.087357
O O2 0.339425 0.690339 0.162945
O O3 0.443815 0.759122 0.108845
O O4 0.360340 0.711999 0.014058
O O5 0.708129 0.500000 0.744147
O O6 0.760839 0.256376 0.759027
O O7 0.666066 0.265219 0.688997
O O8 0.470833 0.744671 0.799927
O O9 0.569377 0.835221 0.748361
O O10 0.508420 0.000000 0.844408
O O11 0.500000 0.801125 0.500000
O O12 0.472461 0.739455 0.650200
O O13 0.577986 0.797064 0.602374
O O14 0.504652 0.000000 0.603108
O O15 0.301104 0.500000 0.778566
O O16 0.374715 0.301252 0.738168
O O17 0.318761 0.300784 0.875294
O O18 0.451630 0.500000 0.731307
O O19 0.799898 0.000000 0.978373
O O20 0.750000 0.750000 0.000000
O O21 0.636258 0.000000 0.660103
#
# Coordination Sequence:
#
# PCOD9171695 Si02
#       8
#     8   8   8   8   8   8   8   8
#     4   9  17  29  46  70  96 123 163 215 261 298
#     4  10  18  28  46  72  98 127 167 211 247 284
#     4   9  17  30  49  70  93 128 167 206 252 296
#     4   9  18  34  57  83 106 129 159 197 244 294
#     4  10  21  34  49  69  99 137 170 203 250 303
#     4  10  20  34  51  74 102 133 167 201 242 296
#     4  10  19  32  48  69  97 129 169 214 257 299
#     4   8  15  28  47  72 100 127 156 194 241 292
#
# _framework density 16.881684
#
# number of rings (size 3 to 8) (size 9 to 14) (size 15 to 20)
#    0.000    2.625    1.250    1.875    0.000    5.250 
#    0.000    0.625    0.000    4.500    0.000    0.000 
#    0.000    0.000    0.000    0.000    0.000    0.000 
#
# Total GULP energy -178402.728568 kJ/mol
# GULP energy per Si atom -5575.085268 kJ/mol
# Density = 1.684326 g / cm^3
# Si number density = 16.881684 Si / 1000 Ang^3
#
#
#
# Elastic Constant Matrix: (Units=GPa)
#
#
# Indices 1 2 3 4 5 6 
#
# 1 104.4338 77.5183 51.2303 0.0000 28.7141 0.0000
# 2 77.5183 79.4930 43.5872 0.0000 16.5753 0.0000
# 3 51.2303 43.5872 67.9669 0.0000 29.9356 0.0000
# 4 0.0000 0.0000 0.0000 17.1255 0.0000 6.7891
# 5 28.7141 16.5753 29.9356 0.0000 30.2119 0.0000
# 6 0.0000 0.0000 0.0000 6.7891 0.0000 30.0524
#
#
#
# Elastic Compliance Matrix: (Units=1/GPa)
#
#
# Indices 1 2 3 4 5 6 
#
# 1 0.043641 -0.038926 0.001652 0.000000 -0.021758 0.000000
# 2 -0.038926 0.054275 -0.015341 0.000000 0.022419 0.000000
# 3 0.001652 -0.015341 0.036003 0.000000 -0.028827 0.000000
# 4 0.000000 0.000000 0.000000 0.064136 0.000000 -0.014489
# 5 -0.021758 0.022419 -0.028827 0.000000 0.070042 0.000000
# 6 0.000000 0.000000 0.000000 -0.014489 0.000000 0.036548
#
#
# Mechanical properties :
#
#
# Convention : Reuss Voigt Hill
#
# Bulk Modulus (GPa) = 34.85596 66.28502 50.57049
# Shear Modulus (GPa) = 11.92070 20.78182 16.35126
#
# Velocity S-wave (km/s) = 2.66020 3.51241 3.11558
# Velocity P-wave (km/s) = 5.48886 7.46988 6.55464
#
# Compressibility (1/GPa) = 0.02868950
#
# Stress axis : x y z
#
# Youngs Moduli (GPa) = 22.91417 18.42457 27.77581
#
# Poissons Ratio (x) = 0.71719 -0.04588
# Poissons Ratio (y) = 0.89195 0.42610
# Poissons Ratio (z) = -0.03785 0.28264
#
# Static dielectric constant tensor:
#      x y z
#    x 1.557890 0.000000 0.012090 
#    y 0.000000 1.564910 0.000000 
#    z 0.012090 0.000000 1.568840 
# 
# From -- ./inp_files/281387.got.cif
#   From: 2010.05.17/outbox.cif.g08.bks.cpg/sg12_141_cif.got.tgz:281387.got - 2010.06.03 13:09:07.
