data_PCOD9171774
_publ_section_title
;
Structure prediction by ZEFSAII (Michael W. Deem and Ramdas Pophale) SiO2 
 PCOD9171774
Probable space group: C 2/M
;
_chemical_formula_sum "Si O2"
_cell_formula_units_Z 56
_cell_length_a 16.819943
_cell_length_b 13.986727
_cell_length_c 20.890847
_cell_angle_alpha 90.000000
_cell_angle_beta 140.294107
_cell_angle_gamma 90.000000
_cell_volume 3139.738592
_symmetry_space_group_name_H-M "C 2/M"
_symmetry_group_IT_number 12
_symmetry_cell_setting 'monoclinic'
loop_
_space_group_symop_operation_xyz
x,y,z
-x,y,-z
-x,-y,-z
x,-y,z
1/2+x,1/2+y,z
1/2-x,1/2+y,-z
1/2-x,1/2-y,-z
1/2+x,1/2-y,z
loop_
_atom_site_type_symbol
_atom_site_label
_atom_site_fract_x
_atom_site_fract_y
_atom_site_fract_z
Si Si1 0.361326 0.300321 0.917732
Si Si2 0.817590 0.108782 0.550231
Si Si3 0.368345 0.888182 0.151392
Si Si4 0.952246 0.110132 0.404133
Si Si5 0.186451 0.684752 0.227344
Si Si6 0.626394 0.207265 0.338186
Si Si7 0.917453 0.608932 0.033103
O O1 0.258853 0.359240 0.892582
O O2 0.327140 0.279984 0.823010
O O3 0.500000 0.342490 0.000000
O O4 0.372774 0.195897 0.960414
O O5 0.700490 0.141733 0.434797
O O6 0.844891 0.185143 0.622145
O O7 0.936495 0.114261 0.577024
O O8 0.802390 0.000000 0.562723
O O9 0.481869 0.822732 0.246757
O O10 0.362486 0.876479 0.070570
O O11 0.397953 0.000000 0.181021
O O12 0.824085 0.149215 0.297822
O O13 0.000000 0.156460 0.500000
O O14 0.923067 0.000000 0.401282
O O15 0.176251 0.693253 0.297318
O O16 0.067228 0.620484 0.133690
O O17 0.889021 0.500000 0.994282
#
# Coordination Sequence:
#
# PCOD9171774 Si02
#       7
#     8   8   8   8   8   8   8
#     4  10  21  35  53  78 107 135 172 220 266 310
#     4  10  20  34  53  77 107 140 176 216 261 306
#     4  10  20  36  57  76 101 139 180 214 255 311
#     4  10  18  28  47  76 106 132 167 213 259 306
#     4  10  19  32  51  77 109 141 173 212 259 307
#     4  10  20  35  54  76 104 140 179 217 254 309
#     4   9  19  34  55  80 106 137 172 214 264 316
#
# _framework density 17.835881000000001
#
# number of rings (size 3 to 8) (size 9 to 14) (size 15 to 20)
#    0.000    2.143    1.429    2.143    0.000    4.571 
#    0.000    1.429    0.000    5.143    0.000    5.000 
#    0.000    0.000    0.000    0.000    0.000    0.000 
#
# Total GULP energy -156074.055046 kJ/mol
# GULP energy per Si atom -5574.073394 kJ/mol
# Density = 1.779529 g / cm^3
# Si number density = 17.835881 Si / 1000 Ang^3
#
#
#
# Elastic Constant Matrix: (Units=GPa)
#
#
# Indices 1 2 3 4 5 6 
#
# 1 50.5683 3.8053 6.7721 0.0000 15.8743 0.0000
# 2 3.8053 65.5679 8.3441 0.0000 -4.1447 0.0000
# 3 6.7721 8.3441 45.3912 0.0000 9.5028 0.0000
# 4 0.0000 0.0000 0.0000 11.8472 0.0000 4.4034
# 5 15.8743 -4.1447 9.5028 0.0000 27.1314 0.0000
# 6 0.0000 0.0000 0.0000 4.4034 0.0000 0.3953
#
#
#
# Elastic Compliance Matrix: (Units=1/GPa)
#
#
# Indices 1 2 3 4 5 6 
#
# 1 0.024582 -0.002334 -0.000165 0.000000 -0.014681 0.000000
# 2 -0.002334 0.016182 -0.003701 0.000000 0.005134 0.000000
# 3 -0.000165 -0.003701 0.024641 0.000000 -0.009099 0.000000
# 4 0.000000 0.000000 0.000000 -0.026875 0.000000 0.299402
# 5 -0.014681 0.005134 -0.009099 0.000000 0.049419 0.000000
# 6 0.000000 0.000000 0.000000 0.299402 0.000000 -0.805530
#
#
# Mechanical properties :
#
#
# Convention : Reuss Voigt Hill
#
# Bulk Modulus (GPa) = 18.86619 22.15228 20.50924
# Shear Modulus (GPa) = -7.27259 17.38184 5.05462
#
# Velocity S-wave (km/s) = -2.02147 3.12515 1.68526
# Velocity P-wave (km/s) = 2.26983 5.04670 3.91288
#
# Compressibility (1/GPa) = 0.05300486
#
# Stress axis : x y z
#
# Youngs Moduli (GPa) = 40.68078 61.79571 40.58323
#
# Poissons Ratio (x) = 0.14421 0.00669
# Poissons Ratio (y) = 0.09494 0.15021
# Poissons Ratio (z) = 0.00671 0.22873
#
# Static dielectric constant tensor:
#      x y z
#    x 1.608830 0.000000 -0.013010 
#    y 0.000000 1.611130 0.000000 
#    z -0.013010 0.000000 1.644370 
# 
# From -- ./inp_files/183459.got.cif
#   From: 2010.05.17/outbox.cif.g08.bks.cpg/sg12_92_cif.got.tgz:183459.got - 2010.06.03 13:09:07.
