data_PCOD9171417
_publ_section_title
;
Structure prediction by ZEFSAII (Michael W. Deem and Ramdas Pophale) SiO2 
 PCOD9171417
Probable space group: C 2/M
;
_chemical_formula_sum "Si O2"
_cell_formula_units_Z 50
_cell_length_a 29.676554
_cell_length_b 7.342504
_cell_length_c 12.595545
_cell_angle_alpha 90.000000
_cell_angle_beta 52.316869
_cell_angle_gamma 90.000000
_cell_volume 2172.063994
_symmetry_space_group_name_H-M "C 2/M"
_symmetry_group_IT_number 12
_symmetry_cell_setting 'monoclinic'
loop_
_space_group_symop_operation_xyz
x,y,z
-x,y,-z
-x,-y,-z
x,-y,z
1/2+x,1/2+y,z
1/2-x,1/2+y,-z
1/2-x,1/2-y,-z
1/2+x,1/2-y,z
loop_
_atom_site_type_symbol
_atom_site_label
_atom_site_fract_x
_atom_site_fract_y
_atom_site_fract_z
Si Si1 0.957437 0.781895 0.300482
Si Si2 0.047602 0.709651 0.010911
Si Si3 0.294431 0.278023 0.684516
Si Si4 0.662032 0.719699 0.609705
Si Si5 0.673641 0.792599 0.828436
Si Si6 0.000000 0.500000 0.500000
Si Si7 0.086418 0.781705 0.402507
O O1 0.904705 0.729863 0.300465
O O2 0.937304 0.726088 0.445951
O O3 0.960078 0.000000 0.298788
O O4 0.015820 0.712027 0.169348
O O5 0.055484 0.500000 0.965302
O O6 0.110723 0.791963 0.927126
O O7 0.000000 0.792545 0.000000
O O8 0.293577 0.500000 0.682687
O O9 0.311553 0.219803 0.540120
O O10 0.230508 0.213679 0.799632
O O11 0.346690 0.233071 0.687166
O O12 0.665956 0.500000 0.608080
O O13 0.686756 0.794175 0.682967
O O14 0.668571 0.000000 0.874782
O O15 0.045288 0.659871 0.392669
O O16 0.080558 0.000000 0.396025
#
# Coordination Sequence:
#
# PCOD9171417 Si02
#       7
#     8   8   8   8   8   2   8
#     4   9  18  32  49  67 101 142 173 210 261 301
#     4  10  19  28  41  67 103 141 185 226 248 278
#     4   8  16  32  48  64 100 137 168 206 261 307
#     4   9  16  27  42  63  91 135 177 216 247 292
#     4  10  18  28  42  65  96 141 184 211 249 287
#     4  12  22  36  64  94 102 128 160 204 288 348
#     4   9  20  38  57  83 112 131 161 214 271 332
#
# _framework density 23.019580999999999
#
# number of rings (size 3 to 8) (size 9 to 14) (size 15 to 20)
#    0.000    2.720    1.600    2.640    1.120    0.960 
#    5.760    0.000    0.000    0.000    0.000    1.120 
#    0.000    0.000    0.000    0.000    0.000    0.000 
#
# Total GULP energy -139186.797028 kJ/mol
# GULP energy per Si atom -5567.471881 kJ/mol
# Density = 2.296719 g / cm^3
# Si number density = 23.019581 Si / 1000 Ang^3
#
#
#
# Elastic Constant Matrix: (Units=GPa)
#
#
# Indices 1 2 3 4 5 6 
#
# 1 117.8320 16.9471 33.1671 0.0000 -61.2044 0.0000
# 2 16.9471 96.9515 8.0193 0.0000 -11.9115 0.0000
# 3 33.1671 8.0193 60.3761 0.0000 -45.2080 0.0000
# 4 0.0000 0.0000 0.0000 17.6357 0.0000 6.7995
# 5 -61.2044 -11.9115 -45.2080 0.0000 54.9641 0.0000
# 6 0.0000 0.0000 0.0000 6.7995 0.0000 -0.9213
#
#
#
# Elastic Compliance Matrix: (Units=1/GPa)
#
#
# Indices 1 2 3 4 5 6 
#
# 1 0.027098 -0.000681 0.020013 0.000000 0.046488 0.000000
# 2 -0.000681 0.010629 0.000311 0.000000 0.001801 0.000000
# 3 0.020013 0.000311 0.057961 0.000000 0.070026 0.000000
# 4 0.000000 0.000000 0.000000 0.014746 0.000000 0.108824
# 5 0.046488 0.001801 0.070026 0.000000 0.127946 0.000000
# 6 0.000000 0.000000 0.000000 0.108824 0.000000 -0.282255
#
#
# Mechanical properties :
#
#
# Convention : Reuss Voigt Hill
#
# Bulk Modulus (GPa) = 7.40877 43.49184 25.45030
# Shear Modulus (GPa) = -130.98975 28.80410 -51.09282
#
# Velocity S-wave (km/s) = -7.55163 3.54119 -4.71631
# Velocity P-wave (km/s) = 8.53292 5.97114 4.31024
#
# Compressibility (1/GPa) = 0.13497516
#
# Stress axis : x y z
#
# Youngs Moduli (GPa) = 36.90282 94.08227 17.25310
#
# Poissons Ratio (x) = 0.06403 -0.34529
# Poissons Ratio (y) = 0.02512 -0.00536
# Poissons Ratio (z) = -0.73855 -0.02925
#
# Static dielectric constant tensor:
#      x y z
#    x 2.019960 0.000000 -0.006580 
#    y 0.000000 1.875250 0.000000 
#    z -0.006580 0.000000 1.885360 
# 
# From -- ./inp_files/248082.got.cif
#   From: 2010.05.17/outbox.cif.g08.bks.cpg/sg12_125_cif.got.tgz:248082.got - 2010.06.03 13:09:07.
