data_PCOD9171701
_publ_section_title
;
Structure prediction by ZEFSAII (Michael W. Deem and Ramdas Pophale) SiO2 
 PCOD9171701
Probable space group: C 2/M
;
_chemical_formula_sum "Si O2"
_cell_formula_units_Z 56
_cell_length_a 28.588966
_cell_length_b 7.606225
_cell_length_c 12.350913
_cell_angle_alpha 90.000000
_cell_angle_beta 55.763497
_cell_angle_gamma 90.000000
_cell_volume 2220.375025
_symmetry_space_group_name_H-M "C 2/M"
_symmetry_group_IT_number 12
_symmetry_cell_setting 'monoclinic'
loop_
_space_group_symop_operation_xyz
x,y,z
-x,y,-z
-x,-y,-z
x,-y,z
1/2+x,1/2+y,z
1/2-x,1/2+y,-z
1/2-x,1/2-y,-z
1/2+x,1/2-y,z
loop_
_atom_site_type_symbol
_atom_site_label
_atom_site_fract_x
_atom_site_fract_y
_atom_site_fract_z
Si Si1 0.882333 0.284295 0.588031
Si Si2 0.945073 0.284249 0.299157
Si Si3 0.763667 0.303117 0.816701
Si Si4 0.357014 0.705027 0.962517
Si Si5 0.545811 0.200318 0.315864
Si Si6 0.094617 0.701303 0.869532
Si Si7 0.277111 0.802045 0.353021
O O1 0.880035 0.500000 0.593563
O O2 0.893686 0.236269 0.448196
O O3 0.825108 0.218689 0.720191
O O4 0.935828 0.227366 0.591419
O O5 0.945188 0.500000 0.291268
O O6 0.944213 0.222288 0.175643
O O7 0.999987 0.221565 0.293791
O O8 0.771134 0.500000 0.850957
O O9 0.707493 0.223892 0.945398
O O10 0.742966 0.315658 0.719199
O O11 0.353088 0.500000 0.939501
O O12 0.389472 0.717451 0.035841
O O13 0.395617 0.800619 0.826316
O O14 0.526789 0.000000 0.357387
O O15 0.076945 0.500000 0.916292
O O16 0.155359 0.699933 0.729920
O O17 0.250000 0.750000 0.500000
O O18 0.260143 0.000000 0.345906
#
# Coordination Sequence:
#
# PCOD9171701 Si02
#       7
#     8   8   8   8   8   8   8
#     4   9  17  32  55  81 105 131 169 216 261 303
#     4   9  17  31  54  82 105 128 167 218 263 301
#     4   9  18  33  52  73 100 135 172 211 255 302
#     4  10  21  36  52  74 106 140 173 210 256 307
#     4  10  20  34  55  79 103 135 174 214 254 303
#     4   9  18  33  53  75 101 134 172 214 256 302
#     4  10  18  28  46  73 104 136 168 207 256 308
#
# _framework density 25.220965
#
# number of rings (size 3 to 8) (size 9 to 14) (size 15 to 20)
#    0.000    2.571    0.000    2.143    0.000    6.286 
#    0.000    4.286    0.000    3.429    0.000    0.000 
#    0.000    0.000    0.000    0.000    0.000    0.000 
#
# Total GULP energy -156320.517939 kJ/mol
# GULP energy per Si atom -5582.875641 kJ/mol
# Density = 2.516356 g / cm^3
# Si number density = 25.220965 Si / 1000 Ang^3
#
#
#
# Elastic Constant Matrix: (Units=GPa)
#
#
# Indices 1 2 3 4 5 6 
#
# 1 113.6185 2.9604 8.0752 0.0000 13.9100 0.0000
# 2 2.9604 71.1341 2.8863 0.0000 3.1503 0.0000
# 3 8.0752 2.8863 88.8662 0.0000 0.3980 0.0000
# 4 0.0000 0.0000 0.0000 -1.9904 0.0000 -9.3936
# 5 13.9100 3.1503 0.3980 0.0000 43.3841 0.0000
# 6 0.0000 0.0000 0.0000 -9.3936 0.0000 -0.3277
#
#
#
# Elastic Compliance Matrix: (Units=1/GPa)
#
#
# Indices 1 2 3 4 5 6 
#
# 1 0.009224 -0.000221 -0.000818 0.000000 -0.002934 0.000000
# 2 -0.000221 0.014127 -0.000435 0.000000 -0.000951 0.000000
# 3 -0.000818 -0.000435 0.011340 0.000000 0.000190 0.000000
# 4 0.000000 0.000000 0.000000 0.003742 0.000000 -0.107249
# 5 -0.002934 -0.000951 0.000190 0.000000 0.024058 0.000000
# 6 0.000000 0.000000 0.000000 -0.107249 0.000000 0.022725
#
#
# Mechanical properties :
#
#
# Convention : Reuss Voigt Hill
#
# Bulk Modulus (GPa) = 31.50059 33.49586 32.49822
# Shear Modulus (GPa) = 50.63546 25.52632 38.08089
#
# Velocity S-wave (km/s) = 4.48557 3.18481 3.88995
# Velocity P-wave (km/s) = 6.27248 5.18014 5.75230
#
# Compressibility (1/GPa) = 0.03174544
#
# Stress axis : x y z
#
# Youngs Moduli (GPa) = 108.40727 70.78695 88.17989
#
# Poissons Ratio (x) = 0.01563 0.07212
# Poissons Ratio (y) = 0.02393 0.03831
# Poissons Ratio (z) = 0.08867 0.03076
#
# Static dielectric constant tensor:
#      x y z
#    x 2.068090 0.000000 -0.019070 
#    y 0.000000 2.063700 0.000000 
#    z -0.019070 0.000000 1.996420 
# 
# From -- ./inp_files/187189.got.cif
#   From: 2010.05.17/outbox.cif.g08.bks.cpg/sg12_94_cif.got.tgz:187189.got - 2010.06.03 13:09:07.
