data_PCOD9171382
_publ_section_title
;
Structure prediction by ZEFSAII (Michael W. Deem and Ramdas Pophale) SiO2 
 PCOD9171382
Probable space group: C 2/M
;
_chemical_formula_sum "Si O2"
_cell_formula_units_Z 64
_cell_length_a 29.342764
_cell_length_b 7.571914
_cell_length_c 15.294781
_cell_angle_alpha 90.000000
_cell_angle_beta 87.541768
_cell_angle_gamma 90.000000
_cell_volume 3395.080800
_symmetry_space_group_name_H-M "C 2/M"
_symmetry_group_IT_number 12
_symmetry_cell_setting 'monoclinic'
loop_
_space_group_symop_operation_xyz
x,y,z
-x,y,-z
-x,-y,-z
x,-y,z
1/2+x,1/2+y,z
1/2-x,1/2+y,-z
1/2-x,1/2-y,-z
1/2+x,1/2-y,z
loop_
_atom_site_type_symbol
_atom_site_label
_atom_site_fract_x
_atom_site_fract_y
_atom_site_fract_z
Si Si1 0.240772 0.712794 0.102956
Si Si2 0.100091 0.205849 0.992938
Si Si3 0.665579 0.715050 0.826677
Si Si4 0.447002 0.785164 0.756626
Si Si5 0.485227 0.710278 0.407473
Si Si6 0.911865 0.214645 0.283843
Si Si7 0.979939 0.705267 0.118191
Si Si8 0.357029 0.799736 0.832866
O O1 0.239221 0.500000 0.109176
O O2 0.283606 0.776862 0.156670
O O3 0.192014 0.781878 0.140909
O O4 0.250000 0.750000 0.000000
O O5 0.133577 0.264734 0.911571
O O6 0.048394 0.224369 0.962126
O O7 0.108857 0.000000 0.008141
O O8 0.115523 0.305277 0.077783
O O9 0.666609 0.500000 0.825646
O O10 0.638728 0.771224 0.741328
O O11 0.475514 0.737433 0.668390
O O12 0.474882 0.717575 0.839861
O O13 0.394940 0.720349 0.765057
O O14 0.446675 0.000000 0.761381
O O15 0.500000 0.783897 0.500000
O O16 0.479195 0.500000 0.418408
O O17 0.437837 0.777452 0.368551
O O18 0.944295 0.273600 0.201503
O O19 0.912295 0.000000 0.284241
O O20 0.988073 0.500000 0.100531
O O21 0.348363 0.000000 0.803220
#
# Coordination Sequence:
#
# PCOD9171382 Si02
#       8
#     8   8   8   8   8   8   8   8
#     4  10  18  29  44  62  84 113 153 195 229 259
#     4  10  18  28  42  60  84 114 152 190 223 260
#     4   8  14  25  41  60  83 111 143 182 220 255
#     4   9  19  33  45  62  89 119 147 178 218 266
#     4   9  17  30  50  74  94 112 138 174 218 271
#     4   8  14  26  43  64  90 113 136 173 220 265
#     4   9  16  27  42  58  82 114 149 182 214 256
#     4  10  20  31  43  60  85 117 153 190 224 259
#
# _framework density 18.850802999999999
#
# number of rings (size 3 to 8) (size 9 to 14) (size 15 to 20)
#    0.000    2.875    1.250    1.500    0.000    1.750 
#    0.000    2.500    0.000    0.000    0.000    0.875 
#    0.000    0.000    0.000    0.000    0.000    0.000 
#
# Total GULP energy -178285.845332 kJ/mol
# GULP energy per Si atom -5571.432667 kJ/mol
# Density = 1.880790 g / cm^3
# Si number density = 18.850803 Si / 1000 Ang^3
#
#
#
# Elastic Constant Matrix: (Units=GPa)
#
#
# Indices 1 2 3 4 5 6 
#
# 1 168.3375 -4.7920 52.6573 0.0000 18.8576 0.0000
# 2 -4.7920 47.5234 -1.7161 0.0000 3.3105 0.0000
# 3 52.6573 -1.7161 94.4769 0.0000 24.0167 0.0000
# 4 0.0000 0.0000 0.0000 11.1916 0.0000 -0.6019
# 5 18.8576 3.3105 24.0167 0.0000 22.9733 0.0000
# 6 0.0000 0.0000 0.0000 -0.6019 0.0000 9.0694
#
#
#
# Elastic Compliance Matrix: (Units=1/GPa)
#
#
# Indices 1 2 3 4 5 6 
#
# 1 0.007317 0.000792 -0.003416 0.000000 -0.002549 0.000000
# 2 0.000792 0.021517 0.001230 0.000000 -0.005036 0.000000
# 3 -0.003416 0.001230 0.016129 0.000000 -0.014235 0.000000
# 4 0.000000 0.000000 0.000000 0.089673 0.000000 0.005951
# 5 -0.002549 -0.005036 -0.014235 0.000000 0.061229 0.000000
# 6 0.000000 0.000000 0.000000 0.005951 0.000000 0.110656
#
#
# Mechanical properties :
#
#
# Convention : Reuss Voigt Hill
#
# Bulk Modulus (GPa) = 23.71024 44.73735 34.22380
# Shear Modulus (GPa) = 15.46220 26.25942 20.86081
#
# Velocity S-wave (km/s) = 2.86709 3.73636 3.33021
# Velocity P-wave (km/s) = 4.85442 6.51135 5.74296
#
# Compressibility (1/GPa) = 0.04217587
#
# Stress axis : x y z
#
# Youngs Moduli (GPa) = 136.66696 46.47408 61.99846
#
# Poissons Ratio (x) = -0.03681 0.21177
# Poissons Ratio (y) = -0.10825 -0.07624
# Poissons Ratio (z) = 0.46682 -0.05715
#
# Static dielectric constant tensor:
#      x y z
#    x 1.725930 0.000000 0.012280 
#    y 0.000000 1.688090 0.000000 
#    z 0.012280 0.000000 1.652430 
# 
# From -- ./inp_files/248421.got.cif
#   From: 2010.05.17/outbox.cif.g08.bks.cpg/sg12_125_cif.got.tgz:248421.got - 2010.06.03 13:09:07.
