data_PCOD9171604
_publ_section_title
;
Structure prediction by ZEFSAII (Michael W. Deem and Ramdas Pophale) SiO2 
 PCOD9171604
Probable space group: C 2/M
;
_chemical_formula_sum "Si O2"
_cell_formula_units_Z 58
_cell_length_a 16.066259
_cell_length_b 20.485906
_cell_length_c 12.644321
_cell_angle_alpha 90.000000
_cell_angle_beta 142.376713
_cell_angle_gamma 90.000000
_cell_volume 2540.549933
_symmetry_space_group_name_H-M "C 2/M"
_symmetry_group_IT_number 12
_symmetry_cell_setting 'monoclinic'
loop_
_space_group_symop_operation_xyz
x,y,z
-x,y,-z
-x,-y,-z
x,-y,z
1/2+x,1/2+y,z
1/2-x,1/2+y,-z
1/2-x,1/2-y,-z
1/2+x,1/2-y,z
loop_
_atom_site_type_symbol
_atom_site_label
_atom_site_fract_x
_atom_site_fract_y
_atom_site_fract_z
Si Si1 0.555386 0.196336 0.304355
Si Si2 0.383781 0.753907 0.299270
Si Si3 0.305804 0.926608 0.627608
Si Si4 0.435738 0.424260 0.784731
Si Si5 0.616361 0.390439 0.780860
Si Si6 0.500000 0.500000 0.500000
Si Si7 0.684813 0.291959 0.272841
Si Si8 0.143386 0.422419 0.097819
O O1 0.415044 0.205719 0.225013
O O2 0.580425 0.123061 0.293399
O O3 0.580494 0.244793 0.230761
O O4 0.683127 0.207337 0.514958
O O5 0.500000 0.773948 0.500000
O O6 0.419417 0.681238 0.296482
O O7 0.242595 0.764210 0.220033
O O8 0.179542 0.923845 0.422939
O O9 0.261677 0.911402 0.702728
O O10 0.359082 0.000000 0.681939
O O11 0.443285 0.500000 0.830811
O O12 0.569933 0.403918 0.854137
O O13 0.380612 0.364634 0.801863
O O14 0.546597 0.443993 0.634949
O O15 0.777912 0.394872 0.921698
O O16 0.133797 0.500000 0.073037
O O17 0.000000 0.398748 0.000000
#
# Coordination Sequence:
#
# PCOD9171604 Si02
#       8
#     8   8   8   8   8   2   8   8
#     4   9  16  28  42  63  92 124 154 190 230 279
#     4  10  19  27  45  68  95 124 158 188 232 287
#     4   9  18  29  45  65  90 122 154 193 231 276
#     4  10  18  28  45  69  97 121 150 194 242 278
#     4  12  19  28  44  70  97 120 148 192 235 284
#     4  12  20  24  46  76 100 116 144 188 240 286
#     4   9  17  28  40  63  97 128 152 183 231 291
#     4  10  20  31  43  64  94 125 153 183 230 286
#
# _framework density 22.829702999999999
#
# number of rings (size 3 to 8) (size 9 to 14) (size 15 to 20)
#    0.000    2.069    3.448    1.655    3.862    0.000 
#    0.000    0.690    0.000    4.966    0.000    0.000 
#    0.000    0.000    0.000    6.345    0.000    1.655 
#
# Total GULP energy -161557.201716 kJ/mol
# GULP energy per Si atom -5570.937990 kJ/mol
# Density = 2.277774 g / cm^3
# Si number density = 22.829703 Si / 1000 Ang^3
#
#
#
# Elastic Constant Matrix: (Units=GPa)
#
#
# Indices 1 2 3 4 5 6 
#
# 1 130.5913 66.2491 21.7207 0.0000 31.3084 0.0000
# 2 66.2491 128.3799 -7.9830 0.0000 11.7221 0.0000
# 3 21.7207 -7.9830 53.1232 0.0000 2.9351 0.0000
# 4 0.0000 0.0000 0.0000 14.2716 0.0000 35.1939
# 5 31.3084 11.7221 2.9351 0.0000 23.9530 0.0000
# 6 0.0000 0.0000 0.0000 35.1939 0.0000 66.3632
#
#
#
# Elastic Compliance Matrix: (Units=1/GPa)
#
#
# Indices 1 2 3 4 5 6 
#
# 1 0.016837 -0.007533 -0.007052 0.000000 -0.017457 0.000000
# 2 -0.007533 0.011638 0.004631 0.000000 0.003584 0.000000
# 3 -0.007052 0.004631 0.022169 0.000000 0.004234 0.000000
# 4 0.000000 0.000000 0.000000 -0.227657 0.000000 0.120732
# 5 -0.017457 0.003584 0.004234 0.000000 0.062293 0.000000
# 6 0.000000 0.000000 0.000000 0.120732 0.000000 -0.048958
#
#
# Mechanical properties :
#
#
# Convention : Reuss Voigt Hill
#
# Bulk Modulus (GPa) = 32.53519 52.45201 42.49360
# Shear Modulus (GPa) = -37.44611 36.39139 -0.52736
#
# Velocity S-wave (km/s) = -4.05438 3.99687 -0.48114
# Velocity P-wave (km/s) = 2.76317 6.65772 4.28311
#
# Compressibility (1/GPa) = 0.03073595
#
# Stress axis : x y z
#
# Youngs Moduli (GPa) = 59.39285 85.92900 45.10724
#
# Poissons Ratio (x) = 0.64732 0.31809
# Poissons Ratio (y) = 0.44741 -0.20889
# Poissons Ratio (z) = 0.41882 -0.39793
#
# Static dielectric constant tensor:
#      x y z
#    x 1.862280 0.000000 0.015580 
#    y 0.000000 1.784240 0.000000 
#    z 0.015580 0.000000 1.965800 
# 
# From -- ./inp_files/272103.got.cif
#   From: 2010.05.17/outbox.cif.g08.bks.cpg/sg12_137_cif.got.tgz:272103.got - 2010.06.03 13:09:07.
