data_PCOD9171327
_publ_section_title
;
Structure prediction by ZEFSAII (Michael W. Deem and Ramdas Pophale) SiO2 
 PCOD9171327
Probable space group: C 2/M
;
_chemical_formula_sum "Si O2"
_cell_formula_units_Z 64
_cell_length_a 23.031793
_cell_length_b 7.710136
_cell_length_c 20.124299
_cell_angle_alpha 90.000000
_cell_angle_beta 60.456158
_cell_angle_gamma 90.000000
_cell_volume 3108.988681
_symmetry_space_group_name_H-M "C 2/M"
_symmetry_group_IT_number 12
_symmetry_cell_setting 'monoclinic'
loop_
_space_group_symop_operation_xyz
x,y,z
-x,y,-z
-x,-y,-z
x,-y,z
1/2+x,1/2+y,z
1/2-x,1/2+y,-z
1/2-x,1/2-y,-z
1/2+x,1/2-y,z
loop_
_atom_site_type_symbol
_atom_site_label
_atom_site_fract_x
_atom_site_fract_y
_atom_site_fract_z
Si Si1 0.530843 0.291843 0.743265
Si Si2 0.400794 0.710725 0.161684
Si Si3 0.385307 0.707112 0.026487
Si Si4 0.232922 0.712289 0.121627
Si Si5 0.897041 0.294503 0.874962
Si Si6 0.256094 0.207836 0.737234
Si Si7 0.728495 0.703642 0.417128
Si Si8 0.359932 0.700883 0.415224
O O1 0.540364 0.500000 0.738156
O O2 0.559736 0.222260 0.796974
O O3 0.452599 0.256841 0.790176
O O4 0.575213 0.222429 0.657371
O O5 0.407714 0.500000 0.158302
O O6 0.417280 0.771638 0.077445
O O7 0.322657 0.751704 0.216336
O O8 0.381784 0.500000 0.036047
O O9 0.308483 0.772003 0.065133
O O10 0.418042 0.739464 0.937122
O O11 0.234342 0.500000 0.118570
O O12 0.175838 0.775709 0.104172
O O13 0.215717 0.762912 0.207251
O O14 0.892341 0.500000 0.878230
O O15 0.286289 0.276511 0.652010
O O16 0.260417 0.000000 0.732058
O O17 0.737315 0.500000 0.427170
O O18 0.671994 0.774681 0.499113
O O19 0.798951 0.790503 0.396689
O O20 0.375195 0.500000 0.421287
#
# Coordination Sequence:
#
# PCOD9171327 Si02
#       8
#     8   8   8   8   8   8   8   8
#     4  10  19  34  52  68  92 133 173 197 221 281
#     4   8  15  29  51  72  91 120 166 203 227 273
#     4   9  17  33  55  74  89 119 165 208 240 285
#     4   8  17  33  54  73  93 124 167 205 237 283
#     4  11  22  34  47  71 101 128 157 203 254 288
#     4   9  15  30  53  73  94 127 163 198 237 285
#     4  10  18  27  46  79 107 123 149 198 250 286
#     4   9  18  32  49  69  99 135 166 191 225 285
#
# _framework density 20.585473
#
# number of rings (size 3 to 8) (size 9 to 14) (size 15 to 20)
#    0.000    2.750    1.250    2.625    0.000    1.500 
#    0.000    7.500    0.000    0.750    0.000    5.250 
#    0.000    0.000    0.000    0.000    0.000    0.000 
#
# Total GULP energy -178427.601677 kJ/mol
# GULP energy per Si atom -5575.862552 kJ/mol
# Density = 2.053862 g / cm^3
# Si number density = 20.585473 Si / 1000 Ang^3
#
#
#
# Elastic Constant Matrix: (Units=GPa)
#
#
# Indices 1 2 3 4 5 6 
#
# 1 11.9575 -2.6077 -3.6896 0.0007 5.7056 0.0033
# 2 -2.6077 30.1216 -1.2865 0.0015 -1.0576 0.0041
# 3 -3.6896 -1.2865 101.8454 0.0004 9.7121 0.0009
# 4 0.0007 0.0015 0.0004 12.9614 -0.0002 0.0674
# 5 5.7056 -1.0576 9.7121 -0.0002 26.0857 0.0003
# 6 0.0033 0.0041 0.0009 0.0674 0.0003 10.7115
#
#
#
# Elastic Compliance Matrix: (Units=1/GPa)
#
#
# Indices 1 2 3 4 5 6 
#
# 1 0.098336 0.007944 0.005892 -0.000007 -0.023380 -0.000033
# 2 0.007944 0.033897 0.000778 -0.000004 -0.000653 -0.000016
# 3 0.005892 0.000778 0.010536 -0.000001 -0.005180 -0.000003
# 4 -0.000007 -0.000004 -0.000001 0.077154 0.000002 -0.000486
# 5 -0.023380 -0.000653 -0.005180 0.000002 0.045351 0.000007
# 6 -0.000033 -0.000016 -0.000003 -0.000486 0.000007 0.093361
#
#
# Mechanical properties :
#
#
# Convention : Reuss Voigt Hill
#
# Bulk Modulus (GPa) = 5.81402 14.30631 10.06017
# Shear Modulus (GPa) = 12.92860 20.05228 16.49044
#
# Velocity S-wave (km/s) = 2.50880 3.12444 2.83339
# Velocity P-wave (km/s) = 3.35001 4.47001 3.94991
#
# Compressibility (1/GPa) = 0.17199813
#
# Stress axis : x y z
#
# Youngs Moduli (GPa) = 10.16918 29.50134 94.91202
#
# Poissons Ratio (x) = -0.23435 -0.55926
# Poissons Ratio (y) = -0.08078 -0.07386
# Poissons Ratio (z) = -0.05992 -0.02296
#
# Static dielectric constant tensor:
#      x y z
#    x 1.728170 0.000000 0.013570 
#    y 0.000000 1.781070 0.000000 
#    z 0.013570 0.000000 1.790830 
# 
# From -- ./inp_files/324177.got.cif
#   From: 2010.05.17/outbox.cif.g08.bks.cpg/sg12_163_cif.got.tgz:324177.got - 2010.06.03 13:09:07.
