data_PCOD9171121
_publ_section_title
;
Structure prediction by ZEFSAII (Michael W. Deem and Ramdas Pophale) SiO2 
 PCOD9171121
Probable space group: C 2/M
;
_chemical_formula_sum "Si O2"
_cell_formula_units_Z 44
_cell_length_a 23.967642
_cell_length_b 7.895004
_cell_length_c 9.646003
_cell_angle_alpha 90.000000
_cell_angle_beta 111.318513
_cell_angle_gamma 90.000000
_cell_volume 1700.365660
_symmetry_space_group_name_H-M "C 2/M"
_symmetry_group_IT_number 12
_symmetry_cell_setting 'monoclinic'
loop_
_space_group_symop_operation_xyz
x,y,z
-x,y,-z
-x,-y,-z
x,-y,z
1/2+x,1/2+y,z
1/2-x,1/2+y,-z
1/2-x,1/2-y,-z
1/2+x,1/2-y,z
loop_
_atom_site_type_symbol
_atom_site_label
_atom_site_fract_x
_atom_site_fract_y
_atom_site_fract_z
Si Si1 0.818328 0.298913 0.049184
Si Si2 0.276180 0.500000 0.626567
Si Si3 0.585037 0.699531 0.638064
Si Si4 0.990825 0.805292 0.765837
Si Si5 0.587796 0.802610 0.072131
Si Si6 0.662890 0.184458 0.463488
O O1 0.823010 0.500000 0.070155
O O2 0.860860 0.216933 0.202617
O O3 0.750000 0.250000 0.000000
O O4 0.846903 0.252294 0.924796
O O5 0.320993 0.350287 0.607909
O O6 0.223473 0.646548 0.609499
O O7 0.576202 0.500000 0.604915
O O8 0.525688 0.765862 0.663765
O O9 0.608402 0.787917 0.520660
O O10 0.934256 0.723832 0.791686
O O11 0.976433 0.000000 0.727387
O O12 0.042432 0.795812 0.930584
O O13 0.578396 0.000000 0.031458
O O14 0.660231 0.000000 0.383789
#
# Coordination Sequence:
#
# PCOD9171121 Si02
#       6
#     8   4   8   8   8   8
#     4  10  20  31  41  56  77 110 148 181 213 241
#     4   8  16  26  40  60  82 110 138 162 206 260
#     4  10  18  27  41  61  85 111 141 175 205 246
#     4   9  16  24  37  57  77 101 133 165 203 243
#     4   9  16  26  39  52  73 101 135 171 205 245
#     4   9  15  26  41  59  83 112 138 166 206 252
#
# _framework density 25.876788000000001
#
# number of rings (size 3 to 8) (size 9 to 14) (size 15 to 20)
#    0.545    2.182    0.909    3.273    0.000    4.364 
#    0.000    0.000    0.000    0.000    0.000    0.000 
#    0.000    0.000    0.000    9.818    0.000    4.000 
#
# Total GULP energy -122498.362484 kJ/mol
# GULP energy per Si atom -5568.107386 kJ/mol
# Density = 2.581789 g / cm^3
# Si number density = 25.876788 Si / 1000 Ang^3
#
#
#
# Elastic Constant Matrix: (Units=GPa)
#
#
# Indices 1 2 3 4 5 6 
#
# 1 206.7783 47.8353 55.8559 0.0000 -44.7193 0.0000
# 2 47.8353 125.6447 32.0413 0.0000 -22.3712 0.0000
# 3 55.8559 32.0413 147.6373 0.0000 -21.7282 0.0000
# 4 0.0000 0.0000 0.0000 16.7296 0.0000 -13.2628
# 5 -44.7193 -22.3712 -21.7282 0.0000 44.5716 0.0000
# 6 0.0000 0.0000 0.0000 -13.2628 0.0000 40.6431
#
#
#
# Elastic Compliance Matrix: (Units=1/GPa)
#
#
# Indices 1 2 3 4 5 6 
#
# 1 0.006676 -0.001209 -0.001472 0.000000 0.005373 0.000000
# 2 -0.001209 0.009215 -0.001121 0.000000 0.002866 0.000000
# 3 -0.001472 -0.001121 0.007836 0.000000 0.001780 0.000000
# 4 0.000000 0.000000 0.000000 0.080634 0.000000 0.026313
# 5 0.005373 0.002866 0.001780 0.000000 0.030133 0.000000
# 6 0.000000 0.000000 0.000000 0.026313 0.000000 0.033191
#
#
# Mechanical properties :
#
#
# Convention : Reuss Voigt Hill
#
# Bulk Modulus (GPa) = 62.02832 83.50282 72.76557
# Shear Modulus (GPa) = 27.67580 43.34406 35.50993
#
# Velocity S-wave (km/s) = 3.27390 4.09714 3.70843
# Velocity P-wave (km/s) = 6.18983 7.39740 6.82039
#
# Compressibility (1/GPa) = 0.01612167
#
# Stress axis : x y z
#
# Youngs Moduli (GPa) = 149.79966 108.51392 127.62274
#
# Poissons Ratio (x) = 0.13124 0.18791
# Poissons Ratio (y) = 0.18117 0.14303
# Poissons Ratio (z) = 0.22056 0.12161
#
# Static dielectric constant tensor:
#      x y z
#    x 1.843470 0.000000 -0.004500 
#    y 0.000000 1.937750 0.000000 
#    z -0.004500 0.000000 2.115710 
# 
# From -- ./inp_files/236306.got.cif
#   From: 2010.05.17/outbox.cif.g08.bks.cpg/sg12_119_cif.got.tgz:236306.got - 2010.06.03 13:09:07.
