data_PCOD9171468
_publ_section_title
;
Structure prediction by ZEFSAII (Michael W. Deem and Ramdas Pophale) SiO2 
 PCOD9171468
Probable space group: C 2/M
;
_chemical_formula_sum "Si O2"
_cell_formula_units_Z 64
_cell_length_a 23.532665
_cell_length_b 7.444937
_cell_length_c 25.011179
_cell_angle_alpha 90.000000
_cell_angle_beta 134.988914
_cell_angle_gamma 90.000000
_cell_volume 3099.098075
_symmetry_space_group_name_H-M "C 2/M"
_symmetry_group_IT_number 12
_symmetry_cell_setting 'monoclinic'
loop_
_space_group_symop_operation_xyz
x,y,z
-x,y,-z
-x,-y,-z
x,-y,z
1/2+x,1/2+y,z
1/2-x,1/2+y,-z
1/2-x,1/2-y,-z
1/2+x,1/2-y,z
loop_
_atom_site_type_symbol
_atom_site_label
_atom_site_fract_x
_atom_site_fract_y
_atom_site_fract_z
Si Si1 0.773631 0.780380 0.858314
Si Si2 0.545577 0.292653 0.301903
Si Si3 0.822262 0.213927 0.008557
Si Si4 0.166138 0.302355 0.473413
Si Si5 0.935376 0.781129 0.912530
Si Si6 0.997632 0.780103 0.156310
Si Si7 0.405617 0.782613 0.283738
Si Si8 0.473047 0.780351 0.542088
O O1 0.846268 0.725321 0.868714
O O2 0.685932 0.721378 0.781356
O O3 0.771660 0.000000 0.857841
O O4 0.798212 0.718674 0.933980
O O5 0.572224 0.500000 0.318624
O O6 0.602678 0.197608 0.382375
O O7 0.540586 0.219117 0.238867
O O8 0.456149 0.282645 0.266506
O O9 0.905697 0.281160 0.088552
O O10 0.833110 0.000000 0.009588
O O11 0.750000 0.250000 0.000000
O O12 0.183939 0.500000 0.506078
O O13 0.250000 0.250000 0.500000
O O14 0.111654 0.217626 0.485969
O O15 0.959426 0.725325 0.869490
O O16 0.937745 0.000000 0.914937
O O17 0.000000 0.722380 0.000000
O O18 0.997581 0.000000 0.159298
O O19 0.456038 0.727510 0.369543
O O20 0.406283 0.000000 0.283198
O O21 0.500000 0.725577 0.500000
O O22 0.469420 0.000000 0.539339
#
# Coordination Sequence:
#
# PCOD9171468 Si02
#       8
#     8   8   8   8   8   8   8   8
#     4   9  16  26  43  67  93 122 161 206 253 300
#     4  10  19  32  50  74 102 133 167 203 245 297
#     4  10  18  28  43  66  94 121 155 200 246 294
#     4  10  20  36  58  82 109 138 168 206 253 305
#     4   9  14  25  43  64  94 128 159 207 263 298
#     4   9  17  28  43  67  97 125 161 205 250 294
#     4   9  17  30  48  72  98 127 163 205 253 303
#     4   8  15  30  51  75 102 129 162 208 253 292
#
# _framework density 20.651171000000001
#
# number of rings (size 3 to 8) (size 9 to 14) (size 15 to 20)
#    0.000    2.750    1.250    2.250    0.000    0.000 
#    2.250    0.625    0.000    9.375    0.000    4.375 
#    0.000    0.000    0.000    0.000    0.000    0.000 
#
# Total GULP energy -178377.072308 kJ/mol
# GULP energy per Si atom -5574.283510 kJ/mol
# Density = 2.060417 g / cm^3
# Si number density = 20.651171 Si / 1000 Ang^3
#
#
#
# Elastic Constant Matrix: (Units=GPa)
#
#
# Indices 1 2 3 4 5 6 
#
# 1 171.2317 -5.2737 62.2754 0.0000 -3.9151 0.0001
# 2 -5.2737 59.7106 -2.2204 0.0000 0.2273 0.0008
# 3 62.2754 -2.2204 72.5386 0.0000 -7.1838 0.0000
# 4 0.0000 0.0000 0.0000 2.0035 0.0000 2.1847
# 5 -3.9151 0.2273 -7.1838 0.0000 47.0589 0.0000
# 6 0.0001 0.0008 0.0000 2.1847 0.0000 15.9613
#
#
#
# Elastic Compliance Matrix: (Units=1/GPa)
#
#
# Indices 1 2 3 4 5 6 
#
# 1 0.008513 0.000481 -0.007335 0.000000 -0.000414 0.000000
# 2 0.000481 0.016794 0.000099 0.000001 -0.000026 -0.000001
# 3 -0.007335 0.000099 0.020333 -0.000001 0.002493 0.000000
# 4 0.000000 0.000001 -0.000001 0.586692 0.000000 -0.080304
# 5 -0.000414 -0.000026 0.002493 0.000000 0.021596 0.000000
# 6 0.000000 -0.000001 0.000000 -0.080304 0.000000 0.073643
#
#
# Mechanical properties :
#
#
# Convention : Reuss Voigt Hill
#
# Bulk Modulus (GPa) = 31.12475 45.89374 38.50925
# Shear Modulus (GPa) = 6.65079 29.58471 18.11775
#
# Velocity S-wave (km/s) = 1.79653 3.78907 2.96518
# Velocity P-wave (km/s) = 4.40542 6.43539 5.51462
#
# Compressibility (1/GPa) = 0.03212877
#
# Stress axis : x y z
#
# Youngs Moduli (GPa) = 117.46772 59.54620 49.18183
#
# Poissons Ratio (x) = -0.02862 0.36074
# Poissons Ratio (y) = -0.05647 -0.00486
# Poissons Ratio (z) = 0.86160 -0.00588
#
# Static dielectric constant tensor:
#      x y z
#    x 1.729330 0.000000 0.000400 
#    y 0.000000 1.799110 0.000000 
#    z 0.000400 0.000000 1.694930 
# 
# From -- ./inp_files/346109.got.cif
#   From: 2010.05.17/outbox.cif.g08.bks.cpg/sg12_174_cif.got.tgz:346109.got - 2010.06.03 13:09:07.
