data_PCOD9171264
_publ_section_title
;
Structure prediction by ZEFSAII (Michael W. Deem and Ramdas Pophale) SiO2 
 PCOD9171264
Probable space group: C 2/M
;
_chemical_formula_sum "Si O2"
_cell_formula_units_Z 48
_cell_length_a 24.992807
_cell_length_b 8.935241
_cell_length_c 14.525950
_cell_angle_alpha 90.000000
_cell_angle_beta 69.959341
_cell_angle_gamma 90.000000
_cell_volume 3047.469528
_symmetry_space_group_name_H-M "C 2/M"
_symmetry_group_IT_number 12
_symmetry_cell_setting 'monoclinic'
loop_
_space_group_symop_operation_xyz
x,y,z
-x,y,-z
-x,-y,-z
x,-y,z
1/2+x,1/2+y,z
1/2-x,1/2+y,-z
1/2-x,1/2-y,-z
1/2+x,1/2-y,z
loop_
_atom_site_type_symbol
_atom_site_label
_atom_site_fract_x
_atom_site_fract_y
_atom_site_fract_z
Si Si1 0.830907 0.321598 0.499393
Si Si2 0.978249 0.822428 0.228807
Si Si3 0.284321 0.677685 0.340543
Si Si4 0.123815 0.320396 0.830471
Si Si5 0.037811 0.679558 0.565031
Si Si6 0.053081 0.672228 0.040534
O O1 0.826994 0.500000 0.480959
O O2 0.782346 0.288663 0.603444
O O3 0.814750 0.232511 0.416679
O O4 0.895253 0.288672 0.490258
O O5 0.033052 0.772219 0.136960
O O6 0.923575 0.749137 0.210017
O O7 0.980406 0.760042 0.330533
O O8 0.972016 0.000000 0.231548
O O9 0.291451 0.500000 0.326305
O O10 0.315642 0.761220 0.239246
O O11 0.120399 0.500000 0.825284
O O12 0.105687 0.279421 0.945363
O O13 0.032133 0.500000 0.581219
O O14 0.000000 0.723554 0.500000
O O15 0.060837 0.500000 0.065906
O O16 0.000000 0.673060 0.000000
#
# Coordination Sequence:
#
# PCOD9171264 Si02
#       6
#     8   8   8   8   8   8
#     4   9  18  31  45  64  92 123 155 189 227 277
#     4  11  20  29  44  67  94 121 151 192 236 272
#     4  10  18  27  44  69  94 122 151 185 233 277
#     4  10  18  29  45  66  93 125 155 184 225 278
#     4  10  20  34  51  67  88 125 165 194 224 268
#     4   8  16  29  44  62  88 122 154 183 223 278
#
# _framework density 15.750773000000001
#
# number of rings (size 3 to 8) (size 9 to 14) (size 15 to 20)
#    0.000    2.333    1.667    3.500    0.000    4.667 
#    0.000    0.000    0.000    0.000    0.000    1.167 
#    0.000    0.000    0.000    0.000    0.000    0.000 
#
# Total GULP energy -133776.224085 kJ/mol
# GULP energy per Si atom -5574.009337 kJ/mol
# Density = 1.571492 g / cm^3
# Si number density = 15.750773 Si / 1000 Ang^3
#
#
#
# Elastic Constant Matrix: (Units=GPa)
#
#
# Indices 1 2 3 4 5 6 
#
# 1 67.8394 36.4231 59.0756 0.0000 -11.0782 0.0000
# 2 36.4231 60.6658 60.0110 0.0000 -10.0698 0.0000
# 3 59.0756 60.0110 131.7693 0.0000 -29.0939 0.0000
# 4 0.0000 0.0000 0.0000 13.5335 0.0000 -11.4225
# 5 -11.0782 -10.0698 -29.0939 0.0000 25.8355 0.0000
# 6 0.0000 0.0000 0.0000 -11.4225 0.0000 12.5136
#
#
#
# Elastic Compliance Matrix: (Units=1/GPa)
#
#
# Indices 1 2 3 4 5 6 
#
# 1 0.025922 -0.007265 -0.008629 0.000000 -0.001434 0.000000
# 2 -0.007265 0.032511 -0.012563 0.000000 -0.004591 0.000000
# 3 -0.008629 -0.012563 0.020338 0.000000 0.014306 0.000000
# 4 0.000000 0.000000 0.000000 0.321870 0.000000 0.293807
# 5 -0.001434 -0.004591 0.014306 0.000000 0.052412 0.000000
# 6 0.000000 0.000000 0.000000 0.293807 0.000000 0.348104
#
#
# Mechanical properties :
#
#
# Convention : Reuss Voigt Hill
#
# Bulk Modulus (GPa) = 45.75373 63.47712 54.61542
# Shear Modulus (GPa) = 5.77797 17.36083 11.56940
#
# Velocity S-wave (km/s) = 1.91738 3.32357 2.71316
# Velocity P-wave (km/s) = 5.83210 7.42406 6.67570
#
# Compressibility (1/GPa) = 0.02185614
#
# Stress axis : x y z
#
# Youngs Moduli (GPa) = 38.57780 30.75914 49.16934
#
# Poissons Ratio (x) = 0.22346 0.42430
# Poissons Ratio (y) = 0.28026 0.61770
# Poissons Ratio (z) = 0.33290 0.38642
#
# Static dielectric constant tensor:
#      x y z
#    x 1.513750 0.000000 -0.044280 
#    y 0.000000 1.526020 0.000000 
#    z -0.044280 0.000000 1.542610 
# 
# From -- ./inp_files/242613.got.cif
#   From: 2010.05.17/outbox.cif.g08.bks.cpg/sg12_122_cif.got.tgz:242613.got - 2010.06.03 13:09:07.
