data_PCOD9171550
_publ_section_title
;
Structure prediction by ZEFSAII (Michael W. Deem and Ramdas Pophale) SiO2 
 PCOD9171550
Probable space group: C 2/M
;
_chemical_formula_sum "Si O2"
_cell_formula_units_Z 64
_cell_length_a 25.589831
_cell_length_b 8.431074
_cell_length_c 18.426424
_cell_angle_alpha 90.000000
_cell_angle_beta 76.630610
_cell_angle_gamma 90.000000
_cell_volume 3867.758787
_symmetry_space_group_name_H-M "C 2/M"
_symmetry_group_IT_number 12
_symmetry_cell_setting 'monoclinic'
loop_
_space_group_symop_operation_xyz
x,y,z
-x,y,-z
-x,-y,-z
x,-y,z
1/2+x,1/2+y,z
1/2-x,1/2+y,-z
1/2-x,1/2-y,-z
1/2+x,1/2-y,z
loop_
_atom_site_type_symbol
_atom_site_label
_atom_site_fract_x
_atom_site_fract_y
_atom_site_fract_z
Si Si1 0.906911 0.807941 0.680702
Si Si2 0.797559 0.689332 0.316261
Si Si3 0.681526 0.693153 0.410794
Si Si4 0.868264 0.189426 0.422294
Si Si5 0.783412 0.809988 0.162611
Si Si6 0.190196 0.191359 0.000227
Si Si7 0.985727 0.689458 0.422618
Si Si8 0.663715 0.308072 0.162830
O O1 0.864660 0.759931 0.631351
O O2 0.964698 0.738420 0.643849
O O3 0.881292 0.757060 0.765540
O O4 0.910341 0.000000 0.678651
O O5 0.795143 0.500000 0.314690
O O6 0.739770 0.748237 0.365313
O O7 0.843106 0.741813 0.357400
O O8 0.804691 0.750386 0.232434
O O9 0.682359 0.500000 0.410895
O O10 0.665566 0.746798 0.496460
O O11 0.929737 0.237060 0.415347
O O12 0.864295 0.000000 0.421091
O O13 0.817594 0.756935 0.080588
O O14 0.722284 0.749253 0.170832
O O15 0.781970 0.000000 0.163647
O O16 0.189326 0.000000 0.000394
O O17 0.250000 0.250000 0.000000
O O18 0.155985 0.243465 0.081398
O O19 0.980212 0.500000 0.425565
O O20 0.000000 0.743965 0.500000
O O21 0.665124 0.500000 0.164159
#
# Coordination Sequence:
#
# PCOD9171550 Si02
#       8
#     8   8   8   8   8   8   8   8
#     4  10  18  32  53  75  97 130 170 205 246 294
#     4  11  21  35  51  72 102 134 168 205 246 295
#     4   9  18  32  51  73  98 130 166 202 245 292
#     4  11  22  37  54  72  95 129 171 211 250 292
#     4  10  18  28  44  70 102 134 167 199 239 290
#     4   8  15  26  42  66  97 131 163 197 236 288
#     4  11  23  37  52  73  98 128 166 209 253 293
#     4   9  16  29  48  70  99 132 165 201 246 292
#
# _framework density 16.547051
#
# number of rings (size 3 to 8) (size 9 to 14) (size 15 to 20)
#    0.000    2.125    2.500    1.875    0.000    1.500 
#    0.000    1.875    0.000    0.000    0.000    0.875 
#    0.000    7.000    0.000    0.000    0.000    0.000 
#
# Total GULP energy -178431.706494 kJ/mol
# GULP energy per Si atom -5575.990828 kJ/mol
# Density = 1.650939 g / cm^3
# Si number density = 16.547051 Si / 1000 Ang^3
#
#
#
# Elastic Constant Matrix: (Units=GPa)
#
#
# Indices 1 2 3 4 5 6 
#
# 1 45.6220 0.9215 51.8934 0.0000 9.6472 0.0000
# 2 0.9215 11.5652 21.2341 0.0000 -0.9798 0.0000
# 3 51.8934 21.2341 183.2237 0.0000 -0.3079 0.0000
# 4 0.0000 0.0000 0.0000 18.5817 0.0000 -0.5847
# 5 9.6472 -0.9798 -0.3079 0.0000 18.9546 0.0000
# 6 0.0000 0.0000 0.0000 -0.5847 0.0000 15.3461
#
#
#
# Elastic Compliance Matrix: (Units=1/GPa)
#
#
# Indices 1 2 3 4 5 6 
#
# 1 0.042407 0.021573 -0.014546 0.000000 -0.020705 0.000000
# 2 0.021573 0.121383 -0.020186 0.000000 -0.005034 0.000000
# 3 -0.014546 -0.020186 0.011928 0.000000 0.006554 0.000000
# 4 0.000000 0.000000 0.000000 0.053881 0.000000 0.002053
# 5 -0.020705 -0.005034 0.006554 0.000000 0.063142 0.000000
# 6 0.000000 0.000000 0.000000 0.002053 0.000000 0.065241
#
#
# Mechanical properties :
#
#
# Convention : Reuss Voigt Hill
#
# Bulk Modulus (GPa) = 6.69336 43.16765 24.93050
# Shear Modulus (GPa) = 11.51811 21.66727 16.59269
#
# Velocity S-wave (km/s) = 2.64120 3.62254 3.17007
# Velocity P-wave (km/s) = 3.65446 6.60617 5.33838
#
# Compressibility (1/GPa) = 0.14940182
#
# Stress axis : x y z
#
# Youngs Moduli (GPa) = 23.58114 8.23837 83.83732
#
# Poissons Ratio (x) = -0.17773 1.21946
# Poissons Ratio (y) = -0.50873 1.69233
# Poissons Ratio (z) = 0.34300 0.16630
#
# Static dielectric constant tensor:
#      x y z
#    x 1.511170 0.000000 -0.015540 
#    y 0.000000 1.564340 0.000000 
#    z -0.015540 0.000000 1.600890 
# 
# From -- ./inp_files/281380.got.cif
#   From: 2010.05.17/outbox.cif.g08.bks.cpg/sg12_141_cif.got.tgz:281380.got - 2010.06.03 13:09:07.
