data_PCOD9171044
_publ_section_title
;
Structure prediction by ZEFSAII (Michael W. Deem and Ramdas Pophale) SiO2 
 PCOD9171044
Probable space group: C 2/M
;
_chemical_formula_sum "Si O2"
_cell_formula_units_Z 48
_cell_length_a 29.773368
_cell_length_b 7.551799
_cell_length_c 12.712643
_cell_angle_alpha 90.000000
_cell_angle_beta 110.019330
_cell_angle_gamma 90.000000
_cell_volume 2685.633210
_symmetry_space_group_name_H-M "C 2/M"
_symmetry_group_IT_number 12
_symmetry_cell_setting 'monoclinic'
loop_
_space_group_symop_operation_xyz
x,y,z
-x,y,-z
-x,-y,-z
x,-y,z
1/2+x,1/2+y,z
1/2-x,1/2+y,-z
1/2-x,1/2-y,-z
1/2+x,1/2-y,z
loop_
_atom_site_type_symbol
_atom_site_label
_atom_site_fract_x
_atom_site_fract_y
_atom_site_fract_z
Si Si1 0.221794 0.212703 0.583496
Si Si2 0.820415 0.290788 0.070186
Si Si3 0.515179 0.707739 0.388732
Si Si4 0.740337 0.204088 0.168213
Si Si5 0.885042 0.217049 0.466225
Si Si6 0.085546 0.213686 0.745438
O O1 0.250000 0.250000 0.500000
O O2 0.248641 0.283517 0.709140
O O3 0.166918 0.276258 0.538137
O O4 0.218847 0.000000 0.593720
O O5 0.809937 0.500000 0.065362
O O6 0.789435 0.208470 0.140092
O O7 0.876115 0.264352 0.136327
O O8 0.799291 0.219660 0.943250
O O9 0.500000 0.715939 0.500000
O O10 0.518657 0.500000 0.363653
O O11 0.568997 0.779979 0.430050
O O12 0.469060 0.780753 0.290587
O O13 0.726396 0.000000 0.174914
O O14 0.893732 0.270549 0.351786
O O15 0.886290 0.000000 0.468528
O O16 0.083384 0.000000 0.740787
#
# Coordination Sequence:
#
# PCOD9171044 Si02
#       6
#     8   8   8   8   8   8
#     4  10  19  31  46  62  84 113 145 178 211 247
#     4  10  18  26  42  65  88 112 140 173 210 254
#     4   7  11  19  37  62  81 104 140 171 198 248
#     4   9  18  32  44  58  83 116 146 174 210 250
#     4   8  13  24  41  60  83 111 141 173 206 246
#     4   9  14  24  42  63  87 112 137 166 209 260
#
# _framework density 17.872881
#
# number of rings (size 3 to 8) (size 9 to 14) (size 15 to 20)
#    0.000    3.167    1.667    2.500    0.000    1.333 
#    0.000    0.000    0.000    5.500    0.000    1.167 
#    0.000    9.333    0.000    0.000    0.000    0.000 
#
# Total GULP energy -133603.313190 kJ/mol
# GULP energy per Si atom -5566.804716 kJ/mol
# Density = 1.783220 g / cm^3
# Si number density = 17.872881 Si / 1000 Ang^3
#
#
#
# Elastic Constant Matrix: (Units=GPa)
#
#
# Indices 1 2 3 4 5 6 
#
# 1 113.2090 1.7575 84.5319 0.0000 30.1251 0.0000
# 2 1.7575 42.5641 0.8504 0.0000 0.5915 0.0000
# 3 84.5319 0.8504 133.1677 0.0000 30.3440 0.0000
# 4 0.0000 0.0000 0.0000 6.3970 0.0000 -0.5488
# 5 30.1251 0.5915 30.3440 0.0000 36.4210 0.0000
# 6 0.0000 0.0000 0.0000 -0.5488 0.0000 11.9466
#
#
#
# Elastic Compliance Matrix: (Units=1/GPa)
#
#
# Indices 1 2 3 4 5 6 
#
# 1 0.018010 -0.000453 -0.009920 0.000000 -0.006625 0.000000
# 2 -0.000453 0.023511 0.000172 0.000000 -0.000150 0.000000
# 3 -0.009920 0.000172 0.014733 0.000000 -0.004072 0.000000
# 4 0.000000 0.000000 0.000000 0.156941 0.000000 0.007209
# 5 -0.006625 -0.000150 -0.004072 0.000000 0.036332 0.000000
# 6 0.000000 0.000000 0.000000 0.007209 0.000000 0.084037
#
#
# Mechanical properties :
#
#
# Convention : Reuss Voigt Hill
#
# Bulk Modulus (GPa) = 27.89276 51.46892 39.68084
# Shear Modulus (GPa) = 13.66424 24.40634 19.03529
#
# Velocity S-wave (km/s) = 2.76800 3.69935 3.26703
# Velocity P-wave (km/s) = 5.08487 6.86343 6.03997
#
# Compressibility (1/GPa) = 0.03585159
#
# Stress axis : x y z
#
# Youngs Moduli (GPa) = 55.52352 42.53267 67.87343
#
# Poissons Ratio (x) = 0.01928 0.67332
# Poissons Ratio (y) = 0.02517 -0.01166
# Poissons Ratio (z) = 0.55080 -0.00731
#
# Static dielectric constant tensor:
#      x y z
#    x 1.614670 0.000000 0.062800 
#    y 0.000000 1.685450 0.000000 
#    z 0.062800 0.000000 1.631680 
# 
# From -- ./inp_files/185733.got.cif
#   From: 2010.05.17/outbox.cif.g08.bks.cpg/sg12_93_cif.got.tgz:185733.got - 2010.06.03 13:09:07.
