data_PCOD9171403
_publ_section_title
;
Structure prediction by ZEFSAII (Michael W. Deem and Ramdas Pophale) SiO2 
 PCOD9171403
Probable space group: C 2/M
;
_chemical_formula_sum "Si O2"
_cell_formula_units_Z 64
_cell_length_a 25.240065
_cell_length_b 7.423541
_cell_length_c 16.704694
_cell_angle_alpha 90.000000
_cell_angle_beta 81.982329
_cell_angle_gamma 90.000000
_cell_volume 3099.374352
_symmetry_space_group_name_H-M "C 2/M"
_symmetry_group_IT_number 12
_symmetry_cell_setting 'monoclinic'
loop_
_space_group_symop_operation_xyz
x,y,z
-x,y,-z
-x,-y,-z
x,-y,z
1/2+x,1/2+y,z
1/2-x,1/2+y,-z
1/2-x,1/2-y,-z
1/2+x,1/2-y,z
loop_
_atom_site_type_symbol
_atom_site_label
_atom_site_fract_x
_atom_site_fract_y
_atom_site_fract_z
Si Si1 0.228058 0.781235 0.229109
Si Si2 0.804247 0.787212 0.942454
Si Si3 0.954897 0.284619 0.856869
Si Si4 0.517684 0.710431 0.411301
Si Si5 0.050898 0.717337 0.725061
Si Si6 0.649695 0.220288 0.801856
Si Si7 0.114590 0.783393 0.284511
Si Si8 0.904051 0.298526 0.022812
O O1 0.209042 0.732788 0.144253
O O2 0.289278 0.718224 0.224405
O O3 0.175284 0.721160 0.288856
O O4 0.230455 0.000000 0.234658
O O5 0.851789 0.689931 0.977415
O O6 0.816813 0.000000 0.940428
O O7 0.750000 0.750000 0.000000
O O8 0.958357 0.500000 0.864862
O O9 0.908222 0.251507 0.800673
O O10 0.944536 0.213868 0.948992
O O11 0.008614 0.219813 0.801707
O O12 0.500000 0.788933 0.500000
O O13 0.529911 0.500000 0.422829
O O14 0.470520 0.721465 0.355960
O O15 0.569912 0.787638 0.355381
O O16 0.048615 0.500000 0.725533
O O17 0.110169 0.770234 0.738367
O O18 0.651845 0.000000 0.807665
O O19 0.619924 0.281658 0.890146
O O20 0.115398 0.000000 0.289862
O O21 0.924048 0.500000 0.039905
#
# Coordination Sequence:
#
# PCOD9171403 Si02
#       8
#     8   8   8   8   8   8   8   8
#     4   9  16  26  43  65  88 118 155 191 223 263
#     4  11  19  28  42  62  89 121 163 205 236 264
#     4   9  17  27  42  66  92 118 154 196 234 261
#     4   9  18  33  54  76  94 113 140 181 233 284
#     4   9  18  32  49  69  93 122 152 185 224 273
#     4   9  17  29  44  63  91 126 161 189 220 265
#     4   9  16  28  47  69  91 116 148 186 231 275
#     4  10  18  28  42  62  91 125 160 198 232 262
#
# _framework density 20.649328000000001
#
# number of rings (size 3 to 8) (size 9 to 14) (size 15 to 20)
#    0.000    2.625    2.500    0.375    0.000    0.750 
#    0.000    3.125    0.000    0.750    0.000    4.375 
#    0.000    0.000    0.000    0.000    0.000    0.000 
#
# Total GULP energy -178366.768845 kJ/mol
# GULP energy per Si atom -5573.961526 kJ/mol
# Density = 2.060233 g / cm^3
# Si number density = 20.649328 Si / 1000 Ang^3
#
#
#
# Elastic Constant Matrix: (Units=GPa)
#
#
# Indices 1 2 3 4 5 6 
#
# 1 131.9116 -1.1538 70.4688 0.0000 -3.7710 0.0000
# 2 -1.1538 65.8839 3.4458 0.0000 -2.0478 0.0000
# 3 70.4688 3.4458 122.0026 0.0000 -16.9385 0.0000
# 4 0.0000 0.0000 0.0000 8.1986 0.0000 4.2634
# 5 -3.7710 -2.0478 -16.9385 0.0000 15.2475 0.0000
# 6 0.0000 0.0000 0.0000 4.2634 0.0000 9.4555
#
#
#
# Elastic Compliance Matrix: (Units=1/GPa)
#
#
# Indices 1 2 3 4 5 6 
#
# 1 0.011323 0.000416 -0.007278 0.000000 -0.005229 0.000000
# 2 0.000416 0.015260 -0.000441 0.000000 0.001663 0.000000
# 3 -0.007278 -0.000441 0.014371 0.000000 0.014106 0.000000
# 4 0.000000 0.000000 0.000000 0.159330 0.000000 -0.071840
# 5 -0.005229 0.001663 0.014106 0.000000 0.080185 0.000000
# 6 0.000000 0.000000 0.000000 -0.071840 0.000000 0.138150
#
#
# Mechanical properties :
#
#
# Convention : Reuss Voigt Hill
#
# Bulk Modulus (GPa) = 37.95049 51.70220 44.82634
# Shear Modulus (GPa) = 11.31205 23.04947 17.18076
#
# Velocity S-wave (km/s) = 2.34309 3.34463 2.88761
# Velocity P-wave (km/s) = 5.07332 6.32519 5.73352
#
# Compressibility (1/GPa) = 0.02635012
#
# Stress axis : x y z
#
# Youngs Moduli (GPa) = 88.31654 65.52976 69.58430
#
# Poissons Ratio (x) = -0.02729 0.50642
# Poissons Ratio (y) = -0.03678 0.03066
# Poissons Ratio (z) = 0.64275 0.02888
#
# Static dielectric constant tensor:
#      x y z
#    x 1.769210 0.000000 -0.053930 
#    y 0.000000 1.792550 0.000000 
#    z -0.053930 0.000000 1.735750 
# 
# From -- ./inp_files/287542.got.cif
#   From: 2010.05.17/outbox.cif.g08.bks.cpg/sg12_144_cif.got.tgz:287542.got - 2010.06.03 13:09:07.
