data_PCOD9171011
_publ_section_title
;
Structure prediction by ZEFSAII (Michael W. Deem and Ramdas Pophale) SiO2 
 PCOD9171011
Probable space group: C 2/M
;
_chemical_formula_sum "Si O2"
_cell_formula_units_Z 64
_cell_length_a 28.861985
_cell_length_b 9.105777
_cell_length_c 23.098697
_cell_angle_alpha 90.000000
_cell_angle_beta 152.932996
_cell_angle_gamma 90.000000
_cell_volume 2762.312373
_symmetry_space_group_name_H-M "C 2/M"
_symmetry_group_IT_number 12
_symmetry_cell_setting 'monoclinic'
loop_
_space_group_symop_operation_xyz
x,y,z
-x,y,-z
-x,-y,-z
x,-y,z
1/2+x,1/2+y,z
1/2-x,1/2+y,-z
1/2-x,1/2-y,-z
1/2+x,1/2-y,z
loop_
_atom_site_type_symbol
_atom_site_label
_atom_site_fract_x
_atom_site_fract_y
_atom_site_fract_z
Si Si1 0.294945 0.176659 0.404579
Si Si2 0.500948 0.169264 0.419893
Si Si3 0.582853 0.320807 0.044500
Si Si4 0.717939 0.154871 0.045091
Si Si5 0.915523 0.756117 0.202245
Si Si6 0.790616 0.324893 0.231378
Si Si7 0.090595 0.178584 0.227303
Si Si8 0.626737 0.335513 0.396123
O O1 0.384400 0.232762 0.460773
O O2 0.176200 0.219916 0.274996
O O3 0.328891 0.227559 0.506414
O O4 0.297148 0.000000 0.401771
O O5 0.455910 0.172444 0.304251
O O6 0.407646 0.232368 0.355091
O O7 0.513716 0.000000 0.451124
O O8 0.587237 0.500000 0.052558
O O9 0.521957 0.277735 0.918015
O O10 0.500000 0.274422 0.000000
O O11 0.700983 0.272618 0.175001
O O12 0.817933 0.156452 0.115925
O O13 0.737886 0.287144 0.111171
O O14 0.714371 0.000000 0.073934
O O15 0.624575 0.167373 0.897521
O O16 0.009443 0.848191 0.284162
O O17 0.799698 0.500000 0.248699
O O18 0.124218 0.227209 0.328457
O O19 0.090191 0.000000 0.229477
O O20 0.672850 0.500000 0.448794
#
# Coordination Sequence:
#
# PCOD9171011 Si02
#       8
#     8   8   8   8   8   8   8   8
#     4   9  17  29  44  64  93 124 150 176 214 265
#     4   8  14  25  40  58  83 115 143 170 211 261
#     4   9  17  30  49  70  89 113 150 193 233 274
#     4  10  18  26  39  60  87 120 155 187 223 268
#     4   9  17  25  36  56  87 119 151 186 216 249
#     4   9  17  29  45  64  85 110 144 186 229 270
#     4   9  17  28  43  64  89 118 150 186 226 263
#     4  10  18  28  43  63  89 119 152 186 217 254
#
# _framework density 23.168993
#
# number of rings (size 3 to 8) (size 9 to 14) (size 15 to 20)
#    0.000    2.875    0.000    1.875    0.000    5.000 
#    0.000    0.000    0.000    1.875    0.000    5.250 
#    0.000    0.000    0.000    9.125    0.000    5.125 
#
# Total GULP energy -178162.845396 kJ/mol
# GULP energy per Si atom -5567.588919 kJ/mol
# Density = 2.311626 g / cm^3
# Si number density = 23.168993 Si / 1000 Ang^3
#
#
#
# Elastic Constant Matrix: (Units=GPa)
#
#
# Indices 1 2 3 4 5 6 
#
# 1 128.9163 -0.4944 43.8401 0.0000 28.3919 0.0000
# 2 -0.4944 16.1779 3.6538 0.0000 -2.6919 0.0000
# 3 43.8401 3.6538 153.1053 0.0000 37.0771 0.0000
# 4 0.0000 0.0000 0.0000 -2.2861 0.0000 6.7602
# 5 28.3919 -2.6919 37.0771 0.0000 46.4131 0.0000
# 6 0.0000 0.0000 0.0000 6.7602 0.0000 -3.0956
#
#
#
# Elastic Compliance Matrix: (Units=1/GPa)
#
#
# Indices 1 2 3 4 5 6 
#
# 1 0.009266 -0.000093 -0.001583 0.000000 -0.004409 0.000000
# 2 -0.000093 0.063497 -0.002969 0.000000 0.006111 0.000000
# 3 -0.001583 -0.002969 0.008509 0.000000 -0.006001 0.000000
# 4 0.000000 0.000000 0.000000 0.080149 0.000000 0.175030
# 5 -0.004409 0.006111 -0.006001 0.000000 0.029391 0.000000
# 6 0.000000 0.000000 0.000000 0.175030 0.000000 0.059191
#
#
# Mechanical properties :
#
#
# Convention : Reuss Voigt Hill
#
# Bulk Modulus (GPa) = 13.89228 43.57760 28.73494
# Shear Modulus (GPa) = 17.64995 24.95295 21.30145
#
# Velocity S-wave (km/s) = 2.76305 3.28532 3.03544
# Velocity P-wave (km/s) = 4.02348 5.76546 4.97136
#
# Compressibility (1/GPa) = 0.07198244
#
# Stress axis : x y z
#
# Youngs Moduli (GPa) = 107.92114 15.74874 117.52399
#
# Poissons Ratio (x) = 0.00146 0.18608
# Poissons Ratio (y) = 0.01002 0.34889
# Poissons Ratio (z) = 0.17088 0.04675
#
# Static dielectric constant tensor:
#      x y z
#    x 1.956680 0.000000 0.005590 
#    y 0.000000 1.869910 0.000000 
#    z 0.005590 0.000000 1.927320 
# 
# From -- ./inp_files/369202.got.cif
#   From: 2010.05.17/outbox.cif.g08.bks.cpg/sg12_185_cif.got.tgz:369202.got - 2010.06.03 13:09:07.
