data_PCOD9171860
_publ_section_title
;
Structure prediction by ZEFSAII (Michael W. Deem and Ramdas Pophale) SiO2 
 PCOD9171860
Probable space group: C 2/M
;
_chemical_formula_sum "Si O2"
_cell_formula_units_Z 56
_cell_length_a 16.161224
_cell_length_b 25.197825
_cell_length_c 8.868492
_cell_angle_alpha 90.000000
_cell_angle_beta 45.398603
_cell_angle_gamma 90.000000
_cell_volume 2571.417065
_symmetry_space_group_name_H-M "C 2/M"
_symmetry_group_IT_number 12
_symmetry_cell_setting 'monoclinic'
loop_
_space_group_symop_operation_xyz
x,y,z
-x,y,-z
-x,-y,-z
x,-y,z
1/2+x,1/2+y,z
1/2-x,1/2+y,-z
1/2-x,1/2-y,-z
1/2+x,1/2-y,z
loop_
_atom_site_type_symbol
_atom_site_label
_atom_site_fract_x
_atom_site_fract_y
_atom_site_fract_z
Si Si1 0.480003 0.943965 0.206058
Si Si2 0.036456 0.330829 0.778817
Si Si3 0.702864 0.559517 0.559375
Si Si4 0.131999 0.130861 0.375022
Si Si5 0.280541 0.664217 0.326504
Si Si6 0.040505 0.216235 0.710153
Si Si7 0.218451 0.810291 0.995000
O O1 0.515533 0.885855 0.216909
O O2 0.341290 0.945487 0.405463
O O3 0.469904 0.000000 0.799818
O O4 0.500000 0.943032 0.000000
O O5 0.175733 0.333513 0.581342
O O6 0.007144 0.277061 0.730986
O O7 0.000000 0.325332 0.000000
O O8 0.653611 0.500000 0.636122
O O9 0.679262 0.585867 0.426259
O O10 0.663496 0.605803 0.725013
O O11 0.110206 0.187058 0.488596
O O12 0.219448 0.147570 0.129903
O O13 0.000000 0.114573 0.500000
O O14 0.375680 0.707731 0.253824
O O15 0.224490 0.673766 0.235772
O O16 0.918272 0.187088 0.876010
O O17 0.250000 0.750000 0.000000
#
# Coordination Sequence:
#
# PCOD9171860 Si02
#       7
#     8   8   8   8   8   8   8
#     4   8  15  27  44  71 101 125 160 215 265 302
#     4  10  18  28  50  80 103 134 181 226 266 315
#     4   9  18  34  56  78 101 138 187 228 266 322
#     4   9  20  36  53  75 110 144 175 223 281 330
#     4  10  20  35  55  79 111 143 181 231 275 319
#     4  10  20  35  54  78 106 144 188 225 267 329
#     4  11  22  35  53  80 116 149 176 219 282 338
#
# _framework density 21.777875999999999
#
# number of rings (size 3 to 8) (size 9 to 14) (size 15 to 20)
#    0.000    2.429    0.000    2.571    0.000    7.143 
#    0.000    0.714    0.000   11.143    0.000    1.000 
#    0.000   30.286    0.000    0.000    0.000    0.000 
#
# Total GULP energy -155971.611182 kJ/mol
# GULP energy per Si atom -5570.414685 kJ/mol
# Density = 2.172831 g / cm^3
# Si number density = 21.777876 Si / 1000 Ang^3
#
#
#
# Elastic Constant Matrix: (Units=GPa)
#
#
# Indices 1 2 3 4 5 6 
#
# 1 46.1601 14.4912 19.5538 0.0000 8.0530 0.0000
# 2 14.4912 166.2734 17.1747 0.0000 12.1039 0.0000
# 3 19.5538 17.1747 71.0995 0.0000 3.5569 0.0000
# 4 0.0000 0.0000 0.0000 14.8212 0.0000 5.1540
# 5 8.0530 12.1039 3.5569 0.0000 24.6987 0.0000
# 6 0.0000 0.0000 0.0000 5.1540 0.0000 22.0509
#
#
#
# Elastic Compliance Matrix: (Units=1/GPa)
#
#
# Indices 1 2 3 4 5 6 
#
# 1 0.025994 -0.001080 -0.006538 0.000000 -0.007004 0.000000
# 2 -0.001080 0.006416 -0.001121 0.000000 -0.002630 0.000000
# 3 -0.006538 -0.001121 0.016116 0.000000 0.000360 0.000000
# 4 0.000000 0.000000 0.000000 0.073440 0.000000 -0.017165
# 5 -0.007004 -0.002630 0.000360 0.000000 0.044009 0.000000
# 6 0.000000 0.000000 0.000000 -0.017165 0.000000 0.049362
#
#
# Mechanical properties :
#
#
# Convention : Reuss Voigt Hill
#
# Bulk Modulus (GPa) = 32.20869 42.88583 37.54726
# Shear Modulus (GPa) = 20.56234 27.80172 24.18203
#
# Velocity S-wave (km/s) = 3.07609 3.57684 3.33587
# Velocity P-wave (km/s) = 5.23815 6.06576 5.66708
#
# Compressibility (1/GPa) = 0.03104752
#
# Stress axis : x y z
#
# Youngs Moduli (GPa) = 38.47015 155.86964 62.05193
#
# Poissons Ratio (x) = 0.16839 0.40567
# Poissons Ratio (y) = 0.04156 0.06956
# Poissons Ratio (z) = 0.25150 0.17474
#
# Static dielectric constant tensor:
#      x y z
#    x 1.834140 0.000000 0.040090 
#    y 0.000000 1.873840 0.000000 
#    z 0.040090 0.000000 1.893730 
# 
# From -- ./inp_files/79085.got.cif
#   From: 2010.05.17/outbox.cif.g08.bks.cpg/sg12_40_cif.got.tgz:79085.got - 2010.06.03 13:09:07.
