data_PCOD9171929
_publ_section_title
;
Structure prediction by ZEFSAII (Michael W. Deem and Ramdas Pophale) SiO2 
 PCOD9171929
Probable space group: C 2/M
;
_chemical_formula_sum "Si O2"
_cell_formula_units_Z 64
_cell_length_a 20.704602
_cell_length_b 9.262921
_cell_length_c 24.572466
_cell_angle_alpha 90.000000
_cell_angle_beta 57.765309
_cell_angle_gamma 90.000000
_cell_volume 3986.276336
_symmetry_space_group_name_H-M "C 2/M"
_symmetry_group_IT_number 12
_symmetry_cell_setting 'monoclinic'
loop_
_space_group_symop_operation_xyz
x,y,z
-x,y,-z
-x,-y,-z
x,-y,z
1/2+x,1/2+y,z
1/2-x,1/2+y,-z
1/2-x,1/2-y,-z
1/2+x,1/2-y,z
loop_
_atom_site_type_symbol
_atom_site_label
_atom_site_fract_x
_atom_site_fract_y
_atom_site_fract_z
Si Si1 0.455412 0.666337 0.697775
Si Si2 0.202802 0.165322 0.300958
Si Si3 0.086193 0.175054 0.967070
Si Si4 0.465467 0.831353 0.429228
Si Si5 0.281118 0.670933 0.171644
Si Si6 0.125348 0.670839 0.172001
Si Si7 0.876495 0.331921 0.572301
Si Si8 0.168208 0.173859 0.043676
O O1 0.471459 0.500000 0.704348
O O2 0.377066 0.667956 0.697230
O O3 0.519769 0.735928 0.630373
O O4 0.436233 0.762054 0.758970
O O5 0.262113 0.248386 0.235966
O O6 0.184304 0.241220 0.366428
O O7 0.224922 0.000000 0.298635
O O8 0.144638 0.224867 0.894063
O O9 0.084937 0.000000 0.963227
O O10 0.120366 0.206741 0.010876
O O11 0.000000 0.228479 0.000000
O O12 0.400012 0.783569 0.501045
O O13 0.544603 0.826208 0.428287
O O14 0.453408 0.000000 0.420816
O O15 0.288419 0.500000 0.179055
O O16 0.208030 0.687766 0.164425
O O17 0.113563 0.500000 0.168698
O O18 0.129208 0.758990 0.114460
O O19 0.854219 0.500000 0.580068
O O20 0.176557 0.000000 0.044629
O O21 0.250000 0.250000 0.000000
#
# Coordination Sequence:
#
# PCOD9171929 Si02
#       8
#     8   8   8   8   8   8   8   8
#     4   9  16  24  34  53  78 107 140 179 223 264
#     4   9  16  23  33  52  76 103 137 179 222 259
#     4   9  18  33  51  70  91 117 152 189 227 274
#     4   8  13  21  32  46  68 102 140 177 215 259
#     4   9  16  28  44  61  81 110 145 180 222 266
#     4  10  18  29  44  64  86 113 148 186 226 266
#     4   8  13  21  32  46  67 100 141 178 213 257
#     4  11  20  32  50  72  93 117 149 188 231 272
#
# _framework density 16.055081999999999
#
# number of rings (size 3 to 8) (size 9 to 14) (size 15 to 20)
#    0.000    2.875    1.250    2.250    0.000    4.000 
#    0.000    2.500    0.000    3.375    0.000    0.000 
#    0.000    0.000    0.000    1.125    0.000   12.750 
#
# Total GULP energy -178183.954210 kJ/mol
# GULP energy per Si atom -5568.248569 kJ/mol
# Density = 1.601854 g / cm^3
# Si number density = 16.055082 Si / 1000 Ang^3
#
#
#
# Elastic Constant Matrix: (Units=GPa)
#
#
# Indices 1 2 3 4 5 6 
#
# 1 35.6732 27.1370 37.6058 -0.0001 -3.3081 0.0001
# 2 27.1370 85.2836 86.2528 -0.0001 -2.6149 0.0003
# 3 37.6058 86.2528 190.2863 0.0000 -6.6165 -0.0001
# 4 -0.0001 -0.0001 0.0000 31.6720 0.0000 2.9894
# 5 -3.3081 -2.6149 -6.6165 0.0000 7.1686 -0.0001
# 6 0.0001 0.0003 -0.0001 2.9894 -0.0001 6.1970
#
#
#
# Elastic Compliance Matrix: (Units=1/GPa)
#
#
# Indices 1 2 3 4 5 6 
#
# 1 0.039355 -0.008697 -0.003424 0.000000 0.011828 0.000000
# 2 -0.008697 0.023583 -0.009104 0.000000 -0.003813 -0.000001
# 3 -0.003424 -0.009104 0.010216 0.000000 0.004528 0.000001
# 4 0.000000 0.000000 0.000000 0.033080 0.000000 -0.015958
# 5 0.011828 -0.003813 0.004528 0.000000 0.147744 0.000002
# 6 0.000000 -0.000001 0.000001 -0.015958 0.000002 0.169066
#
#
# Mechanical properties :
#
#
# Convention : Reuss Voigt Hill
#
# Bulk Modulus (GPa) = 32.56860 68.13715 50.35288
# Shear Modulus (GPa) = 10.51023 19.69068 15.10046
#
# Velocity S-wave (km/s) = 2.56136 3.50586 3.07015
# Velocity P-wave (km/s) = 5.39231 7.67593 6.63313
#
# Compressibility (1/GPa) = 0.03070442
#
# Stress axis : x y z
#
# Youngs Moduli (GPa) = 25.41000 42.40359 97.88718
#
# Poissons Ratio (x) = 0.36877 0.33519
# Poissons Ratio (y) = 0.22098 0.89112
# Poissons Ratio (z) = 0.08701 0.38602
#
# Static dielectric constant tensor:
#      x y z
#    x 1.511050 0.000000 -0.005560 
#    y 0.000000 1.532970 0.000000 
#    z -0.005560 0.000000 1.554020 
# 
# From -- ./inp_files/345533.got.cif
#   From: 2010.05.17/outbox.cif.g08.bks.cpg/sg12_173_cif.got.tgz:345533.got - 2010.06.03 13:09:07.
