data_PCOD9171773
_publ_section_title
;
Structure prediction by ZEFSAII (Michael W. Deem and Ramdas Pophale) SiO2 
 PCOD9171773
Probable space group: C 2/M
;
_chemical_formula_sum "Si O2"
_cell_formula_units_Z 64
_cell_length_a 20.724322
_cell_length_b 7.832897
_cell_length_c 21.164796
_cell_angle_alpha 90.000000
_cell_angle_beta 96.464070
_cell_angle_gamma 90.000000
_cell_volume 3413.870622
_symmetry_space_group_name_H-M "C 2/M"
_symmetry_group_IT_number 12
_symmetry_cell_setting 'monoclinic'
loop_
_space_group_symop_operation_xyz
x,y,z
-x,y,-z
-x,-y,-z
x,-y,z
1/2+x,1/2+y,z
1/2-x,1/2+y,-z
1/2-x,1/2-y,-z
1/2+x,1/2-y,z
loop_
_atom_site_type_symbol
_atom_site_label
_atom_site_fract_x
_atom_site_fract_y
_atom_site_fract_z
Si Si1 0.913095 0.197010 0.808600
Si Si2 0.705316 0.793899 0.054078
Si Si3 0.909627 0.296982 0.672738
Si Si4 0.691315 0.705385 0.539570
Si Si5 0.441161 0.705917 0.536757
Si Si6 0.731171 0.194506 0.191578
Si Si7 0.759863 0.709664 0.671235
Si Si8 0.443560 0.793874 0.946741
O O1 0.939958 0.227853 0.741335
O O2 0.847054 0.306516 0.806704
O O3 0.954586 0.241402 0.874971
O O4 0.893747 0.000000 0.811153
O O5 0.737360 0.726617 0.122922
O O6 0.629838 0.735535 0.042923
O O7 0.702604 0.000000 0.059092
O O8 0.750000 0.750000 0.000000
O O9 0.908467 0.500000 0.677577
O O10 0.943329 0.249908 0.610891
O O11 0.833884 0.236932 0.662603
O O12 0.686275 0.500000 0.542607
O O13 0.750000 0.750000 0.500000
O O14 0.625521 0.771955 0.501400
O O15 0.710967 0.766428 0.611476
O O16 0.500000 0.767991 0.500000
O O17 0.440481 0.500000 0.533353
O O18 0.756637 0.271114 0.259876
O O19 0.755493 0.000000 0.191071
O O20 0.760249 0.500000 0.672649
O O21 0.443410 0.000000 0.949133
O O22 0.500000 0.732432 0.000000
#
# Coordination Sequence:
#
# PCOD9171773 Si02
#       8
#     8   8   8   8   8   8   8   8
#     4  10  18  28  47  76 104 126 157 205 255 295
#     4   9  17  29  48  72  98 130 164 201 242 289
#     4  10  18  31  51  72  95 128 169 206 241 293
#     4  10  18  30  49  73  97 124 161 203 246 292
#     4  10  21  34  48  70 103 136 163 201 253 303
#     4   8  15  29  46  67  95 127 166 201 237 289
#     4   8  14  26  47  71  91 115 157 207 242 276
#     4   9  18  34  54  74  98 134 173 205 239 286
#
# _framework density 18.747047999999999
#
# number of rings (size 3 to 8) (size 9 to 14) (size 15 to 20)
#    0.000    2.750    1.250    3.000    0.000    2.500 
#    0.000    0.000    2.750    0.000    0.000    0.000 
#    0.000    0.000    0.000    0.000    0.000    0.000 
#
# Total GULP energy -178245.684317 kJ/mol
# GULP energy per Si atom -5570.177635 kJ/mol
# Density = 1.870438 g / cm^3
# Si number density = 18.747048 Si / 1000 Ang^3
#
#
#
# Elastic Constant Matrix: (Units=GPa)
#
#
# Indices 1 2 3 4 5 6 
#
# 1 72.9840 7.0746 72.2451 0.0000 -1.4314 0.0000
# 2 7.0746 34.0279 5.3443 0.0000 1.7253 0.0000
# 3 72.2451 5.3443 222.1699 0.0000 2.0608 0.0000
# 4 0.0000 0.0000 0.0000 20.3847 0.0000 -6.8759
# 5 -1.4314 1.7253 2.0608 0.0000 30.1157 0.0000
# 6 0.0000 0.0000 0.0000 -6.8759 0.0000 10.1251
#
#
#
# Elastic Compliance Matrix: (Units=1/GPa)
#
#
# Indices 1 2 3 4 5 6 
#
# 1 0.020634 -0.003329 -0.006645 0.000000 0.001626 0.000000
# 2 -0.003329 0.030118 0.000376 0.000000 -0.001909 0.000000
# 3 -0.006645 0.000376 0.006660 0.000000 -0.000793 0.000000
# 4 0.000000 0.000000 0.000000 0.063632 0.000000 0.043213
# 5 0.001626 -0.001909 -0.000793 0.000000 0.033446 0.000000
# 6 0.000000 0.000000 0.000000 0.043213 0.000000 0.128110
#
#
# Mechanical properties :
#
#
# Convention : Reuss Voigt Hill
#
# Bulk Modulus (GPa) = 26.16718 55.38999 40.77858
# Shear Modulus (GPa) = 15.89653 28.42627 22.16140
#
# Velocity S-wave (km/s) = 2.91511 3.89820 3.44194
# Velocity P-wave (km/s) = 5.03178 7.06197 6.13149
#
# Compressibility (1/GPa) = 0.03821582
#
# Stress axis : x y z
#
# Youngs Moduli (GPa) = 48.46480 33.20322 150.14851
#
# Poissons Ratio (x) = 0.11052 0.99768
# Poissons Ratio (y) = 0.16133 -0.05640
# Poissons Ratio (z) = 0.32203 -0.01247
#
# Static dielectric constant tensor:
#      x y z
#    x 1.621750 0.000000 0.017270 
#    y 0.000000 1.686310 0.000000 
#    z 0.017270 0.000000 1.702100 
# 
# From -- ./inp_files/319164.got.cif
#   From: 2010.05.17/outbox.cif.g08.bks.cpg/sg12_160_cif.got.tgz:319164.got - 2010.06.03 13:09:07.
