data_PCOD9171333
_publ_section_title
;
Structure prediction by ZEFSAII (Michael W. Deem and Ramdas Pophale) SiO2 
 PCOD9171333
Probable space group: C 2/M
;
_chemical_formula_sum "Si O2"
_cell_formula_units_Z 48
_cell_length_a 23.491090
_cell_length_b 7.629608
_cell_length_c 20.084299
_cell_angle_alpha 90.000000
_cell_angle_beta 143.386542
_cell_angle_gamma 90.000000
_cell_volume 2146.888481
_symmetry_space_group_name_H-M "C 2/M"
_symmetry_group_IT_number 12
_symmetry_cell_setting 'monoclinic'
loop_
_space_group_symop_operation_xyz
x,y,z
-x,y,-z
-x,-y,-z
x,-y,z
1/2+x,1/2+y,z
1/2-x,1/2+y,-z
1/2-x,1/2-y,-z
1/2+x,1/2-y,z
loop_
_atom_site_type_symbol
_atom_site_label
_atom_site_fract_x
_atom_site_fract_y
_atom_site_fract_z
Si Si1 0.534414 0.706897 0.372735
Si Si2 0.376670 0.285450 0.949498
Si Si3 0.110057 0.798857 0.578514
Si Si4 0.343564 0.289939 0.630072
Si Si5 0.174735 0.699233 0.779227
Si Si6 0.910407 0.786415 0.830463
O O1 0.555202 0.500000 0.394316
O O2 0.598139 0.781343 0.493802
O O3 0.569080 0.774080 0.334250
O O4 0.422377 0.722661 0.282809
O O5 0.372457 0.500000 0.945678
O O6 0.278763 0.221749 0.890869
O O7 0.381096 0.227119 0.876449
O O8 0.478461 0.238281 0.076225
O O9 0.164786 0.703497 0.689091
O O10 0.000000 0.804873 0.500000
O O11 0.144548 0.000000 0.608542
O O12 0.351104 0.500000 0.642929
O O13 0.250000 0.250000 0.500000
O O14 0.348583 0.222611 0.710171
O O15 0.174467 0.500000 0.801947
O O16 0.906581 0.000000 0.829684
#
# Coordination Sequence:
#
# PCOD9171333 Si02
#       6
#     8   8   8   8   8   8
#     4   9  19  34  46  65 100 137 165 190 238 308
#     4   8  15  28  49  76 101 124 160 209 253 289
#     4   8  15  28  43  60  93 134 161 187 233 293
#     4  10  21  35  54  75  98 133 170 202 244 298
#     4  10  18  27  47  77  99 120 161 214 251 276
#     4   8  15  31  51  71  99 132 163 201 248 298
#
# _framework density 22.357937
#
# number of rings (size 3 to 8) (size 9 to 14) (size 15 to 20)
#    0.000    3.167    0.000    2.500    2.333    3.667 
#    0.000    0.833    0.000    2.000    0.000    5.833 
#    0.000    0.000    0.000    0.000    0.000    0.000 
#
# Total GULP energy -133787.328934 kJ/mol
# GULP energy per Si atom -5574.472039 kJ/mol
# Density = 2.230705 g / cm^3
# Si number density = 22.357937 Si / 1000 Ang^3
#
#
#
# Elastic Constant Matrix: (Units=GPa)
#
#
# Indices 1 2 3 4 5 6 
#
# 1 47.5003 -0.8049 27.4040 0.0000 6.8502 0.0000
# 2 -0.8049 40.3002 -9.0335 0.0000 -4.7668 0.0000
# 3 27.4040 -9.0335 91.1482 0.0000 7.2223 0.0000
# 4 0.0000 0.0000 0.0000 -42.3975 0.0000 -31.6589
# 5 6.8502 -4.7668 7.2223 0.0000 36.8369 0.0000
# 6 0.0000 0.0000 0.0000 -31.6589 0.0000 -13.8300
#
#
#
# Elastic Compliance Matrix: (Units=1/GPa)
#
#
# Indices 1 2 3 4 5 6 
#
# 1 0.025970 -0.001623 -0.007689 0.000000 -0.003532 0.000000
# 2 -0.001623 0.025774 0.002797 0.000000 0.003088 0.000000
# 3 -0.007689 0.002797 0.013630 0.000000 -0.000880 0.000000
# 4 0.000000 0.000000 0.000000 0.033251 0.000000 -0.076116
# 5 -0.003532 0.003088 -0.000880 0.000000 0.028376 0.000000
# 6 0.000000 0.000000 0.000000 -0.076116 0.000000 0.101935
#
#
# Mechanical properties :
#
#
# Convention : Reuss Voigt Hill
#
# Bulk Modulus (GPa) = 19.10375 23.78665 21.44520
# Shear Modulus (GPa) = 19.27433 6.88074 13.07753
#
# Velocity S-wave (km/s) = 2.93931 1.75619 2.42113
# Velocity P-wave (km/s) = 4.48134 3.84375 4.17473
#
# Compressibility (1/GPa) = 0.05234575
#
# Stress axis : x y z
#
# Youngs Moduli (GPa) = 38.50546 38.79921 73.36810
#
# Poissons Ratio (x) = 0.06295 0.56413
# Poissons Ratio (y) = 0.06248 -0.20525
# Poissons Ratio (z) = 0.29607 -0.10854
#
# Static dielectric constant tensor:
#      x y z
#    x 1.864670 0.000000 -0.004100 
#    y 0.000000 1.846180 0.000000 
#    z -0.004100 0.000000 1.851170 
# 
# From -- ./inp_files/323864.got.cif
#   From: 2010.05.17/outbox.cif.g08.bks.cpg/sg12_162_cif.got.tgz:323864.got - 2010.06.03 13:09:07.
