data_PCOD9171593
_publ_section_title
;
Structure prediction by ZEFSAII (Michael W. Deem and Ramdas Pophale) SiO2 
 PCOD9171593
Probable space group: C 2/M
;
_chemical_formula_sum "Si O2"
_cell_formula_units_Z 48
_cell_length_a 11.624858
_cell_length_b 18.739529
_cell_length_c 9.695984
_cell_angle_alpha 90.000000
_cell_angle_beta 78.154536
_cell_angle_gamma 90.000000
_cell_volume 2067.235442
_symmetry_space_group_name_H-M "C 2/M"
_symmetry_group_IT_number 12
_symmetry_cell_setting 'monoclinic'
loop_
_space_group_symop_operation_xyz
x,y,z
-x,y,-z
-x,-y,-z
x,-y,z
1/2+x,1/2+y,z
1/2-x,1/2+y,-z
1/2-x,1/2-y,-z
1/2+x,1/2-y,z
loop_
_atom_site_type_symbol
_atom_site_label
_atom_site_fract_x
_atom_site_fract_y
_atom_site_fract_z
Si Si1 0.889479 0.689128 0.612810
Si Si2 0.434252 0.195317 0.198321
Si Si3 0.735485 0.165248 0.978973
Si Si4 0.787165 0.840129 0.549716
Si Si5 0.402746 0.579661 0.735836
Si Si6 0.408061 0.635982 0.146492
O O1 0.866713 0.770594 0.565137
O O2 0.766586 0.655338 0.590994
O O3 0.000000 0.659020 0.500000
O O4 0.940186 0.685703 0.756060
O O5 0.387933 0.157647 0.069642
O O6 0.332033 0.173254 0.331673
O O7 0.423875 0.279847 0.173556
O O8 0.828963 0.137470 0.842040
O O9 0.750000 0.250000 0.000000
O O10 0.781730 0.126187 0.105228
O O11 0.859542 0.905545 0.592123
O O12 0.370991 0.500000 0.786081
O O13 0.538178 0.594170 0.737884
O O14 0.500000 0.617335 0.000000
#
# Coordination Sequence:
#
# PCOD9171593 Si02
#       6
#     8   8   8   8   8   8
#     4   9  16  27  47  68  87 117 160 209 249 284
#     4   9  15  27  44  63  93 123 154 205 241 279
#     4   8  16  27  41  62  92 127 160 193 230 276
#     4   9  17  28  44  70  91 122 159 196 250 291
#     4  10  18  28  45  69 102 130 154 197 252 299
#     4   9  16  26  41  64  95 128 156 188 236 286
#
# _framework density 23.219417
#
# number of rings (size 3 to 8) (size 9 to 14) (size 15 to 20)
#    0.000    3.000    1.667    0.000    0.000    3.000 
#    0.000    0.000    0.000   13.000    0.000    0.000 
#    0.000  150.000    2.000    0.167    0.000    0.000 
#
# Total GULP energy -133667.727312 kJ/mol
# GULP energy per Si atom -5569.488638 kJ/mol
# Density = 2.316657 g / cm^3
# Si number density = 23.219417 Si / 1000 Ang^3
#
#
#
# Elastic Constant Matrix: (Units=GPa)
#
#
# Indices 1 2 3 4 5 6 
#
# 1 163.8645 16.9789 70.7457 0.0000 51.4681 0.0000
# 2 16.9789 50.0114 16.2324 0.0000 10.0630 0.0000
# 3 70.7457 16.2324 148.0114 0.0000 64.9115 0.0000
# 4 0.0000 0.0000 0.0000 12.8432 0.0000 0.7369
# 5 51.4681 10.0630 64.9115 0.0000 70.6034 0.0000
# 6 0.0000 0.0000 0.0000 0.7369 0.0000 4.9046
#
#
#
# Elastic Compliance Matrix: (Units=1/GPa)
#
#
# Indices 1 2 3 4 5 6 
#
# 1 0.008413 -0.001365 -0.002123 0.000000 -0.003986 0.000000
# 2 -0.001365 0.021044 -0.001301 0.000000 -0.000808 0.000000
# 3 -0.002123 -0.001301 0.011987 0.000000 -0.009287 0.000000
# 4 0.000000 0.000000 0.000000 0.078539 0.000000 -0.011800
# 5 -0.003986 -0.000808 -0.009287 0.000000 0.025723 0.000000
# 6 0.000000 0.000000 0.000000 -0.011800 0.000000 0.205663
#
#
# Mechanical properties :
#
#
# Convention : Reuss Voigt Hill
#
# Bulk Modulus (GPa) = 31.38271 63.31128 47.34699
# Shear Modulus (GPa) = 13.45645 34.86557 24.16101
#
# Velocity S-wave (km/s) = 2.40996 3.87921 3.22926
# Velocity P-wave (km/s) = 4.61400 6.88405 5.85999
#
# Compressibility (1/GPa) = 0.03186468
#
# Stress axis : x y z
#
# Youngs Moduli (GPa) = 118.86826 47.52012 83.42555
#
# Poissons Ratio (x) = 0.06486 0.17714
# Poissons Ratio (y) = 0.16225 0.10854
# Poissons Ratio (z) = 0.25239 0.06183
#
# Static dielectric constant tensor:
#      x y z
#    x 1.994460 0.000000 0.004160 
#    y 0.000000 1.790870 0.000000 
#    z 0.004160 0.000000 2.079860 
# 
# From -- ./inp_files/131250.got.cif
#   From: 2010.05.17/outbox.cif.g08.bks.cpg/sg12_66_cif.got.tgz:131250.got - 2010.06.03 13:09:07.
