data_PCOD9171510
_publ_section_title
;
Structure prediction by ZEFSAII (Michael W. Deem and Ramdas Pophale) SiO2 
 PCOD9171510
Probable space group: C 2/M
;
_chemical_formula_sum "Si O2"
_cell_formula_units_Z 56
_cell_length_a 23.031240
_cell_length_b 9.132666
_cell_length_c 22.143846
_cell_angle_alpha 90.000000
_cell_angle_beta 131.107566
_cell_angle_gamma 90.000000
_cell_volume 3509.439058
_symmetry_space_group_name_H-M "C 2/M"
_symmetry_group_IT_number 12
_symmetry_cell_setting 'monoclinic'
loop_
_space_group_symop_operation_xyz
x,y,z
-x,y,-z
-x,-y,-z
x,-y,z
1/2+x,1/2+y,z
1/2-x,1/2+y,-z
1/2-x,1/2-y,-z
1/2+x,1/2-y,z
loop_
_atom_site_type_symbol
_atom_site_label
_atom_site_fract_x
_atom_site_fract_y
_atom_site_fract_z
Si Si1 0.315950 0.674898 0.467584
Si Si2 0.359832 0.174122 0.620576
Si Si3 0.415558 0.321916 0.421187
Si Si4 0.247014 0.168548 0.093148
Si Si5 0.869001 0.175470 0.255511
Si Si6 0.989635 0.174450 0.230114
Si Si7 0.629756 0.168779 0.933411
O O1 0.328352 0.500000 0.484754
O O2 0.354783 0.759155 0.549817
O O3 0.224451 0.701541 0.408212
O O4 0.353963 0.718059 0.430309
O O5 0.428171 0.251720 0.703192
O O6 0.372305 0.000000 0.626707
O O7 0.500000 0.271890 0.500000
O O8 0.418040 0.500000 0.420646
O O9 0.393109 0.273901 0.338640
O O10 0.292688 0.246977 0.178187
O O11 0.307483 0.169972 0.078290
O O12 0.229475 0.000000 0.094868
O O13 0.172239 0.254062 0.018325
O O14 0.937583 0.203455 0.254428
O O15 0.856745 0.000000 0.247831
O O16 0.942872 0.243688 0.142409
O O17 0.996140 0.000000 0.227881
O O18 0.611004 0.000000 0.933351
#
# Coordination Sequence:
#
# PCOD9171510 Si02
#       7
#     8   8   8   8   8   8   8
#     4   9  18  32  48  65  86 115 150 185 221 261
#     4  10  19  30  45  65  89 116 147 184 223 262
#     4   9  16  28  47  68  88 113 148 186 220 257
#     4   9  16  26  40  60  89 121 149 178 216 263
#     4   9  17  28  44  65  88 117 151 184 219 261
#     4  10  18  28  44  66  91 118 148 181 220 264
#     4   9  16  26  41  62  89 118 148 182 218 258
#
# _framework density 15.956967000000001
#
# number of rings (size 3 to 8) (size 9 to 14) (size 15 to 20)
#    0.000    2.714    0.000    2.571    0.000    6.857 
#    0.000    0.714    0.000    1.714    0.000    1.000 
#    0.000    8.000    0.000    0.000    0.000    0.000 
#
# Total GULP energy -156063.188315 kJ/mol
# GULP energy per Si atom -5573.685297 kJ/mol
# Density = 1.592065 g / cm^3
# Si number density = 15.956967 Si / 1000 Ang^3
#
#
#
# Elastic Constant Matrix: (Units=GPa)
#
#
# Indices 1 2 3 4 5 6 
#
# 1 40.5914 27.2361 45.6329 0.0000 -0.5353 0.0000
# 2 27.2361 64.7162 64.9265 0.0000 12.2414 0.0000
# 3 45.6329 64.9265 167.2373 0.0000 11.5625 0.0000
# 4 0.0000 0.0000 0.0000 31.2841 0.0000 3.6025
# 5 -0.5353 12.2414 11.5625 0.0000 21.1748 0.0000
# 6 0.0000 0.0000 0.0000 3.6025 0.0000 13.1604
#
#
#
# Elastic Compliance Matrix: (Units=1/GPa)
#
#
# Indices 1 2 3 4 5 6 
#
# 1 0.041310 -0.012343 -0.007322 0.000000 0.012178 0.000000
# 2 -0.012343 0.031040 -0.007712 0.000000 -0.014046 0.000000
# 3 -0.007322 -0.007712 0.011095 0.000000 -0.001785 0.000000
# 4 0.000000 0.000000 0.000000 0.033006 0.000000 -0.009035
# 5 0.012178 -0.014046 -0.001785 0.000000 0.056629 0.000000
# 6 0.000000 0.000000 0.000000 -0.009035 0.000000 0.078458
#
#
# Mechanical properties :
#
#
# Convention : Reuss Voigt Hill
#
# Bulk Modulus (GPa) = 34.85392 60.90402 47.87897
# Shear Modulus (GPa) = 15.83003 22.10715 18.96859
#
# Velocity S-wave (km/s) = 3.15309 3.72617 3.45154
# Velocity P-wave (km/s) = 5.92839 7.53412 6.77897
#
# Compressibility (1/GPa) = 0.02869118
#
# Stress axis : x y z
#
# Youngs Moduli (GPa) = 24.20731 32.21605 90.13303
#
# Poissons Ratio (x) = 0.39766 0.65994
# Poissons Ratio (y) = 0.29880 0.69507
# Poissons Ratio (z) = 0.17724 0.24844
#
# Static dielectric constant tensor:
#      x y z
#    x 1.517570 0.000000 0.003170 
#    y 0.000000 1.534360 0.000000 
#    z 0.003170 0.000000 1.521500 
# 
# From -- ./inp_files/319692.got.cif
#   From: 2010.05.17/outbox.cif.g08.bks.cpg/sg12_160_cif.got.tgz:319692.got - 2010.06.03 13:09:07.
