data_PCOD9171387
_publ_section_title
;
Structure prediction by ZEFSAII (Michael W. Deem and Ramdas Pophale) SiO2 
 PCOD9171387
Probable space group: C 2/M
;
_chemical_formula_sum "Si O2"
_cell_formula_units_Z 64
_cell_length_a 26.433949
_cell_length_b 7.432666
_cell_length_c 17.854017
_cell_angle_alpha 90.000000
_cell_angle_beta 89.628345
_cell_angle_gamma 90.000000
_cell_volume 3507.789085
_symmetry_space_group_name_H-M "C 2/M"
_symmetry_group_IT_number 12
_symmetry_cell_setting 'monoclinic'
loop_
_space_group_symop_operation_xyz
x,y,z
-x,y,-z
-x,-y,-z
x,-y,z
1/2+x,1/2+y,z
1/2-x,1/2+y,-z
1/2-x,1/2-y,-z
1/2+x,1/2-y,z
loop_
_atom_site_type_symbol
_atom_site_label
_atom_site_fract_x
_atom_site_fract_y
_atom_site_fract_z
Si Si1 0.054235 0.719923 0.089739
Si Si2 0.803997 0.718468 0.664573
Si Si3 0.646867 0.791370 0.184207
Si Si4 0.684207 0.788082 0.660461
Si Si5 0.189779 0.714940 0.498335
Si Si6 0.940163 0.281001 0.082219
Si Si7 0.755635 0.786576 0.911913
Si Si8 0.343764 0.220752 0.177656
O O1 0.055265 0.500000 0.090071
O O2 0.096811 0.785908 0.146275
O O3 0.996498 0.774323 0.106313
O O4 0.066744 0.773830 0.004255
O O5 0.804485 0.500000 0.664879
O O6 0.833133 0.785650 0.737544
O O7 0.744932 0.770588 0.669359
O O8 0.825962 0.780201 0.583962
O O9 0.692981 0.786561 0.124683
O O10 0.635344 0.000000 0.199957
O O11 0.670150 0.713274 0.578355
O O12 0.659559 0.716373 0.736522
O O13 0.672553 0.000000 0.658307
O O14 0.181970 0.500000 0.498957
O O15 0.250000 0.750000 0.500000
O O16 0.939752 0.500000 0.082653
O O17 0.894219 0.221170 0.134415
O O18 0.706356 0.721383 0.867030
O O19 0.758011 0.000000 0.901600
O O20 0.750000 0.750000 0.000000
O O21 0.343255 0.000000 0.177800
#
# Coordination Sequence:
#
# PCOD9171387 Si02
#       8
#     8   8   8   8   8   8   8   8
#     4   8  14  24  39  57  76 100 131 171 209 236
#     4   9  16  25  37  56  82 108 131 158 194 240
#     4  10  18  28  42  61  84 107 133 165 203 243
#     4   9  15  25  39  56  79 105 134 165 196 233
#     4   8  14  23  36  53  75 105 134 158 190 232
#     4   8  13  23  38  56  76  97 130 174 210 232
#     4  11  21  31  42  59  84 111 137 162 198 245
#     4   9  16  25  39  59  81 103 131 169 204 235
#
# _framework density 18.24511
#
# number of rings (size 3 to 8) (size 9 to 14) (size 15 to 20)
#    0.000    3.000    1.250    1.875    0.000    2.000 
#    0.000    0.000    0.000    0.000    0.000    9.625 
#    0.000    7.000    0.000    0.000    0.000   45.625 
#
# Total GULP energy -178344.832775 kJ/mol
# GULP energy per Si atom -5573.276024 kJ/mol
# Density = 1.820358 g / cm^3
# Si number density = 18.245110 Si / 1000 Ang^3
#
#
#
# Elastic Constant Matrix: (Units=GPa)
#
#
# Indices 1 2 3 4 5 6 
#
# 1 70.8641 -5.3917 41.3406 0.0000 6.5591 0.0000
# 2 -5.3917 57.1565 -4.7819 0.0000 -0.4150 0.0000
# 3 41.3406 -4.7819 128.7716 0.0000 10.0142 0.0000
# 4 0.0000 0.0000 0.0000 3.2980 0.0000 -0.8999
# 5 6.5591 -0.4150 10.0142 0.0000 22.5005 0.0000
# 6 0.0000 0.0000 0.0000 -0.8999 0.0000 5.2015
#
#
#
# Elastic Compliance Matrix: (Units=1/GPa)
#
#
# Indices 1 2 3 4 5 6 
#
# 1 0.017600 0.001189 -0.005396 0.000000 -0.002707 0.000000
# 2 0.001189 0.017631 0.000284 0.000000 -0.000148 0.000000
# 3 -0.005396 0.000284 0.009722 0.000000 -0.002749 0.000000
# 4 0.000000 0.000000 0.000000 0.318238 0.000000 0.055060
# 5 -0.002707 -0.000148 -0.002749 0.000000 0.046453 0.000000
# 6 0.000000 0.000000 0.000000 0.055060 0.000000 0.201778
#
#
# Mechanical properties :
#
#
# Convention : Reuss Voigt Hill
#
# Bulk Modulus (GPa) = 26.94747 35.45846 31.20296
# Shear Modulus (GPa) = 7.91595 21.24169 14.57882
#
# Velocity S-wave (km/s) = 2.08521 3.41580 2.82982
# Velocity P-wave (km/s) = 4.53863 5.91892 5.27413
#
# Compressibility (1/GPa) = 0.03710924
#
# Stress axis : x y z
#
# Youngs Moduli (GPa) = 56.81720 56.71918 102.85692
#
# Poissons Ratio (x) = -0.06745 0.55498
# Poissons Ratio (y) = -0.06757 -0.02926
# Poissons Ratio (z) = 0.30657 -0.01613
#
# Static dielectric constant tensor:
#      x y z
#    x 1.591720 0.000000 0.001490 
#    y 0.000000 2.017990 0.000000 
#    z 0.001490 0.000000 1.680660 
# 
# From -- ./inp_files/291585.got.cif
#   From: 2010.05.17/outbox.cif.g08.bks.cpg/sg12_146_cif.got.tgz:291585.got - 2010.06.03 13:09:07.
