data_PCOD9171196
_publ_section_title
;
Structure prediction by ZEFSAII (Michael W. Deem and Ramdas Pophale) SiO2 
 PCOD9171196
Probable space group: C 2/M
;
_chemical_formula_sum "Si O2"
_cell_formula_units_Z 56
_cell_length_a 11.651667
_cell_length_b 24.115092
_cell_length_c 7.861495
_cell_angle_alpha 90.000000
_cell_angle_beta 93.354580
_cell_angle_gamma 90.000000
_cell_volume 2205.145956
_symmetry_space_group_name_H-M "C 2/M"
_symmetry_group_IT_number 12
_symmetry_cell_setting 'monoclinic'
loop_
_space_group_symop_operation_xyz
x,y,z
-x,y,-z
-x,-y,-z
x,-y,z
1/2+x,1/2+y,z
1/2-x,1/2+y,-z
1/2-x,1/2-y,-z
1/2+x,1/2-y,z
loop_
_atom_site_type_symbol
_atom_site_label
_atom_site_fract_x
_atom_site_fract_y
_atom_site_fract_z
Si Si1 0.667999 0.558990 0.243917
Si Si2 0.372060 0.562295 0.367265
Si Si3 0.146280 0.438299 0.119829
Si Si4 0.339316 0.315346 0.318745
Si Si5 0.436351 0.081624 0.328380
Si Si6 0.221123 0.843547 0.052770
Si Si7 0.159671 0.695950 0.608293
O O1 0.640852 0.500000 0.162160
O O2 0.617814 0.561552 0.428085
O O3 0.805100 0.562750 0.296643
O O4 0.635651 0.609040 0.117712
O O5 0.410611 0.500000 0.311989
O O6 0.240946 0.563927 0.281006
O O7 0.406400 0.626084 0.329088
O O8 0.160325 0.500000 0.045331
O O9 0.178269 0.384704 0.010169
O O10 0.020194 0.433651 0.184337
O O11 0.313528 0.309738 0.115460
O O12 0.228636 0.318176 0.439674
O O13 0.390948 0.257421 0.387823
O O14 0.500000 0.059395 0.500000
O O15 0.428010 0.147743 0.352577
O O16 0.252283 0.809088 0.223306
#
# Coordination Sequence:
#
# PCOD9171196 Si02
#       7
#     8   8   8   8   8   8   8
#     4  10  18  27  42  66  94 123 158 189 227 274
#     4   9  16  29  47  68  90 121 152 187 233 279
#     4  10  19  28  44  66  97 133 163 191 226 272
#     4  10  18  35  49  64  88 116 163 205 241 279
#     4  11  18  30  45  67  95 133 169 199 231 273
#     4  10  19  32  46  66  88 123 162 202 237 272
#     4  10  21  32  48  65  85 124 164 203 238 274
#
# _framework density 25.395143999999998
#
# number of rings (size 3 to 8) (size 9 to 14) (size 15 to 20)
#    0.000    2.000    4.286    2.143    0.000    3.429 
#    0.000    3.571    0.000    0.000    0.000    0.000 
#    0.000    0.571    0.000    2.571    0.000    0.286 
#
# Total GULP energy -156239.928623 kJ/mol
# GULP energy per Si atom -5579.997451 kJ/mol
# Density = 2.533734 g / cm^3
# Si number density = 25.395144 Si / 1000 Ang^3
#
#
#
# Elastic Constant Matrix: (Units=GPa)
#
#
# Indices 1 2 3 4 5 6 
#
# 1 76.0662 22.3105 21.9140 0.0000 -6.2318 0.0000
# 2 22.3105 192.7059 8.6938 0.0000 1.7235 0.0000
# 3 21.9140 8.6938 148.1272 0.0000 -3.6297 0.0000
# 4 0.0000 0.0000 0.0000 19.2589 0.0000 -6.9748
# 5 -6.2318 1.7235 -3.6297 0.0000 34.4340 0.0000
# 6 0.0000 0.0000 0.0000 -6.9748 0.0000 9.6359
#
#
#
# Elastic Compliance Matrix: (Units=1/GPa)
#
#
# Indices 1 2 3 4 5 6 
#
# 1 0.014387 -0.001599 -0.001974 0.000000 0.002476 0.000000
# 2 -0.001599 0.005384 -0.000093 0.000000 -0.000569 0.000000
# 3 -0.001974 -0.000093 0.007058 0.000000 0.000391 0.000000
# 4 0.000000 0.000000 0.000000 0.070371 0.000000 0.050937
# 5 0.002476 -0.000569 0.000391 0.000000 0.029559 0.000000
# 6 0.000000 0.000000 0.000000 0.050937 0.000000 0.140648
#
#
# Mechanical properties :
#
#
# Convention : Reuss Voigt Hill
#
# Bulk Modulus (GPa) = 51.29128 58.08179 54.68654
# Shear Modulus (GPa) = 17.77854 36.93116 27.35485
#
# Velocity S-wave (km/s) = 2.64877 3.81761 3.28559
# Velocity P-wave (km/s) = 5.44020 6.50793 5.99787
#
# Compressibility (1/GPa) = 0.01949649
#
# Stress axis : x y z
#
# Youngs Moduli (GPa) = 69.50796 185.74776 141.68224
#
# Poissons Ratio (x) = 0.29696 0.27967
# Poissons Ratio (y) = 0.11112 0.01323
# Poissons Ratio (z) = 0.13720 0.01735
#
# Static dielectric constant tensor:
#      x y z
#    x 2.058170 0.000000 0.026880 
#    y 0.000000 2.020980 0.000000 
#    z 0.026880 0.000000 2.067380 
# 
# From -- ./inp_files/78462.got.cif
#   From: 2010.05.17/outbox.cif.g08.bks.cpg/sg12_40_cif.got.tgz:78462.got - 2010.06.03 13:09:07.
