data_PCOD9171815
_publ_section_title
;
Structure prediction by ZEFSAII (Michael W. Deem and Ramdas Pophale) SiO2 
 PCOD9171815
Probable space group: C 2/M
;
_chemical_formula_sum "Si O2"
_cell_formula_units_Z 56
_cell_length_a 20.387951
_cell_length_b 7.502003
_cell_length_c 27.611835
_cell_angle_alpha 90.000000
_cell_angle_beta 30.579645
_cell_angle_gamma 90.000000
_cell_volume 2148.514106
_symmetry_space_group_name_H-M "C 2/M"
_symmetry_group_IT_number 12
_symmetry_cell_setting 'monoclinic'
loop_
_space_group_symop_operation_xyz
x,y,z
-x,y,-z
-x,-y,-z
x,-y,z
1/2+x,1/2+y,z
1/2-x,1/2+y,-z
1/2-x,1/2-y,-z
1/2+x,1/2-y,z
loop_
_atom_site_type_symbol
_atom_site_label
_atom_site_fract_x
_atom_site_fract_y
_atom_site_fract_z
Si Si1 0.003301 0.791086 0.586632
Si Si2 0.768671 0.208992 0.225779
Si Si3 0.244534 0.709171 0.616196
Si Si4 0.138266 0.780911 0.932057
Si Si5 0.531048 0.214644 0.826664
Si Si6 0.467717 0.714827 0.321968
Si Si7 0.318681 0.794002 0.894785
O O1 0.853766 0.779675 0.667159
O O2 0.112192 0.715989 0.481894
O O3 0.015304 0.719301 0.633866
O O4 0.033991 0.000000 0.570857
O O5 0.768998 0.279362 0.170823
O O6 0.908257 0.240717 0.160431
O O7 0.750448 0.000000 0.234783
O O8 0.253325 0.500000 0.623045
O O9 0.143945 0.785591 0.718998
O O10 0.170368 0.730417 0.612243
O O11 0.193908 0.713624 0.947602
O O12 0.138249 0.000000 0.934130
O O13 0.000000 0.726165 0.000000
O O14 0.394630 0.283177 0.892757
O O15 0.524757 0.000000 0.827002
O O16 0.477870 0.500000 0.314426
O O17 0.573122 0.788527 0.216908
O O18 0.291175 0.000000 0.922511
#
# Coordination Sequence:
#
# PCOD9171815 Si02
#       7
#     8   8   8   8   8   8   8
#     4  10  20  33  50  74 107 143 182 223 265 311
#     4  11  22  35  55  80 107 139 174 223 273 315
#     4   9  19  34  51  72 102 148 191 218 251 308
#     4   9  18  35  60  86 106 130 173 221 263 317
#     4   9  19  35  54  74 105 146 182 215 254 313
#     4  10  18  28  48  78 109 138 172 226 274 304
#     4   9  17  34  58  79 103 142 182 213 255 320
#
# _framework density 26.064526000000001
#
# number of rings (size 3 to 8) (size 9 to 14) (size 15 to 20)
#    0.000    2.429    1.429    2.143    0.000    4.000 
#    0.000    3.571    0.000    3.857    0.000    0.000 
#    0.000    0.000    0.000    0.000    0.000    0.000 
#
# Total GULP energy -156500.125920 kJ/mol
# GULP energy per Si atom -5589.290211 kJ/mol
# Density = 2.600520 g / cm^3
# Si number density = 26.064526 Si / 1000 Ang^3
#
#
#
# Elastic Constant Matrix: (Units=GPa)
#
#
# Indices 1 2 3 4 5 6 
#
# 1 153.4315 -2.7196 37.2927 0.0208 -15.0347 -0.0272
# 2 -2.7196 90.2520 11.0119 0.0224 7.7527 -0.0374
# 3 37.2927 11.0119 111.3270 0.0051 -22.3857 -0.0065
# 4 0.0208 0.0224 0.0051 14.2549 -0.0110 -4.0549
# 5 -15.0347 7.7527 -22.3857 -0.0110 40.9526 0.0200
# 6 -0.0272 -0.0374 -0.0065 -4.0549 0.0200 21.6016
#
#
#
# Elastic Compliance Matrix: (Units=1/GPa)
#
#
# Indices 1 2 3 4 5 6 
#
# 1 0.007186 0.000361 -0.002164 -0.000007 0.001387 0.000006
# 2 0.000361 0.011587 -0.001889 -0.000015 -0.003094 0.000020
# 3 -0.002164 -0.001889 0.011018 0.000005 0.005586 -0.000007
# 4 -0.000007 -0.000015 0.000005 0.074109 0.000016 0.013911
# 5 0.001387 -0.003094 0.005586 0.000016 0.028566 -0.000025
# 6 0.000006 0.000020 -0.000007 0.013911 -0.000025 0.048904
#
#
# Mechanical properties :
#
#
# Convention : Reuss Voigt Hill
#
# Bulk Modulus (GPa) = 44.62925 49.57560 47.10243
# Shear Modulus (GPa) = 25.48126 35.99020 30.73573
#
# Velocity S-wave (km/s) = 3.13009 3.71996 3.43770
# Velocity P-wave (km/s) = 5.49755 6.12474 5.81960
#
# Compressibility (1/GPa) = 0.02240683
#
# Stress axis : x y z
#
# Youngs Moduli (GPa) = 139.16244 86.30174 90.76462
#
# Poissons Ratio (x) = -0.03119 0.19642
# Poissons Ratio (y) = -0.05030 0.17148
# Poissons Ratio (z) = 0.30115 0.16305
#
# Static dielectric constant tensor:
#      x y z
#    x 2.064400 -0.000010 -0.005730 
#    y -0.000010 1.955210 0.000000 
#    z -0.005730 0.000000 2.116890 
# 
# From -- ./inp_files/281672.got.cif
#   From: 2010.05.17/outbox.cif.g08.bks.cpg/sg12_141_cif.got.tgz:281672.got - 2010.06.03 13:09:07.
