data_PCOD9171796
_publ_section_title
;
Structure prediction by ZEFSAII (Michael W. Deem and Ramdas Pophale) SiO2 
 PCOD9171796
Probable space group: C 2/M
;
_chemical_formula_sum "Si O2"
_cell_formula_units_Z 48
_cell_length_a 9.419052
_cell_length_b 21.604624
_cell_length_c 12.703002
_cell_angle_alpha 90.000000
_cell_angle_beta 98.575655
_cell_angle_gamma 90.000000
_cell_volume 2556.097646
_symmetry_space_group_name_H-M "C 2/M"
_symmetry_group_IT_number 12
_symmetry_cell_setting 'monoclinic'
loop_
_space_group_symop_operation_xyz
x,y,z
-x,y,-z
-x,-y,-z
x,-y,z
1/2+x,1/2+y,z
1/2-x,1/2+y,-z
1/2-x,1/2-y,-z
1/2+x,1/2-y,z
loop_
_atom_site_type_symbol
_atom_site_label
_atom_site_fract_x
_atom_site_fract_y
_atom_site_fract_z
Si Si1 0.010278 0.090234 0.835203
Si Si2 0.415488 0.274162 0.803289
Si Si3 0.601406 0.432531 0.408131
Si Si4 0.865504 0.795059 0.562705
Si Si5 0.743797 0.433424 0.027578
Si Si6 0.160634 0.701998 0.917017
O O1 0.006458 0.164484 0.840336
O O2 0.987260 0.071799 0.711571
O O3 0.152588 0.068382 0.909470
O O4 0.875462 0.069054 0.891758
O O5 0.415472 0.266808 0.679019
O O6 0.253690 0.288838 0.820562
O O7 0.497602 0.221084 0.875811
O O8 0.500000 0.433508 0.500000
O O9 0.677388 0.500000 0.414576
O O10 0.683740 0.366645 0.422889
O O11 0.750000 0.750000 0.500000
O O12 0.000000 0.798772 0.500000
O O13 0.819930 0.500000 0.043806
O O14 0.827578 0.369036 0.046351
O O15 0.250000 0.750000 0.000000
#
# Coordination Sequence:
#
# PCOD9171796 Si02
#       6
#     8   8   8   8   8   8
#     4   9  16  29  47  74 101 127 165 215 261 294
#     4  10  20  33  54  78 103 136 173 211 255 304
#     4   9  17  29  48  72 100 130 167 213 260 301
#     4  10  20  35  54  77 105 135 172 213 259 304
#     4  10  18  28  48  74 102 131 168 212 253 299
#     4  11  20  34  52  77 104 136 173 208 254 307
#
# _framework density 18.778625999999999
#
# number of rings (size 3 to 8) (size 9 to 14) (size 15 to 20)
#    0.000    2.167    1.667    3.500    0.000    0.000 
#    0.000    0.000    0.000    3.500    0.000    0.000 
#    0.000    0.000    0.000    0.000    0.000    0.000 
#
# Total GULP energy -133701.669086 kJ/mol
# GULP energy per Si atom -5570.902879 kJ/mol
# Density = 1.873589 g / cm^3
# Si number density = 18.778626 Si / 1000 Ang^3
#
#
#
# Elastic Constant Matrix: (Units=GPa)
#
#
# Indices 1 2 3 4 5 6 
#
# 1 41.4417 39.4782 5.7920 0.0000 6.4017 0.0000
# 2 39.4782 182.3067 27.3386 0.0000 27.2221 0.0000
# 3 5.7920 27.3386 108.1771 0.0000 5.0359 0.0000
# 4 0.0000 0.0000 0.0000 8.6892 0.0000 6.3199
# 5 6.4017 27.2221 5.0359 0.0000 17.4214 0.0000
# 6 0.0000 0.0000 0.0000 6.3199 0.0000 12.4656
#
#
#
# Elastic Compliance Matrix: (Units=1/GPa)
#
#
# Indices 1 2 3 4 5 6 
#
# 1 0.030420 -0.006422 0.000048 0.000000 -0.001158 0.000000
# 2 -0.006422 0.008697 -0.001349 0.000000 -0.010840 0.000000
# 3 0.000048 -0.001349 0.009615 0.000000 -0.000688 0.000000
# 4 0.000000 0.000000 0.000000 0.182314 0.000000 -0.092432
# 5 -0.001158 -0.010840 -0.000688 0.000000 0.074963 0.000000
# 6 0.000000 0.000000 0.000000 -0.092432 0.000000 0.127083
#
#
# Mechanical properties :
#
#
# Convention : Reuss Voigt Hill
#
# Bulk Modulus (GPa) = 30.04347 53.01591 41.52969
# Shear Modulus (GPa) = 10.87825 25.00300 17.94062
#
# Velocity S-wave (km/s) = 2.40945 3.65288 3.09427
# Velocity P-wave (km/s) = 4.87587 6.78857 5.91011
#
# Compressibility (1/GPa) = 0.03328510
#
# Stress axis : x y z
#
# Youngs Moduli (GPa) = 32.87323 114.98473 104.00854
#
# Poissons Ratio (x) = 0.73840 -0.00500
# Poissons Ratio (y) = 0.21110 0.14035
# Poissons Ratio (z) = -0.00158 0.15516
#
# Static dielectric constant tensor:
#      x y z
#    x 1.625940 0.000000 -0.028270 
#    y 0.000000 1.722490 0.000000 
#    z -0.028270 0.000000 1.669660 
# 
# From -- ./inp_files/132484.got.cif
#   From: 2010.05.17/outbox.cif.g08.bks.cpg/sg12_67_cif.got.tgz:132484.got - 2010.06.03 13:09:07.
