data_PCOD9171826
_publ_section_title
;
Structure prediction by ZEFSAII (Michael W. Deem and Ramdas Pophale) SiO2 
 PCOD9171826
Probable space group: C 2/M
;
_chemical_formula_sum "Si O2"
_cell_formula_units_Z 56
_cell_length_a 21.223429
_cell_length_b 8.097730
_cell_length_c 32.211001
_cell_angle_alpha 90.000000
_cell_angle_beta 147.055837
_cell_angle_gamma 90.000000
_cell_volume 3010.505374
_symmetry_space_group_name_H-M "C 2/M"
_symmetry_group_IT_number 12
_symmetry_cell_setting 'monoclinic'
loop_
_space_group_symop_operation_xyz
x,y,z
-x,y,-z
-x,-y,-z
x,-y,z
1/2+x,1/2+y,z
1/2-x,1/2+y,-z
1/2-x,1/2-y,-z
1/2+x,1/2-y,z
loop_
_atom_site_type_symbol
_atom_site_label
_atom_site_fract_x
_atom_site_fract_y
_atom_site_fract_z
Si Si1 0.231463 0.698681 0.581609
Si Si2 0.965784 0.800904 0.829164
Si Si3 0.624456 0.197806 0.838983
Si Si4 0.787177 0.300029 0.333941
Si Si5 0.522854 0.300841 0.318564
Si Si6 0.988454 0.802818 0.593424
Si Si7 0.670367 0.699172 0.994966
O O1 0.239061 0.500000 0.587898
O O2 0.208667 0.757959 0.615918
O O3 0.354573 0.760014 0.632304
O O4 0.126477 0.742392 0.493409
O O5 0.834304 0.741079 0.752942
O O6 0.035108 0.758139 0.825236
O O7 0.961772 0.000000 0.829100
O O8 0.043017 0.740675 0.910931
O O9 0.578260 0.254003 0.769118
O O10 0.753695 0.256220 0.923738
O O11 0.623954 0.000000 0.839956
O O12 0.785313 0.500000 0.333527
O O13 0.898600 0.247229 0.369890
O O14 0.528260 0.500000 0.322734
O O15 0.506580 0.239808 0.356470
O O16 0.983128 0.000000 0.591962
O O17 0.664520 0.500000 0.993887
O O18 0.750000 0.750000 0.000000
#
# Coordination Sequence:
#
# PCOD9171826 Si02
#       7
#     8   8   8   8   8   8   8
#     4  10  20  37  58  76  97 131 177 215 250 307
#     4   9  16  31  52  73 103 141 172 201 248 307
#     4  10  18  28  48  80 108 130 165 215 258 293
#     4  10  20  35  56  77 101 138 175 207 248 305
#     4  10  21  38  55  73 102 140 175 206 253 312
#     4  11  24  37  52  76 105 135 169 215 263 304
#     4   8  15  26  44  73 105 132 163 205 251 297
#
# _framework density 18.601528999999999
#
# number of rings (size 3 to 8) (size 9 to 14) (size 15 to 20)
#    0.000    2.286    1.429    1.714    0.000    5.143 
#    0.000    0.000    0.000    0.857    0.000    6.000 
#    0.000    0.000    0.000    0.000    0.000    0.000 
#
# Total GULP energy -156129.668188 kJ/mol
# GULP energy per Si atom -5576.059578 kJ/mol
# Density = 1.855919 g / cm^3
# Si number density = 18.601529 Si / 1000 Ang^3
#
#
#
# Elastic Constant Matrix: (Units=GPa)
#
#
# Indices 1 2 3 4 5 6 
#
# 1 83.3945 7.5920 67.2753 0.0000 -33.6942 0.0012
# 2 7.5920 7.3329 8.5035 0.0002 0.0028 0.0007
# 3 67.2753 8.5035 199.7983 -0.0001 -27.9092 0.0000
# 4 0.0000 0.0002 -0.0001 20.6502 -0.0001 -2.0988
# 5 -33.6942 0.0028 -27.9092 -0.0001 2.7384 0.0003
# 6 0.0012 0.0007 0.0000 -2.0988 0.0003 16.3661
#
#
#
# Elastic Compliance Matrix: (Units=1/GPa)
#
#
# Indices 1 2 3 4 5 6 
#
# 1 0.001924 0.004745 -0.005798 0.000000 -0.035424 0.000000
# 2 0.004745 0.133761 -0.001997 -0.000002 0.037896 -0.000007
# 3 -0.005798 -0.001997 0.006899 0.000000 -0.001025 0.000001
# 4 0.000000 -0.000002 0.000000 0.049065 -0.000001 0.006292
# 5 -0.035424 0.037896 -0.001025 -0.000001 -0.081185 0.000002
# 6 0.000000 -0.000007 0.000001 0.006292 0.000002 0.061909
#
#
# Mechanical properties :
#
#
# Convention : Reuss Voigt Hill
#
# Bulk Modulus (GPa) = 7.32685 50.80747 29.06716
# Shear Modulus (GPa) = 22.32469 21.76128 22.04299
#
# Velocity S-wave (km/s) = 3.46808 3.42404 3.44613
# Velocity P-wave (km/s) = 4.47037 6.55782 5.61200
#
# Compressibility (1/GPa) = 0.13648431
#
# Stress axis : x y z
#
# Youngs Moduli (GPa) = 519.76529 7.47602 144.94603
#
# Poissons Ratio (x) = -0.03548 0.84041
# Poissons Ratio (y) = -2.46651 0.28948
# Poissons Ratio (z) = 3.01365 0.01493
#
# Static dielectric constant tensor:
#      x y z
#    x 1.602710 0.000000 -0.004970 
#    y 0.000000 1.667590 0.000000 
#    z -0.004970 0.000000 1.684850 
# 
# From -- ./inp_files/230942.got.cif
#   From: 2010.05.17/outbox.cif.g08.bks.cpg/sg12_116_cif.got.tgz:230942.got - 2010.06.03 13:09:07.
