data_PCOD9171004
_publ_section_title
;
Structure prediction by ZEFSAII (Michael W. Deem and Ramdas Pophale) SiO2 
 PCOD9171004
Probable space group: C 2/M
;
_chemical_formula_sum "Si O2"
_cell_formula_units_Z 40
_cell_length_a 20.219991
_cell_length_b 26.310353
_cell_length_c 5.195459
_cell_angle_alpha 90.000000
_cell_angle_beta 84.153810
_cell_angle_gamma 90.000000
_cell_volume 2749.583157
_symmetry_space_group_name_H-M "C 2/M"
_symmetry_group_IT_number 12
_symmetry_cell_setting 'monoclinic'
loop_
_space_group_symop_operation_xyz
x,y,z
-x,y,-z
-x,-y,-z
x,-y,z
1/2+x,1/2+y,z
1/2-x,1/2+y,-z
1/2-x,1/2-y,-z
1/2+x,1/2-y,z
loop_
_atom_site_type_symbol
_atom_site_label
_atom_site_fract_x
_atom_site_fract_y
_atom_site_fract_z
Si Si1 0.355543 0.225125 0.464446
Si Si2 0.155775 0.137942 0.045461
Si Si3 0.075611 0.755478 0.060697
Si Si4 0.224686 0.167806 0.516492
Si Si5 0.955775 0.058990 0.760321
O O1 0.409993 0.231218 0.666750
O O2 0.301104 0.181811 0.537807
O O3 0.314597 0.278292 0.473726
O O4 0.387768 0.222182 0.171287
O O5 0.109941 0.188811 0.054209
O O6 0.211637 0.145366 0.240717
O O7 0.108285 0.092690 0.154845
O O8 0.190395 0.134761 0.753639
O O9 0.000000 0.760901 0.000000
O O10 0.000000 0.077620 0.500000
O O11 0.938524 0.000000 0.714721
O O12 0.000000 0.060940 0.000000
#
# Coordination Sequence:
#
# PCOD9171004 Si02
#       5
#     8   8   8   8   8
#     4   9  17  28  39  55  79 102 131 166 201 236
#     4  10  18  28  43  59  76 101 140 174 198 232
#     4  10  18  26  39  58  80 106 135 167 198 231
#     4   9  17  28  42  57  74 101 133 170 202 231
#     4  10  20  32  44  59  82 109 136 171 213 247
#
# _framework density 14.547658999999999
#
# number of rings (size 3 to 8) (size 9 to 14) (size 15 to 20)
#    0.000    2.400    0.000    3.600    0.000    8.000 
#    0.000    0.000    0.000    0.000    0.000    0.000 
#    0.000    0.000    0.000    0.000    0.000   70.000 
#
# Total GULP energy -111419.778507 kJ/mol
# GULP energy per Si atom -5570.988925 kJ/mol
# Density = 1.451455 g / cm^3
# Si number density = 14.547659 Si / 1000 Ang^3
#
#
#
# Elastic Constant Matrix: (Units=GPa)
#
#
# Indices 1 2 3 4 5 6 
#
# 1 55.5811 18.3273 19.2107 0.0000 11.0779 0.0000
# 2 18.3273 28.5720 14.3568 0.0000 -4.4936 0.0000
# 3 19.2107 14.3568 88.4189 0.0000 3.4151 0.0000
# 4 0.0000 0.0000 0.0000 14.4879 0.0000 -10.7770
# 5 11.0779 -4.4936 3.4151 0.0000 24.1316 0.0000
# 6 0.0000 0.0000 0.0000 -10.7770 0.0000 9.8948
#
#
#
# Elastic Compliance Matrix: (Units=1/GPa)
#
#
# Indices 1 2 3 4 5 6 
#
# 1 0.028607 -0.019749 -0.002373 0.000000 -0.016474 0.000000
# 2 -0.019749 0.053349 -0.005134 0.000000 0.019726 0.000000
# 3 -0.002373 -0.005134 0.012723 0.000000 -0.001667 0.000000
# 4 0.000000 0.000000 0.000000 0.363635 0.000000 0.396056
# 5 -0.016474 0.019726 -0.001667 0.000000 0.052911 0.000000
# 6 0.000000 0.000000 0.000000 0.396056 0.000000 0.532433
#
#
# Mechanical properties :
#
#
# Convention : Reuss Voigt Hill
#
# Bulk Modulus (GPa) = 24.89432 30.70685 27.80058
# Shear Modulus (GPa) = 4.49820 17.74799 11.12309
#
# Velocity S-wave (km/s) = 1.76033 3.49662 2.76813
# Velocity P-wave (km/s) = 4.61314 6.12008 5.41925
#
# Compressibility (1/GPa) = 0.04016981
#
# Stress axis : x y z
#
# Youngs Moduli (GPa) = 34.95638 18.74458 78.59651
#
# Poissons Ratio (x) = 0.37018 0.18647
# Poissons Ratio (y) = 0.69034 0.40348
# Poissons Ratio (z) = 0.08293 0.09623
#
# Static dielectric constant tensor:
#      x y z
#    x 1.477150 0.000000 -0.000570 
#    y 0.000000 1.461370 0.000000 
#    z -0.000570 0.000000 1.499460 
# 
# From -- ./inp_files/11327.got.cif
#   From: 2010.05.17/outbox.cif.g08.bks.cpg/sg12_6_cif.got.tgz:11327.got - 2010.06.03 13:09:07.
