data_PCOD9171812
_publ_section_title
;
Structure prediction by ZEFSAII (Michael W. Deem and Ramdas Pophale) SiO2 
 PCOD9171812
Probable space group: C 2/M
;
_chemical_formula_sum "Si O2"
_cell_formula_units_Z 56
_cell_length_a 25.431394
_cell_length_b 18.716719
_cell_length_c 20.779513
_cell_angle_alpha 90.000000
_cell_angle_beta 162.145642
_cell_angle_gamma 90.000000
_cell_volume 3032.530971
_symmetry_space_group_name_H-M "C 2/M"
_symmetry_group_IT_number 12
_symmetry_cell_setting 'monoclinic'
loop_
_space_group_symop_operation_xyz
x,y,z
-x,y,-z
-x,-y,-z
x,-y,z
1/2+x,1/2+y,z
1/2-x,1/2+y,-z
1/2-x,1/2-y,-z
1/2+x,1/2-y,z
loop_
_atom_site_type_symbol
_atom_site_label
_atom_site_fract_x
_atom_site_fract_y
_atom_site_fract_z
Si Si1 0.462668 0.916361 0.806484
Si Si2 0.998178 0.208717 0.272966
Si Si3 0.747059 0.188737 0.094862
Si Si4 0.903276 0.920332 0.954792
Si Si5 0.670435 0.214972 0.271280
Si Si6 0.873911 0.919737 0.660473
Si Si7 0.210292 0.230896 0.176284
O O1 0.643488 0.881475 0.996616
O O2 0.381547 0.866283 0.768726
O O3 0.327515 0.909994 0.589679
O O4 0.476488 0.000000 0.839565
O O5 0.889606 0.264119 0.104951
O O6 0.182595 0.238953 0.508599
O O7 0.027830 0.139225 0.265245
O O8 0.902892 0.183612 0.226956
O O9 0.800485 0.230800 0.221719
O O10 0.771113 0.854469 0.803478
O O11 0.826479 0.000000 0.871695
O O12 0.000000 0.915013 0.000000
O O13 0.052216 0.914680 0.182030
O O14 0.734365 0.231123 0.273372
O O15 0.493862 0.257317 0.073974
O O16 0.913977 0.000000 0.683899
#
# Coordination Sequence:
#
# PCOD9171812 Si02
#       7
#     8   8   8   8   8   8   8
#     4   9  19  34  53  77 101 128 170 212 254 300
#     4  10  20  34  50  74 102 139 170 209 247 300
#     4  10  21  32  50  73 104 134 176 206 250 296
#     4  10  18  28  48  78 107 128 161 209 254 300
#     4   9  19  32  54  74 102 132 166 211 257 296
#     4   9  18  32  53  77 101 133 165 208 257 300
#     4  10  18  33  51  79 101 130 171 208 255 301
#
# _framework density 18.466422999999999
#
# number of rings (size 3 to 8) (size 9 to 14) (size 15 to 20)
#    0.000    2.429    2.857    0.000    2.000    2.857 
#    0.000    5.714    0.000    0.000    0.000   14.000 
#    0.000    0.571    0.000    0.000    0.000    0.000 
#
# Total GULP energy -155997.958779 kJ/mol
# GULP energy per Si atom -5571.355671 kJ/mol
# Density = 1.842439 g / cm^3
# Si number density = 18.466423 Si / 1000 Ang^3
#
#
#
# Elastic Constant Matrix: (Units=GPa)
#
#
# Indices 1 2 3 4 5 6 
#
# 1 95.4498 26.7757 5.0377 0.0133 -13.3695 0.0012
# 2 26.7757 112.8055 8.1953 0.0222 -7.7813 0.0127
# 3 5.0377 8.1953 25.0841 0.0095 -8.1413 0.0121
# 4 0.0133 0.0222 0.0095 4.6096 0.0104 -9.7336
# 5 -13.3695 -7.7813 -8.1413 0.0104 17.3221 0.0056
# 6 0.0012 0.0127 0.0121 -9.7336 0.0056 17.1845
#
#
#
# Elastic Compliance Matrix: (Units=1/GPa)
#
#
# Indices 1 2 3 4 5 6 
#
# 1 0.012350 -0.002398 0.001235 0.000271 0.009035 0.000151
# 2 -0.002398 0.009696 -0.002211 0.000260 0.001465 0.000141
# 3 0.001235 -0.002211 0.047585 0.001144 0.022324 0.000609
# 4 0.000271 0.000260 0.001144 -1.106526 0.001729 -0.626756
# 5 0.009035 0.001465 0.022324 0.001729 0.075852 0.000937
# 6 0.000151 0.000141 0.000609 -0.626756 0.000937 -0.296814
#
#
# Mechanical properties :
#
#
# Convention : Reuss Voigt Hill
#
# Bulk Modulus (GPa) = 15.90234 34.81743 25.35988
# Shear Modulus (GPa) = -4.06454 20.71195 8.32370
#
# Velocity S-wave (km/s) = -1.48520 3.35266 2.12539
# Velocity P-wave (km/s) = 2.38518 5.82087 4.44812
#
# Compressibility (1/GPa) = 0.06288382
#
# Stress axis : x y z
#
# Youngs Moduli (GPa) = 80.97405 103.13938 21.01509
#
# Poissons Ratio (x) = 0.24732 -0.02596
# Poissons Ratio (y) = 0.19417 0.04646
# Poissons Ratio (z) = -0.10004 0.22800
#
# Static dielectric constant tensor:
#      x y z
#    x 1.647370 -0.000010 -0.015000 
#    y -0.000010 1.667580 -0.000010 
#    z -0.015000 -0.000010 1.651770 
# 
# From -- ./inp_files/87313.got.cif
#   From: 2010.05.17/outbox.cif.g08.bks.cpg/sg12_44_cif.got.tgz:87313.got - 2010.06.03 13:09:07.
