data_PCOD9171608
_publ_section_title
;
Structure prediction by ZEFSAII (Michael W. Deem and Ramdas Pophale) SiO2 
 PCOD9171608
Probable space group: C 2/M
;
_chemical_formula_sum "Si O2"
_cell_formula_units_Z 64
_cell_length_a 21.620127
_cell_length_b 15.050063
_cell_length_c 9.637789
_cell_angle_alpha 90.000000
_cell_angle_beta 83.954729
_cell_angle_gamma 90.000000
_cell_volume 3118.545740
_symmetry_space_group_name_H-M "C 2/M"
_symmetry_group_IT_number 12
_symmetry_cell_setting 'monoclinic'
loop_
_space_group_symop_operation_xyz
x,y,z
-x,y,-z
-x,-y,-z
x,-y,z
1/2+x,1/2+y,z
1/2-x,1/2+y,-z
1/2-x,1/2-y,-z
1/2+x,1/2-y,z
loop_
_atom_site_type_symbol
_atom_site_label
_atom_site_fract_x
_atom_site_fract_y
_atom_site_fract_z
Si Si1 0.514254 0.396788 0.147100
Si Si2 0.888901 0.391970 0.066377
Si Si3 0.404239 0.893410 0.748226
Si Si4 0.942487 0.146948 0.417464
Si Si5 0.266681 0.108497 0.262006
Si Si6 0.955401 0.348117 0.322418
Si Si7 0.164087 0.399318 0.491154
Si Si8 0.371555 0.392755 0.694840
O O1 0.530506 0.500000 0.119218
O O2 0.454846 0.394307 0.263846
O O3 0.572341 0.356959 0.220923
O O4 0.500000 0.356357 0.000000
O O5 0.895734 0.500000 0.069664
O O6 0.820470 0.368246 0.140245
O O7 0.938012 0.352934 0.163972
O O8 0.897821 0.361805 0.907007
O O9 0.473886 0.877178 0.677962
O O10 0.354083 0.855904 0.650776
O O11 0.395534 0.000000 0.753019
O O12 0.948019 0.250705 0.386467
O O13 0.884412 0.128862 0.530033
O O14 0.000000 0.115094 0.500000
O O15 0.289077 0.141874 0.408371
O O16 0.196960 0.136981 0.245239
O O17 0.266972 0.000000 0.268339
O O18 0.901772 0.403822 0.411053
O O19 0.186037 0.500000 0.459050
O O20 0.373579 0.500000 0.703130
#
# Coordination Sequence:
#
# PCOD9171608 Si02
#       8
#     8   8   8   8   8   8   8   8
#     4   9  18  33  52  75  99 119 144 187 242 292
#     4   9  18  31  46  67  97 130 165 200 232 274
#     4  10  18  28  45  69  97 130 163 197 238 278
#     4  10  20  32  48  73  98 122 155 196 237 282
#     4   8  15  30  50  70  92 123 160 194 231 276
#     4  11  19  29  45  68  96 128 162 196 237 282
#     4   9  17  29  45  67  96 126 161 203 234 265
#     4   9  17  33  56  74  93 124 156 188 234 290
#
# _framework density 20.522385
#
# number of rings (size 3 to 8) (size 9 to 14) (size 15 to 20)
#    0.000    2.625    0.000    3.750    0.000    4.500 
#    0.000    3.750    0.000    6.000    0.000   12.250 
#    0.000    0.000    0.000    0.000    0.000    0.000 
#
# Total GULP energy -178381.841835 kJ/mol
# GULP energy per Si atom -5574.432557 kJ/mol
# Density = 2.047567 g / cm^3
# Si number density = 20.522385 Si / 1000 Ang^3
#
#
#
# Elastic Constant Matrix: (Units=GPa)
#
#
# Indices 1 2 3 4 5 6 
#
# 1 75.6024 -1.0299 26.4003 0.0000 4.4260 0.0000
# 2 -1.0299 24.3725 5.1481 0.0000 2.3786 0.0000
# 3 26.4003 5.1481 110.9571 0.0000 21.2885 0.0000
# 4 0.0000 0.0000 0.0000 32.3864 0.0000 0.9986
# 5 4.4260 2.3786 21.2885 0.0000 19.8861 0.0000
# 6 0.0000 0.0000 0.0000 0.9986 0.0000 -5.8659
#
#
#
# Elastic Compliance Matrix: (Units=1/GPa)
#
#
# Indices 1 2 3 4 5 6 
#
# 1 0.014473 0.001325 -0.003595 0.000000 0.000469 0.000000
# 2 0.001325 0.041769 -0.001558 0.000000 -0.003623 0.000000
# 3 -0.003595 -0.001558 0.012271 0.000000 -0.012150 0.000000
# 4 0.000000 0.000000 0.000000 0.030716 0.000000 0.005229
# 5 0.000469 -0.003623 -0.012150 0.000000 0.063622 0.000000
# 6 0.000000 0.000000 0.000000 0.005229 0.000000 -0.169588
#
#
# Mechanical properties :
#
#
# Convention : Reuss Voigt Hill
#
# Bulk Modulus (GPa) = 16.43198 30.21877 23.32537
# Shear Modulus (GPa) = 235.79213 21.30889 128.55051
#
# Velocity S-wave (km/s) = 10.73054 3.22580 7.92308
# Velocity P-wave (km/s) = 12.71024 5.35081 9.75145
#
# Compressibility (1/GPa) = 0.06085694
#
# Stress axis : x y z
#
# Youngs Moduli (GPa) = 69.09375 23.94147 81.49085
#
# Poissons Ratio (x) = -0.03173 0.29296
# Poissons Ratio (y) = -0.09156 0.12697
# Poissons Ratio (z) = 0.24839 0.03730
#
# Static dielectric constant tensor:
#      x y z
#    x 1.738530 0.000000 0.025390 
#    y 0.000000 1.759110 0.000000 
#    z 0.025390 0.000000 1.771620 
# 
# From -- ./inp_files/97718.got.cif
#   From: 2010.05.17/outbox.cif.g08.bks.cpg/sg12_49_cif.got.tgz:97718.got - 2010.06.03 13:09:07.
