data_PCOD9171162
_publ_section_title
;
Structure prediction by ZEFSAII (Michael W. Deem and Ramdas Pophale) SiO2 
 PCOD9171162
Probable space group: C 2/M
;
_chemical_formula_sum "Si O2"
_cell_formula_units_Z 56
_cell_length_a 28.227770
_cell_length_b 7.735689
_cell_length_c 15.130521
_cell_angle_alpha 90.000000
_cell_angle_beta 75.805707
_cell_angle_gamma 90.000000
_cell_volume 3203.050086
_symmetry_space_group_name_H-M "C 2/M"
_symmetry_group_IT_number 12
_symmetry_cell_setting 'monoclinic'
loop_
_space_group_symop_operation_xyz
x,y,z
-x,y,-z
-x,-y,-z
x,-y,z
1/2+x,1/2+y,z
1/2-x,1/2+y,-z
1/2-x,1/2-y,-z
1/2+x,1/2-y,z
loop_
_atom_site_type_symbol
_atom_site_label
_atom_site_fract_x
_atom_site_fract_y
_atom_site_fract_z
Si Si1 0.290913 0.790799 0.105684
Si Si2 0.702521 0.298140 0.401073
Si Si3 0.816258 0.787274 0.783307
Si Si4 0.866483 0.796421 0.928527
Si Si5 0.629518 0.205626 0.787274
Si Si6 0.690329 0.296523 0.601816
Si Si7 0.944844 0.207896 0.034261
O O1 0.236475 0.735176 0.153538
O O2 0.327448 0.731528 0.166770
O O3 0.291740 0.000000 0.102213
O O4 0.315585 0.723992 0.005050
O O5 0.689067 0.500000 0.407547
O O6 0.681872 0.225711 0.318812
O O7 0.686288 0.225697 0.503726
O O8 0.761681 0.285746 0.374860
O O9 0.857205 0.728136 0.834209
O O10 0.816559 0.000000 0.782016
O O11 0.908503 0.723206 0.973797
O O12 0.876574 0.000000 0.915272
O O13 0.643191 0.272316 0.684360
O O14 0.632249 0.000000 0.782176
O O15 0.579842 0.253871 0.859926
O O16 0.701254 0.500000 0.590472
O O17 0.945956 0.000000 0.025264
O O18 0.000000 0.272973 0.000000
#
# Coordination Sequence:
#
# PCOD9171162 Si02
#       7
#     8   8   8   8   8   8   8
#     4   9  16  26  39  56  83 115 140 170 207 241
#     4   9  17  29  42  58  86 120 149 179 211 244
#     4   9  15  26  41  58  83 115 146 172 203 245
#     4   9  17  27  42  61  81 110 144 172 206 255
#     4  10  18  29  46  64  87 116 146 178 212 256
#     4  10  18  27  42  63  86 115 149 180 212 250
#     4   9  18  32  47  66  91 111 135 179 225 259
#
# _framework density 17.483333999999999
#
# number of rings (size 3 to 8) (size 9 to 14) (size 15 to 20)
#    0.000    2.714    1.429    1.286    0.000    1.429 
#    0.000    0.714    0.000    0.000    0.000    1.000 
#    0.000    8.000    0.000    0.000    0.000    0.000 
#
# Total GULP energy -156009.334748 kJ/mol
# GULP energy per Si atom -5571.761955 kJ/mol
# Density = 1.744354 g / cm^3
# Si number density = 17.483334 Si / 1000 Ang^3
#
#
#
# Elastic Constant Matrix: (Units=GPa)
#
#
# Indices 1 2 3 4 5 6 
#
# 1 61.0406 1.9939 61.9474 0.0000 1.0210 0.0000
# 2 1.9939 26.3335 -2.5760 0.0000 2.2810 0.0000
# 3 61.9474 -2.5760 140.5514 0.0000 15.4412 0.0000
# 4 0.0000 0.0000 0.0000 13.8671 0.0000 -4.1996
# 5 1.0210 2.2810 15.4412 0.0000 26.3046 0.0000
# 6 0.0000 0.0000 0.0000 -4.1996 0.0000 7.5522
#
#
#
# Elastic Compliance Matrix: (Units=1/GPa)
#
#
# Indices 1 2 3 4 5 6 
#
# 1 0.031405 -0.004504 -0.014787 0.000000 0.007852 0.000000
# 2 -0.004504 0.039079 0.003265 0.000000 -0.005131 0.000000
# 3 -0.014787 0.003265 0.014601 0.000000 -0.008280 0.000000
# 4 0.000000 0.000000 0.000000 0.086716 0.000000 0.048220
# 5 0.007852 -0.005131 -0.008280 0.000000 0.043017 0.000000
# 6 0.000000 0.000000 0.000000 0.048220 0.000000 0.159225
#
#
# Mechanical properties :
#
#
# Convention : Reuss Voigt Hill
#
# Bulk Modulus (GPa) = 18.85591 38.96178 28.90885
# Shear Modulus (GPa) = 11.79875 20.64881 16.22378
#
# Velocity S-wave (km/s) = 2.60062 3.44038 3.04954
# Velocity P-wave (km/s) = 4.45265 6.17374 5.38243
#
# Compressibility (1/GPa) = 0.05303377
#
# Stress axis : x y z
#
# Youngs Moduli (GPa) = 31.84251 25.58901 68.48616
#
# Poissons Ratio (x) = 0.11526 1.01267
# Poissons Ratio (y) = 0.14343 -0.22362
# Poissons Ratio (z) = 0.47084 -0.08355
#
# Static dielectric constant tensor:
#      x y z
#    x 1.592860 0.000000 0.036920 
#    y 0.000000 1.636490 0.000000 
#    z 0.036920 0.000000 1.637300 
# 
# From -- ./inp_files/243276.got.cif
#   From: 2010.05.17/outbox.cif.g08.bks.cpg/sg12_122_cif.got.tgz:243276.got - 2010.06.03 13:09:07.
