data_PCOD9171332
_publ_section_title
;
Structure prediction by ZEFSAII (Michael W. Deem and Ramdas Pophale) SiO2 
 PCOD9171332
Probable space group: C 2/M
;
_chemical_formula_sum "Si O2"
_cell_formula_units_Z 64
_cell_length_a 20.826985
_cell_length_b 20.659069
_cell_length_c 16.180250
_cell_angle_alpha 90.000000
_cell_angle_beta 25.147224
_cell_angle_gamma 90.000000
_cell_volume 2958.392395
_symmetry_space_group_name_H-M "C 2/M"
_symmetry_group_IT_number 12
_symmetry_cell_setting 'monoclinic'
loop_
_space_group_symop_operation_xyz
x,y,z
-x,y,-z
-x,-y,-z
x,-y,z
1/2+x,1/2+y,z
1/2-x,1/2+y,-z
1/2-x,1/2-y,-z
1/2+x,1/2-y,z
loop_
_atom_site_type_symbol
_atom_site_label
_atom_site_fract_x
_atom_site_fract_y
_atom_site_fract_z
Si Si1 0.136580 0.427059 0.673435
Si Si2 0.678113 0.317113 0.890672
Si Si3 0.528229 0.345595 0.313632
Si Si4 0.635131 0.214120 0.486669
Si Si5 0.193227 0.928900 0.346625
Si Si6 0.315699 0.178250 0.902596
Si Si7 0.875568 0.844956 0.309141
Si Si8 0.912470 0.329754 0.014739
O O1 0.080489 0.500000 0.720827
O O2 0.217934 0.430639 0.668669
O O3 0.258147 0.402919 0.464044
O O4 0.015250 0.371107 0.833242
O O5 0.782321 0.317476 0.688416
O O6 0.770991 0.339950 0.861559
O O7 0.634911 0.241540 0.957433
O O8 0.515742 0.352644 0.082868
O O9 0.450459 0.280337 0.441717
O O10 0.468586 0.404621 0.436439
O O11 0.456154 0.337637 0.304742
O O12 0.705340 0.358022 0.093593
O O13 0.495080 0.177338 0.691836
O O14 0.772748 0.213858 0.392676
O O15 0.272066 0.874523 0.201060
O O16 0.199976 0.000000 0.302243
O O17 0.250000 0.250000 0.000000
O O18 0.000000 0.319886 0.000000
#
# Coordination Sequence:
#
# PCOD9171332 Si02
#       8
#     8   8   8   8   8   8   8   8
#     4   9  19  31  46  71 106 141 173 207 255 304
#     4  11  21  32  50  80 108 132 168 211 262 308
#     4   9  18  32  48  76 103 135 171 213 243 297
#     4  11  19  33  50  75 103 136 168 208 261 309
#     4   9  16  29  48  74 106 142 174 205 243 299
#     4   9  21  34  49  70 102 139 170 203 259 311
#     4  10  21  30  53  77 105 130 170 215 258 295
#     4  10  18  27  47  77 109 141 168 208 246 309
#
# _framework density 21.633371
#
# number of rings (size 3 to 8) (size 9 to 14) (size 15 to 20)
#    0.000    2.250    1.250    2.250    8.750    1.500 
#    0.000    0.000    0.000    2.250    0.000    3.500 
#    0.000    7.000    0.000    0.000    0.000    0.000 
#
# Total GULP energy -178364.007545 kJ/mol
# GULP energy per Si atom -5573.875236 kJ/mol
# Density = 2.158413 g / cm^3
# Si number density = 21.633371 Si / 1000 Ang^3
#
#
#
# Elastic Constant Matrix: (Units=GPa)
#
#
# Indices 1 2 3 4 5 6 
#
# 1 64.3688 -0.7901 36.6068 0.0014 7.4458 -0.0009
# 2 -0.7901 44.6071 11.7842 0.0003 7.3491 0.0025
# 3 36.6068 11.7842 166.9207 0.0027 5.4809 0.0005
# 4 0.0014 0.0003 0.0027 10.8775 -0.0016 3.2006
# 5 7.4458 7.3491 5.4809 -0.0016 34.0149 0.0022
# 6 -0.0009 0.0025 0.0005 3.2006 0.0022 12.6177
#
#
#
# Elastic Compliance Matrix: (Units=1/GPa)
#
#
# Indices 1 2 3 4 5 6 
#
# 1 0.018290 0.002013 -0.004029 -0.000003 -0.003789 0.000002
# 2 0.002013 0.023838 -0.001951 0.000000 -0.005277 -0.000004
# 3 -0.004029 -0.001951 0.007006 -0.000001 0.000174 0.000000
# 4 -0.000003 0.000000 -0.000001 0.099349 0.000007 -0.025201
# 5 -0.003789 -0.005277 0.000174 0.000007 0.031340 -0.000006
# 6 0.000002 -0.000004 0.000000 -0.025201 -0.000006 0.085646
#
#
# Mechanical properties :
#
#
# Convention : Reuss Voigt Hill
#
# Bulk Modulus (GPa) = 24.27186 41.23316 32.75251
# Shear Modulus (GPa) = 17.41328 26.72171 22.06750
#
# Velocity S-wave (km/s) = 2.84020 3.51837 3.19731
# Velocity P-wave (km/s) = 4.69038 5.96712 5.36685
#
# Compressibility (1/GPa) = 0.04119998
#
# Stress axis : x y z
#
# Youngs Moduli (GPa) = 54.67580 41.94918 142.72669
#
# Poissons Ratio (x) = -0.08442 0.57500
# Poissons Ratio (y) = -0.11004 0.27847
# Poissons Ratio (z) = 0.22027 0.08184
#
# Static dielectric constant tensor:
#      x y z
#    x 1.876650 0.000000 -0.049610 
#    y 0.000000 1.795070 0.000000 
#    z -0.049610 0.000000 1.850280 
# 
# From -- ./inp_files/291068.got.cif
#   From: 2010.05.17/outbox.cif.g08.bks.cpg/sg12_146_cif.got.tgz:291068.got - 2010.06.03 13:09:07.
