data_PCOD9171376
_publ_section_title
;
Structure prediction by ZEFSAII (Michael W. Deem and Ramdas Pophale) SiO2 
 PCOD9171376
Probable space group: C 2/M
;
_chemical_formula_sum "Si O2"
_cell_formula_units_Z 64
_cell_length_a 31.092493
_cell_length_b 7.418953
_cell_length_c 14.624976
_cell_angle_alpha 90.000000
_cell_angle_beta 92.068299
_cell_angle_gamma 90.000000
_cell_volume 3371.400126
_symmetry_space_group_name_H-M "C 2/M"
_symmetry_group_IT_number 12
_symmetry_cell_setting 'monoclinic'
loop_
_space_group_symop_operation_xyz
x,y,z
-x,y,-z
-x,-y,-z
x,-y,z
1/2+x,1/2+y,z
1/2-x,1/2+y,-z
1/2-x,1/2-y,-z
1/2+x,1/2-y,z
loop_
_atom_site_type_symbol
_atom_site_label
_atom_site_fract_x
_atom_site_fract_y
_atom_site_fract_z
Si Si1 0.185708 0.293154 0.470895
Si Si2 0.952147 0.779529 0.520901
Si Si3 0.843159 0.209392 0.834542
Si Si4 0.176982 0.778903 0.781467
Si Si5 0.764861 0.718715 0.691758
Si Si6 0.198941 0.216365 0.985431
Si Si7 0.122292 0.794077 0.619176
Si Si8 0.107306 0.780710 0.327342
O O1 0.193717 0.500000 0.494934
O O2 0.224390 0.219461 0.410733
O O3 0.165156 0.202896 0.558234
O O4 0.146283 0.283402 0.394957
O O5 0.916454 0.715913 0.444297
O O6 0.935292 0.727467 0.620546
O O7 0.000000 0.720982 0.500000
O O8 0.951553 0.000000 0.519324
O O9 0.801784 0.219741 0.764554
O O10 0.881841 0.283058 0.774210
O O11 0.853385 0.000000 0.852159
O O12 0.827696 0.288337 0.929669
O O13 0.219999 0.723920 0.730852
O O14 0.181639 0.719171 0.886237
O O15 0.136913 0.715771 0.717133
O O16 0.176377 0.000000 0.781450
O O17 0.766162 0.500000 0.689287
O O18 0.194680 0.000000 0.985355
O O19 0.250000 0.250000 0.000000
O O20 0.109619 0.000000 0.635575
O O21 0.109191 0.000000 0.326848
#
# Coordination Sequence:
#
# PCOD9171376 Si02
#       8
#     8   8   8   8   8   8   8   8
#     4   9  16  25  38  56  78 103 131 161 193 227
#     4   8  13  23  42  64  79  95 126 164 196 231
#     4   9  16  25  39  59  79 101 132 168 200 225
#     4   9  17  28  40  54  75 105 137 164 194 232
#     4   9  16  26  39  54  75 105 135 162 194 227
#     4  10  18  28  42  58  77 103 138 172 199 227
#     4   9  17  29  42  55  76 105 132 160 194 235
#     4   8  14  25  40  59  82 103 126 158 196 236
#
# _framework density 18.98321
#
# number of rings (size 3 to 8) (size 9 to 14) (size 15 to 20)
#    0.000    3.125    1.250    1.125    0.000    1.000 
#    0.000    1.250    0.000    6.000    0.000    0.875 
#    0.000    7.000    0.000    0.000    0.000   41.125 
#
# Total GULP energy -178284.414501 kJ/mol
# GULP energy per Si atom -5571.387953 kJ/mol
# Density = 1.894000 g / cm^3
# Si number density = 18.983210 Si / 1000 Ang^3
#
#
#
# Elastic Constant Matrix: (Units=GPa)
#
#
# Indices 1 2 3 4 5 6 
#
# 1 102.9874 6.2166 78.4339 0.0000 -26.3197 0.0000
# 2 6.2166 66.1136 1.2085 0.0000 -1.3046 0.0000
# 3 78.4339 1.2085 162.0328 0.0000 -19.2243 0.0000
# 4 0.0000 0.0000 0.0000 -5.9358 0.0000 -6.6674
# 5 -26.3197 -1.3046 -19.2243 0.0000 24.1027 0.0000
# 6 0.0000 0.0000 0.0000 -6.6674 0.0000 2.8160
#
#
#
# Elastic Compliance Matrix: (Units=1/GPa)
#
#
# Indices 1 2 3 4 5 6 
#
# 1 0.019449 -0.001392 -0.007614 0.000000 0.015090 0.000000
# 2 -0.001392 0.015241 0.000528 0.000000 -0.000274 0.000000
# 3 -0.007614 0.000528 0.009797 0.000000 -0.000471 0.000000
# 4 0.000000 0.000000 0.000000 -0.046036 0.000000 -0.108999
# 5 0.015090 -0.000274 -0.000471 0.000000 0.057576 0.000000
# 6 0.000000 0.000000 0.000000 -0.108999 0.000000 0.097040
#
#
# Mechanical properties :
#
#
# Convention : Reuss Voigt Hill
#
# Bulk Modulus (GPa) = 36.32231 55.87243 46.09737
# Shear Modulus (GPa) = 27.90173 20.54823 24.22498
#
# Velocity S-wave (km/s) = 3.83797 3.29362 3.57617
# Velocity P-wave (km/s) = 6.23021 6.63026 6.43334
#
# Compressibility (1/GPa) = 0.02753129
#
# Stress axis : x y z
#
# Youngs Moduli (GPa) = 51.41703 65.61122 102.06922
#
# Poissons Ratio (x) = 0.09132 0.77713
# Poissons Ratio (y) = 0.07156 -0.05385
# Poissons Ratio (z) = 0.39148 -0.03461
#
# Static dielectric constant tensor:
#      x y z
#    x 1.659990 0.000000 -0.027870 
#    y 0.000000 1.672740 0.000000 
#    z -0.027870 0.000000 1.699200 
# 
# From -- ./inp_files/248524.got.cif
#   From: 2010.05.17/outbox.cif.g08.bks.cpg/sg12_125_cif.got.tgz:248524.got - 2010.06.03 13:09:07.
