data_PCOD9171629
_publ_section_title
;
Structure prediction by ZEFSAII (Michael W. Deem and Ramdas Pophale) SiO2 
 PCOD9171629
Probable space group: C 2/M
;
_chemical_formula_sum "Si O2"
_cell_formula_units_Z 64
_cell_length_a 19.986138
_cell_length_b 8.520078
_cell_length_c 21.217751
_cell_angle_alpha 90.000000
_cell_angle_beta 84.975063
_cell_angle_gamma 90.000000
_cell_volume 3599.145869
_symmetry_space_group_name_H-M "C 2/M"
_symmetry_group_IT_number 12
_symmetry_cell_setting 'monoclinic'
loop_
_space_group_symop_operation_xyz
x,y,z
-x,y,-z
-x,-y,-z
x,-y,z
1/2+x,1/2+y,z
1/2-x,1/2+y,-z
1/2-x,1/2-y,-z
1/2+x,1/2-y,z
loop_
_atom_site_type_symbol
_atom_site_label
_atom_site_fract_x
_atom_site_fract_y
_atom_site_fract_z
Si Si1 0.621803 0.687361 0.107577
Si Si2 0.678039 0.812040 0.981490
Si Si3 0.960731 0.687821 0.774299
Si Si4 0.425811 0.688158 0.322225
Si Si5 0.484721 0.810120 0.571740
Si Si6 0.635272 0.190748 0.333221
Si Si7 0.732050 0.189209 0.848174
Si Si8 0.281924 0.310857 0.290798
O O1 0.619656 0.500000 0.108345
O O2 0.624574 0.745359 0.035259
O O3 0.562922 0.754774 0.155703
O O4 0.693195 0.736235 0.133932
O O5 0.677526 0.000000 0.985188
O O6 0.750000 0.750000 0.000000
O O7 0.679165 0.767237 0.907680
O O8 0.965403 0.500000 0.773132
O O9 0.903152 0.735612 0.728147
O O10 0.029087 0.757934 0.740826
O O11 0.426990 0.500000 0.325266
O O12 0.460691 0.755386 0.381814
O O13 0.349567 0.743970 0.319152
O O14 0.500000 0.754591 0.500000
O O15 0.412499 0.758365 0.605529
O O16 0.484920 0.000000 0.571334
O O17 0.711589 0.247687 0.325650
O O18 0.636747 0.000000 0.333993
O O19 0.717050 0.263107 0.782368
O O20 0.732017 0.000000 0.842689
O O21 0.281304 0.500000 0.294203
#
# Coordination Sequence:
#
# PCOD9171629 Si02
#       8
#     8   8   8   8   8   8   8   8
#     4  10  18  28  45  72 101 129 167 216 263 305
#     4   9  17  28  41  64  97 132 169 212 262 309
#     4  10  18  31  52  73  97 133 172 212 255 302
#     4  10  21  34  50  75 106 134 164 207 255 301
#     4   9  18  35  58  79 101 133 172 209 245 293
#     4   8  15  29  50  75  97 126 168 205 241 291
#     4   9  18  29  44  69 100 131 166 211 255 296
#     4  10  19  32  50  72 101 136 169 206 253 304
#
# _framework density 17.781997
#
# number of rings (size 3 to 8) (size 9 to 14) (size 15 to 20)
#    0.000    2.625    1.250    3.000    0.000    3.750 
#    0.000    0.625    0.000    0.750    0.000    5.250 
#    0.000    0.000    0.000    0.000    0.000    0.000 
#
# Total GULP energy -178346.488303 kJ/mol
# GULP energy per Si atom -5573.327759 kJ/mol
# Density = 1.774152 g / cm^3
# Si number density = 17.781997 Si / 1000 Ang^3
#
#
#
# Elastic Constant Matrix: (Units=GPa)
#
#
# Indices 1 2 3 4 5 6 
#
# 1 118.4002 13.7662 63.4414 0.0000 -15.8227 0.0000
# 2 13.7662 16.7668 15.1453 0.0000 -4.7738 0.0000
# 3 63.4414 15.1453 125.2933 0.0000 -30.9867 0.0000
# 4 0.0000 0.0000 0.0000 23.8499 0.0000 -1.5324
# 5 -15.8227 -4.7738 -30.9867 0.0000 22.4071 0.0000
# 6 0.0000 0.0000 0.0000 -1.5324 0.0000 16.7260
#
#
#
# Elastic Compliance Matrix: (Units=1/GPa)
#
#
# Indices 1 2 3 4 5 6 
#
# 1 0.011936 -0.004889 -0.005510 0.000000 -0.000233 0.000000
# 2 -0.004889 0.069277 -0.004715 0.000000 0.004787 0.000000
# 3 -0.005510 -0.004715 0.015396 0.000000 0.016396 0.000000
# 4 0.000000 0.000000 0.000000 0.042177 0.000000 0.003864
# 5 -0.000233 0.004787 0.016396 0.000000 0.068157 0.000000
# 6 0.000000 0.000000 0.000000 0.003864 0.000000 0.060141
#
#
# Mechanical properties :
#
#
# Convention : Reuss Voigt Hill
#
# Bulk Modulus (GPa) = 15.06448 49.46289 32.26369
# Shear Modulus (GPa) = 15.65239 23.80376 19.72807
#
# Velocity S-wave (km/s) = 2.97010 3.66272 3.33444
# Velocity P-wave (km/s) = 4.50024 6.76491 5.74526
#
# Compressibility (1/GPa) = 0.06638129
#
# Stress axis : x y z
#
# Youngs Moduli (GPa) = 83.78221 14.43475 64.95104
#
# Poissons Ratio (x) = 0.07057 0.35790
# Poissons Ratio (y) = 0.40959 0.30624
# Poissons Ratio (z) = 0.46167 0.06806
#
# Static dielectric constant tensor:
#      x y z
#    x 1.616200 0.000000 -0.022730 
#    y 0.000000 1.604810 0.000000 
#    z -0.022730 0.000000 1.605880 
# 
# From -- ./inp_files/319181.got.cif
#   From: 2010.05.17/outbox.cif.g08.bks.cpg/sg12_160_cif.got.tgz:319181.got - 2010.06.03 13:09:07.
