data_PCOD9171747
_publ_section_title
;
Structure prediction by ZEFSAII (Michael W. Deem and Ramdas Pophale) SiO2 
 PCOD9171747
Probable space group: C 2/M
;
_chemical_formula_sum "Si O2"
_cell_formula_units_Z 64
_cell_length_a 27.199495
_cell_length_b 7.290430
_cell_length_c 14.922569
_cell_angle_alpha 90.000000
_cell_angle_beta 76.101634
_cell_angle_gamma 90.000000
_cell_volume 2872.453780
_symmetry_space_group_name_H-M "C 2/M"
_symmetry_group_IT_number 12
_symmetry_cell_setting 'monoclinic'
loop_
_space_group_symop_operation_xyz
x,y,z
-x,y,-z
-x,-y,-z
x,-y,z
1/2+x,1/2+y,z
1/2-x,1/2+y,-z
1/2-x,1/2-y,-z
1/2+x,1/2-y,z
loop_
_atom_site_type_symbol
_atom_site_label
_atom_site_fract_x
_atom_site_fract_y
_atom_site_fract_z
Si Si1 0.553346 0.790817 0.937480
Si Si2 0.682444 0.720650 0.075040
Si Si3 0.664405 0.789707 0.889510
Si Si4 0.640201 0.722721 0.373999
Si Si5 0.586333 0.722274 0.213057
Si Si6 0.762510 0.224055 0.765397
Si Si7 0.549866 0.723649 0.536793
Si Si8 0.471903 0.722350 0.251817
O O1 0.608984 0.705355 0.930805
O O2 0.551603 0.789177 0.830174
O O3 0.554170 0.000000 0.971868
O O4 0.500000 0.711420 0.000000
O O5 0.685749 0.500000 0.070281
O O6 0.624882 0.778991 0.120064
O O7 0.711351 0.779806 0.151976
O O8 0.694269 0.790158 0.971358
O O9 0.704275 0.713653 0.799291
O O10 0.654781 0.000000 0.867637
O O11 0.738334 0.500000 0.235298
O O12 0.609276 0.775632 0.298312
O O13 0.698358 0.781110 0.330088
O O14 0.603225 0.782016 0.469842
O O15 0.585714 0.500000 0.214149
O O16 0.530035 0.783511 0.223626
O O17 0.858311 0.000000 0.623242
O O18 0.500000 0.780048 0.500000
O O19 0.548371 0.500000 0.535366
O O20 0.547466 0.778921 0.641725
O O21 0.469711 0.500000 0.250244
#
# Coordination Sequence:
#
# PCOD9171747 Si02
#       8
#     8   8   8   8   8   8   8   8
#     4  10  22  37  48  60  85 125 165 195 224 259
#     4   9  16  26  43  67  91 112 139 179 229 272
#     4  10  19  31  45  60  82 115 156 192 221 261
#     4   8  12  21  38  64  96 119 134 165 217 272
#     4   8  13  22  38  64  94 117 136 167 215 271
#     4   8  15  26  42  64  88 115 146 179 219 271
#     4   9  14  22  41  72 103 121 137 173 228 279
#     4  10  18  28  47  73  95 117 149 186 225 267
#
# _framework density 22.280602999999999
#
# number of rings (size 3 to 8) (size 9 to 14) (size 15 to 20)
#    0.000    3.000    1.250    2.625    0.000    0.750 
#    0.000    0.000    0.000    1.125    0.000    1.750 
#    0.000    0.000    0.000    0.000    0.000    0.000 
#
# Total GULP energy -178358.740986 kJ/mol
# GULP energy per Si atom -5573.710656 kJ/mol
# Density = 2.222989 g / cm^3
# Si number density = 22.280603 Si / 1000 Ang^3
#
#
#
# Elastic Constant Matrix: (Units=GPa)
#
#
# Indices 1 2 3 4 5 6 
#
# 1 94.4306 6.9722 49.5217 0.0000 -41.4311 0.0000
# 2 6.9722 96.2380 -1.0810 0.0000 -3.9668 0.0000
# 3 49.5217 -1.0810 136.3628 0.0000 -30.7209 0.0000
# 4 0.0000 0.0000 0.0000 7.8699 0.0000 13.2703
# 5 -41.4311 -3.9668 -30.7209 0.0000 45.9650 0.0000
# 6 0.0000 0.0000 0.0000 13.2703 0.0000 -1.9474
#
#
#
# Elastic Compliance Matrix: (Units=1/GPa)
#
#
# Indices 1 2 3 4 5 6 
#
# 1 0.018941 -0.000811 -0.003596 0.000000 0.014599 0.000000
# 2 -0.000811 0.010476 0.000490 0.000000 0.000501 0.000000
# 3 -0.003596 0.000490 0.009327 0.000000 0.003035 0.000000
# 4 0.000000 0.000000 0.000000 0.010173 0.000000 0.069323
# 5 0.014599 0.000501 0.003035 0.000000 0.036986 0.000000
# 6 0.000000 0.000000 0.000000 0.069323 0.000000 -0.041112
#
#
# Mechanical properties :
#
#
# Convention : Reuss Voigt Hill
#
# Bulk Modulus (GPa) = 32.35143 48.65082 40.50112
# Shear Modulus (GPa) = 79.45627 28.48539 53.97083
#
# Velocity S-wave (km/s) = 5.97821 3.57947 4.92705
# Velocity P-wave (km/s) = 7.88693 6.24230 7.11231
#
# Compressibility (1/GPa) = 0.03091053
#
# Stress axis : x y z
#
# Youngs Moduli (GPa) = 52.79602 95.45810 107.21712
#
# Poissons Ratio (x) = 0.07740 0.38555
# Poissons Ratio (y) = 0.04281 -0.05258
# Poissons Ratio (z) = 0.18985 -0.04681
#
# Static dielectric constant tensor:
#      x y z
#    x 1.851830 0.000000 -0.050620 
#    y 0.000000 1.840460 0.000000 
#    z -0.050620 0.000000 1.830600 
# 
# From -- ./inp_files/245112.got.cif
#   From: 2010.05.17/outbox.cif.g08.bks.cpg/sg12_123_cif.got.tgz:245112.got - 2010.06.03 13:09:07.
