data_PCOD9171456
_publ_section_title
;
Structure prediction by ZEFSAII (Michael W. Deem and Ramdas Pophale) SiO2 
 PCOD9171456
Probable space group: C 2/M
;
_chemical_formula_sum "Si O2"
_cell_formula_units_Z 48
_cell_length_a 24.999066
_cell_length_b 7.954095
_cell_length_c 21.992264
_cell_angle_alpha 90.000000
_cell_angle_beta 140.869478
_cell_angle_gamma 90.000000
_cell_volume 2759.784642
_symmetry_space_group_name_H-M "C 2/M"
_symmetry_group_IT_number 12
_symmetry_cell_setting 'monoclinic'
loop_
_space_group_symop_operation_xyz
x,y,z
-x,y,-z
-x,-y,-z
x,-y,z
1/2+x,1/2+y,z
1/2-x,1/2+y,-z
1/2-x,1/2-y,-z
1/2+x,1/2-y,z
loop_
_atom_site_type_symbol
_atom_site_label
_atom_site_fract_x
_atom_site_fract_y
_atom_site_fract_z
Si Si1 0.960373 0.302291 0.159140
Si Si2 0.214124 0.297731 0.034733
Si Si3 0.990731 0.697032 0.559805
Si Si4 0.389914 0.301795 0.226467
Si Si5 0.171315 0.200210 0.512638
Si Si6 0.641894 0.795583 0.347093
O O1 0.966718 0.500000 0.150386
O O2 0.931649 0.286012 0.204494
O O3 0.055535 0.232497 0.239896
O O4 0.882319 0.230809 0.050422
O O5 0.207610 0.500000 0.033373
O O6 0.291695 0.244081 0.146433
O O7 0.250000 0.250000 0.000000
O O8 0.011328 0.500000 0.576189
O O9 0.895822 0.719537 0.501257
O O10 0.000000 0.766879 0.500000
O O11 0.054128 0.775897 0.664824
O O12 0.388797 0.500000 0.210756
O O13 0.268951 0.258220 0.603644
O O14 0.143845 0.238963 0.419061
O O15 0.168470 0.000000 0.518764
O O16 0.641092 0.000000 0.346822
#
# Coordination Sequence:
#
# PCOD9171456 Si02
#       6
#     8   8   8   8   8   8
#     4   9  15  26  44  65  93 125 148 169 211 269
#     4   8  15  25  39  62  90 118 145 175 213 262
#     4  11  23  36  48  62  84 119 159 194 231 274
#     4  10  18  28  43  65  91 116 148 188 225 261
#     4  10  19  30  45  67  92 118 150 188 224 262
#     4   9  17  28  45  68  95 124 148 174 217 270
#
# _framework density 17.392661
#
# number of rings (size 3 to 8) (size 9 to 14) (size 15 to 20)
#    0.000    2.500    1.667    1.500    0.000    2.667 
#    0.000    0.000    0.000    0.000    0.000    1.167 
#    0.000    9.333    0.000    0.000    0.000    0.000 
#
# Total GULP energy -133627.559948 kJ/mol
# GULP energy per Si atom -5567.814998 kJ/mol
# Density = 1.735308 g / cm^3
# Si number density = 17.392661 Si / 1000 Ang^3
#
#
#
# Elastic Constant Matrix: (Units=GPa)
#
#
# Indices 1 2 3 4 5 6 
#
# 1 60.4871 -8.5794 46.8086 0.0000 15.1226 0.0000
# 2 -8.5794 16.3526 -5.0277 0.0000 1.2202 0.0000
# 3 46.8086 -5.0277 109.7231 0.0000 42.6666 0.0000
# 4 0.0000 0.0000 0.0000 11.5690 0.0000 2.3178
# 5 15.1226 1.2202 42.6666 0.0000 32.1557 0.0000
# 6 0.0000 0.0000 0.0000 2.3178 0.0000 14.2213
#
#
#
# Elastic Compliance Matrix: (Units=1/GPa)
#
#
# Indices 1 2 3 4 5 6 
#
# 1 0.026504 0.009945 -0.012101 0.000000 0.003215 0.000000
# 2 0.009945 0.068354 0.003547 0.000000 -0.011977 0.000000
# 3 -0.012101 0.003547 0.025366 0.000000 -0.028101 0.000000
# 4 0.000000 0.000000 0.000000 0.089355 0.000000 -0.014563
# 5 0.003215 -0.011977 -0.028101 0.000000 0.067328 0.000000
# 6 0.000000 0.000000 0.000000 -0.014563 0.000000 0.072690
#
#
# Mechanical properties :
#
#
# Convention : Reuss Voigt Hill
#
# Bulk Modulus (GPa) = 8.12969 28.10730 18.11849
# Shear Modulus (GPa) = 12.89263 21.81331 17.35297
#
# Velocity S-wave (km/s) = 2.72558 3.54526 3.16209
# Velocity P-wave (km/s) = 3.81961 5.74056 4.87563
#
# Compressibility (1/GPa) = 0.12300597
#
# Stress axis : x y z
#
# Youngs Moduli (GPa) = 37.73038 14.62966 39.42264
#
# Poissons Ratio (x) = -0.14549 0.47706
# Poissons Ratio (y) = -0.37522 -0.13983
# Poissons Ratio (z) = 0.45658 -0.05189
#
# Static dielectric constant tensor:
#      x y z
#    x 1.570190 0.000000 0.058220 
#    y 0.000000 1.619250 0.000000 
#    z 0.058220 0.000000 1.649860 
# 
# From -- ./inp_files/323855.got.cif
#   From: 2010.05.17/outbox.cif.g08.bks.cpg/sg12_162_cif.got.tgz:323855.got - 2010.06.03 13:09:07.
