data_PCOD9171562
_publ_section_title
;
Structure prediction by ZEFSAII (Michael W. Deem and Ramdas Pophale) SiO2 
 PCOD9171562
Probable space group: C 2/M
;
_chemical_formula_sum "Si O2"
_cell_formula_units_Z 64
_cell_length_a 20.340781
_cell_length_b 22.117437
_cell_length_c 11.619479
_cell_angle_alpha 90.000000
_cell_angle_beta 60.276909
_cell_angle_gamma 90.000000
_cell_volume 4539.675182
_symmetry_space_group_name_H-M "C 2/M"
_symmetry_group_IT_number 12
_symmetry_cell_setting 'monoclinic'
loop_
_space_group_symop_operation_xyz
x,y,z
-x,y,-z
-x,-y,-z
x,-y,z
1/2+x,1/2+y,z
1/2-x,1/2+y,-z
1/2-x,1/2-y,-z
1/2+x,1/2-y,z
loop_
_atom_site_type_symbol
_atom_site_label
_atom_site_fract_x
_atom_site_fract_y
_atom_site_fract_z
Si Si1 0.051151 0.848812 0.224917
Si Si2 0.221610 0.245099 0.716374
Si Si3 0.161273 0.162233 0.341384
Si Si4 0.580903 0.570468 0.749555
Si Si5 0.228100 0.070129 0.459521
Si Si6 0.325449 0.827531 0.460606
Si Si7 0.914461 0.828603 0.059793
Si Si8 0.952633 0.751619 0.426383
O O1 0.107128 0.856294 0.283955
O O2 0.988036 0.900966 0.264566
O O3 0.005172 0.786685 0.290347
O O4 0.094025 0.844379 0.066714
O O5 0.274281 0.288880 0.747328
O O6 0.273361 0.193371 0.613160
O O7 0.195749 0.285885 0.630651
O O8 0.150107 0.216241 0.840568
O O9 0.199590 0.105895 0.371514
O O10 0.110852 0.199162 0.479150
O O11 0.567124 0.500000 0.787117
O O12 0.658523 0.575320 0.610199
O O13 0.586904 0.611987 0.857761
O O14 0.300385 0.105576 0.447585
O O15 0.242560 0.000000 0.425295
O O16 0.410143 0.807533 0.418111
O O17 0.000000 0.803481 0.000000
O O18 0.000000 0.738536 0.500000
#
# Coordination Sequence:
#
# PCOD9171562 Si02
#       8
#     8   8   8   8   8   8   8   8
#     4  10  19  29  42  63  91 118 141 176 209 253
#     4   9  16  27  44  64  82 116 144 173 215 257
#     4   9  18  30  45  62  87 114 142 178 217 255
#     4  10  19  30  42  59  86 119 152 177 202 243
#     4  10  18  28  45  65  84 109 148 186 208 242
#     4   9  15  27  47  61  84 111 144 178 216 252
#     4  10  19  28  42  62  90 114 146 178 207 251
#     4   9  16  28  45  66  87 110 141 172 219 265
#
# _framework density 14.097925
#
# number of rings (size 3 to 8) (size 9 to 14) (size 15 to 20)
#    0.000    2.500    2.500    2.250    0.000    3.250 
#    0.000    1.250    0.000    0.375    0.000    0.000 
#    0.000   32.000    0.000    0.000    0.000    0.000 
#
# Total GULP energy -178178.783615 kJ/mol
# GULP energy per Si atom -5568.086988 kJ/mol
# Density = 1.406584 g / cm^3
# Si number density = 14.097925 Si / 1000 Ang^3
#
#
#
# Elastic Constant Matrix: (Units=GPa)
#
#
# Indices 1 2 3 4 5 6 
#
# 1 73.4737 61.7923 21.5178 0.0000 3.9540 0.0000
# 2 61.7923 103.3747 34.9253 0.0000 -0.4032 0.0000
# 3 21.5178 34.9253 50.0253 0.0000 -0.0618 0.0000
# 4 0.0000 0.0000 0.0000 15.0229 0.0000 -3.0195
# 5 3.9540 -0.4032 -0.0618 0.0000 18.5223 0.0000
# 6 0.0000 0.0000 0.0000 -3.0195 0.0000 19.3308
#
#
#
# Elastic Compliance Matrix: (Units=1/GPa)
#
#
# Indices 1 2 3 4 5 6 
#
# 1 0.028108 -0.016671 -0.000459 0.000000 -0.006365 0.000000
# 2 -0.016671 0.022549 -0.008566 0.000000 0.004021 0.000000
# 3 -0.000459 -0.008566 0.026168 0.000000 -0.000001 0.000000
# 4 0.000000 0.000000 0.000000 0.068723 0.000000 0.010735
# 5 -0.006365 0.004021 -0.000001 0.000000 0.055435 0.000000
# 6 0.000000 0.000000 0.000000 0.010735 0.000000 0.053408
#
#
# Mechanical properties :
#
#
# Convention : Reuss Voigt Hill
#
# Bulk Modulus (GPa) = 39.32203 51.48272 45.40237
# Shear Modulus (GPa) = 15.91033 17.81776 16.86404
#
# Velocity S-wave (km/s) = 3.36305 3.55893 3.46238
# Velocity P-wave (km/s) = 6.55993 7.31336 6.94687
#
# Compressibility (1/GPa) = 0.02543104
#
# Stress axis : x y z
#
# Youngs Moduli (GPa) = 35.57695 44.34837 38.21449
#
# Poissons Ratio (x) = 0.73935 0.01754
# Poissons Ratio (y) = 0.59312 0.32736
# Poissons Ratio (z) = 0.01633 0.37991
#
# Static dielectric constant tensor:
#      x y z
#    x 1.482560 0.000000 -0.001970 
#    y 0.000000 1.452530 0.000000 
#    z -0.001970 0.000000 1.464070 
# 
# From -- ./inp_files/169181.got.cif
#   From: 2010.05.17/outbox.cif.g08.bks.cpg/sg12_85_cif.got.tgz:169181.got - 2010.06.03 13:09:07.
