data_PCOD9171267
_publ_section_title
;
Structure prediction by ZEFSAII (Michael W. Deem and Ramdas Pophale) SiO2 
 PCOD9171267
Probable space group: C 2/M
;
_chemical_formula_sum "Si O2"
_cell_formula_units_Z 56
_cell_length_a 17.753357
_cell_length_b 19.702718
_cell_length_c 27.623898
_cell_angle_alpha 90.000000
_cell_angle_beta 159.095250
_cell_angle_gamma 90.000000
_cell_volume 3447.745786
_symmetry_space_group_name_H-M "C 2/M"
_symmetry_group_IT_number 12
_symmetry_cell_setting 'monoclinic'
loop_
_space_group_symop_operation_xyz
x,y,z
-x,y,-z
-x,-y,-z
x,-y,z
1/2+x,1/2+y,z
1/2-x,1/2+y,-z
1/2-x,1/2-y,-z
1/2+x,1/2-y,z
loop_
_atom_site_type_symbol
_atom_site_label
_atom_site_fract_x
_atom_site_fract_y
_atom_site_fract_z
Si Si1 0.492193 0.174516 0.290785
Si Si2 0.810041 0.921240 0.351406
Si Si3 0.623875 0.330905 0.350177
Si Si4 0.607848 0.838822 0.874554
Si Si5 0.992584 0.181333 0.825564
Si Si6 0.965873 0.859498 0.598860
Si Si7 0.903689 0.297198 0.342897
O O1 0.549986 0.253325 0.315531
O O2 0.372911 0.149481 0.171549
O O3 0.720664 0.139288 0.434936
O O4 0.372609 0.173367 0.270106
O O5 0.596691 0.880067 0.231275
O O6 0.000000 0.894681 0.500000
O O7 0.896342 0.911016 0.349175
O O8 0.776570 0.000000 0.342805
O O9 0.552039 0.351386 0.253630
O O10 0.535450 0.369483 0.344159
O O11 0.877227 0.327873 0.505758
O O12 0.558331 0.759222 0.853605
O O13 0.817559 0.853206 0.030990
O O14 0.785991 0.186963 0.735012
O O15 0.054183 0.783839 0.638636
#
# Coordination Sequence:
#
# PCOD9171267 Si02
#       7
#     8   8   8   8   8   8   8
#     4   8  15  26  42  66  94 126 153 192 245 281
#     4  11  21  32  52  74  92 130 172 200 240 285
#     4   8  16  26  43  68  93 125 159 185 234 294
#     4  10  19  30  42  66 104 125 157 204 239 289
#     4  10  18  27  44  69  97 136 156 185 250 296
#     4   9  15  29  46  65  97 124 154 204 235 271
#     4   9  15  25  46  70  94 129 158 183 239 297
#
# _framework density 16.242497
#
# number of rings (size 3 to 8) (size 9 to 14) (size 15 to 20)
#    0.000    2.714    2.857    2.143    0.000    0.571 
#    0.000    0.714    0.000    1.714    0.000    6.000 
#    0.000    5.714    0.000    0.000    0.000    0.000 
#
# Total GULP energy -155876.285047 kJ/mol
# GULP energy per Si atom -5567.010180 kJ/mol
# Density = 1.620553 g / cm^3
# Si number density = 16.242497 Si / 1000 Ang^3
#
#
#
# Elastic Constant Matrix: (Units=GPa)
#
#
# Indices 1 2 3 4 5 6 
#
# 1 121.0382 -2.1674 69.5239 0.0055 -27.0002 0.0004
# 2 -2.1674 10.5872 12.6911 0.0250 -3.6359 -0.0041
# 3 69.5239 12.6911 103.8960 0.0214 -23.7827 -0.0058
# 4 0.0055 0.0250 0.0214 7.8345 -0.0011 -1.7991
# 5 -27.0002 -3.6359 -23.7827 -0.0011 25.5945 -0.0020
# 6 0.0004 -0.0041 -0.0058 -1.7991 -0.0020 7.8554
#
#
#
# Elastic Compliance Matrix: (Units=1/GPa)
#
#
# Indices 1 2 3 4 5 6 
#
# 1 0.018236 0.022388 -0.012455 -0.000050 0.010844 -0.000007
# 2 0.022388 0.138469 -0.027927 -0.000386 0.017339 -0.000034
# 3 -0.012455 -0.027927 0.022171 0.000041 0.003495 0.000013
# 4 -0.000050 -0.000386 0.000041 0.134727 -0.000062 0.030857
# 5 0.010844 0.017339 0.003495 -0.000062 0.056222 0.000011
# 6 -0.000007 -0.000034 0.000013 0.030857 0.000011 0.134368
#
#
# Mechanical properties :
#
#
# Convention : Reuss Voigt Hill
#
# Bulk Modulus (GPa) = 6.99847 43.95740 25.47794
# Shear Modulus (GPa) = 8.50616 18.62181 13.56399
#
# Velocity S-wave (km/s) = 2.29093 3.38965 2.89293
# Velocity P-wave (km/s) = 3.36391 6.51472 5.18447
#
# Compressibility (1/GPa) = 0.14288837
#
# Stress axis : x y z
#
# Youngs Moduli (GPa) = 54.83591 7.22185 45.10377
#
# Poissons Ratio (x) = -0.16168 0.56179
# Poissons Ratio (y) = -1.22768 1.25960
# Poissons Ratio (z) = 0.68301 0.20168
#
# Static dielectric constant tensor:
#      x y z
#    x 1.567000 0.000000 -0.031910 
#    y 0.000000 1.522540 -0.000010 
#    z -0.031910 -0.000010 1.548800 
# 
# From -- ./inp_files/158221.got.cif
#   From: 2010.05.17/outbox.cif.g08.bks.cpg/sg12_80_cif.got.tgz:158221.got - 2010.06.03 13:09:07.
