data_PCOD9171076
_publ_section_title
;
Structure prediction by ZEFSAII (Michael W. Deem and Ramdas Pophale) SiO2 
 PCOD9171076
Probable space group: C 2/M
;
_chemical_formula_sum "Si O2"
_cell_formula_units_Z 64
_cell_length_a 27.632566
_cell_length_b 7.742794
_cell_length_c 20.619408
_cell_angle_alpha 90.000000
_cell_angle_beta 59.605170
_cell_angle_gamma 90.000000
_cell_volume 3805.257833
_symmetry_space_group_name_H-M "C 2/M"
_symmetry_group_IT_number 12
_symmetry_cell_setting 'monoclinic'
loop_
_space_group_symop_operation_xyz
x,y,z
-x,y,-z
-x,-y,-z
x,-y,z
1/2+x,1/2+y,z
1/2-x,1/2+y,-z
1/2-x,1/2-y,-z
1/2+x,1/2-y,z
loop_
_atom_site_type_symbol
_atom_site_label
_atom_site_fract_x
_atom_site_fract_y
_atom_site_fract_z
Si Si1 0.367549 0.209895 0.334594
Si Si2 0.785314 0.207050 0.178578
Si Si3 0.973793 0.699037 0.186009
Si Si4 0.914572 0.794549 0.096441
Si Si5 0.752182 0.792827 0.337608
Si Si6 0.209817 0.296104 0.968257
Si Si7 0.307362 0.792589 0.499089
Si Si8 0.417460 0.790303 0.948580
O O1 0.425713 0.275812 0.264851
O O2 0.313931 0.260287 0.326698
O O3 0.355020 0.269013 0.416857
O O4 0.368661 0.000000 0.333116
O O5 0.849850 0.267159 0.140953
O O6 0.752102 0.273365 0.263942
O O7 0.766427 0.247450 0.118609
O O8 0.786860 0.000000 0.182353
O O9 0.980816 0.500000 0.201757
O O10 0.947365 0.704510 0.131888
O O11 0.035951 0.774409 0.133814
O O12 0.916344 0.000000 0.107448
O O13 0.934869 0.760772 0.009771
O O14 0.705377 0.725339 0.419921
O O15 0.745367 0.000000 0.340073
O O16 0.203552 0.500000 0.972293
O O17 0.250000 0.250000 0.000000
O O18 0.146173 0.224565 0.018123
O O19 0.250000 0.750000 0.500000
O O20 0.313173 0.000000 0.499219
O O21 0.417601 0.000000 0.945778
#
# Coordination Sequence:
#
# PCOD9171076 Si02
#       8
#     8   8   8   8   8   8   8   8
#     4   9  16  24  36  55  79 110 144 172 196 226
#     4   9  17  28  42  61  83 108 137 166 200 240
#     4  10  18  27  39  55  81 112 140 167 194 232
#     4  10  18  27  39  57  81 108 139 172 200 226
#     4   9  15  25  39  55  80 110 139 171 201 231
#     4  10  20  34  50  63  78 100 128 165 209 252
#     4   8  14  23  35  52  75 106 141 171 199 227
#     4   9  19  32  43  57  77 105 135 162 200 246
#
# _framework density 16.818833999999999
#
# number of rings (size 3 to 8) (size 9 to 14) (size 15 to 20)
#    0.000    2.750    1.250    1.125    0.000    3.500 
#    0.000    0.000    0.000    0.000    0.000    0.000 
#    0.000    1.000    0.000   12.750    0.000    1.250 
#
# Total GULP energy -178163.679897 kJ/mol
# GULP energy per Si atom -5567.614997 kJ/mol
# Density = 1.678055 g / cm^3
# Si number density = 16.818834 Si / 1000 Ang^3
#
#
#
# Elastic Constant Matrix: (Units=GPa)
#
#
# Indices 1 2 3 4 5 6 
#
# 1 48.5131 -1.6784 50.3711 0.0001 7.3582 0.0007
# 2 -1.6784 25.4890 3.2544 0.0006 -0.7386 0.0022
# 3 50.3711 3.2544 187.2534 -0.0001 -1.6931 -0.0002
# 4 0.0001 0.0006 -0.0001 10.6208 -0.0001 1.1445
# 5 7.3582 -0.7386 -1.6931 -0.0001 18.1837 0.0000
# 6 0.0007 0.0022 -0.0002 1.1445 0.0000 11.2977
#
#
#
# Elastic Compliance Matrix: (Units=1/GPa)
#
#
# Indices 1 2 3 4 5 6 
#
# 1 0.031843 0.002819 -0.008738 0.000000 -0.013585 -0.000002
# 2 0.002819 0.039612 -0.001444 -0.000001 0.000334 -0.000008
# 3 -0.008738 -0.001444 0.007754 0.000000 0.004199 0.000001
# 4 0.000000 -0.000001 0.000000 0.095194 0.000001 -0.009643
# 5 -0.013585 0.000334 0.004199 0.000001 0.060896 0.000001
# 6 -0.000002 -0.000008 0.000001 -0.009643 0.000001 0.089491
#
#
# Mechanical properties :
#
#
# Convention : Reuss Voigt Hill
#
# Bulk Modulus (GPa) = 15.50767 40.57220 28.03994
# Shear Modulus (GPa) = 13.85001 21.97431 17.91216
#
# Velocity S-wave (km/s) = 2.87275 3.61852 3.26698
# Velocity P-wave (km/s) = 4.49934 6.45242 5.56227
#
# Compressibility (1/GPa) = 0.06448423
#
# Stress axis : x y z
#
# Youngs Moduli (GPa) = 31.40380 25.24471 128.96827
#
# Poissons Ratio (x) = -0.07116 1.12688
# Poissons Ratio (y) = -0.08852 0.18619
# Poissons Ratio (z) = 0.27440 0.03645
#
# Static dielectric constant tensor:
#      x y z
#    x 1.488950 0.000000 -0.035910 
#    y 0.000000 1.593860 0.000000 
#    z -0.035910 0.000000 1.652650 
# 
# From -- ./inp_files/323644.got.cif
#   From: 2010.05.17/outbox.cif.g08.bks.cpg/sg12_162_cif.got.tgz:323644.got - 2010.06.03 13:09:07.
