data_PCOD9171257
_publ_section_title
;
Structure prediction by ZEFSAII (Michael W. Deem and Ramdas Pophale) SiO2 
 PCOD9171257
Probable space group: C 2/M
;
_chemical_formula_sum "Si O2"
_cell_formula_units_Z 64
_cell_length_a 23.539932
_cell_length_b 7.329014
_cell_length_c 18.169039
_cell_angle_alpha 90.000000
_cell_angle_beta 111.855106
_cell_angle_gamma 90.000000
_cell_volume 2909.314634
_symmetry_space_group_name_H-M "C 2/M"
_symmetry_group_IT_number 12
_symmetry_cell_setting 'monoclinic'
loop_
_space_group_symop_operation_xyz
x,y,z
-x,y,-z
-x,-y,-z
x,-y,z
1/2+x,1/2+y,z
1/2-x,1/2+y,-z
1/2-x,1/2-y,-z
1/2+x,1/2-y,z
loop_
_atom_site_type_symbol
_atom_site_label
_atom_site_fract_x
_atom_site_fract_y
_atom_site_fract_z
Si Si1 0.258516 0.277861 0.115904
Si Si2 0.534039 0.223070 0.827689
Si Si3 0.647430 0.207900 0.964692
Si Si4 0.270767 0.785280 0.738057
Si Si5 0.445071 0.221729 0.329315
Si Si6 0.582516 0.778062 0.420835
Si Si7 0.152138 0.280828 0.598487
Si Si8 0.102494 0.722690 0.263389
O O1 0.261562 0.500000 0.112928
O O2 0.313887 0.208498 0.092711
O O3 0.258064 0.215350 0.199767
O O4 0.195005 0.215711 0.046943
O O5 0.581858 0.288212 0.911926
O O6 0.555852 0.279470 0.756298
O O7 0.463287 0.277451 0.800907
O O8 0.535684 0.000000 0.829159
O O9 0.636477 0.000000 0.983357
O O10 0.222051 0.763915 0.649507
O O11 0.337358 0.712075 0.749517
O O12 0.279346 0.000000 0.755007
O O13 0.511263 0.274398 0.394003
O O14 0.390225 0.285473 0.354439
O O15 0.443600 0.000000 0.327892
O O16 0.624400 0.715022 0.508093
O O17 0.603674 0.721927 0.349713
O O18 0.583403 0.000000 0.421795
O O19 0.147475 0.500000 0.595476
O O20 0.102990 0.500000 0.263274
#
# Coordination Sequence:
#
# PCOD9171257 Si02
#       8
#     8   8   8   8   8   8   8   8
#     4   9  18  30  43  64  94 120 138 164 209 261
#     4   8  13  23  42  65  84 106 141 179 211 247
#     4   9  16  28  48  71  90 108 137 177 214 249
#     4  10  20  32  43  58  87 123 149 169 205 258
#     4   8  13  22  39  65  91 107 127 172 227 262
#     4   8  14  25  42  64  86 108 140 182 221 253
#     4  10  18  27  44  68  87 107 142 185 220 250
#     4   8  15  28  43  59  84 117 146 175 214 254
#
# _framework density 21.998308000000002
#
# number of rings (size 3 to 8) (size 9 to 14) (size 15 to 20)
#    0.000    3.250    0.000    2.625    0.000    3.500 
#    0.000    0.625    0.000    6.000    0.000    3.500 
#    0.000    5.000    0.000    0.000    0.000    0.000 
#
# Total GULP energy -178587.154913 kJ/mol
# GULP energy per Si atom -5580.848591 kJ/mol
# Density = 2.194824 g / cm^3
# Si number density = 21.998308 Si / 1000 Ang^3
#
#
#
# Elastic Constant Matrix: (Units=GPa)
#
#
# Indices 1 2 3 4 5 6 
#
# 1 37.0351 -6.2120 16.0088 0.0000 15.0944 0.0000
# 2 -6.2120 86.4037 -8.5499 0.0000 -3.2137 0.0000
# 3 16.0088 -8.5499 81.6462 0.0000 33.9606 0.0000
# 4 0.0000 0.0000 0.0000 -0.2478 0.0000 6.6245
# 5 15.0944 -3.2137 33.9606 0.0000 24.9181 0.0000
# 6 0.0000 0.0000 0.0000 6.6245 0.0000 -4.2676
#
#
#
# Elastic Compliance Matrix: (Units=1/GPa)
#
#
# Indices 1 2 3 4 5 6 
#
# 1 0.036992 0.002078 0.005019 0.000000 -0.028980 0.000000
# 2 0.002078 0.011813 0.001661 0.000000 -0.001999 0.000000
# 3 0.005019 0.001661 0.029123 0.000000 -0.042517 0.000000
# 4 0.000000 0.000000 0.000000 0.099649 0.000000 0.154683
# 5 -0.028980 -0.001999 -0.042517 0.000000 0.115374 0.000000
# 6 0.000000 0.000000 0.000000 0.154683 0.000000 0.005786
#
#
# Mechanical properties :
#
#
# Convention : Reuss Voigt Hill
#
# Bulk Modulus (GPa) = 10.47739 23.06433 16.77086
# Shear Modulus (GPa) = 15.97267 17.66976 16.82121
#
# Velocity S-wave (km/s) = 2.69752 2.83721 2.76825
# Velocity P-wave (km/s) = 3.80464 4.60873 4.22585
#
# Compressibility (1/GPa) = 0.09544364
#
# Stress axis : x y z
#
# Youngs Moduli (GPa) = 27.03289 84.65242 34.33751
#
# Poissons Ratio (x) = -0.17593 -0.17232
# Poissons Ratio (y) = -0.05618 -0.05704
# Poissons Ratio (z) = -0.13567 -0.14063
#
# Static dielectric constant tensor:
#      x y z
#    x 1.768150 0.000000 0.012730 
#    y 0.000000 1.891150 0.000000 
#    z 0.012730 0.000000 1.787330 
# 
# From -- ./inp_files/282909.got.cif
#   From: 2010.05.17/outbox.cif.g08.bks.cpg/sg12_142_cif.got.tgz:282909.got - 2010.06.03 13:09:07.
