data_PCOD9171684
_publ_section_title
;
Structure prediction by ZEFSAII (Michael W. Deem and Ramdas Pophale) SiO2 
 PCOD9171684
Probable space group: C 2/M
;
_chemical_formula_sum "Si O2"
_cell_formula_units_Z 56
_cell_length_a 29.359717
_cell_length_b 9.885982
_cell_length_c 12.282853
_cell_angle_alpha 90.000000
_cell_angle_beta 44.472040
_cell_angle_gamma 90.000000
_cell_volume 2497.565951
_symmetry_space_group_name_H-M "C 2/M"
_symmetry_group_IT_number 12
_symmetry_cell_setting 'monoclinic'
loop_
_space_group_symop_operation_xyz
x,y,z
-x,y,-z
-x,-y,-z
x,-y,z
1/2+x,1/2+y,z
1/2-x,1/2+y,-z
1/2-x,1/2-y,-z
1/2+x,1/2-y,z
loop_
_atom_site_type_symbol
_atom_site_label
_atom_site_fract_x
_atom_site_fract_y
_atom_site_fract_z
Si Si1 0.373100 0.352100 0.652273
Si Si2 0.442455 0.157594 0.689497
Si Si3 0.827959 0.658924 0.165560
Si Si4 0.979339 0.841350 0.281420
Si Si5 0.230088 0.646067 0.944213
Si Si6 0.587829 0.154894 0.766793
Si Si7 0.270547 0.154819 0.562960
O O1 0.391288 0.500000 0.670127
O O2 0.387099 0.234435 0.714820
O O3 0.417029 0.338302 0.470030
O O4 0.296701 0.358389 0.758629
O O5 0.500000 0.158017 0.500000
O O6 0.467863 0.251027 0.744882
O O7 0.432539 0.000000 0.734193
O O8 0.808499 0.500000 0.222250
O O9 0.832127 0.663268 0.027664
O O10 0.884775 0.682687 0.157497
O O11 0.774374 0.776293 0.271303
O O12 0.959918 0.765056 0.203016
O O13 0.996563 0.000000 0.237288
O O14 0.223887 0.500000 0.008483
O O15 0.250000 0.750000 0.000000
O O16 0.651425 0.156426 0.578262
O O17 0.562335 0.000000 0.807872
O O18 0.250000 0.250000 0.500000
O O19 0.251015 0.000000 0.582392
#
# Coordination Sequence:
#
# PCOD9171684 Si02
#       7
#     8   8   8   8   8   8   8
#     4   9  18  32  48  67  95 129 161 196 237 278
#     4   9  17  29  46  69  97 126 157 193 231 276
#     4   9  18  32  46  62  89 123 157 196 239 281
#     4  10  18  28  46  71  99 130 160 188 226 281
#     4  10  21  36  52  70  93 123 163 208 248 286
#     4   9  17  27  40  62  93 125 154 186 226 274
#     4   9  16  25  39  60  87 120 155 188 224 272
#
# _framework density 22.421828999999999
#
# number of rings (size 3 to 8) (size 9 to 14) (size 15 to 20)
#    0.000    2.714    0.000    3.000    0.000    7.429 
#    0.000    0.000    0.000    0.000    0.000    1.000 
#    0.000    8.000    0.000    0.000    0.000    0.000 
#
# Total GULP energy -155914.328518 kJ/mol
# GULP energy per Si atom -5568.368876 kJ/mol
# Density = 2.237080 g / cm^3
# Si number density = 22.421829 Si / 1000 Ang^3
#
#
#
# Elastic Constant Matrix: (Units=GPa)
#
#
# Indices 1 2 3 4 5 6 
#
# 1 126.1370 101.5419 33.2103 0.0000 26.6446 0.0000
# 2 101.5419 210.0723 36.0535 0.0000 36.5141 0.0000
# 3 33.2103 36.0535 33.4731 0.0000 5.4044 0.0000
# 4 0.0000 0.0000 0.0000 20.6071 0.0000 5.8852
# 5 26.6446 36.5141 5.4044 0.0000 47.0396 0.0000
# 6 0.0000 0.0000 0.0000 5.8852 0.0000 32.0302
#
#
#
# Elastic Compliance Matrix: (Units=1/GPa)
#
#
# Indices 1 2 3 4 5 6 
#
# 1 0.015219 -0.005209 -0.008916 0.000000 -0.003553 0.000000
# 2 -0.005209 0.008412 -0.003378 0.000000 -0.003192 0.000000
# 3 -0.008916 -0.003378 0.041897 0.000000 0.002859 0.000000
# 4 0.000000 0.000000 0.000000 0.051214 0.000000 -0.009410
# 5 -0.003553 -0.003192 0.002859 0.000000 0.025420 0.000000
# 6 0.000000 0.000000 0.000000 -0.009410 0.000000 0.032950
#
#
# Mechanical properties :
#
#
# Convention : Reuss Voigt Hill
#
# Bulk Modulus (GPa) = 32.76092 79.03265 55.89679
# Shear Modulus (GPa) = 22.69725 33.19383 27.94554
#
# Velocity S-wave (km/s) = 3.18509 3.85180 3.53420
# Velocity P-wave (km/s) = 5.30748 7.42337 6.45274
#
# Compressibility (1/GPa) = 0.03052417
#
# Stress axis : x y z
#
# Youngs Moduli (GPa) = 65.70882 118.87213 23.86800
#
# Poissons Ratio (x) = 0.61915 0.21280
# Poissons Ratio (y) = 0.34225 0.08063
# Poissons Ratio (z) = 0.58583 0.40155
#
# Static dielectric constant tensor:
#      x y z
#    x 1.762310 0.000000 0.150550 
#    y 0.000000 1.816820 0.000000 
#    z 0.150550 0.000000 1.378700 
# 
# From -- ./inp_files/186481.got.cif
#   From: 2010.05.17/outbox.cif.g08.bks.cpg/sg12_94_cif.got.tgz:186481.got - 2010.06.03 13:09:07.
