data_PCOD9171654
_publ_section_title
;
Structure prediction by ZEFSAII (Michael W. Deem and Ramdas Pophale) SiO2 
 PCOD9171654
Probable space group: C 2/M
;
_chemical_formula_sum "Si O2"
_cell_formula_units_Z 56
_cell_length_a 29.040444
_cell_length_b 7.609671
_cell_length_c 10.669447
_cell_angle_alpha 90.000000
_cell_angle_beta 76.491248
_cell_angle_gamma 90.000000
_cell_volume 2292.591231
_symmetry_space_group_name_H-M "C 2/M"
_symmetry_group_IT_number 12
_symmetry_cell_setting 'monoclinic'
loop_
_space_group_symop_operation_xyz
x,y,z
-x,y,-z
-x,-y,-z
x,-y,z
1/2+x,1/2+y,z
1/2-x,1/2+y,-z
1/2-x,1/2-y,-z
1/2+x,1/2-y,z
loop_
_atom_site_type_symbol
_atom_site_label
_atom_site_fract_x
_atom_site_fract_y
_atom_site_fract_z
Si Si1 0.458876 0.784804 0.122045
Si Si2 0.299364 0.190570 0.914555
Si Si3 0.251742 0.695252 0.315769
Si Si4 0.111145 0.715777 0.253588
Si Si5 0.004959 0.713989 0.351326
Si Si6 0.642024 0.791286 0.768156
Si Si7 0.840793 0.716033 0.519479
O O1 0.470593 0.734278 0.259167
O O2 0.404572 0.726871 0.129208
O O3 0.460283 0.000000 0.115943
O O4 0.500000 0.725213 0.000000
O O5 0.283698 0.180450 0.779793
O O6 0.350044 0.282823 0.871300
O O7 0.308464 0.000000 0.965826
O O8 0.250000 0.250000 0.000000
O O9 0.262169 0.500000 0.352579
O O10 0.302424 0.762931 0.235641
O O11 0.213645 0.781378 0.433679
O O12 0.113481 0.500000 0.247699
O O13 0.057251 0.764522 0.270796
O O14 0.127254 0.768540 0.383403
O O15 0.002097 0.500000 0.359163
O O16 0.000000 0.773378 0.500000
O O17 0.639294 0.727613 0.626161
O O18 0.636915 0.000000 0.769823
O O19 0.839075 0.500000 0.519534
#
# Coordination Sequence:
#
# PCOD9171654 Si02
#       7
#     8   8   8   8   8   8   8
#     4   9  18  29  39  60  95 122 143 186 240 273
#     4   9  18  31  46  65  90 119 149 184 225 270
#     4   9  18  31  45  64  92 121 148 182 226 271
#     4   8  14  25  42  64  90 118 146 182 230 274
#     4   9  15  24  41  63  86 116 153 187 224 277
#     4  10  18  28  46  68  90 120 153 183 219 267
#     4   8  14  26  43  65  92 117 145 184 225 266
#
# _framework density 24.426507999999998
#
# number of rings (size 3 to 8) (size 9 to 14) (size 15 to 20)
#    0.000    3.143    0.000    3.000    0.000    5.143 
#    0.000    2.857    0.000    1.286    0.000    1.000 
#    0.000    2.286    0.000    0.000    0.000    0.000 
#
# Total GULP energy -155876.750977 kJ/mol
# GULP energy per Si atom -5567.026821 kJ/mol
# Density = 2.437091 g / cm^3
# Si number density = 24.426508 Si / 1000 Ang^3
#
#
#
# Elastic Constant Matrix: (Units=GPa)
#
#
# Indices 1 2 3 4 5 6 
#
# 1 131.9507 -1.4496 41.7943 0.0000 -36.0010 0.0000
# 2 -1.4496 38.3358 11.3351 0.0000 -3.9997 0.0000
# 3 41.7943 11.3351 101.8645 0.0000 -39.9361 0.0000
# 4 0.0000 0.0000 0.0000 -2.5038 0.0000 2.1654
# 5 -36.0010 -3.9997 -39.9361 0.0000 54.8021 0.0000
# 6 0.0000 0.0000 0.0000 2.1654 0.0000 4.4458
#
#
#
# Elastic Compliance Matrix: (Units=1/GPa)
#
#
# Indices 1 2 3 4 5 6 
#
# 1 0.009612 0.001524 -0.002232 0.000000 0.004799 0.000000
# 2 0.001524 0.027218 -0.003476 0.000000 0.000455 0.000000
# 3 -0.002232 -0.003476 0.014623 0.000000 0.008936 0.000000
# 4 0.000000 0.000000 0.000000 -0.281013 0.000000 0.136874
# 5 0.004799 0.000455 0.008936 0.000000 0.027946 0.000000
# 6 0.000000 0.000000 0.000000 0.136874 0.000000 0.158262
#
#
# Mechanical properties :
#
#
# Convention : Reuss Voigt Hill
#
# Bulk Modulus (GPa) = 23.20951 41.72339 32.46645
# Shear Modulus (GPa) = -242.44431 26.04691 -108.19870
#
# Velocity S-wave (km/s) = -9.97347 3.26903 -6.66271
# Velocity P-wave (km/s) = 11.09524 5.60062 6.77264
#
# Compressibility (1/GPa) = 0.04308578
#
# Stress axis : x y z
#
# Youngs Moduli (GPa) = 104.04158 36.74031 68.38578
#
# Poissons Ratio (x) = -0.05599 0.15261
# Poissons Ratio (y) = -0.15856 0.23769
# Poissons Ratio (z) = 0.23219 0.12770
#
# Static dielectric constant tensor:
#      x y z
#    x 1.980600 0.000000 -0.030710 
#    y 0.000000 1.950130 0.000000 
#    z -0.030710 0.000000 2.081370 
# 
# From -- ./inp_files/181931.got.cif
#   From: 2010.05.17/outbox.cif.g08.bks.cpg/sg12_91_cif.got.tgz:181931.got - 2010.06.03 13:09:07.
