data_PCOD9171607
_publ_section_title
;
Structure prediction by ZEFSAII (Michael W. Deem and Ramdas Pophale) SiO2 
 PCOD9171607
Probable space group: C 2/M
;
_chemical_formula_sum "Si O2"
_cell_formula_units_Z 48
_cell_length_a 28.648151
_cell_length_b 8.967397
_cell_length_c 12.449835
_cell_angle_alpha 90.000000
_cell_angle_beta 109.508854
_cell_angle_gamma 90.000000
_cell_volume 3014.736576
_symmetry_space_group_name_H-M "C 2/M"
_symmetry_group_IT_number 12
_symmetry_cell_setting 'monoclinic'
loop_
_space_group_symop_operation_xyz
x,y,z
-x,y,-z
-x,-y,-z
x,-y,z
1/2+x,1/2+y,z
1/2-x,1/2+y,-z
1/2-x,1/2-y,-z
1/2+x,1/2-y,z
loop_
_atom_site_type_symbol
_atom_site_label
_atom_site_fract_x
_atom_site_fract_y
_atom_site_fract_z
Si Si1 0.521967 0.172381 0.895198
Si Si2 0.113846 0.176513 0.051713
Si Si3 0.917042 0.679154 0.746178
Si Si4 0.247954 0.177562 0.669271
Si Si5 0.328606 0.677174 0.573015
Si Si6 0.772046 0.178064 0.910247
O O1 0.475213 0.221062 0.787522
O O2 0.534185 0.000000 0.881021
O O3 0.500000 0.176088 0.000000
O O4 0.571228 0.269826 0.937259
O O5 0.104083 0.260973 0.156405
O O6 0.169032 0.208189 0.053592
O O7 0.109240 0.000000 0.067399
O O8 0.914304 0.500000 0.743744
O O9 0.882017 0.749177 0.629203
O O10 0.292229 0.250482 0.633894
O O11 0.198249 0.202613 0.561478
O O12 0.247672 0.251122 0.785427
O O13 0.256187 0.000000 0.683385
O O14 0.331389 0.500000 0.594171
O O15 0.765144 0.000000 0.905253
O O16 0.750000 0.250000 0.000000
#
# Coordination Sequence:
#
# PCOD9171607 Si02
#       6
#     8   8   8   8   8   8
#     4   8  16  28  42  64  93 125 159 190 232 290
#     4  10  19  30  45  67  94 124 160 201 240 283
#     4  10  18  28  45  69  97 130 160 190 236 290
#     4  10  20  33  49  69  96 129 162 199 243 287
#     4  10  19  30  47  72  99 128 161 196 239 291
#     4  11  23  36  51  71  96 128 168 205 240 286
#
# _framework density 15.92179
#
# number of rings (size 3 to 8) (size 9 to 14) (size 15 to 20)
#    0.000    2.167    1.667    3.500    0.000    7.667 
#    0.000    0.000    0.000    0.000    0.000    1.167 
#    0.000    9.333    0.000    0.000    0.000    0.000 
#
# Total GULP energy -133829.886398 kJ/mol
# GULP energy per Si atom -5576.245267 kJ/mol
# Density = 1.588555 g / cm^3
# Si number density = 15.921790 Si / 1000 Ang^3
#
#
#
# Elastic Constant Matrix: (Units=GPa)
#
#
# Indices 1 2 3 4 5 6 
#
# 1 68.0164 53.4324 57.5870 0.0000 24.4740 0.0000
# 2 53.4324 78.9315 57.4246 0.0000 14.9567 0.0000
# 3 57.5870 57.4246 107.2507 0.0000 18.9511 0.0000
# 4 0.0000 0.0000 0.0000 26.9354 0.0000 6.7832
# 5 24.4740 14.9567 18.9511 0.0000 33.4859 0.0000
# 6 0.0000 0.0000 0.0000 6.7832 0.0000 26.1799
#
#
#
# Elastic Compliance Matrix: (Units=1/GPa)
#
#
# Indices 1 2 3 4 5 6 
#
# 1 0.046282 -0.019830 -0.010912 0.000000 -0.018793 0.000000
# 2 -0.019830 0.029586 -0.006021 0.000000 0.004686 0.000000
# 3 -0.010912 -0.006021 0.018359 0.000000 0.000275 0.000000
# 4 0.000000 0.000000 0.000000 0.039717 0.000000 -0.010291
# 5 -0.018793 0.004686 0.000275 0.000000 0.041350 0.000000
# 6 0.000000 0.000000 0.000000 -0.010291 0.000000 0.040864
#
#
# Mechanical properties :
#
#
# Convention : Reuss Voigt Hill
#
# Bulk Modulus (GPa) = 48.31278 65.67631 56.99455
# Shear Modulus (GPa) = 16.85860 23.03722 19.94791
#
# Velocity S-wave (km/s) = 3.25751 3.80794 3.54343
# Velocity P-wave (km/s) = 6.67519 7.78927 7.25365
#
# Compressibility (1/GPa) = 0.02069846
#
# Stress axis : x y z
#
# Youngs Moduli (GPa) = 21.60677 33.79968 54.47064
#
# Poissons Ratio (x) = 0.67026 0.59439
# Poissons Ratio (y) = 0.42847 0.32799
# Poissons Ratio (z) = 0.23577 0.20352
#
# Static dielectric constant tensor:
#      x y z
#    x 1.530010 0.000000 0.047730 
#    y 0.000000 1.530830 0.000000 
#    z 0.047730 0.000000 1.538110 
# 
# From -- ./inp_files/172405.got.cif
#   From: 2010.05.17/outbox.cif.g08.bks.cpg/sg12_87_cif.got.tgz:172405.got - 2010.06.03 13:09:07.
