data_PCOD9171426
_publ_section_title
;
Structure prediction by ZEFSAII (Michael W. Deem and Ramdas Pophale) SiO2 
 PCOD9171426
Probable space group: C 2/M
;
_chemical_formula_sum "Si O2"
_cell_formula_units_Z 64
_cell_length_a 32.962944
_cell_length_b 9.191157
_cell_length_c 31.352876
_cell_angle_alpha 90.000000
_cell_angle_beta 150.730636
_cell_angle_gamma 90.000000
_cell_volume 4644.167656
_symmetry_space_group_name_H-M "C 2/M"
_symmetry_group_IT_number 12
_symmetry_cell_setting 'monoclinic'
loop_
_space_group_symop_operation_xyz
x,y,z
-x,y,-z
-x,-y,-z
x,-y,z
1/2+x,1/2+y,z
1/2-x,1/2+y,-z
1/2-x,1/2-y,-z
1/2+x,1/2-y,z
loop_
_atom_site_type_symbol
_atom_site_label
_atom_site_fract_x
_atom_site_fract_y
_atom_site_fract_z
Si Si1 0.634499 0.673386 0.480971
Si Si2 0.329986 0.174575 0.665133
Si Si3 0.443750 0.332674 0.991403
Si Si4 0.839077 0.825703 0.588810
Si Si5 0.413964 0.173387 0.832133
Si Si6 0.303238 0.826447 0.814013
Si Si7 0.543400 0.174396 0.473850
Si Si8 0.370941 0.175180 0.358622
O O1 0.628432 0.500000 0.481501
O O2 0.731805 0.712682 0.577522
O O3 0.613755 0.705027 0.412331
O O4 0.577521 0.752766 0.462739
O O5 0.369314 0.257315 0.660817
O O6 0.374447 0.209844 0.750309
O O7 0.334171 0.000000 0.662066
O O8 0.424701 0.500000 0.984094
O O9 0.362011 0.243261 0.903989
O O10 0.500000 0.330982 0.000000
O O11 0.501791 0.258129 0.079883
O O12 0.750000 0.750000 0.500000
O O13 0.829897 0.000000 0.583896
O O14 0.348246 0.204653 0.809779
O O15 0.429835 0.000000 0.848034
O O16 0.212937 0.755438 0.730587
O O17 0.298978 0.000000 0.814962
O O18 0.449224 0.213052 0.400401
O O19 0.600676 0.213541 0.567152
O O20 0.546595 0.000000 0.472769
O O21 0.359886 0.000000 0.346925
#
# Coordination Sequence:
#
# PCOD9171426 Si02
#       8
#     8   8   8   8   8   8   8   8
#     4   9  17  28  41  58  81 107 137 171 203 236
#     4   9  17  28  41  59  83 109 136 168 203 238
#     4   9  17  28  41  58  80 106 136 168 200 236
#     4   9  17  28  40  56  79 106 135 168 203 239
#     4   9  17  28  41  59  84 109 135 168 202 238
#     4  10  18  28  43  60  79 108 140 167 202 242
#     4   9  18  30  43  58  79 108 138 169 205 240
#     4   9  18  31  42  57  82 107 135 172 206 236
#
# _framework density 13.780726
#
# number of rings (size 3 to 8) (size 9 to 14) (size 15 to 20)
#    0.000    2.875    0.000    3.375    0.000    7.000 
#    0.000    1.250    0.000    0.000    0.000    0.000 
#    0.000    1.000    0.000    3.250    0.000    4.750 
#
# Total GULP energy -178214.923002 kJ/mol
# GULP energy per Si atom -5569.216344 kJ/mol
# Density = 1.374936 g / cm^3
# Si number density = 13.780726 Si / 1000 Ang^3
#
#
#
# Elastic Constant Matrix: (Units=GPa)
#
#
# Indices 1 2 3 4 5 6 
#
# 1 96.9920 44.1232 47.0923 0.0000 -8.3322 0.0000
# 2 44.1232 45.2395 48.5564 0.0000 -2.1321 0.0001
# 3 47.0923 48.5564 103.5699 0.0000 -3.5123 0.0000
# 4 0.0000 0.0000 0.0000 24.9503 0.0000 -0.5774
# 5 -8.3322 -2.1321 -3.5123 0.0000 20.5739 0.0000
# 6 0.0000 0.0001 0.0000 -0.5774 0.0000 24.7637
#
#
#
# Elastic Compliance Matrix: (Units=1/GPa)
#
#
# Indices 1 2 3 4 5 6 
#
# 1 0.019216 -0.018721 0.000239 0.000000 0.005883 0.000000
# 2 -0.018721 0.062757 -0.021068 0.000000 -0.004675 0.000000
# 3 0.000239 -0.021068 0.019466 0.000000 0.001237 0.000000
# 4 0.000000 0.000000 0.000000 0.040101 0.000000 0.000935
# 5 0.005883 -0.004675 0.001237 0.000000 0.050714 0.000000
# 6 0.000000 0.000000 0.000000 0.000935 0.000000 0.040403
#
#
# Mechanical properties :
#
#
# Convention : Reuss Voigt Hill
#
# Bulk Modulus (GPa) = 44.76707 58.37168 51.56938
# Shear Modulus (GPa) = 15.66397 21.12621 18.39509
#
# Velocity S-wave (km/s) = 3.37509 3.91964 3.65751
# Velocity P-wave (km/s) = 6.90971 7.93311 7.43903
#
# Compressibility (1/GPa) = 0.02233785
#
# Stress axis : x y z
#
# Youngs Moduli (GPa) = 52.03996 15.93460 51.37227
#
# Poissons Ratio (x) = 0.29832 -0.01229
# Poissons Ratio (y) = 0.97426 1.08232
# Poissons Ratio (z) = -0.01245 0.33571
#
# Static dielectric constant tensor:
#      x y z
#    x 1.447680 0.000000 -0.015030 
#    y 0.000000 1.458910 0.000000 
#    z -0.015030 0.000000 1.440780 
# 
# From -- ./inp_files/248322.got.cif
#   From: 2010.05.17/outbox.cif.g08.bks.cpg/sg12_125_cif.got.tgz:248322.got - 2010.06.03 13:09:07.
