data_PCOD9171957
_publ_section_title
;
Structure prediction by ZEFSAII (Michael W. Deem and Ramdas Pophale) SiO2 
 PCOD9171957
Probable space group: C 2/M
;
_chemical_formula_sum "Si O2"
_cell_formula_units_Z 40
_cell_length_a 7.208393
_cell_length_b 32.152872
_cell_length_c 6.774708
_cell_angle_alpha 90.000000
_cell_angle_beta 82.708358
_cell_angle_gamma 90.000000
_cell_volume 1557.479636
_symmetry_space_group_name_H-M "C 2/M"
_symmetry_group_IT_number 12
_symmetry_cell_setting 'monoclinic'
loop_
_space_group_symop_operation_xyz
x,y,z
-x,y,-z
-x,-y,-z
x,-y,z
1/2+x,1/2+y,z
1/2-x,1/2+y,-z
1/2-x,1/2-y,-z
1/2+x,1/2-y,z
loop_
_atom_site_type_symbol
_atom_site_label
_atom_site_fract_x
_atom_site_fract_y
_atom_site_fract_z
Si Si1 0.429935 0.380423 0.775626
Si Si2 0.720574 0.453414 0.031899
Si Si3 0.154877 0.391134 0.309796
Si Si4 0.657001 0.201126 0.314836
Si Si5 0.061500 0.208022 0.218936
O O1 0.628852 0.388155 0.641570
O O2 0.336533 0.335658 0.751333
O O3 0.500000 0.378723 0.000000
O O4 0.293655 0.419776 0.790553
O O5 0.786228 0.500000 0.066636
O O6 0.835569 0.429412 0.845064
O O7 0.500000 0.458097 0.000000
O O8 0.133811 0.344327 0.218972
O O9 0.000000 0.395535 0.500000
O O10 0.500000 0.201798 0.500000
O O11 0.867693 0.204537 0.365403
O O12 0.640504 0.245912 0.215726
O O13 0.000000 0.204167 0.000000
#
# Coordination Sequence:
#
# PCOD9171957 Si02
#       5
#     8   8   8   8   8
#     4   7  13  24  36  52  75 103 131 166 207 239
#     4   8  13  22  35  51  74 103 132 163 204 251
#     4   8  14  23  35  53  78 106 132 163 205 245
#     4  10  19  30  43  62  90 119 143 172 213 253
#     4  10  18  29  45  63  85 115 149 178 206 247
#
# _framework density 25.682518999999999
#
# number of rings (size 3 to 8) (size 9 to 14) (size 15 to 20)
#    0.000    3.800    0.000    2.400    0.000    0.400 
#    0.000    0.000    0.000    0.000    0.000    0.000 
#    0.000    8.000    0.000    5.000    0.000   72.400 
#
# Total GULP energy -111510.235569 kJ/mol
# GULP energy per Si atom -5575.511778 kJ/mol
# Density = 2.562406 g / cm^3
# Si number density = 25.682519 Si / 1000 Ang^3
#
#
#
# Elastic Constant Matrix: (Units=GPa)
#
#
# Indices 1 2 3 4 5 6 
#
# 1 73.7011 24.9017 36.5839 0.0000 -17.5125 0.0000
# 2 24.9017 343.6923 80.9043 0.0000 -4.8064 0.0000
# 3 36.5839 80.9043 142.2969 0.0000 -44.2477 0.0000
# 4 0.0000 0.0000 0.0000 27.8258 0.0000 1.1464
# 5 -17.5125 -4.8064 -44.2477 0.0000 39.1535 0.0000
# 6 0.0000 0.0000 0.0000 1.1464 0.0000 -4.7713
#
#
#
# Elastic Compliance Matrix: (Units=1/GPa)
#
#
# Indices 1 2 3 4 5 6 
#
# 1 0.015994 -0.000513 -0.002491 0.000000 0.004276 0.000000
# 2 -0.000513 0.003570 -0.002826 0.000000 -0.002985 0.000000
# 3 -0.002491 -0.002826 0.013600 0.000000 0.013908 0.000000
# 4 0.000000 0.000000 0.000000 0.035586 0.000000 0.008550
# 5 0.004276 -0.002985 0.013908 0.000000 0.042804 0.000000
# 6 0.000000 0.000000 0.000000 0.008550 0.000000 -0.207531
#
#
# Mechanical properties :
#
#
# Convention : Reuss Voigt Hill
#
# Bulk Modulus (GPa) = 46.50291 93.83002 70.16647
# Shear Modulus (GPa) = -64.80928 40.26161 -12.27383
#
# Velocity S-wave (km/s) = -5.02887 3.96367 -2.18848
# Velocity P-wave (km/s) = 3.94630 7.58693 4.58193
#
# Compressibility (1/GPa) = 0.02150403
#
# Stress axis : x y z
#
# Youngs Moduli (GPa) = 62.52354 280.08897 73.53128
#
# Poissons Ratio (x) = 0.14359 0.18316
# Poissons Ratio (y) = 0.03205 0.20783
# Poissons Ratio (z) = 0.15574 0.79163
#
# Static dielectric constant tensor:
#      x y z
#    x 2.128020 0.000000 0.072390 
#    y 0.000000 2.051920 0.000000 
#    z 0.072390 0.000000 2.245860 
# 
# From -- ./inp_files/80202.got.cif
#   From: 2010.05.17/outbox.cif.g08.bks.cpg/sg12_41_cif.got.tgz:80202.got - 2010.06.03 13:09:07.
