data_PCOD9171574
_publ_section_title
;
Structure prediction by ZEFSAII (Michael W. Deem and Ramdas Pophale) SiO2 
 PCOD9171574
Probable space group: C 2/M
;
_chemical_formula_sum "Si O2"
_cell_formula_units_Z 56
_cell_length_a 27.806455
_cell_length_b 8.997245
_cell_length_c 17.823120
_cell_angle_alpha 90.000000
_cell_angle_beta 54.095131
_cell_angle_gamma 90.000000
_cell_volume 3611.765366
_symmetry_space_group_name_H-M "C 2/M"
_symmetry_group_IT_number 12
_symmetry_cell_setting 'monoclinic'
loop_
_space_group_symop_operation_xyz
x,y,z
-x,y,-z
-x,-y,-z
x,-y,z
1/2+x,1/2+y,z
1/2-x,1/2+y,-z
1/2-x,1/2-y,-z
1/2+x,1/2-y,z
loop_
_atom_site_type_symbol
_atom_site_label
_atom_site_fract_x
_atom_site_fract_y
_atom_site_fract_z
Si Si1 0.955381 0.321767 0.710586
Si Si2 0.590179 0.673237 0.399037
Si Si3 0.767889 0.172785 0.718167
Si Si4 0.915130 0.676827 0.438319
Si Si5 0.342096 0.178212 0.906466
Si Si6 0.288686 0.679140 0.530190
Si Si7 0.767833 0.823120 0.100737
O O1 0.949675 0.500000 0.703281
O O2 0.936862 0.238495 0.651698
O O3 0.907485 0.280644 0.817769
O O4 0.024593 0.291571 0.662659
O O5 0.574511 0.500000 0.423804
O O6 0.661672 0.682574 0.329373
O O7 0.572610 0.767500 0.488079
O O8 0.762699 0.221176 0.636246
O O9 0.734789 0.263850 0.812433
O O10 0.750578 0.000000 0.739316
O O11 0.904447 0.500000 0.448051
O O12 0.856132 0.760830 0.465709
O O13 0.293697 0.218533 0.886291
O O14 0.339546 0.000000 0.917945
O O15 0.319872 0.254291 0.002631
O O16 0.289173 0.500000 0.525912
O O17 0.250000 0.750000 0.500000
O O18 0.771821 0.000000 0.096704
#
# Coordination Sequence:
#
# PCOD9171574 Si02
#       7
#     8   8   8   8   8   8   8
#     4  10  19  31  45  65  93 131 168 196 233 280
#     4  10  19  29  43  65  95 129 164 199 235 277
#     4   9  18  31  47  68  95 126 158 194 236 283
#     4  10  20  32  48  68  94 126 161 197 235 285
#     4   9  18  30  43  62  94 130 165 202 235 273
#     4  10  21  37  55  76  98 122 155 196 244 290
#     4  10  18  28  45  67  91 125 166 202 237 276
#
# _framework density 15.504882
#
# number of rings (size 3 to 8) (size 9 to 14) (size 15 to 20)
#    0.000    2.286    1.429    3.000    0.000    6.857 
#    0.000    0.000    0.000    0.000    0.000    1.000 
#    0.000    8.000    0.000    0.000    0.000    0.000 
#
# Total GULP energy -156133.437135 kJ/mol
# GULP energy per Si atom -5576.194183 kJ/mol
# Density = 1.546959 g / cm^3
# Si number density = 15.504882 Si / 1000 Ang^3
#
#
#
# Elastic Constant Matrix: (Units=GPa)
#
#
# Indices 1 2 3 4 5 6 
#
# 1 72.8252 36.5841 63.2259 0.0000 9.0881 0.0000
# 2 36.5841 46.6609 53.2290 -0.0001 0.8745 -0.0001
# 3 63.2259 53.2290 135.3751 0.0000 -5.1211 0.0000
# 4 0.0000 -0.0001 0.0000 24.7060 0.0000 2.5663
# 5 9.0881 0.8745 -5.1211 0.0000 16.5757 0.0000
# 6 0.0000 -0.0001 0.0000 2.5663 0.0000 19.8749
#
#
#
# Elastic Compliance Matrix: (Units=1/GPa)
#
#
# Indices 1 2 3 4 5 6 
#
# 1 0.031725 -0.012201 -0.010779 0.000000 -0.020081 0.000000
# 2 -0.012201 0.044340 -0.011708 0.000000 0.000733 0.000000
# 3 -0.010779 -0.011708 0.017476 0.000000 0.011927 0.000000
# 4 0.000000 0.000000 0.000000 0.041026 0.000000 -0.005298
# 5 -0.020081 0.000733 0.011927 0.000000 0.074986 0.000000
# 6 0.000000 0.000000 0.000000 -0.005298 0.000000 0.050999
#
#
# Mechanical properties :
#
#
# Convention : Reuss Voigt Hill
#
# Bulk Modulus (GPa) = 41.38341 62.32659 51.85500
# Shear Modulus (GPa) = 14.79364 19.01945 16.90655
#
# Velocity S-wave (km/s) = 3.09225 3.50619 3.30571
# Velocity P-wave (km/s) = 6.28473 7.52838 6.93449
#
# Compressibility (1/GPa) = 0.02416427
#
# Stress axis : x y z
#
# Youngs Moduli (GPa) = 31.52079 22.55313 57.22111
#
# Poissons Ratio (x) = 0.27517 0.61680
# Poissons Ratio (y) = 0.38458 0.66996
# Poissons Ratio (z) = 0.33977 0.26406
#
# Static dielectric constant tensor:
#      x y z
#    x 1.495140 0.000000 -0.017570 
#    y 0.000000 1.516740 0.000000 
#    z -0.017570 0.000000 1.526460 
# 
# From -- ./inp_files/291832.got.cif
#   From: 2010.05.17/outbox.cif.g08.bks.cpg/sg12_146_cif.got.tgz:291832.got - 2010.06.03 13:09:07.
