data_PCOD9171457
_publ_section_title
;
Structure prediction by ZEFSAII (Michael W. Deem and Ramdas Pophale) SiO2 
 PCOD9171457
Probable space group: C 2/M
;
_chemical_formula_sum "Si O2"
_cell_formula_units_Z 64
_cell_length_a 20.101014
_cell_length_b 7.582229
_cell_length_c 20.803355
_cell_angle_alpha 90.000000
_cell_angle_beta 93.074675
_cell_angle_gamma 90.000000
_cell_volume 3166.085329
_symmetry_space_group_name_H-M "C 2/M"
_symmetry_group_IT_number 12
_symmetry_cell_setting 'monoclinic'
loop_
_space_group_symop_operation_xyz
x,y,z
-x,y,-z
-x,-y,-z
x,-y,z
1/2+x,1/2+y,z
1/2-x,1/2+y,-z
1/2-x,1/2-y,-z
1/2+x,1/2-y,z
loop_
_atom_site_type_symbol
_atom_site_label
_atom_site_fract_x
_atom_site_fract_y
_atom_site_fract_z
Si Si1 0.917827 0.212841 0.683165
Si Si2 0.985243 0.288687 0.428289
Si Si3 0.373487 0.785082 0.326964
Si Si4 0.757306 0.704226 0.840234
Si Si5 0.971447 0.207280 0.215638
Si Si6 0.881360 0.216320 0.100369
Si Si7 0.226525 0.201216 0.301674
Si Si8 0.321126 0.290471 0.970113
O O1 0.842916 0.283344 0.679886
O O2 0.956212 0.250889 0.619295
O O3 0.963768 0.281150 0.744512
O O4 0.914820 0.000000 0.690153
O O5 0.978953 0.500000 0.433050
O O6 0.917904 0.226103 0.389646
O O7 0.000000 0.218330 0.500000
O O8 0.411943 0.725033 0.264758
O O9 0.297785 0.720386 0.324392
O O10 0.373112 0.000000 0.324584
O O11 0.747653 0.500000 0.823084
O O12 0.687482 0.769256 0.867291
O O13 0.774686 0.800784 0.775841
O O14 0.813391 0.716887 0.898304
O O15 0.942921 0.278345 0.146947
O O16 0.983946 0.000000 0.205850
O O17 0.881339 0.000000 0.100102
O O18 0.874694 0.272511 0.025692
O O19 0.227349 0.000000 0.326087
O O20 0.328045 0.500000 0.964171
O O21 0.250000 0.250000 0.000000
#
# Coordination Sequence:
#
# PCOD9171457 Si02
#       8
#     8   8   8   8   8   8   8   8
#     4   9  19  32  49  72  98 125 153 189 233 280
#     4   9  18  34  54  73  95 125 158 189 224 271
#     4   9  17  29  47  70  94 121 154 191 230 273
#     4  10  18  28  43  65  91 123 159 196 239 283
#     4   9  15  28  47  67  91 119 154 195 235 276
#     4   8  14  24  41  64  88 113 150 196 235 273
#     4  10  19  31  46  69  98 125 153 191 239 284
#     4   9  16  26  39  61  92 123 155 197 244 288
#
# _framework density 20.214238000000002
#
# number of rings (size 3 to 8) (size 9 to 14) (size 15 to 20)
#    0.000    2.875    1.250    1.500    0.000    0.750 
#    0.000    1.250    0.000    0.750    0.000    5.250 
#    0.000    0.000    0.000    0.000    0.000    0.000 
#
# Total GULP energy -178336.345220 kJ/mol
# GULP energy per Si atom -5573.010788 kJ/mol
# Density = 2.016823 g / cm^3
# Si number density = 20.214238 Si / 1000 Ang^3
#
#
#
# Elastic Constant Matrix: (Units=GPa)
#
#
# Indices 1 2 3 4 5 6 
#
# 1 110.9595 -6.0964 51.0746 0.0000 20.6241 0.0000
# 2 -6.0964 46.7015 -1.2593 0.0000 2.1448 0.0000
# 3 51.0746 -1.2593 108.8924 0.0000 30.0893 0.0000
# 4 0.0000 0.0000 0.0000 10.2807 0.0000 -5.4297
# 5 20.6241 2.1448 30.0893 0.0000 20.0320 0.0000
# 6 0.0000 0.0000 0.0000 -5.4297 0.0000 6.5302
#
#
#
# Elastic Compliance Matrix: (Units=1/GPa)
#
#
# Indices 1 2 3 4 5 6 
#
# 1 0.012142 0.001813 -0.003703 0.000000 -0.007133 0.000000
# 2 0.001813 0.021936 0.000971 0.000000 -0.005674 0.000000
# 3 -0.003703 0.000971 0.016936 0.000000 -0.021730 0.000000
# 4 0.000000 0.000000 0.000000 0.173431 0.000000 0.144205
# 5 -0.007133 -0.005674 -0.021730 0.000000 0.090511 0.000000
# 6 0.000000 0.000000 0.000000 0.144205 0.000000 0.273038
#
#
# Mechanical properties :
#
#
# Convention : Reuss Voigt Hill
#
# Bulk Modulus (GPa) = 20.33516 39.33234 29.83375
# Shear Modulus (GPa) = 8.24775 22.22422 15.23599
#
# Velocity S-wave (km/s) = 2.02213 3.31937 2.74838
# Velocity P-wave (km/s) = 3.94128 5.84730 4.98621
#
# Compressibility (1/GPa) = 0.04917591
#
# Stress axis : x y z
#
# Youngs Moduli (GPa) = 82.35679 45.58718 59.04532
#
# Poissons Ratio (x) = -0.08264 0.21866
# Poissons Ratio (y) = -0.14929 -0.05735
# Poissons Ratio (z) = 0.30499 -0.04428
#
# Static dielectric constant tensor:
#      x y z
#    x 1.727250 0.000000 0.048040 
#    y 0.000000 1.747080 0.000000 
#    z 0.048040 0.000000 1.722490 
# 
# From -- ./inp_files/319246.got.cif
#   From: 2010.05.17/outbox.cif.g08.bks.cpg/sg12_160_cif.got.tgz:319246.got - 2010.06.03 13:09:07.
