data_PCOD9171886
_publ_section_title
;
Structure prediction by ZEFSAII (Michael W. Deem and Ramdas Pophale) SiO2 
 PCOD9171886
Probable space group: C 2/M
;
_chemical_formula_sum "Si O2"
_cell_formula_units_Z 64
_cell_length_a 27.836970
_cell_length_b 27.708706
_cell_length_c 11.895951
_cell_angle_alpha 90.000000
_cell_angle_beta 152.082189
_cell_angle_gamma 90.000000
_cell_volume 4296.086076
_symmetry_space_group_name_H-M "C 2/M"
_symmetry_group_IT_number 12
_symmetry_cell_setting 'monoclinic'
loop_
_space_group_symop_operation_xyz
x,y,z
-x,y,-z
-x,-y,-z
x,-y,z
1/2+x,1/2+y,z
1/2-x,1/2+y,-z
1/2-x,1/2-y,-z
1/2+x,1/2-y,z
loop_
_atom_site_type_symbol
_atom_site_label
_atom_site_fract_x
_atom_site_fract_y
_atom_site_fract_z
Si Si1 0.670972 0.123274 0.711071
Si Si2 0.658151 0.723305 0.538304
Si Si3 0.930537 0.354565 0.179384
Si Si4 0.227897 0.301097 0.009508
Si Si5 0.381145 0.946454 0.217109
Si Si6 0.731000 0.170147 0.622670
Si Si7 0.340899 0.185900 0.768529
Si Si8 0.444706 0.289755 0.996144
O O1 0.551208 0.139780 0.452834
O O2 0.674025 0.073257 0.784861
O O3 0.713564 0.127539 0.674337
O O4 0.730247 0.160266 0.915026
O O5 0.692440 0.697589 0.723440
O O6 0.688502 0.780024 0.591948
O O7 0.728460 0.698641 0.586871
O O8 0.537652 0.718169 0.273557
O O9 0.877965 0.403952 0.117302
O O10 0.880279 0.311614 0.150117
O O11 0.901904 0.343528 0.990788
O O12 0.250000 0.250000 0.000000
O O13 0.500000 0.949022 0.500000
O O14 0.348275 0.000000 0.113883
O O15 0.673939 0.163805 0.385389
O O16 0.850513 0.179295 0.845861
O O17 0.397484 0.237200 0.870087
O O18 0.500000 0.310010 0.000000
#
# Coordination Sequence:
#
# PCOD9171886 Si02
#       8
#     8   8   8   8   8   8   8   8
#     4  10  19  31  44  67  93 119 153 186 229 269
#     4  10  18  30  40  57  83 125 164 191 213 249
#     4   9  19  30  46  66  90 122 154 185 226 267
#     4  10  18  29  40  59  92 121 153 187 214 259
#     4   8  15  31  52  69  86 114 149 183 226 283
#     4  11  19  29  42  62  89 119 158 192 222 262
#     4  10  19  27  42  62  86 118 160 194 212 261
#     4  11  18  29  43  58  85 130 167 185 220 253
#
# _framework density 14.897281
#
# number of rings (size 3 to 8) (size 9 to 14) (size 15 to 20)
#    0.000    2.125    3.750    2.625    0.000    0.000 
#    2.250    0.625    0.000    0.750    0.000    3.500 
#    0.000   18.500    0.000    1.125    0.000    0.000 
#
# Total GULP energy -178154.555261 kJ/mol
# GULP energy per Si atom -5567.329852 kJ/mol
# Density = 1.486337 g / cm^3
# Si number density = 14.897281 Si / 1000 Ang^3
#
#
#
# Elastic Constant Matrix: (Units=GPa)
#
#
# Indices 1 2 3 4 5 6 
#
# 1 80.3992 26.1721 25.0405 0.0000 -10.2854 0.0000
# 2 26.1721 57.0145 6.1753 0.0000 0.9371 0.0000
# 3 25.0405 6.1753 64.1851 0.0000 0.6854 0.0000
# 4 0.0000 0.0000 0.0000 8.5534 0.0000 -0.3031
# 5 -10.2854 0.9371 0.6854 0.0000 25.2021 0.0000
# 6 0.0000 0.0000 0.0000 -0.3031 0.0000 10.0310
#
#
#
# Elastic Compliance Matrix: (Units=1/GPa)
#
#
# Indices 1 2 3 4 5 6 
#
# 1 0.017893 -0.007656 -0.006327 0.000000 0.007759 0.000000
# 2 -0.007656 0.021009 0.001008 0.000000 -0.003933 0.000000
# 3 -0.006327 0.001008 0.017985 0.000000 -0.003109 0.000000
# 4 0.000000 0.000000 0.000000 0.117038 0.000000 0.003536
# 5 0.007759 -0.003933 -0.003109 0.000000 0.043077 0.000000
# 6 0.000000 0.000000 0.000000 0.003536 0.000000 0.099798
#
#
# Mechanical properties :
#
#
# Convention : Reuss Voigt Hill
#
# Bulk Modulus (GPa) = 32.32457 35.15273 33.73865
# Shear Modulus (GPa) = 14.16176 18.37135 16.26655
#
# Velocity S-wave (km/s) = 3.08657 3.51551 3.30800
# Velocity P-wave (km/s) = 5.86924 6.33454 6.10632
#
# Compressibility (1/GPa) = 0.03093622
#
# Stress axis : x y z
#
# Youngs Moduli (GPa) = 55.88656 47.59782 55.60330
#
# Poissons Ratio (x) = 0.36441 0.35180
# Poissons Ratio (y) = 0.42787 -0.05602
# Poissons Ratio (z) = 0.35359 -0.04796
#
# Static dielectric constant tensor:
#      x y z
#    x 1.544140 0.000000 -0.012370 
#    y 0.000000 1.484080 0.000000 
#    z -0.012370 0.000000 1.507150 
# 
# From -- ./inp_files/185082.got.cif
#   From: 2010.05.17/outbox.cif.g08.bks.cpg/sg12_93_cif.got.tgz:185082.got - 2010.06.03 13:09:07.
