data_PCOD9171675
_publ_section_title
;
Structure prediction by ZEFSAII (Michael W. Deem and Ramdas Pophale) SiO2 
 PCOD9171675
Probable space group: C 2/M
;
_chemical_formula_sum "Si O2"
_cell_formula_units_Z 56
_cell_length_a 13.707601
_cell_length_b 19.868713
_cell_length_c 14.823188
_cell_angle_alpha 90.000000
_cell_angle_beta 142.306696
_cell_angle_gamma 90.000000
_cell_volume 2468.441254
_symmetry_space_group_name_H-M "C 2/M"
_symmetry_group_IT_number 12
_symmetry_cell_setting 'monoclinic'
loop_
_space_group_symop_operation_xyz
x,y,z
-x,y,-z
-x,-y,-z
x,-y,z
1/2+x,1/2+y,z
1/2-x,1/2+y,-z
1/2-x,1/2-y,-z
1/2+x,1/2-y,z
loop_
_atom_site_type_symbol
_atom_site_label
_atom_site_fract_x
_atom_site_fract_y
_atom_site_fract_z
Si Si1 0.714148 0.576809 0.500828
Si Si2 0.645836 0.077108 0.191810
Si Si3 0.556977 0.077123 0.683896
Si Si4 0.151043 0.638659 0.941550
Si Si5 0.065067 0.163664 0.648633
Si Si6 0.745662 0.800664 0.771520
Si Si7 0.057865 0.210167 0.896054
O O1 0.653112 0.500000 0.441747
O O2 0.787263 0.577953 0.655796
O O3 0.577536 0.632741 0.396496
O O4 0.867350 0.588656 0.550252
O O5 0.467208 0.106195 0.071324
O O6 0.771976 0.121231 0.229435
O O7 0.648304 0.000000 0.164173
O O8 0.624842 0.092616 0.834419
O O9 0.650974 0.130251 0.693654
O O10 0.586210 0.000000 0.681193
O O11 0.081869 0.714300 0.877209
O O12 0.339263 0.656941 0.087891
O O13 0.118962 0.240843 0.691624
O O14 0.000000 0.153731 0.500000
O O15 0.871669 0.795753 0.782265
O O16 0.851594 0.796504 0.940760
#
# Coordination Sequence:
#
# PCOD9171675 Si02
#       7
#     8   8   8   8   8   8   8
#     4   8  15  27  44  67  94 124 155 193 243 285
#     4   9  15  25  44  70  96 122 155 197 237 286
#     4   9  18  32  51  73  98 128 165 209 247 286
#     4   9  15  29  49  69  90 127 165 192 236 293
#     4  10  18  28  46  71 101 127 162 204 241 291
#     4  10  19  32  47  72 103 127 165 204 249 294
#     4   9  18  30  48  69  98 132 155 196 247 290
#
# _framework density 22.686381999999998
#
# number of rings (size 3 to 8) (size 9 to 14) (size 15 to 20)
#    0.000    2.857    1.429    1.714    0.000    2.286 
#    0.000    6.429    0.000    4.714    0.000    0.000 
#    0.000    0.000    0.000    0.000    0.000    0.000 
#
# Total GULP energy -156287.992369 kJ/mol
# GULP energy per Si atom -5581.714013 kJ/mol
# Density = 2.263475 g / cm^3
# Si number density = 22.686382 Si / 1000 Ang^3
#
#
#
# Elastic Constant Matrix: (Units=GPa)
#
#
# Indices 1 2 3 4 5 6 
#
# 1 78.8193 59.9245 18.0157 0.0000 27.6495 0.0000
# 2 59.9245 155.3751 55.3799 0.0000 48.4883 0.0000
# 3 18.0157 55.3799 95.5431 0.0001 18.2986 0.0000
# 4 0.0000 0.0000 0.0001 23.0928 0.0000 10.1453
# 5 27.6495 48.4883 18.2986 0.0000 34.6700 0.0000
# 6 0.0000 0.0000 0.0000 10.1453 0.0000 32.6262
#
#
#
# Elastic Compliance Matrix: (Units=1/GPa)
#
#
# Indices 1 2 3 4 5 6 
#
# 1 0.019449 -0.005054 0.000978 0.000000 -0.008958 0.000000
# 2 -0.005054 0.014262 -0.004745 0.000000 -0.013411 0.000000
# 3 0.000978 -0.004745 0.013250 0.000000 -0.001137 0.000000
# 4 0.000000 0.000000 0.000000 0.050155 0.000000 -0.015596
# 5 -0.008958 -0.013411 -0.001137 0.000000 0.055344 0.000000
# 6 0.000000 0.000000 0.000000 -0.015596 0.000000 0.035500
#
#
# Mechanical properties :
#
#
# Convention : Reuss Voigt Hill
#
# Bulk Modulus (GPa) = 34.10813 66.26418 50.18616
# Shear Modulus (GPa) = 23.21537 31.17231 27.19384
#
# Velocity S-wave (km/s) = 3.20240 3.71084 3.46596
# Velocity P-wave (km/s) = 5.36107 6.90164 6.17956
#
# Compressibility (1/GPa) = 0.02931852
#
# Stress axis : x y z
#
# Youngs Moduli (GPa) = 51.41776 70.11826 75.47041
#
# Poissons Ratio (x) = 0.35435 -0.07379
# Poissons Ratio (y) = 0.25985 0.35811
# Poissons Ratio (z) = -0.05027 0.33271
#
# Static dielectric constant tensor:
#      x y z
#    x 1.906010 0.000000 -0.048280 
#    y 0.000000 1.780620 0.000000 
#    z -0.048280 0.000000 1.876130 
# 
# From -- ./inp_files/317202.got.cif
#   From: 2010.05.17/outbox.cif.g08.bks.cpg/sg12_159_cif.got.tgz:317202.got - 2010.06.03 13:09:07.
