data_PCOD9171269
_publ_section_title
;
Structure prediction by ZEFSAII (Michael W. Deem and Ramdas Pophale) SiO2 
 PCOD9171269
Probable space group: C 2/M
;
_chemical_formula_sum "Si O2"
_cell_formula_units_Z 48
_cell_length_a 20.090248
_cell_length_b 7.546654
_cell_length_c 21.066011
_cell_angle_alpha 90.000000
_cell_angle_beta 49.277605
_cell_angle_gamma 90.000000
_cell_volume 2420.595062
_symmetry_space_group_name_H-M "C 2/M"
_symmetry_group_IT_number 12
_symmetry_cell_setting 'monoclinic'
loop_
_space_group_symop_operation_xyz
x,y,z
-x,y,-z
-x,-y,-z
x,-y,z
1/2+x,1/2+y,z
1/2-x,1/2+y,-z
1/2-x,1/2-y,-z
1/2+x,1/2-y,z
loop_
_atom_site_type_symbol
_atom_site_label
_atom_site_fract_x
_atom_site_fract_y
_atom_site_fract_z
Si Si1 0.517749 0.284040 0.635694
Si Si2 0.318632 0.716671 0.762239
Si Si3 0.295358 0.789311 0.282875
Si Si4 0.480120 0.712989 0.219874
Si Si5 0.303710 0.287266 0.530723
Si Si6 0.675895 0.712095 0.097322
O O1 0.518754 0.500000 0.634560
O O2 0.418280 0.231379 0.681718
O O3 0.536231 0.228263 0.697066
O O4 0.596762 0.222468 0.541963
O O5 0.316961 0.500000 0.764209
O O6 0.248814 0.779480 0.753952
O O7 0.302943 0.776101 0.844448
O O8 0.399018 0.763511 0.226509
O O9 0.246507 0.717268 0.376170
O O10 0.280516 0.000000 0.291819
O O11 0.481765 0.500000 0.220219
O O12 0.577700 0.776244 0.140766
O O13 0.308094 0.500000 0.534160
O O14 0.250000 0.250000 0.500000
O O15 0.669609 0.500000 0.105713
O O16 0.750000 0.750000 0.000000
#
# Coordination Sequence:
#
# PCOD9171269 Si02
#       6
#     8   8   8   8   8   8
#     4   8  14  27  46  65  90 128 164 191 225 272
#     4   8  16  31  48  69  98 125 154 195 241 282
#     4  10  19  29  46  74 100 123 157 201 238 270
#     4   9  17  31  50  69  94 129 159 185 233 291
#     4  10  18  27  44  70  96 126 164 199 230 269
#     4   9  18  34  56  75  92 120 157 195 235 285
#
# _framework density 19.829834999999999
#
# number of rings (size 3 to 8) (size 9 to 14) (size 15 to 20)
#    0.000    3.000    1.667    2.000    0.000    1.333 
#    0.000    5.000    0.000    7.000    0.000    2.333 
#    0.000    0.000    0.000    0.000    0.000    0.000 
#
# Total GULP energy -133822.870500 kJ/mol
# GULP energy per Si atom -5575.952937 kJ/mol
# Density = 1.978470 g / cm^3
# Si number density = 19.829835 Si / 1000 Ang^3
#
#
#
# Elastic Constant Matrix: (Units=GPa)
#
#
# Indices 1 2 3 4 5 6 
#
# 1 199.6639 2.9732 99.5118 0.0002 -6.2319 -0.0002
# 2 2.9732 45.5756 5.0938 0.0006 1.7789 -0.0004
# 3 99.5118 5.0938 156.6143 0.0000 -17.0904 -0.0001
# 4 0.0002 0.0006 0.0000 10.3201 -0.0001 -1.7204
# 5 -6.2319 1.7789 -17.0904 -0.0001 19.7027 0.0001
# 6 -0.0002 -0.0004 -0.0001 -1.7204 0.0001 18.1657
#
#
#
# Elastic Compliance Matrix: (Units=1/GPa)
#
#
# Indices 1 2 3 4 5 6 
#
# 1 0.007395 0.000142 -0.004915 0.000000 -0.001937 0.000000
# 2 0.000142 0.022174 -0.001132 -0.000001 -0.002939 0.000000
# 3 -0.004915 -0.001132 0.010368 0.000000 0.007541 0.000000
# 4 0.000000 -0.000001 0.000000 0.098453 0.000001 0.009324
# 5 -0.001937 -0.002939 0.007541 0.000001 0.056948 0.000000
# 6 0.000000 0.000000 0.000000 0.009324 0.000000 0.055932
#
#
# Mechanical properties :
#
#
# Convention : Reuss Voigt Hill
#
# Bulk Modulus (GPa) = 35.55326 68.55682 52.05504
# Shear Modulus (GPa) = 18.35164 29.25603 23.80383
#
# Velocity S-wave (km/s) = 3.04543 3.84520 3.46844
# Velocity P-wave (km/s) = 5.50766 7.37304 6.50753
#
# Compressibility (1/GPa) = 0.02812682
#
# Stress axis : x y z
#
# Youngs Moduli (GPa) = 135.21760 45.09872 96.45211
#
# Poissons Ratio (x) = -0.00643 0.47407
# Poissons Ratio (y) = -0.01927 0.10923
# Poissons Ratio (z) = 0.66460 0.05107
#
# Static dielectric constant tensor:
#      x y z
#    x 1.696900 0.000000 -0.015890 
#    y 0.000000 1.806830 0.000000 
#    z -0.015890 0.000000 1.696420 
# 
# From -- ./inp_files/212844.got.cif
#   From: 2010.05.17/outbox.cif.g08.bks.cpg/sg12_107_cif.got.tgz:212844.got - 2010.06.03 13:09:07.
