data_PCOD9171416
_publ_section_title
;
Structure prediction by ZEFSAII (Michael W. Deem and Ramdas Pophale) SiO2 
 PCOD9171416
Probable space group: C 2/M
;
_chemical_formula_sum "Si O2"
_cell_formula_units_Z 56
_cell_length_a 20.191317
_cell_length_b 7.592351
_cell_length_c 22.804334
_cell_angle_alpha 90.000000
_cell_angle_beta 54.701907
_cell_angle_gamma 90.000000
_cell_volume 2853.198148
_symmetry_space_group_name_H-M "C 2/M"
_symmetry_group_IT_number 12
_symmetry_cell_setting 'monoclinic'
loop_
_space_group_symop_operation_xyz
x,y,z
-x,y,-z
-x,-y,-z
x,-y,z
1/2+x,1/2+y,z
1/2-x,1/2+y,-z
1/2-x,1/2-y,-z
1/2+x,1/2-y,z
loop_
_atom_site_type_symbol
_atom_site_label
_atom_site_fract_x
_atom_site_fract_y
_atom_site_fract_z
Si Si1 0.966319 0.788997 0.201921
Si Si2 0.628783 0.711837 0.446012
Si Si3 0.759985 0.704326 0.185334
Si Si4 0.414314 0.283379 0.759749
Si Si5 0.558756 0.211881 0.918940
Si Si6 0.990235 0.785321 0.598493
Si Si7 0.214999 0.792697 0.696240
O O1 0.974355 0.748639 0.129166
O O2 0.876380 0.725480 0.266960
O O3 0.037573 0.723690 0.207424
O O4 0.033902 0.000000 0.791578
O O5 0.627632 0.500000 0.446704
O O6 0.576085 0.769663 0.416245
O O7 0.577907 0.771115 0.528781
O O8 0.720957 0.766240 0.388277
O O9 0.762923 0.500000 0.166092
O O10 0.678354 0.779612 0.199051
O O11 0.848590 0.781477 0.125592
O O12 0.752227 0.710032 0.260040
O O13 0.412055 0.500000 0.760339
O O14 0.463588 0.228604 0.676369
O O15 0.563266 0.000000 0.922093
O O16 0.500000 0.278657 0.000000
O O17 0.989980 0.000000 0.598869
O O18 0.209380 0.000000 0.710959
#
# Coordination Sequence:
#
# PCOD9171416 Si02
#       7
#     8   8   8   8   8   8   8
#     4   9  19  32  48  69  94 123 152 185 227 273
#     4   9  15  26  45  67  87 115 160 201 229 260
#     4   9  16  29  52  71  85 117 161 192 215 262
#     4   9  15  28  49  70  89 116 159 198 223 258
#     4   9  18  33  52  74  97 119 146 184 228 271
#     4   8  14  24  44  69  88 111 155 206 230 251
#     4  10  18  28  42  65  95 122 150 189 234 276
#
# _framework density 19.627099000000001
#
# number of rings (size 3 to 8) (size 9 to 14) (size 15 to 20)
#    0.000    3.000    1.429    1.286    0.000    0.857 
#    0.000    3.571    0.000    0.000    0.000    0.000 
#    0.000    0.000    0.000    0.000    0.000    0.000 
#
# Total GULP energy -156063.901790 kJ/mol
# GULP energy per Si atom -5573.710778 kJ/mol
# Density = 1.958243 g / cm^3
# Si number density = 19.627099 Si / 1000 Ang^3
#
#
#
# Elastic Constant Matrix: (Units=GPa)
#
#
# Indices 1 2 3 4 5 6 
#
# 1 161.4693 8.2878 90.0486 -0.0006 -4.9263 -0.0007
# 2 8.2878 40.0140 -0.3562 0.0014 -0.0883 -0.0061
# 3 90.0486 -0.3562 145.4189 0.0001 -16.4955 -0.0004
# 4 -0.0006 0.0014 0.0001 -21.2237 0.0001 32.5022
# 5 -4.9263 -0.0883 -16.4955 0.0001 19.4348 -0.0001
# 6 -0.0007 -0.0061 -0.0004 32.5022 -0.0001 -22.5260
#
#
#
# Elastic Compliance Matrix: (Units=1/GPa)
#
#
# Indices 1 2 3 4 5 6 
#
# 1 0.009776 -0.002088 -0.006394 0.000000 -0.002959 0.000000
# 2 -0.002088 0.025438 0.001448 0.000007 0.000815 0.000004
# 3 -0.006394 0.001448 0.011792 0.000000 0.008394 0.000000
# 4 0.000000 0.000007 0.000000 0.038951 0.000000 0.056202
# 5 -0.002959 0.000815 0.008394 0.000000 0.057833 0.000000
# 6 0.000000 0.000004 0.000000 0.056202 0.000000 0.036700
#
#
# Mechanical properties :
#
#
# Convention : Reuss Voigt Hill
#
# Bulk Modulus (GPa) = 30.36095 60.31806 45.33951
# Shear Modulus (GPa) = 24.32628 11.73182 18.02905
#
# Velocity S-wave (km/s) = 3.52436 2.44752 3.03410
# Velocity P-wave (km/s) = 5.66251 6.22783 5.95188
#
# Compressibility (1/GPa) = 0.03293705
#
# Stress axis : x y z
#
# Youngs Moduli (GPa) = 102.28986 39.31053 84.80223
#
# Poissons Ratio (x) = 0.08209 0.54227
# Poissons Ratio (y) = 0.21361 -0.12279
# Poissons Ratio (z) = 0.65409 -0.05692
#
# Static dielectric constant tensor:
#      x y z
#    x 1.696150 0.000000 -0.038250 
#    y 0.000000 1.739480 0.000000 
#    z -0.038250 0.000000 1.677700 
# 
# From -- ./inp_files/276378.got.cif
#   From: 2010.05.17/outbox.cif.g08.bks.cpg/sg12_139_cif.got.tgz:276378.got - 2010.06.03 13:09:07.
