data_PCOD9171946
_publ_section_title
;
Structure prediction by ZEFSAII (Michael W. Deem and Ramdas Pophale) SiO2 
 PCOD9171946
Probable space group: C 2/M
;
_chemical_formula_sum "Si O2"
_cell_formula_units_Z 48
_cell_length_a 12.759863
_cell_length_b 20.155233
_cell_length_c 12.722427
_cell_angle_alpha 90.000000
_cell_angle_beta 64.212067
_cell_angle_gamma 90.000000
_cell_volume 2946.078482
_symmetry_space_group_name_H-M "C 2/M"
_symmetry_group_IT_number 12
_symmetry_cell_setting 'monoclinic'
loop_
_space_group_symop_operation_xyz
x,y,z
-x,y,-z
-x,-y,-z
x,-y,z
1/2+x,1/2+y,z
1/2-x,1/2+y,-z
1/2-x,1/2-y,-z
1/2+x,1/2-y,z
loop_
_atom_site_type_symbol
_atom_site_label
_atom_site_fract_x
_atom_site_fract_y
_atom_site_fract_z
Si Si1 0.298737 0.665831 0.718954
Si Si2 0.000285 0.425525 0.332456
Si Si3 0.492174 0.426859 0.376053
Si Si4 0.384642 0.797577 0.611981
Si Si5 0.913590 0.423690 0.135380
Si Si6 0.745609 0.127171 0.501030
O O1 0.414142 0.626177 0.701457
O O2 0.329335 0.743260 0.712880
O O3 0.188144 0.631142 0.821188
O O4 0.276175 0.653649 0.603866
O O5 0.043950 0.500000 0.335861
O O6 0.983561 0.417072 0.214604
O O7 0.869198 0.417944 0.435377
O O8 0.073948 0.365269 0.349052
O O9 0.500000 0.427795 0.500000
O O10 0.523040 0.500000 0.324370
O O11 0.359435 0.409456 0.409417
O O12 0.500000 0.770752 0.500000
O O13 0.292371 0.816267 0.562845
O O14 0.865858 0.500000 0.156788
O O15 0.000000 0.417082 0.000000
#
# Coordination Sequence:
#
# PCOD9171946 Si02
#       6
#     8   8   8   8   8   8
#     4  10  18  29  44  67  94 119 149 184 224 271
#     4   9  18  31  47  68  92 119 156 195 225 262
#     4   9  16  25  39  61  89 118 146 178 215 259
#     4  10  19  29  44  67  97 129 152 177 218 270
#     4   9  18  34  54  70  85 112 152 198 240 270
#     4   9  17  27  44  65  93 127 155 177 211 266
#
# _framework density 16.292845
#
# number of rings (size 3 to 8) (size 9 to 14) (size 15 to 20)
#    0.000    2.667    0.000    3.000    0.000   10.333 
#    0.000    0.833    0.000    0.000    0.000    0.000 
#    0.000    6.000    0.000    0.000    0.000    0.000 
#
# Total GULP energy -133684.144788 kJ/mol
# GULP energy per Si atom -5570.172699 kJ/mol
# Density = 1.625576 g / cm^3
# Si number density = 16.292845 Si / 1000 Ang^3
#
#
#
# Elastic Constant Matrix: (Units=GPa)
#
#
# Indices 1 2 3 4 5 6 
#
# 1 64.9149 44.3177 21.3910 0.0000 -9.3042 0.0000
# 2 44.3177 112.4591 35.0974 0.0000 -15.0720 0.0000
# 3 21.3910 35.0974 59.1285 0.0000 -6.1707 0.0000
# 4 0.0000 0.0000 0.0000 16.4617 0.0000 -4.6308
# 5 -9.3042 -15.0720 -6.1707 0.0000 9.1323 0.0000
# 6 0.0000 0.0000 0.0000 -4.6308 0.0000 15.3215
#
#
#
# Elastic Compliance Matrix: (Units=1/GPa)
#
#
# Indices 1 2 3 4 5 6 
#
# 1 0.022285 -0.006460 -0.003196 0.000000 0.009883 0.000000
# 2 -0.006460 0.014980 -0.005015 0.000000 0.014753 0.000000
# 3 -0.003196 -0.005015 0.021347 0.000000 0.002891 0.000000
# 4 0.000000 0.000000 0.000000 0.066392 0.000000 0.020066
# 5 0.009883 0.014753 0.002891 0.000000 0.145872 0.000000
# 6 0.000000 0.000000 0.000000 0.020066 0.000000 0.071332
#
#
# Mechanical properties :
#
#
# Convention : Reuss Voigt Hill
#
# Bulk Modulus (GPa) = 34.16513 48.67942 41.42227
# Shear Modulus (GPa) = 13.11279 17.22955 15.17117
#
# Velocity S-wave (km/s) = 2.84001 3.25544 3.05479
# Velocity P-wave (km/s) = 5.63641 6.63876 6.15801
#
# Compressibility (1/GPa) = 0.02926961
#
# Stress axis : x y z
#
# Youngs Moduli (GPa) = 44.87376 66.75434 46.84446
#
# Poissons Ratio (x) = 0.43123 0.14972
# Poissons Ratio (y) = 0.28988 0.23494
# Poissons Ratio (z) = 0.14342 0.33480
#
# Static dielectric constant tensor:
#      x y z
#    x 1.561470 0.000000 -0.000760 
#    y 0.000000 1.592960 0.000000 
#    z -0.000760 0.000000 1.524820 
# 
# From -- ./inp_files/132448.got.cif
#   From: 2010.05.17/outbox.cif.g08.bks.cpg/sg12_67_cif.got.tgz:132448.got - 2010.06.03 13:09:07.
