data_PCOD9171192
_publ_section_title
;
Structure prediction by ZEFSAII (Michael W. Deem and Ramdas Pophale) SiO2 
 PCOD9171192
Probable space group: C 2/M
;
_chemical_formula_sum "Si O2"
_cell_formula_units_Z 56
_cell_length_a 16.756335
_cell_length_b 25.332229
_cell_length_c 9.566842
_cell_angle_alpha 90.000000
_cell_angle_beta 123.318729
_cell_angle_gamma 90.000000
_cell_volume 3393.391341
_symmetry_space_group_name_H-M "C 2/M"
_symmetry_group_IT_number 12
_symmetry_cell_setting 'monoclinic'
loop_
_space_group_symop_operation_xyz
x,y,z
-x,y,-z
-x,-y,-z
x,-y,z
1/2+x,1/2+y,z
1/2-x,1/2+y,-z
1/2-x,1/2-y,-z
1/2+x,1/2-y,z
loop_
_atom_site_type_symbol
_atom_site_label
_atom_site_fract_x
_atom_site_fract_y
_atom_site_fract_z
Si Si1 0.061216 0.442301 0.373828
Si Si2 0.168376 0.650664 0.641652
Si Si3 0.917197 0.762948 0.511693
Si Si4 0.619590 0.890450 0.878392
Si Si5 0.748433 0.340990 0.563527
Si Si6 0.804654 0.439024 0.762277
Si Si7 0.465728 0.199357 0.816494
O O1 0.087231 0.500000 0.454987
O O2 0.103169 0.394691 0.506094
O O3 0.105595 0.439499 0.259740
O O4 0.948546 0.435459 0.250875
O O5 0.114865 0.707114 0.588958
O O6 0.184839 0.632400 0.816147
O O7 0.251444 0.657158 0.605675
O O8 0.826177 0.799217 0.450160
O O9 0.962341 0.745791 0.701928
O O10 0.000000 0.788444 0.500000
O O11 0.542291 0.845176 0.844857
O O12 0.668829 0.913046 0.063935
O O13 0.733745 0.398721 0.615430
O O14 0.856870 0.323139 0.710048
O O15 0.774570 0.500000 0.748980
O O16 0.500000 0.217183 0.000000
#
# Coordination Sequence:
#
# PCOD9171192 Si02
#       7
#     8   8   8   8   8   8   8
#     4  10  18  27  42  66 101 143 177 195 234 303
#     4  10  19  31  46  70 103 137 170 210 249 301
#     4  11  20  37  55  73  99 137 182 225 256 300
#     4  12  17  28  46  72 107 137 172 196 249 300
#     4  10  21  35  53  74 101 143 178 209 261 310
#     4  10  20  33  48  73 107 140 174 212 251 307
#     4  11  18  32  50  76 109 139 167 205 257 308
#
# _framework density 16.502665
#
# number of rings (size 3 to 8) (size 9 to 14) (size 15 to 20)
#    0.000    1.429    7.143    3.000    0.000    2.857 
#    0.000    4.286    0.000    0.429    0.000    0.000 
#    0.000    1.714    0.000    0.000    0.000    0.000 
#
# Total GULP energy -155988.798182 kJ/mol
# GULP energy per Si atom -5571.028506 kJ/mol
# Density = 1.646510 g / cm^3
# Si number density = 16.502665 Si / 1000 Ang^3
#
#
#
# Elastic Constant Matrix: (Units=GPa)
#
#
# Indices 1 2 3 4 5 6 
#
# 1 71.9973 50.2305 34.2767 0.0000 -16.0032 0.0000
# 2 50.2305 85.9926 26.6725 0.0000 -7.5306 0.0000
# 3 34.2767 26.6725 59.4782 0.0000 -25.1045 0.0000
# 4 0.0000 0.0000 0.0000 16.5564 0.0000 -3.0777
# 5 -16.0032 -7.5306 -25.1045 0.0000 19.9721 0.0000
# 6 0.0000 0.0000 0.0000 -3.0777 0.0000 9.2825
#
#
#
# Elastic Compliance Matrix: (Units=1/GPa)
#
#
# Indices 1 2 3 4 5 6 
#
# 1 0.028859 -0.014109 -0.005941 0.000000 0.010336 0.000000
# 2 -0.014109 0.020682 -0.005589 0.000000 -0.010533 0.000000
# 3 -0.005941 -0.005589 0.042271 0.000000 0.046266 0.000000
# 4 0.000000 0.000000 0.000000 0.064367 0.000000 0.021342
# 5 0.010336 -0.010533 0.046266 0.000000 0.112535 0.000000
# 6 0.000000 0.000000 0.000000 0.021342 0.000000 0.114806
#
#
# Mechanical properties :
#
#
# Convention : Reuss Voigt Hill
#
# Bulk Modulus (GPa) = 24.67182 48.86972 36.77077
# Shear Modulus (GPa) = 11.15298 16.24809 13.70054
#
# Velocity S-wave (km/s) = 2.60249 3.14120 2.88445
# Velocity P-wave (km/s) = 4.90033 6.54474 5.78130
#
# Compressibility (1/GPa) = 0.04053208
#
# Stress axis : x y z
#
# Youngs Moduli (GPa) = 34.65104 48.35172 23.65686
#
# Poissons Ratio (x) = 0.68221 0.14055
# Poissons Ratio (y) = 0.48890 0.13222
# Poissons Ratio (z) = 0.20588 0.27025
#
# Static dielectric constant tensor:
#      x y z
#    x 1.582070 0.000000 -0.048040 
#    y 0.000000 1.602840 0.000000 
#    z -0.048040 0.000000 1.566140 
# 
# From -- ./inp_files/67078.got.cif
#   From: 2010.05.17/outbox.cif.g08.bks.cpg/sg12_34_cif.got.tgz:67078.got - 2010.06.03 13:09:07.
