data_PCOD9171033
_publ_section_title
;
Structure prediction by ZEFSAII (Michael W. Deem and Ramdas Pophale) SiO2 
 PCOD9171033
Probable space group: C 2/M
;
_chemical_formula_sum "Si O2"
_cell_formula_units_Z 56
_cell_length_a 27.734553
_cell_length_b 7.505640
_cell_length_c 14.039512
_cell_angle_alpha 90.000000
_cell_angle_beta 118.070434
_cell_angle_gamma 90.000000
_cell_volume 2578.763709
_symmetry_space_group_name_H-M "C 2/M"
_symmetry_group_IT_number 12
_symmetry_cell_setting 'monoclinic'
loop_
_space_group_symop_operation_xyz
x,y,z
-x,y,-z
-x,-y,-z
x,-y,z
1/2+x,1/2+y,z
1/2-x,1/2+y,-z
1/2-x,1/2-y,-z
1/2+x,1/2-y,z
loop_
_atom_site_type_symbol
_atom_site_label
_atom_site_fract_x
_atom_site_fract_y
_atom_site_fract_z
Si Si1 0.133931 0.290112 0.635761
Si Si2 0.765181 0.297317 0.172604
Si Si3 0.027591 0.705568 0.630691
Si Si4 0.938497 0.781888 0.832535
Si Si5 0.169702 0.782309 0.956036
Si Si6 0.583654 0.297437 0.388213
Si Si7 0.935785 0.783380 0.041609
O O1 0.136292 0.500000 0.660912
O O2 0.194273 0.215592 0.711297
O O3 0.087153 0.214525 0.663402
O O4 0.112674 0.280858 0.507980
O O5 0.752493 0.500000 0.190056
O O6 0.708425 0.222919 0.080131
O O7 0.803681 0.293504 0.114286
O O8 0.032136 0.500000 0.665530
O O9 0.000000 0.704973 0.500000
O O10 0.982024 0.795075 0.653705
O O11 0.908515 0.717895 0.709418
O O12 0.918016 0.730433 0.918075
O O13 0.937970 0.000000 0.829013
O O14 0.002045 0.725542 0.886634
O O15 0.108031 0.727237 0.920967
O O16 0.172686 0.000000 0.952765
O O17 0.602353 0.500000 0.403341
O O18 0.936393 0.000000 0.043706
#
# Coordination Sequence:
#
# PCOD9171033 Si02
#       7
#     8   8   8   8   8   8   8
#     4   9  18  31  43  56  85 125 150 167 208 267
#     4   9  18  31  45  66  92 117 146 179 218 263
#     4   8  15  27  39  53  79 118 150 165 199 259
#     4   8  15  26  41  65  93 116 139 175 224 266
#     4   9  17  29  49  71  87 110 148 187 219 256
#     4  10  18  26  41  66  89 109 142 186 221 248
#     4   8  14  27  45  64  89 117 142 174 221 269
#
# _framework density 21.715831000000001
#
# number of rings (size 3 to 8) (size 9 to 14) (size 15 to 20)
#    0.000    3.286    0.000    2.143    2.000    3.143 
#    0.000    0.000    0.000    2.571    0.000    5.000 
#    0.000    0.000    0.000    0.000    0.000    0.143 
#
# Total GULP energy -156014.351536 kJ/mol
# GULP energy per Si atom -5571.941126 kJ/mol
# Density = 2.166640 g / cm^3
# Si number density = 21.715831 Si / 1000 Ang^3
#
#
#
# Elastic Constant Matrix: (Units=GPa)
#
#
# Indices 1 2 3 4 5 6 
#
# 1 30.1361 -5.0380 -7.8427 0.0000 -4.3989 0.0000
# 2 -5.0380 60.0880 -2.2489 0.0000 3.3611 0.0000
# 3 -7.8427 -2.2489 90.7329 0.0000 -5.5831 0.0000
# 4 0.0000 0.0000 0.0000 28.4530 0.0000 -11.8659
# 5 -4.3989 3.3611 -5.5831 0.0000 25.9016 0.0000
# 6 0.0000 0.0000 0.0000 -11.8659 0.0000 10.5714
#
#
#
# Elastic Compliance Matrix: (Units=1/GPa)
#
#
# Indices 1 2 3 4 5 6 
#
# 1 0.035501 0.002749 0.003533 0.000000 0.006434 0.000000
# 2 0.002749 0.016984 0.000559 0.000000 -0.001617 0.000000
# 3 0.003533 0.000559 0.011526 0.000000 0.003012 0.000000
# 4 0.000000 0.000000 0.000000 0.066076 0.000000 0.074168
# 5 0.006434 -0.001617 0.003012 0.000000 0.040559 0.000000
# 6 0.000000 0.000000 0.000000 0.074168 0.000000 0.177845
#
#
# Mechanical properties :
#
#
# Convention : Reuss Voigt Hill
#
# Bulk Modulus (GPa) = 12.87134 16.74419 14.80777
# Shear Modulus (GPa) = 13.86165 26.05761 19.95963
#
# Velocity S-wave (km/s) = 2.52924 3.46777 3.03500
# Velocity P-wave (km/s) = 3.80387 4.87455 4.37211
#
# Compressibility (1/GPa) = 0.07769199
#
# Stress axis : x y z
#
# Youngs Moduli (GPa) = 28.16834 58.87862 86.76114
#
# Poissons Ratio (x) = -0.16185 -0.30649
# Poissons Ratio (y) = -0.07743 -0.04851
# Poissons Ratio (z) = -0.09951 -0.03292
#
# Static dielectric constant tensor:
#      x y z
#    x 1.778550 0.000000 0.027430 
#    y 0.000000 1.821720 0.000000 
#    z 0.027430 0.000000 1.858090 
# 
# From -- ./inp_files/248563.got.cif
#   From: 2010.05.17/outbox.cif.g08.bks.cpg/sg12_125_cif.got.tgz:248563.got - 2010.06.03 13:09:07.
