data_PCOD9171323
_publ_section_title
;
Structure prediction by ZEFSAII (Michael W. Deem and Ramdas Pophale) SiO2 
 PCOD9171323
Probable space group: C 2/M
;
_chemical_formula_sum "Si O2"
_cell_formula_units_Z 48
_cell_length_a 23.247295
_cell_length_b 8.644399
_cell_length_c 14.576682
_cell_angle_alpha 90.000000
_cell_angle_beta 77.889983
_cell_angle_gamma 90.000000
_cell_volume 2864.126619
_symmetry_space_group_name_H-M "C 2/M"
_symmetry_group_IT_number 12
_symmetry_cell_setting 'monoclinic'
loop_
_space_group_symop_operation_xyz
x,y,z
-x,y,-z
-x,-y,-z
x,-y,z
1/2+x,1/2+y,z
1/2-x,1/2+y,-z
1/2-x,1/2-y,-z
1/2+x,1/2-y,z
loop_
_atom_site_type_symbol
_atom_site_label
_atom_site_fract_x
_atom_site_fract_y
_atom_site_fract_z
Si Si1 0.262637 0.312703 0.720046
Si Si2 0.797355 0.814568 0.912652
Si Si3 0.860649 0.814628 0.316205
Si Si4 0.048419 0.686286 0.855219
Si Si5 0.582544 0.186854 0.048335
Si Si6 0.188456 0.813652 0.482033
O O1 0.258288 0.500000 0.721638
O O2 0.281158 0.262131 0.815061
O O3 0.199055 0.247968 0.711582
O O4 0.309926 0.266856 0.625236
O O5 0.861605 0.758958 0.921413
O O6 0.795108 0.000000 0.914983
O O7 0.750000 0.750000 0.000000
O O8 0.916013 0.753996 0.241306
O O9 0.858251 0.765328 0.424605
O O10 0.859543 0.000000 0.312885
O O11 0.050562 0.500000 0.850254
O O12 0.979916 0.731279 0.885588
O O13 0.078442 0.731692 0.942172
O O14 0.586852 0.000000 0.049782
O O15 0.250000 0.750000 0.500000
O O16 0.189540 0.000000 0.482846
#
# Coordination Sequence:
#
# PCOD9171323 Si02
#       6
#     8   8   8   8   8   8
#     4   9  18  32  47  64  93 130 157 180 222 278
#     4  11  22  33  48  70  95 124 155 186 224 271
#     4  10  18  27  46  75  97 115 149 195 233 264
#     4   9  18  33  51  68  90 122 154 185 228 279
#     4   9  19  35  51  67  90 122 157 189 224 269
#     4   8  15  28  44  64  91 120 151 187 225 266
#
# _framework density 16.759035000000001
#
# number of rings (size 3 to 8) (size 9 to 14) (size 15 to 20)
#    0.000    2.667    0.000    3.000    0.000    7.333 
#    0.000    1.667    0.000    1.000    0.000    7.000 
#    0.000    0.000    0.000    0.000    0.000    0.000 
#
# Total GULP energy -133705.428459 kJ/mol
# GULP energy per Si atom -5571.059519 kJ/mol
# Density = 1.672089 g / cm^3
# Si number density = 16.759035 Si / 1000 Ang^3
#
#
#
# Elastic Constant Matrix: (Units=GPa)
#
#
# Indices 1 2 3 4 5 6 
#
# 1 72.1538 19.2772 67.2146 0.0000 1.4686 0.0000
# 2 19.2772 14.7485 32.0257 0.0000 -0.9523 0.0000
# 3 67.2146 32.0257 194.3308 0.0000 -11.7237 0.0000
# 4 0.0000 0.0000 0.0000 25.1132 0.0000 -4.6429
# 5 1.4686 -0.9523 -11.7237 0.0000 24.6965 0.0000
# 6 0.0000 0.0000 0.0000 -4.6429 0.0000 26.3996
#
#
#
# Elastic Compliance Matrix: (Units=1/GPa)
#
#
# Indices 1 2 3 4 5 6 
#
# 1 0.024456 -0.020680 -0.005339 0.000000 -0.004786 0.000000
# 2 -0.020680 0.123524 -0.013221 0.000000 -0.000283 0.000000
# 3 -0.005339 -0.013221 0.009430 0.000000 0.004284 0.000000
# 4 0.000000 0.000000 0.000000 0.041158 0.000000 0.007238
# 5 -0.004786 -0.000283 0.004284 0.000000 0.042799 0.000000
# 6 0.000000 0.000000 0.000000 0.007238 0.000000 0.039152
#
#
# Mechanical properties :
#
#
# Convention : Reuss Voigt Hill
#
# Bulk Modulus (GPa) = 12.66962 57.58533 35.12748
# Shear Modulus (GPa) = 12.97660 26.08958 19.53309
#
# Velocity S-wave (km/s) = 2.78565 3.94984 3.41768
# Velocity P-wave (km/s) = 4.23353 7.43216 6.04813
#
# Compressibility (1/GPa) = 0.07892896
#
# Stress axis : x y z
#
# Youngs Moduli (GPa) = 40.89055 8.09559 106.04532
#
# Poissons Ratio (x) = 0.16741 0.56621
# Poissons Ratio (y) = 0.84561 1.40204
# Poissons Ratio (z) = 0.21833 0.10703
#
# Static dielectric constant tensor:
#      x y z
#    x 1.524230 0.000000 -0.004450 
#    y 0.000000 1.571270 0.000000 
#    z -0.004450 0.000000 1.610420 
# 
# From -- ./inp_files/172394.got.cif
#   From: 2010.05.17/outbox.cif.g08.bks.cpg/sg12_87_cif.got.tgz:172394.got - 2010.06.03 13:09:07.
