data_PCOD9171637
_publ_section_title
;
Structure prediction by ZEFSAII (Michael W. Deem and Ramdas Pophale) SiO2 
 PCOD9171637
Probable space group: C 2/M
;
_chemical_formula_sum "Si O2"
_cell_formula_units_Z 56
_cell_length_a 28.104883
_cell_length_b 7.566521
_cell_length_c 13.180504
_cell_angle_alpha 90.000000
_cell_angle_beta 57.771196
_cell_angle_gamma 90.000000
_cell_volume 2371.056962
_symmetry_space_group_name_H-M "C 2/M"
_symmetry_group_IT_number 12
_symmetry_cell_setting 'monoclinic'
loop_
_space_group_symop_operation_xyz
x,y,z
-x,y,-z
-x,-y,-z
x,-y,z
1/2+x,1/2+y,z
1/2-x,1/2+y,-z
1/2-x,1/2-y,-z
1/2+x,1/2-y,z
loop_
_atom_site_type_symbol
_atom_site_label
_atom_site_fract_x
_atom_site_fract_y
_atom_site_fract_z
Si Si1 0.785113 0.791047 0.761440
Si Si2 0.320502 0.786925 0.004516
Si Si3 0.216643 0.790467 0.639470
Si Si4 0.908870 0.211553 0.248104
Si Si5 0.107339 0.203391 0.273802
Si Si6 0.927965 0.290785 0.002078
Si Si7 0.996196 0.797235 0.727141
O O1 0.740994 0.718623 0.895232
O O2 0.753321 0.775558 0.691709
O O3 0.848678 0.717903 0.695134
O O4 0.790457 0.000000 0.775929
O O5 0.362555 0.751208 0.050935
O O6 0.318791 0.000000 0.993617
O O7 0.352447 0.708641 0.871736
O O8 0.250000 0.750000 0.500000
O O9 0.153785 0.716554 0.695599
O O10 0.211091 0.000000 0.660308
O O11 0.938854 0.242700 0.105668
O O12 0.944896 0.283085 0.302196
O O13 0.905784 0.000000 0.266330
O O14 0.047729 0.282750 0.304420
O O15 0.094973 0.000000 0.315613
O O16 0.936992 0.500000 0.979345
O O17 0.962054 0.200482 0.872743
O O18 0.006420 0.000000 0.683787
#
# Coordination Sequence:
#
# PCOD9171637 Si02
#       7
#     8   8   8   8   8   8   8
#     4  10  19  34  53  75 104 136 170 213 260 304
#     4   9  17  28  44  70 107 143 173 208 247 293
#     4  11  24  40  59  80  99 128 171 221 273 317
#     4  10  20  34  52  72  99 135 172 211 258 307
#     4   9  18  30  49  75 105 141 175 205 244 298
#     4  10  18  28  45  73 107 142 175 207 248 299
#     4   9  18  32  48  72 107 141 173 207 242 296
#
# _framework density 23.618158000000001
#
# number of rings (size 3 to 8) (size 9 to 14) (size 15 to 20)
#    0.000    2.286    1.429    1.714    0.000    4.571 
#    0.000    0.000    0.000    0.857    0.000    6.000 
#    0.000    0.000    0.000    0.000    0.000    0.000 
#
# Total GULP energy -156215.112509 kJ/mol
# GULP energy per Si atom -5579.111161 kJ/mol
# Density = 2.356440 g / cm^3
# Si number density = 23.618158 Si / 1000 Ang^3
#
#
#
# Elastic Constant Matrix: (Units=GPa)
#
#
# Indices 1 2 3 4 5 6 
#
# 1 220.3758 13.1686 13.6261 0.0000 -2.1439 0.0000
# 2 13.1686 63.3552 -16.4110 0.0000 -2.2037 0.0000
# 3 13.6261 -16.4110 27.3252 0.0000 0.1444 0.0000
# 4 0.0000 0.0000 0.0000 10.0370 0.0000 2.9261
# 5 -2.1439 -2.2037 0.1444 0.0000 11.4185 0.0000
# 6 0.0000 0.0000 0.0000 2.9261 0.0000 15.8921
#
#
#
# Elastic Compliance Matrix: (Units=1/GPa)
#
#
# Indices 1 2 3 4 5 6 
#
# 1 0.004881 -0.001925 -0.003593 0.000000 0.000590 0.000000
# 2 -0.001925 0.019589 0.012707 0.000000 0.003258 0.000000
# 3 -0.003593 0.012707 0.046013 0.000000 0.001196 0.000000
# 4 0.000000 0.000000 0.000000 0.105283 0.000000 -0.019385
# 5 0.000590 0.003258 0.001196 0.000000 0.088302 0.000000
# 6 0.000000 0.000000 0.000000 -0.019385 0.000000 0.066494
#
#
# Mechanical properties :
#
#
# Convention : Reuss Voigt Hill
#
# Bulk Modulus (GPa) = 11.78374 36.86929 24.32652
# Shear Modulus (GPa) = 14.51512 27.51435 21.01473
#
# Velocity S-wave (km/s) = 2.48175 3.41686 2.98614
# Velocity P-wave (km/s) = 3.63486 5.58669 4.71292
#
# Compressibility (1/GPa) = 0.08486268
#
# Stress axis : x y z
#
# Youngs Moduli (GPa) = 204.89322 51.04912 21.73290
#
# Poissons Ratio (x) = 0.09825 0.07808
# Poissons Ratio (y) = 0.39433 -0.27617
# Poissons Ratio (z) = 0.73613 -0.64869
#
# Static dielectric constant tensor:
#      x y z
#    x 2.053130 0.000000 -0.029130 
#    y 0.000000 1.802470 0.000000 
#    z -0.029130 0.000000 1.840490 
# 
# From -- ./inp_files/243630.got.cif
#   From: 2010.05.17/outbox.cif.g08.bks.cpg/sg12_122_cif.got.tgz:243630.got - 2010.06.03 13:09:07.
