data_PCOD9171300
_publ_section_title
;
Structure prediction by ZEFSAII (Michael W. Deem and Ramdas Pophale) SiO2 
 PCOD9171300
Probable space group: C 2/M
;
_chemical_formula_sum "Si O2"
_cell_formula_units_Z 64
_cell_length_a 19.496506
_cell_length_b 8.978749
_cell_length_c 23.510378
_cell_angle_alpha 90.000000
_cell_angle_beta 61.354659
_cell_angle_gamma 90.000000
_cell_volume 3611.858843
_symmetry_space_group_name_H-M "C 2/M"
_symmetry_group_IT_number 12
_symmetry_cell_setting 'monoclinic'
loop_
_space_group_symop_operation_xyz
x,y,z
-x,y,-z
-x,-y,-z
x,-y,z
1/2+x,1/2+y,z
1/2-x,1/2+y,-z
1/2-x,1/2-y,-z
1/2+x,1/2-y,z
loop_
_atom_site_type_symbol
_atom_site_label
_atom_site_fract_x
_atom_site_fract_y
_atom_site_fract_z
Si Si1 0.427268 0.823208 0.219236
Si Si2 0.757237 0.677890 0.325804
Si Si3 0.187852 0.176546 0.156827
Si Si4 0.635377 0.823388 0.293442
Si Si5 0.065313 0.823890 0.102047
Si Si6 0.042593 0.322795 0.660437
Si Si7 0.311881 0.822288 0.019034
Si Si8 0.201715 0.822353 0.570285
O O1 0.335187 0.787599 0.257635
O O2 0.481098 0.736938 0.153600
O O3 0.456174 0.790304 0.272285
O O4 0.436543 0.000000 0.206214
O O5 0.756485 0.500000 0.334760
O O6 0.681966 0.734703 0.322725
O O7 0.766941 0.758584 0.382229
O O8 0.168412 0.272271 0.219322
O O9 0.123232 0.204701 0.133151
O O10 0.272962 0.208307 0.095714
O O11 0.184220 0.000000 0.172014
O O12 0.542912 0.791462 0.329631
O O13 0.646052 0.000000 0.296529
O O14 0.064006 0.000000 0.093409
O O15 0.105234 0.744412 0.032187
O O16 0.059072 0.500000 0.648360
O O17 0.111636 0.230763 0.604236
O O18 0.312244 0.000000 0.011236
O O19 0.250000 0.750000 0.000000
O O20 0.250000 0.750000 0.500000
O O21 0.207276 0.000000 0.566686
#
# Coordination Sequence:
#
# PCOD9171300 Si02
#       8
#     8   8   8   8   8   8   8   8
#     4   9  17  32  52  74 103 141 178 221 273 320
#     4  10  22  39  57  81 114 146 180 222 268 319
#     4   9  18  30  45  70 103 140 178 219 272 325
#     4  11  21  34  55  82 112 146 181 222 271 321
#     4  10  18  27  45  73 102 134 177 227 274 323
#     4   9  19  35  55  83 114 144 181 222 266 316
#     4   9  17  28  42  65  98 135 176 223 274 325
#     4  11  22  39  64  89 114 146 181 218 261 312
#
# _framework density 17.719408000000001
#
# number of rings (size 3 to 8) (size 9 to 14) (size 15 to 20)
#    0.000    2.250    1.250    4.125    0.000    6.000 
#    0.000    0.625    0.000    4.500    0.000    5.250 
#    0.000    0.000    0.000    0.000    0.000    0.000 
#
# Total GULP energy -178535.372457 kJ/mol
# GULP energy per Si atom -5579.230389 kJ/mol
# Density = 1.767908 g / cm^3
# Si number density = 17.719408 Si / 1000 Ang^3
#
#
#
# Elastic Constant Matrix: (Units=GPa)
#
#
# Indices 1 2 3 4 5 6 
#
# 1 77.1179 48.3557 32.1752 0.0000 -12.5186 0.0000
# 2 48.3557 87.9484 66.9016 0.0000 -15.7336 0.0000
# 3 32.1752 66.9016 105.9422 0.0000 -26.6618 0.0000
# 4 0.0000 0.0000 0.0000 33.2881 0.0000 -4.0245
# 5 -12.5186 -15.7336 -26.6618 0.0000 16.1084 0.0000
# 6 0.0000 0.0000 0.0000 -4.0245 0.0000 26.0519
#
#
#
# Elastic Compliance Matrix: (Units=1/GPa)
#
#
# Indices 1 2 3 4 5 6 
#
# 1 0.021109 -0.013228 0.004832 0.000000 0.011483 0.000000
# 2 -0.013228 0.030233 -0.017533 0.000000 -0.009771 0.000000
# 3 0.004832 -0.017533 0.026872 0.000000 0.031108 0.000000
# 4 0.000000 0.000000 0.000000 0.030613 0.000000 0.004729
# 5 0.011483 -0.009771 0.031108 0.000000 0.112947 0.000000
# 6 0.000000 0.000000 0.000000 0.004729 0.000000 0.039116
#
#
# Mechanical properties :
#
#
# Convention : Reuss Voigt Hill
#
# Bulk Modulus (GPa) = 37.94161 62.87481 50.40821
# Shear Modulus (GPa) = 15.55049 23.32809 19.43929
#
# Velocity S-wave (km/s) = 2.96564 3.63233 3.31579
# Velocity P-wave (km/s) = 5.76070 7.29057 6.57031
#
# Compressibility (1/GPa) = 0.02635629
#
# Stress axis : x y z
#
# Youngs Moduli (GPa) = 47.37208 33.07685 37.21287
#
# Poissons Ratio (x) = 0.43753 -0.17981
# Poissons Ratio (y) = 0.62663 0.65247
# Poissons Ratio (z) = -0.22890 0.57995
#
# Static dielectric constant tensor:
#      x y z
#    x 1.606000 0.000000 -0.013400 
#    y 0.000000 1.568500 0.000000 
#    z -0.013400 0.000000 1.600950 
# 
# From -- ./inp_files/345530.got.cif
#   From: 2010.05.17/outbox.cif.g08.bks.cpg/sg12_173_cif.got.tgz:345530.got - 2010.06.03 13:09:07.
