data_PCOD9171530
_publ_section_title
;
Structure prediction by ZEFSAII (Michael W. Deem and Ramdas Pophale) SiO2 
 PCOD9171530
Probable space group: C 2/M
;
_chemical_formula_sum "Si O2"
_cell_formula_units_Z 64
_cell_length_a 22.973855
_cell_length_b 7.395667
_cell_length_c 19.007761
_cell_angle_alpha 90.000000
_cell_angle_beta 65.127631
_cell_angle_gamma 90.000000
_cell_volume 2930.000573
_symmetry_space_group_name_H-M "C 2/M"
_symmetry_group_IT_number 12
_symmetry_cell_setting 'monoclinic'
loop_
_space_group_symop_operation_xyz
x,y,z
-x,y,-z
-x,-y,-z
x,-y,z
1/2+x,1/2+y,z
1/2-x,1/2+y,-z
1/2-x,1/2-y,-z
1/2+x,1/2-y,z
loop_
_atom_site_type_symbol
_atom_site_label
_atom_site_fract_x
_atom_site_fract_y
_atom_site_fract_z
Si Si1 0.818500 0.716503 0.309350
Si Si2 0.672875 0.215532 0.407027
Si Si3 0.075435 0.719824 0.169924
Si Si4 0.545435 0.220927 0.541403
Si Si5 0.307926 0.207246 0.156826
Si Si6 0.951491 0.278946 0.302954
Si Si7 0.162798 0.719289 0.253848
Si Si8 0.678831 0.217437 0.004290
O O1 0.823098 0.500000 0.301988
O O2 0.748350 0.749562 0.377920
O O3 0.821617 0.787512 0.227130
O O4 0.879472 0.780553 0.322033
O O5 0.618699 0.278934 0.488186
O O6 0.654474 0.280862 0.338053
O O7 0.666553 0.000000 0.409302
O O8 0.075559 0.500000 0.165591
O O9 0.109140 0.770662 0.226053
O O10 0.001982 0.777033 0.217207
O O11 0.121994 0.783423 0.084104
O O12 0.500000 0.279049 0.500000
O O13 0.527912 0.277869 0.629133
O O14 0.542509 0.000000 0.542955
O O15 0.230788 0.209678 0.192739
O O16 0.328656 0.288071 0.071649
O O17 0.331352 0.000000 0.146696
O O18 0.951586 0.500000 0.303614
O O19 0.166168 0.500000 0.252666
O O20 0.673817 0.000000 0.003136
O O21 0.750000 0.250000 0.000000
#
# Coordination Sequence:
#
# PCOD9171530 Si02
#       8
#     8   8   8   8   8   8   8   8
#     4   9  18  32  47  64  90 126 160 183 216 268
#     4   9  17  28  46  71  93 116 150 191 229 262
#     4   9  16  26  42  65  90 115 148 186 226 269
#     4   9  16  27  45  71  98 118 145 190 236 270
#     4   9  17  28  42  63  92 119 145 181 221 266
#     4   9  17  29  45  64  90 124 155 186 225 269
#     4   9  15  25  43  66  90 115 144 182 227 270
#     4  10  18  28  44  68  94 116 144 185 230 271
#
# _framework density 21.843
#
# number of rings (size 3 to 8) (size 9 to 14) (size 15 to 20)
#    0.000    2.875    1.250    0.750    0.000    3.500 
#    0.000    0.625    0.000    5.625    0.000    0.000 
#    0.000    5.000    0.000    0.000    0.000    0.000 
#
# Total GULP energy -178459.747379 kJ/mol
# GULP energy per Si atom -5576.867106 kJ/mol
# Density = 2.179328 g / cm^3
# Si number density = 21.843000 Si / 1000 Ang^3
#
#
#
# Elastic Constant Matrix: (Units=GPa)
#
#
# Indices 1 2 3 4 5 6 
#
# 1 95.3846 -3.3804 54.1673 -0.0004 -7.2838 0.0010
# 2 -3.3804 72.7527 2.0441 -0.0017 1.4702 0.0003
# 3 54.1673 2.0441 155.2433 0.0001 -24.8263 0.0006
# 4 -0.0004 -0.0017 0.0001 1.6721 0.0000 -7.1139
# 5 -7.2838 1.4702 -24.8263 0.0000 20.4608 0.0001
# 6 0.0010 0.0003 0.0006 -7.1139 0.0001 10.2811
#
#
#
# Elastic Compliance Matrix: (Units=1/GPa)
#
#
# Indices 1 2 3 4 5 6 
#
# 1 0.013137 0.000769 -0.004783 0.000000 -0.001182 -0.000001
# 2 0.000769 0.013832 -0.000702 -0.000006 -0.001572 -0.000005
# 3 -0.004783 -0.000702 0.009747 0.000001 0.010174 0.000001
# 4 0.000000 -0.000006 0.000001 -0.307660 0.000002 -0.212884
# 5 -0.001182 -0.001572 0.010174 0.000002 0.060911 0.000001
# 6 -0.000001 -0.000005 0.000001 -0.212884 0.000001 -0.050037
#
#
# Mechanical properties :
#
#
# Convention : Reuss Voigt Hill
#
# Bulk Modulus (GPa) = 36.65127 47.67137 42.16132
# Shear Modulus (GPa) = -20.70015 24.51944 1.90964
#
# Velocity S-wave (km/s) = -3.08178 3.35405 0.93603
# Velocity P-wave (km/s) = 2.03781 6.07219 4.52903
#
# Compressibility (1/GPa) = 0.02728418
#
# Stress axis : x y z
#
# Youngs Moduli (GPa) = 76.12098 72.29414 102.60016
#
# Poissons Ratio (x) = -0.05557 0.49072
# Poissons Ratio (y) = -0.05851 0.07199
# Poissons Ratio (z) = 0.36408 0.05073
#
# Static dielectric constant tensor:
#      x y z
#    x 1.771840 0.000000 0.003280 
#    y 0.000000 1.853270 0.000000 
#    z 0.003280 0.000000 1.814530 
# 
# From -- ./inp_files/282842.got.cif
#   From: 2010.05.17/outbox.cif.g08.bks.cpg/sg12_142_cif.got.tgz:282842.got - 2010.06.03 13:09:07.
