data_PCOD9171284
_publ_section_title
;
Structure prediction by ZEFSAII (Michael W. Deem and Ramdas Pophale) SiO2 
 PCOD9171284
Probable space group: C 2/M
;
_chemical_formula_sum "Si O2"
_cell_formula_units_Z 48
_cell_length_a 24.938168
_cell_length_b 9.006533
_cell_length_c 15.624152
_cell_angle_alpha 90.000000
_cell_angle_beta 61.174951
_cell_angle_gamma 90.000000
_cell_volume 3074.470524
_symmetry_space_group_name_H-M "C 2/M"
_symmetry_group_IT_number 12
_symmetry_cell_setting 'monoclinic'
loop_
_space_group_symop_operation_xyz
x,y,z
-x,y,-z
-x,-y,-z
x,-y,z
1/2+x,1/2+y,z
1/2-x,1/2+y,-z
1/2-x,1/2-y,-z
1/2+x,1/2-y,z
loop_
_atom_site_type_symbol
_atom_site_label
_atom_site_fract_x
_atom_site_fract_y
_atom_site_fract_z
Si Si1 0.150367 0.177634 0.727523
Si Si2 0.928500 0.321579 0.063743
Si Si3 0.662612 0.822213 0.016796
Si Si4 0.298242 0.323206 0.844517
Si Si5 0.290895 0.177044 0.671922
Si Si6 0.316438 0.821838 0.465552
O O1 0.102878 0.240124 0.832571
O O2 0.219400 0.214998 0.707617
O O3 0.142354 0.252347 0.640577
O O4 0.147049 0.000000 0.722665
O O5 0.921720 0.500000 0.080409
O O6 0.891419 0.280788 0.006281
O O7 0.000000 0.287453 0.000000
O O8 0.727529 0.783307 0.922105
O O9 0.661831 0.000000 0.029412
O O10 0.662051 0.744548 0.109153
O O11 0.303080 0.500000 0.840640
O O12 0.312029 0.259013 0.740687
O O13 0.328477 0.211437 0.556223
O O14 0.293305 0.000000 0.683639
O O15 0.250000 0.750000 0.500000
O O16 0.313088 0.000000 0.459033
#
# Coordination Sequence:
#
# PCOD9171284 Si02
#       6
#     8   8   8   8   8   8
#     4  10  19  30  45  66  94 126 157 193 235 276
#     4  10  20  34  51  69  91 124 163 198 233 274
#     4   9  18  31  44  64  92 122 154 191 232 274
#     4  10  18  27  45  68  91 123 154 187 231 277
#     4   9  17  28  43  66  94 124 152 185 229 278
#     4   9  17  28  43  65  93 124 156 189 231 280
#
# _framework density 15.612444
#
# number of rings (size 3 to 8) (size 9 to 14) (size 15 to 20)
#    0.000    2.500    1.667    2.500    0.000    5.000 
#    0.000    0.000    0.000    0.000    0.000    1.167 
#    0.000    9.333    0.000    0.000    0.000    0.000 
#
# Total GULP energy -133733.377757 kJ/mol
# GULP energy per Si atom -5572.224073 kJ/mol
# Density = 1.557691 g / cm^3
# Si number density = 15.612444 Si / 1000 Ang^3
#
#
#
# Elastic Constant Matrix: (Units=GPa)
#
#
# Indices 1 2 3 4 5 6 
#
# 1 68.8216 31.7838 60.1675 0.0000 12.5829 0.0000
# 2 31.7838 40.9618 63.0481 0.0000 11.9616 0.0000
# 3 60.1675 63.0481 154.8269 0.0000 31.8183 0.0000
# 4 0.0000 0.0000 0.0000 31.0709 0.0000 4.5487
# 5 12.5829 11.9616 31.8183 0.0000 22.8084 0.0000
# 6 0.0000 0.0000 0.0000 4.5487 0.0000 15.0554
#
#
#
# Elastic Compliance Matrix: (Units=1/GPa)
#
#
# Indices 1 2 3 4 5 6 
#
# 1 0.023843 -0.011425 -0.004404 0.000000 -0.001018 0.000000
# 2 -0.011425 0.071148 -0.025459 0.000000 0.004506 0.000000
# 3 -0.004404 -0.025459 0.021441 0.000000 -0.014130 0.000000
# 4 0.000000 0.000000 0.000000 0.033674 0.000000 -0.010174
# 5 -0.001018 0.004506 -0.014130 0.000000 0.061754 0.000000
# 6 0.000000 0.000000 0.000000 -0.010174 0.000000 0.069495
#
#
# Mechanical properties :
#
#
# Convention : Reuss Voigt Hill
#
# Bulk Modulus (GPa) = 29.53561 63.84544 46.69053
# Shear Modulus (GPa) = 13.32563 21.09435 17.20999
#
# Velocity S-wave (km/s) = 2.92469 3.67975 3.32373
# Velocity P-wave (km/s) = 5.51036 7.68354 6.68584
#
# Compressibility (1/GPa) = 0.03385744
#
# Stress axis : x y z
#
# Youngs Moduli (GPa) = 41.94106 14.05516 46.63854
#
# Poissons Ratio (x) = 0.16057 0.20540
# Poissons Ratio (y) = 0.47916 1.18737
# Poissons Ratio (z) = 0.18471 0.35783
#
# Static dielectric constant tensor:
#      x y z
#    x 1.497740 0.000000 0.012810 
#    y 0.000000 1.514950 0.000000 
#    z 0.012810 0.000000 1.537270 
# 
# From -- ./inp_files/236587.got.cif
#   From: 2010.05.17/outbox.cif.g08.bks.cpg/sg12_119_cif.got.tgz:236587.got - 2010.06.03 13:09:07.
