data_PCOD9171126
_publ_section_title
;
Structure prediction by ZEFSAII (Michael W. Deem and Ramdas Pophale) SiO2 
 PCOD9171126
Probable space group: C 2/M
;
_chemical_formula_sum "Si O2"
_cell_formula_units_Z 64
_cell_length_a 29.948644
_cell_length_b 7.397899
_cell_length_c 17.746860
_cell_angle_alpha 90.000000
_cell_angle_beta 127.070782
_cell_angle_gamma 90.000000
_cell_volume 3137.262697
_symmetry_space_group_name_H-M "C 2/M"
_symmetry_group_IT_number 12
_symmetry_cell_setting 'monoclinic'
loop_
_space_group_symop_operation_xyz
x,y,z
-x,y,-z
-x,-y,-z
x,-y,z
1/2+x,1/2+y,z
1/2-x,1/2+y,-z
1/2-x,1/2-y,-z
1/2+x,1/2-y,z
loop_
_atom_site_type_symbol
_atom_site_label
_atom_site_fract_x
_atom_site_fract_y
_atom_site_fract_z
Si Si1 0.589402 0.780299 0.087391
Si Si2 0.303284 0.785181 0.606463
Si Si3 0.997541 0.281256 0.291343
Si Si4 0.047798 0.710511 0.604523
Si Si5 0.166082 0.794419 0.654809
Si Si6 0.877202 0.281924 0.550172
Si Si7 0.505145 0.220710 0.127587
Si Si8 0.787684 0.278205 0.760838
O O1 0.560950 0.724703 0.138027
O O2 0.653521 0.723618 0.142460
O O3 0.589668 0.000000 0.088579
O O4 0.547182 0.726027 0.978211
O O5 0.250000 0.750000 0.500000
O O6 0.354405 0.718540 0.607597
O O7 0.293532 0.716064 0.680053
O O8 0.311399 0.000000 0.623368
O O9 0.993260 0.500000 0.279380
O O10 0.954806 0.217676 0.312405
O O11 0.997487 0.214980 0.205251
O O12 0.057887 0.237919 0.388483
O O13 0.032377 0.500000 0.596713
O O14 0.109463 0.715732 0.631947
O O15 0.000000 0.788786 0.500000
O O16 0.157242 0.790738 0.555386
O O17 0.227883 0.715679 0.732043
O O18 0.166803 0.000000 0.682028
O O19 0.871909 0.500000 0.541666
O O20 0.506783 0.000000 0.130817
O O21 0.785147 0.500000 0.758786
#
# Coordination Sequence:
#
# PCOD9171126 Si02
#       8
#     8   8   8   8   8   8   8   8
#     4   8  13  23  40  64  94 119 144 180 226 276
#     4  10  18  27  41  61  89 122 152 180 214 262
#     4   9  16  27  44  64  86 113 149 190 232 272
#     4  10  19  33  49  64  87 120 156 193 232 270
#     4  11  21  31  44  63  91 123 156 189 221 268
#     4  10  18  29  45  64  89 122 153 184 225 272
#     4   8  13  22  41  68  90 113 147 187 226 269
#     4   9  17  28  40  59  91 128 152 178 226 274
#
# _framework density 20.399948999999999
#
# number of rings (size 3 to 8) (size 9 to 14) (size 15 to 20)
#    0.000    2.625    2.500    1.875    0.000    3.250 
#    0.000    0.000    0.000    0.750    0.000    0.000 
#    0.000    5.000    0.000   20.750    0.000   18.875 
#
# Total GULP energy -178440.546706 kJ/mol
# GULP energy per Si atom -5576.267085 kJ/mol
# Density = 2.035352 g / cm^3
# Si number density = 20.399949 Si / 1000 Ang^3
#
#
#
# Elastic Constant Matrix: (Units=GPa)
#
#
# Indices 1 2 3 4 5 6 
#
# 1 139.6420 2.4511 55.2513 0.0000 7.8994 0.0000
# 2 2.4511 63.0863 -0.6154 0.0000 -3.3040 0.0001
# 3 55.2513 -0.6154 86.5206 0.0000 9.1866 0.0000
# 4 0.0000 0.0000 0.0000 0.8121 0.0000 -2.9145
# 5 7.8994 -3.3040 9.1866 0.0000 30.7447 0.0000
# 6 0.0000 0.0001 0.0000 -2.9145 0.0000 -22.7788
#
#
#
# Elastic Compliance Matrix: (Units=1/GPa)
#
#
# Indices 1 2 3 4 5 6 
#
# 1 0.009609 -0.000470 -0.006064 0.000000 -0.000707 0.000000
# 2 -0.000470 0.015964 0.000226 0.000000 0.001769 0.000000
# 3 -0.006064 0.000226 0.015764 0.000000 -0.003128 0.000000
# 4 0.000000 0.000000 0.000000 0.843889 0.000000 -0.107976
# 5 -0.000707 0.001769 -0.003128 0.000000 0.033832 0.000000
# 6 0.000000 0.000000 0.000000 -0.107976 0.000000 -0.030085
#
#
# Mechanical properties :
#
#
# Convention : Reuss Voigt Hill
#
# Bulk Modulus (GPa) = 34.81782 44.82475 39.82129
# Shear Modulus (GPa) = 5.48748 17.23306 11.36027
#
# Velocity S-wave (km/s) = 1.64189 2.90963 2.36239
# Velocity P-wave (km/s) = 4.54962 5.77136 5.19652
#
# Compressibility (1/GPa) = 0.02872093
#
# Stress axis : x y z
#
# Youngs Moduli (GPa) = 104.07038 62.63941 63.43422
#
# Poissons Ratio (x) = 0.02941 0.38469
# Poissons Ratio (y) = 0.04886 -0.01431
# Poissons Ratio (z) = 0.63112 -0.01413
#
# Static dielectric constant tensor:
#      x y z
#    x 1.755840 0.000000 0.007080 
#    y 0.000000 2.000360 0.000000 
#    z 0.007080 0.000000 1.704260 
# 
# From -- ./inp_files/292759.got.cif
#   From: 2010.05.17/outbox.cif.g08.bks.cpg/sg12_147_cif.got.tgz:292759.got - 2010.06.03 13:09:07.
