data_PCOD9171592
_publ_section_title
;
Structure prediction by ZEFSAII (Michael W. Deem and Ramdas Pophale) SiO2 
 PCOD9171592
Probable space group: C 2/M
;
_chemical_formula_sum "Si O2"
_cell_formula_units_Z 56
_cell_length_a 20.525789
_cell_length_b 18.365125
_cell_length_c 8.688942
_cell_angle_alpha 90.000000
_cell_angle_beta 48.373743
_cell_angle_gamma 90.000000
_cell_volume 2448.320196
_symmetry_space_group_name_H-M "C 2/M"
_symmetry_group_IT_number 12
_symmetry_cell_setting 'monoclinic'
loop_
_space_group_symop_operation_xyz
x,y,z
-x,y,-z
-x,-y,-z
x,-y,z
1/2+x,1/2+y,z
1/2-x,1/2+y,-z
1/2-x,1/2-y,-z
1/2+x,1/2-y,z
loop_
_atom_site_type_symbol
_atom_site_label
_atom_site_fract_x
_atom_site_fract_y
_atom_site_fract_z
Si Si1 0.923477 0.084083 0.519934
Si Si2 0.753946 0.082018 0.996513
Si Si3 0.907614 0.417186 0.980628
Si Si4 0.098537 0.919360 0.785579
Si Si5 0.505380 0.781071 0.310817
Si Si6 0.831679 0.805986 0.086260
Si Si7 0.900103 0.295685 0.213006
O O1 0.842105 0.082908 0.759406
O O2 0.903566 0.113704 0.382273
O O3 0.000000 0.118692 0.500000
O O4 0.951209 0.000000 0.442366
O O5 0.759727 0.156254 0.089395
O O6 0.748828 0.000000 0.079671
O O7 0.678415 0.084653 0.988967
O O8 0.937371 0.500000 0.945554
O O9 0.968658 0.361127 0.793780
O O10 0.893611 0.379385 0.169059
O O11 0.137322 0.000000 0.713972
O O12 0.144433 0.873615 0.843423
O O13 0.000000 0.924042 0.000000
O O14 0.500000 0.782467 0.500000
O O15 0.584720 0.726109 0.138965
O O16 0.411436 0.773910 0.371987
O O17 0.826092 0.743307 0.226535
O O18 0.000000 0.271538 0.000000
#
# Coordination Sequence:
#
# PCOD9171592 Si02
#       7
#     8   8   8   8   8   8   8
#     4   9  18  30  45  71 105 142 188 232 266 311
#     4  10  20  34  55  84 116 152 190 224 269 330
#     4   9  19  38  62  85 112 145 180 225 283 342
#     4  10  18  28  45  69 100 140 183 225 268 311
#     4  10  22  38  58  86 112 140 187 238 284 334
#     4  10  19  32  51  73 109 147 181 221 268 319
#     4   8  18  34  54  79 105 138 183 226 276 332
#
# _framework density 22.872824999999999
#
# number of rings (size 3 to 8) (size 9 to 14) (size 15 to 20)
#    0.000    2.857    0.000    2.571    0.000   10.286 
#    0.000    1.429    0.000    9.000    0.000    0.000 
#    0.000    0.000    0.000    0.000    0.000    0.000 
#
# Total GULP energy -155896.946583 kJ/mol
# GULP energy per Si atom -5567.748092 kJ/mol
# Density = 2.282077 g / cm^3
# Si number density = 22.872825 Si / 1000 Ang^3
#
#
#
# Elastic Constant Matrix: (Units=GPa)
#
#
# Indices 1 2 3 4 5 6 
#
# 1 89.9423 36.3586 22.2303 0.0000 28.6237 0.0000
# 2 36.3586 158.9031 16.1762 0.0000 17.0506 0.0000
# 3 22.2303 16.1762 35.4914 0.0000 31.3239 0.0000
# 4 0.0000 0.0000 0.0000 -4.1133 0.0000 -11.0075
# 5 28.6237 17.0506 31.3239 0.0000 36.6599 0.0000
# 6 0.0000 0.0000 0.0000 -11.0075 0.0000 23.3416
#
#
#
# Elastic Compliance Matrix: (Units=1/GPa)
#
#
# Indices 1 2 3 4 5 6 
#
# 1 0.015779 -0.002456 0.004480 0.000000 -0.015006 0.000000
# 2 -0.002456 0.007019 -0.001920 0.000000 0.000294 0.000000
# 3 0.004480 -0.001920 0.116088 0.000000 -0.101796 0.000000
# 4 0.000000 0.000000 0.000000 -0.107478 0.000000 -0.050685
# 5 -0.015006 0.000294 -0.101796 0.000000 0.125837 0.000000
# 6 0.000000 0.000000 0.000000 -0.050685 0.000000 0.018940
#
#
# Mechanical properties :
#
#
# Convention : Reuss Voigt Hill
#
# Bulk Modulus (GPa) = 7.18942 48.20744 27.69843
# Shear Modulus (GPa) = 22.48782 25.14909 23.81846
#
# Velocity S-wave (km/s) = 3.13895 3.31950 3.23049
# Velocity P-wave (km/s) = 4.03576 5.98449 5.10399
#
# Compressibility (1/GPa) = 0.13909329
#
# Stress axis : x y z
#
# Youngs Moduli (GPa) = 63.37344 142.46825 8.61416
#
# Poissons Ratio (x) = 0.34996 -0.03859
# Poissons Ratio (y) = 0.15567 0.01654
# Poissons Ratio (z) = -0.28389 0.27351
#
# Static dielectric constant tensor:
#      x y z
#    x 2.076500 0.000000 0.068530 
#    y 0.000000 1.989440 0.000000 
#    z 0.068530 0.000000 1.758050 
# 
# From -- ./inp_files/87808.got.cif
#   From: 2010.05.17/outbox.cif.g08.bks.cpg/sg12_44_cif.got.tgz:87808.got - 2010.06.03 13:09:07.
