data_PCOD9171045
_publ_section_title
;
Structure prediction by ZEFSAII (Michael W. Deem and Ramdas Pophale) SiO2 
 PCOD9171045
Probable space group: C 2/M
;
_chemical_formula_sum "Si O2"
_cell_formula_units_Z 64
_cell_length_a 12.357363
_cell_length_b 22.269852
_cell_length_c 18.736508
_cell_angle_alpha 90.000000
_cell_angle_beta 131.642540
_cell_angle_gamma 90.000000
_cell_volume 3853.271793
_symmetry_space_group_name_H-M "C 2/M"
_symmetry_group_IT_number 12
_symmetry_cell_setting 'monoclinic'
loop_
_space_group_symop_operation_xyz
x,y,z
-x,y,-z
-x,-y,-z
x,-y,z
1/2+x,1/2+y,z
1/2-x,1/2+y,-z
1/2-x,1/2-y,-z
1/2+x,1/2-y,z
loop_
_atom_site_type_symbol
_atom_site_label
_atom_site_fract_x
_atom_site_fract_y
_atom_site_fract_z
Si Si1 0.406376 0.359793 0.602847
Si Si2 0.049354 0.685471 0.797596
Si Si3 0.870913 0.807337 0.737612
Si Si4 0.911044 0.763513 0.397530
Si Si5 0.778361 0.629254 0.614578
Si Si6 0.077059 0.657631 0.108275
Si Si7 0.872094 0.200630 0.889211
Si Si8 0.302014 0.568701 0.280620
O O1 0.362372 0.349021 0.664989
O O2 0.480549 0.296720 0.608755
O O3 0.280142 0.376266 0.491301
O O4 0.533101 0.408731 0.652449
O O5 0.215005 0.683466 0.848781
O O6 0.982500 0.752887 0.770005
O O7 0.943609 0.649362 0.697588
O O8 0.026998 0.660197 0.868031
O O9 0.711741 0.779901 0.684144
O O10 0.912946 0.831853 0.833031
O O11 0.820177 0.817103 0.395204
O O12 0.000000 0.733087 0.500000
O O13 0.746295 0.576904 0.657586
O O14 0.130127 0.726552 0.122891
O O15 0.205754 0.613641 0.189846
O O16 0.000000 0.640647 0.000000
O O17 0.000000 0.188754 0.000000
O O18 0.285153 0.500000 0.251577
#
# Coordination Sequence:
#
# PCOD9171045 Si02
#       8
#     8   8   8   8   8   8   8   8
#     4  10  18  29  44  67  97 124 156 195 236 278
#     4   9  17  31  45  63  98 131 157 188 226 279
#     4  10  18  26  42  65  91 125 159 189 224 275
#     4   8  15  26  40  61  91 123 149 178 225 279
#     4   8  17  30  44  65  92 123 153 187 233 286
#     4   9  19  32  48  71  98 128 162 200 236 276
#     4  10  20  31  46  68  95 131 163 188 231 285
#     4  10  19  32  50  70  95 126 159 199 244 286
#
# _framework density 16.609261
#
# number of rings (size 3 to 8) (size 9 to 14) (size 15 to 20)
#    0.000    2.750    0.000    4.875    0.000   12.250 
#    0.000    0.000    0.000    0.000    0.000    3.500 
#    0.000   15.000    0.000    0.000    0.000    0.000 
#
# Total GULP energy -178197.287638 kJ/mol
# GULP energy per Si atom -5568.665239 kJ/mol
# Density = 1.657146 g / cm^3
# Si number density = 16.609261 Si / 1000 Ang^3
#
#
#
# Elastic Constant Matrix: (Units=GPa)
#
#
# Indices 1 2 3 4 5 6 
#
# 1 70.1428 13.0099 62.9017 0.0000 3.3912 0.0000
# 2 13.0099 21.7102 28.7981 0.0000 -5.1465 0.0000
# 3 62.9017 28.7981 157.3035 0.0000 -11.9659 0.0000
# 4 0.0000 0.0000 0.0000 10.4897 0.0000 -2.3853
# 5 3.3912 -5.1465 -11.9659 0.0000 27.3458 0.0000
# 6 0.0000 0.0000 0.0000 -2.3853 0.0000 5.6783
#
#
#
# Elastic Compliance Matrix: (Units=1/GPa)
#
#
# Indices 1 2 3 4 5 6 
#
# 1 0.023752 -0.003552 -0.009437 0.000000 -0.007743 0.000000
# 2 -0.003552 0.062614 -0.009427 0.000000 0.008100 0.000000
# 3 -0.009437 -0.009427 0.012217 0.000000 0.004742 0.000000
# 4 0.000000 0.000000 0.000000 0.105399 0.000000 0.044275
# 5 -0.007743 0.008100 0.004742 0.000000 0.041128 0.000000
# 6 0.000000 0.000000 0.000000 0.044275 0.000000 0.194706
#
#
# Mechanical properties :
#
#
# Convention : Reuss Voigt Hill
#
# Bulk Modulus (GPa) = 18.60352 50.95289 34.77821
# Shear Modulus (GPa) = 9.94896 18.33256 14.14076
#
# Velocity S-wave (km/s) = 2.45010 3.32589 2.92100
# Velocity P-wave (km/s) = 4.38509 6.74483 5.68866
#
# Compressibility (1/GPa) = 0.05375326
#
# Stress axis : x y z
#
# Youngs Moduli (GPa) = 42.10121 15.97093 81.85224
#
# Poissons Ratio (x) = 0.05672 0.77242
# Poissons Ratio (y) = 0.14953 0.77159
# Poissons Ratio (z) = 0.39730 0.15055
#
# Static dielectric constant tensor:
#      x y z
#    x 1.570420 0.000000 -0.020330 
#    y 0.000000 1.538010 0.000000 
#    z -0.020330 0.000000 1.622480 
# 
# From -- ./inp_files/265543.got.cif
#   From: 2010.05.17/outbox.cif.g08.bks.cpg/sg12_133_cif.got.tgz:265543.got - 2010.06.03 13:09:07.
