data_PCOD9171916
_publ_section_title
;
Structure prediction by ZEFSAII (Michael W. Deem and Ramdas Pophale) SiO2 
 PCOD9171916
Probable space group: C 2/M
;
_chemical_formula_sum "Si O2"
_cell_formula_units_Z 64
_cell_length_a 25.117168
_cell_length_b 9.089909
_cell_length_c 19.483449
_cell_angle_alpha 90.000000
_cell_angle_beta 102.732791
_cell_angle_gamma 90.000000
_cell_volume 4338.929655
_symmetry_space_group_name_H-M "C 2/M"
_symmetry_group_IT_number 12
_symmetry_cell_setting 'monoclinic'
loop_
_space_group_symop_operation_xyz
x,y,z
-x,y,-z
-x,-y,-z
x,-y,z
1/2+x,1/2+y,z
1/2-x,1/2+y,-z
1/2-x,1/2-y,-z
1/2+x,1/2-y,z
loop_
_atom_site_type_symbol
_atom_site_label
_atom_site_fract_x
_atom_site_fract_y
_atom_site_fract_z
Si Si1 0.348876 0.675830 0.736937
Si Si2 0.454631 0.821784 0.697524
Si Si3 0.329836 0.175261 0.486654
Si Si4 0.768492 0.325957 0.613923
Si Si5 0.439254 0.331145 0.016932
Si Si6 0.015119 0.668858 0.845891
Si Si7 0.106605 0.330536 0.121544
Si Si8 0.454100 0.178865 0.539608
O O1 0.350035 0.500000 0.735860
O O2 0.400408 0.741963 0.709335
O O3 0.295750 0.739822 0.684335
O O4 0.356662 0.736075 0.816337
O O5 0.503483 0.785811 0.764242
O O6 0.465234 0.781566 0.621900
O O7 0.445871 0.000000 0.699438
O O8 0.290015 0.262568 0.424843
O O9 0.306897 0.196359 0.557489
O O10 0.392667 0.223628 0.502454
O O11 0.326532 0.000000 0.471615
O O12 0.766528 0.500000 0.626984
O O13 0.421891 0.500000 0.013166
O O14 0.400980 0.236937 0.955979
O O15 0.500000 0.326336 0.000000
O O16 0.447024 0.266664 0.095120
O O17 0.033939 0.500000 0.853184
O O18 0.954392 0.671845 0.862437
O O19 0.124163 0.500000 0.124698
O O20 0.500000 0.231847 0.500000
O O21 0.454210 0.000000 0.537680
#
# Coordination Sequence:
#
# PCOD9171916 Si02
#       8
#     8   8   8   8   8   8   8   8
#     4  11  19  26  39  59  81 106 137 172 210 245
#     4   9  16  28  41  57  79 105 139 174 208 251
#     4   9  17  29  44  63  83 104 137 175 211 253
#     4  10  18  29  44  60  82 109 137 173 213 251
#     4   9  15  22  32  48  71  97 131 168 200 236
#     4   8  14  22  34  48  68  99 133 167 201 237
#     4   9  16  25  36  50  73 103 134 164 200 243
#     4   9  16  28  47  66  84 108 139 177 217 254
#
# _framework density 14.750182000000001
#
# number of rings (size 3 to 8) (size 9 to 14) (size 15 to 20)
#    0.000    2.750    1.250    3.000    0.000    5.000 
#    0.000    0.000    0.000    1.500    0.000    0.000 
#    0.000    0.000    0.000    1.125    0.000   11.375 
#
# Total GULP energy -178200.891391 kJ/mol
# GULP energy per Si atom -5568.777856 kJ/mol
# Density = 1.471661 g / cm^3
# Si number density = 14.750182 Si / 1000 Ang^3
#
#
#
# Elastic Constant Matrix: (Units=GPa)
#
#
# Indices 1 2 3 4 5 6 
#
# 1 48.5832 17.9045 40.0482 0.0000 3.6706 0.0000
# 2 17.9045 73.9864 65.8051 0.0000 8.5818 0.0000
# 3 40.0482 65.8051 144.7111 0.0000 13.2654 0.0000
# 4 0.0000 0.0000 0.0000 24.1715 0.0000 6.3705
# 5 3.6706 8.5818 13.2654 0.0000 8.9350 0.0000
# 6 0.0000 0.0000 0.0000 6.3705 0.0000 8.8144
#
#
#
# Elastic Compliance Matrix: (Units=1/GPa)
#
#
# Indices 1 2 3 4 5 6 
#
# 1 0.026668 0.000189 -0.007461 0.000000 -0.000061 0.000000
# 2 0.000189 0.023139 -0.009874 0.000000 -0.007643 0.000000
# 3 -0.007461 -0.009874 0.014255 0.000000 -0.008615 0.000000
# 4 0.000000 0.000000 0.000000 0.051106 0.000000 -0.036936
# 5 -0.000061 -0.007643 -0.008615 0.000000 0.132075 0.000000
# 6 0.000000 0.000000 0.000000 -0.036936 0.000000 0.140146
#
#
# Mechanical properties :
#
#
# Convention : Reuss Voigt Hill
#
# Bulk Modulus (GPa) = 33.58985 57.19960 45.39472
# Shear Modulus (GPa) = 11.58473 17.95235 14.76854
#
# Velocity S-wave (km/s) = 2.80553 3.49247 3.16768
# Velocity P-wave (km/s) = 5.77205 7.42470 6.64992
#
# Compressibility (1/GPa) = 0.02977090
#
# Stress axis : x y z
#
# Youngs Moduli (GPa) = 37.49784 43.21788 70.15241
#
# Poissons Ratio (x) = -0.00818 0.52339
# Poissons Ratio (y) = -0.00709 0.69266
# Poissons Ratio (z) = 0.27976 0.42672
#
# Static dielectric constant tensor:
#      x y z
#    x 1.453010 0.000000 0.002620 
#    y 0.000000 1.490090 0.000000 
#    z 0.002620 0.000000 1.509010 
# 
# From -- ./inp_files/323769.got.cif
#   From: 2010.05.17/outbox.cif.g08.bks.cpg/sg12_162_cif.got.tgz:323769.got - 2010.06.03 13:09:07.
