data_PCOD9171253
_publ_section_title
;
Structure prediction by ZEFSAII (Michael W. Deem and Ramdas Pophale) SiO2 
 PCOD9171253
Probable space group: C 2/M
;
_chemical_formula_sum "Si O2"
_cell_formula_units_Z 64
_cell_length_a 16.103650
_cell_length_b 18.434262
_cell_length_c 24.944229
_cell_angle_alpha 90.000000
_cell_angle_beta 154.374645
_cell_angle_gamma 90.000000
_cell_volume 3202.513763
_symmetry_space_group_name_H-M "C 2/M"
_symmetry_group_IT_number 12
_symmetry_cell_setting 'monoclinic'
loop_
_space_group_symop_operation_xyz
x,y,z
-x,y,-z
-x,-y,-z
x,-y,z
1/2+x,1/2+y,z
1/2-x,1/2+y,-z
1/2-x,1/2-y,-z
1/2+x,1/2-y,z
loop_
_atom_site_type_symbol
_atom_site_label
_atom_site_fract_x
_atom_site_fract_y
_atom_site_fract_z
Si Si1 0.167080 0.413956 0.484193
Si Si2 0.168681 0.306626 0.998864
Si Si3 0.125327 0.316986 0.620466
Si Si4 0.806063 0.223542 0.822087
Si Si5 0.955894 0.319384 0.688630
Si Si6 0.068016 0.836660 0.286699
Si Si7 0.005032 0.076197 0.067397
Si Si8 0.432509 0.083000 0.147729
O O1 0.146260 0.500000 0.463188
O O2 0.139704 0.366871 0.413972
O O3 0.365605 0.394910 0.630629
O O4 0.002629 0.380511 0.427413
O O5 0.075166 0.373038 0.911937
O O6 0.997870 0.270652 0.934224
O O7 0.250000 0.250000 0.000000
O O8 0.347567 0.331381 0.139412
O O9 0.175128 0.257645 0.694754
O O10 0.309940 0.346589 0.696236
O O11 0.000000 0.283300 0.500000
O O12 0.669608 0.205585 0.792521
O O13 0.879320 0.144538 0.847253
O O14 0.869377 0.241353 0.652176
O O15 0.968581 0.368539 0.748891
O O16 0.096053 0.000000 0.136598
O O17 0.789945 0.079244 0.963246
O O18 0.000000 0.078744 0.000000
O O19 0.503087 0.000000 0.185545
#
# Coordination Sequence:
#
# PCOD9171253 Si02
#       8
#     8   8   8   8   8   8   8   8
#     4  10  23  39  59  88 122 156 190 240 303 365
#     4  12  21  36  55  80 119 161 200 243 286 350
#     4   9  19  34  53  77 111 150 184 227 280 349
#     4  11  20  33  53  81 114 153 194 236 287 344
#     4  11  21  36  59  87 117 150 195 245 298 347
#     4  11  21  37  58  81 117 158 200 239 284 353
#     4  10  18  27  43  73 111 139 169 222 286 344
#     4  11  21  33  53  81 112 148 189 239 297 346
#
# _framework density 19.984300999999999
#
# number of rings (size 3 to 8) (size 9 to 14) (size 15 to 20)
#    0.000    1.375    5.000    0.750    0.000    4.750 
#    0.000    1.250    0.000    0.750    0.000    1.750 
#    0.000   18.500    0.000    0.000    0.000    0.000 
#
# Total GULP energy -178439.347074 kJ/mol
# GULP energy per Si atom -5576.229596 kJ/mol
# Density = 1.993882 g / cm^3
# Si number density = 19.984301 Si / 1000 Ang^3
#
#
#
# Elastic Constant Matrix: (Units=GPa)
#
#
# Indices 1 2 3 4 5 6 
#
# 1 47.3444 37.3156 25.4893 -0.0003 -13.3905 0.0004
# 2 37.3156 86.6462 18.5792 -0.0056 -12.6519 -0.0003
# 3 25.4893 18.5792 93.7440 -0.0104 -14.6946 0.0005
# 4 -0.0003 -0.0056 -0.0104 28.7413 0.0042 -3.5792
# 5 -13.3905 -12.6519 -14.6946 0.0042 20.0478 0.0012
# 6 0.0004 -0.0003 0.0005 -3.5792 0.0012 24.2893
#
#
#
# Elastic Compliance Matrix: (Units=1/GPa)
#
#
# Indices 1 2 3 4 5 6 
#
# 1 0.038502 -0.013446 -0.005765 -0.000006 0.013005 -0.000002
# 2 -0.013446 0.017580 0.000569 0.000003 0.002530 0.000001
# 3 -0.005765 0.000569 0.013077 0.000004 0.006093 0.000000
# 4 -0.000006 0.000003 0.000004 0.035444 -0.000007 0.005223
# 5 0.013005 0.002530 0.006093 -0.000007 0.064630 -0.000005
# 6 -0.000002 0.000001 0.000000 0.005223 -0.000005 0.041940
#
#
# Mechanical properties :
#
#
# Convention : Reuss Voigt Hill
#
# Bulk Modulus (GPa) = 31.37470 43.38918 37.38194
# Shear Modulus (GPa) = 19.29880 24.37236 21.83558
#
# Velocity S-wave (km/s) = 3.11094 3.49603 3.30909
# Velocity P-wave (km/s) = 5.35142 6.16888 5.77463
#
# Compressibility (1/GPa) = 0.03187282
#
# Stress axis : x y z
#
# Youngs Moduli (GPa) = 25.97264 56.88423 76.46749
#
# Poissons Ratio (x) = 0.76489 0.44086
# Poissons Ratio (y) = 0.34924 -0.04348
# Poissons Ratio (z) = 0.14974 -0.03234
#
# Static dielectric constant tensor:
#      x y z
#    x 1.757090 0.000000 -0.066760 
#    y 0.000000 1.708620 0.000000 
#    z -0.066760 0.000000 1.853620 
# 
# From -- ./inp_files/340862.got.cif
#   From: 2010.05.17/outbox.cif.g08.bks.cpg/sg12_171_cif.got.tgz:340862.got - 2010.06.03 13:09:07.
