data_PCOD9171238
_publ_section_title
;
Structure prediction by ZEFSAII (Michael W. Deem and Ramdas Pophale) SiO2 
 PCOD9171238
Probable space group: C 2/M
;
_chemical_formula_sum "Si O2"
_cell_formula_units_Z 50
_cell_length_a 30.198803
_cell_length_b 9.421215
_cell_length_c 12.482636
_cell_angle_alpha 90.000000
_cell_angle_beta 38.563066
_cell_angle_gamma 90.000000
_cell_volume 2213.873530
_symmetry_space_group_name_H-M "C 2/M"
_symmetry_group_IT_number 12
_symmetry_cell_setting 'monoclinic'
loop_
_space_group_symop_operation_xyz
x,y,z
-x,y,-z
-x,-y,-z
x,-y,z
1/2+x,1/2+y,z
1/2-x,1/2+y,-z
1/2-x,1/2-y,-z
1/2+x,1/2-y,z
loop_
_atom_site_type_symbol
_atom_site_label
_atom_site_fract_x
_atom_site_fract_y
_atom_site_fract_z
Si Si1 0.864235 0.843442 0.177573
Si Si2 0.940462 0.336921 0.707944
Si Si3 0.836157 0.837426 0.764220
Si Si4 0.147289 0.334973 0.600567
Si Si5 0.044994 0.837063 0.649574
Si Si6 0.000000 0.000000 0.000000
Si Si7 0.763829 0.164922 0.192860
O O1 0.836918 0.729992 0.314016
O O2 0.839700 0.804813 0.104215
O O3 0.829555 0.000000 0.264344
O O4 0.945990 0.877842 0.048942
O O5 0.924257 0.500000 0.767542
O O6 0.873468 0.253495 0.786442
O O7 0.000000 0.342410 0.500000
O O8 0.978911 0.247595 0.727453
O O9 0.896444 0.841734 0.556667
O O10 0.768509 0.761760 0.838890
O O11 0.822190 0.000000 0.821586
O O12 0.129655 0.500000 0.640416
O O13 0.082649 0.245561 0.673452
O O14 0.210166 0.317607 0.395387
O O15 0.030017 0.000000 0.709186
O O16 0.760851 0.000000 0.165499
#
# Coordination Sequence:
#
# PCOD9171238 Si02
#       7
#     8   8   8   8   8   2   8
#     4   9  18  33  49  64  87 120 154 193 227 279
#     4   9  15  23  35  52  82 125 164 190 218 263
#     4   9  16  24  36  57  87 123 159 187 222 274
#     4  10  18  27  43  69  95 119 149 189 238 279
#     4   9  16  25  37  56  86 126 159 186 221 272
#     4   8  20  36  54  64  84 124 162 194 224 268
#     4   9  17  28  43  65  93 122 151 189 234 279
#
# _framework density 22.584849999999999
#
# number of rings (size 3 to 8) (size 9 to 14) (size 15 to 20)
#    0.480    2.400    0.000    2.400    0.000    7.040 
#    0.000    0.400    0.000    0.000    0.000    0.000 
#    0.000    1.280    0.320    0.000    0.000    0.000 
#
# Total GULP energy -139430.957094 kJ/mol
# GULP energy per Si atom -5577.238284 kJ/mol
# Density = 2.253345 g / cm^3
# Si number density = 22.584850 Si / 1000 Ang^3
#
#
#
# Elastic Constant Matrix: (Units=GPa)
#
#
# Indices 1 2 3 4 5 6 
#
# 1 203.6295 108.7532 36.0423 0.0000 -32.6470 0.0000
# 2 108.7532 164.2768 30.3590 0.0000 -18.0267 0.0000
# 3 36.0423 30.3590 82.5689 0.0000 -5.3256 0.0000
# 4 0.0000 0.0000 0.0000 -5.9189 0.0000 -6.1998
# 5 -32.6470 -18.0267 -5.3256 0.0000 27.0536 0.0000
# 6 0.0000 0.0000 0.0000 -6.1998 0.0000 47.1548
#
#
#
# Elastic Compliance Matrix: (Units=1/GPa)
#
#
# Indices 1 2 3 4 5 6 
#
# 1 0.008940 -0.004815 -0.001664 0.000000 0.007252 0.000000
# 2 -0.004815 0.009564 -0.001396 0.000000 0.000288 0.000000
# 3 -0.001664 -0.001396 0.013331 0.000000 -0.000315 0.000000
# 4 0.000000 0.000000 0.000000 -0.148500 0.000000 -0.019524
# 5 0.007252 0.000288 -0.000315 0.000000 0.045845 0.000000
# 6 0.000000 0.000000 0.000000 -0.019524 0.000000 0.018640
#
#
# Mechanical properties :
#
#
# Convention : Reuss Voigt Hill
#
# Bulk Modulus (GPa) = 62.17363 88.97600 75.57481
# Shear Modulus (GPa) = -160.93433 32.01261 -64.46086
#
# Velocity S-wave (km/s) = -8.45058 3.76897 -5.34823
# Velocity P-wave (km/s) = 8.22361 7.64343 2.14543
#
# Compressibility (1/GPa) = 0.01608399
#
# Stress axis : x y z
#
# Youngs Moduli (GPa) = 111.86242 104.55479 75.01498
#
# Poissons Ratio (x) = 0.50341 0.12484
# Poissons Ratio (y) = 0.53859 0.10475
# Poissons Ratio (z) = 0.18616 0.14600
#
# Static dielectric constant tensor:
#      x y z
#    x 1.830840 0.000000 -0.013010 
#    y 0.000000 1.779870 0.000000 
#    z -0.013010 0.000000 1.905360 
# 
# From -- ./inp_files/248102.got.cif
#   From: 2010.05.17/outbox.cif.g08.bks.cpg/sg12_125_cif.got.tgz:248102.got - 2010.06.03 13:09:07.
