data_PCOD9171021
_publ_section_title
;
Structure prediction by ZEFSAII (Michael W. Deem and Ramdas Pophale) SiO2 
 PCOD9171021
Probable space group: C 2/M
;
_chemical_formula_sum "Si O2"
_cell_formula_units_Z 48
_cell_length_a 11.197346
_cell_length_b 28.167637
_cell_length_c 7.779077
_cell_angle_alpha 90.000000
_cell_angle_beta 103.893167
_cell_angle_gamma 90.000000
_cell_volume 2381.764410
_symmetry_space_group_name_H-M "C 2/M"
_symmetry_group_IT_number 12
_symmetry_cell_setting 'monoclinic'
loop_
_space_group_symop_operation_xyz
x,y,z
-x,y,-z
-x,-y,-z
x,-y,z
1/2+x,1/2+y,z
1/2-x,1/2+y,-z
1/2-x,1/2-y,-z
1/2+x,1/2-y,z
loop_
_atom_site_type_symbol
_atom_site_label
_atom_site_fract_x
_atom_site_fract_y
_atom_site_fract_z
Si Si1 0.563063 0.210964 0.356430
Si Si2 0.940285 0.898663 0.705686
Si Si3 0.308463 0.309111 0.554892
Si Si4 0.427608 0.500000 0.709034
Si Si5 0.700231 0.500000 0.975361
Si Si6 0.189237 0.702916 0.895297
Si Si7 0.802708 0.104822 0.030881
O O1 0.500000 0.186651 0.500000
O O2 0.603703 0.263823 0.427270
O O3 0.698019 0.189058 0.379049
O O4 0.457457 0.210527 0.178145
O O5 0.884798 0.856429 0.579847
O O6 0.913883 0.949824 0.614148
O O7 0.868966 0.898270 0.865556
O O8 0.082550 0.890701 0.799973
O O9 0.246852 0.302159 0.722943
O O10 0.332284 0.500000 0.833926
O O11 0.565401 0.500000 0.837579
O O12 0.756470 0.552319 0.957477
O O13 0.221816 0.652647 0.996642
O O14 0.250000 0.750000 0.000000
#
# Coordination Sequence:
#
# PCOD9171021 Si02
#       7
#     8   8   8   4   4   8   8
#     4   9  18  30  41  55  77 107 138 162 191 235
#     4   8  12  20  35  54  75 100 127 157 195 231
#     4   9  17  29  42  55  79 110 133 158 196 238
#     4   7  10  16  30  53  74  93 125 159 188 228
#     4   7  10  18  30  47  75 104 125 150 191 232
#     4  10  18  26  40  62  84 103 129 166 200 233
#     4   8  13  20  33  54  78 102 126 158 195 229
#
# _framework density 20.153127000000001
#
# number of rings (size 3 to 8) (size 9 to 14) (size 15 to 20)
#    0.000    3.500    0.000    3.000    0.000    2.000 
#    0.000    0.000    0.000    1.000    0.000    7.583 
#    0.000   13.333    0.000    0.917    0.000    0.750 
#
# Total GULP energy -133617.529802 kJ/mol
# GULP energy per Si atom -5567.397075 kJ/mol
# Density = 2.010726 g / cm^3
# Si number density = 20.153127 Si / 1000 Ang^3
#
#
#
# Elastic Constant Matrix: (Units=GPa)
#
#
# Indices 1 2 3 4 5 6 
#
# 1 50.1591 25.6930 40.5086 0.0000 8.2538 0.0000
# 2 25.6930 170.9366 71.2808 0.0000 41.0216 0.0000
# 3 40.5086 71.2808 84.0084 0.0000 32.8779 0.0000
# 4 0.0000 0.0000 0.0000 24.4957 0.0000 12.0368
# 5 8.2538 41.0216 32.8779 0.0000 43.7063 0.0000
# 6 0.0000 0.0000 0.0000 12.0368 0.0000 5.8727
#
#
#
# Elastic Compliance Matrix: (Units=1/GPa)
#
#
# Indices 1 2 3 4 5 6 
#
# 1 0.035124 0.001823 -0.021568 0.000000 0.007880 0.000000
# 2 0.001823 0.009630 -0.007622 0.000000 -0.003649 0.000000
# 3 -0.021568 -0.007622 0.034548 0.000000 -0.014762 0.000000
# 4 0.000000 0.000000 0.000000 -5.707610 0.000000 11.698439
# 5 0.007880 -0.003649 -0.014762 0.000000 0.035921 0.000000
# 6 0.000000 0.000000 0.000000 11.698439 0.000000-23.807090
#
#
# Mechanical properties :
#
#
# Convention : Reuss Voigt Hill
#
# Bulk Modulus (GPa) = 40.70139 64.45210 52.57675
# Shear Modulus (GPa) = -0.17044 25.98973 12.90965
#
# Velocity S-wave (km/s) = -0.29113 3.59501 2.53371
# Velocity P-wave (km/s) = 4.48630 7.02017 5.89108
#
# Compressibility (1/GPa) = 0.02456918
#
# Stress axis : x y z
#
# Youngs Moduli (GPa) = 28.47057 103.83864 28.94517
#
# Poissons Ratio (x) = -0.18933 0.62428
# Poissons Ratio (y) = -0.05191 0.22063
# Poissons Ratio (z) = 0.61404 0.79149
#
# Static dielectric constant tensor:
#      x y z
#    x 1.792380 0.000000 -0.047700 
#    y 0.000000 1.756510 0.000000 
#    z -0.047700 0.000000 1.742250 
# 
# From -- ./inp_files/136391.got.cif
#   From: 2010.05.17/outbox.cif.g08.bks.cpg/sg12_69_cif.got.tgz:136391.got - 2010.06.03 13:09:07.
