data_PCOD9171128
_publ_section_title
;
Structure prediction by ZEFSAII (Michael W. Deem and Ramdas Pophale) SiO2 
 PCOD9171128
Probable space group: C 2/M
;
_chemical_formula_sum "Si O2"
_cell_formula_units_Z 48
_cell_length_a 29.567647
_cell_length_b 7.539154
_cell_length_c 11.728477
_cell_angle_alpha 90.000000
_cell_angle_beta 102.999497
_cell_angle_gamma 90.000000
_cell_volume 2547.450845
_symmetry_space_group_name_H-M "C 2/M"
_symmetry_group_IT_number 12
_symmetry_cell_setting 'monoclinic'
loop_
_space_group_symop_operation_xyz
x,y,z
-x,y,-z
-x,-y,-z
x,-y,z
1/2+x,1/2+y,z
1/2-x,1/2+y,-z
1/2-x,1/2-y,-z
1/2+x,1/2-y,z
loop_
_atom_site_type_symbol
_atom_site_label
_atom_site_fract_x
_atom_site_fract_y
_atom_site_fract_z
Si Si1 0.358928 0.707739 0.454218
Si Si2 0.158804 0.709026 0.294945
Si Si3 0.741505 0.287886 0.628846
Si Si4 0.974749 0.783523 0.158641
Si Si5 0.954828 0.782467 0.403435
Si Si6 0.070034 0.213343 0.099290
O O1 0.359159 0.500000 0.424252
O O2 0.356554 0.717074 0.590544
O O3 0.310266 0.783803 0.378100
O O4 0.406954 0.780984 0.433062
O O5 0.163899 0.500000 0.317247
O O6 0.210173 0.777718 0.289372
O O7 0.119067 0.736507 0.179852
O O8 0.738910 0.500000 0.645209
O O9 0.750000 0.250000 0.500000
O O10 0.959770 0.726031 0.275114
O O11 0.027005 0.727643 0.154490
O O12 0.974763 0.000000 0.159489
O O13 0.941666 0.726671 0.035655
O O14 0.000000 0.726642 0.500000
O O15 0.954807 0.000000 0.405531
O O16 0.068324 0.000000 0.097009
#
# Coordination Sequence:
#
# PCOD9171128 Si02
#       6
#     8   8   8   8   8   8
#     4   9  16  27  44  63  84 111 139 167 205 251
#     4  10  18  27  41  62  87 110 137 174 209 241
#     4   8  15  26  39  58  82 108 137 169 205 242
#     4   8  15  27  43  65  87 106 134 173 209 239
#     4   9  15  23  41  68  89 103 128 169 210 246
#     4   9  16  28  46  63  82 109 140 172 204 242
#
# _framework density 18.842365999999998
#
# number of rings (size 3 to 8) (size 9 to 14) (size 15 to 20)
#    0.000    3.167    0.000    2.500    0.000    3.333 
#    0.000    1.667    0.000    6.500    0.000    0.000 
#    0.000    0.000    0.000    0.000    0.000    0.833 
#
# Total GULP energy -133671.052925 kJ/mol
# GULP energy per Si atom -5569.627205 kJ/mol
# Density = 1.879948 g / cm^3
# Si number density = 18.842366 Si / 1000 Ang^3
#
#
#
# Elastic Constant Matrix: (Units=GPa)
#
#
# Indices 1 2 3 4 5 6 
#
# 1 204.7138 7.6566 103.1286 0.0000 28.7648 0.0000
# 2 7.6566 43.8644 -2.2003 0.0000 -1.7864 0.0000
# 3 103.1286 -2.2003 106.6220 0.0000 20.0313 0.0000
# 4 0.0000 0.0000 0.0000 69.1459 0.0000 41.6752
# 5 28.7648 -1.7864 20.0313 0.0000 36.3289 0.0000
# 6 0.0000 0.0000 0.0000 41.6752 0.0000 29.0679
#
#
#
# Elastic Compliance Matrix: (Units=1/GPa)
#
#
# Indices 1 2 3 4 5 6 
#
# 1 0.010011 -0.002329 -0.009170 0.000000 -0.002985 0.000000
# 2 -0.002329 0.023393 0.002424 0.000000 0.001658 0.000000
# 3 -0.009170 0.002424 0.018867 0.000000 -0.003023 0.000000
# 4 0.000000 0.000000 0.000000 0.106435 0.000000 -0.152598
# 5 -0.002985 0.001658 -0.003023 0.000000 0.031638 0.000000
# 6 0.000000 0.000000 0.000000 -0.152598 0.000000 0.253185
#
#
# Mechanical properties :
#
#
# Convention : Reuss Voigt Hill
#
# Bulk Modulus (GPa) = 29.30815 63.59666 46.45241
# Shear Modulus (GPa) = 10.56963 43.34955 26.95959
#
# Velocity S-wave (km/s) = 2.37101 4.80170 3.78669
# Velocity P-wave (km/s) = 4.80455 8.03536 6.62007
#
# Compressibility (1/GPa) = 0.03412020
#
# Stress axis : x y z
#
# Youngs Moduli (GPa) = 99.88820 42.74750 53.00300
#
# Poissons Ratio (x) = 0.09956 0.48606
# Poissons Ratio (y) = 0.23264 -0.12848
# Poissons Ratio (z) = 0.91602 -0.10362
#
# Static dielectric constant tensor:
#      x y z
#    x 1.691800 0.000000 0.036030 
#    y 0.000000 1.721650 0.000000 
#    z 0.036030 0.000000 1.623260 
# 
# From -- ./inp_files/179195.got.cif
#   From: 2010.05.17/outbox.cif.g08.bks.cpg/sg12_90_cif.got.tgz:179195.got - 2010.06.03 13:09:07.
