data_PCOD9171560
_publ_section_title
;
Structure prediction by ZEFSAII (Michael W. Deem and Ramdas Pophale) SiO2 
 PCOD9171560
Probable space group: C 2/M
;
_chemical_formula_sum "Si O2"
_cell_formula_units_Z 36
_cell_length_a 17.567133
_cell_length_b 29.824278
_cell_length_c 5.027380
_cell_angle_alpha 90.000000
_cell_angle_beta 50.852187
_cell_angle_gamma 90.000000
_cell_volume 2042.704073
_symmetry_space_group_name_H-M "C 2/M"
_symmetry_group_IT_number 12
_symmetry_cell_setting 'monoclinic'
loop_
_space_group_symop_operation_xyz
x,y,z
-x,y,-z
-x,-y,-z
x,-y,z
1/2+x,1/2+y,z
1/2-x,1/2+y,-z
1/2-x,1/2-y,-z
1/2+x,1/2-y,z
loop_
_atom_site_type_symbol
_atom_site_label
_atom_site_fract_x
_atom_site_fract_y
_atom_site_fract_z
Si Si1 0.500000 0.169089 0.500000
Si Si2 0.236380 0.192001 0.224428
Si Si3 0.883568 0.447894 0.306327
Si Si4 0.357625 0.223042 0.459027
Si Si5 0.678678 0.896298 0.038730
O O1 0.452850 0.199642 0.373155
O O2 0.415804 0.136040 0.790778
O O3 0.319159 0.208109 0.256093
O O4 0.144478 0.223086 0.506599
O O5 0.273182 0.205848 0.850109
O O6 0.233125 0.138177 0.218854
O O7 0.874576 0.500000 0.400665
O O8 0.836881 0.416148 0.633964
O O9 0.829710 0.436121 0.151548
O O10 0.000000 0.439318 0.000000
#
# Coordination Sequence:
#
# PCOD9171560 Si02
#       5
#     4   8   8   8   8
#     4  10  18  28  45  64  84 114 151 172 202 250
#     4   9  18  30  43  60  84 111 143 176 219 248
#     4  11  21  32  42  60  84 109 144 190 222 243
#     4   9  18  29  42  62  86 110 140 183 208 247
#     4  11  19  29  46  61  81 115 149 177 207 263
#
# _framework density 17.623698999999998
#
# number of rings (size 3 to 8) (size 9 to 14) (size 15 to 20)
#    0.000    2.000    2.222    3.333    0.000    4.444 
#    0.000    0.000    0.000    0.000    0.000    0.000 
#    0.000    0.000    0.000    6.000    0.000    0.000 
#
# Total GULP energy -100251.127222 kJ/mol
# GULP energy per Si atom -5569.507068 kJ/mol
# Density = 1.758359 g / cm^3
# Si number density = 17.623699 Si / 1000 Ang^3
#
#
#
# Elastic Constant Matrix: (Units=GPa)
#
#
# Indices 1 2 3 4 5 6 
#
# 1 32.9630 10.2768 5.8962 0.0000 11.2907 0.0000
# 2 10.2768 82.3106 16.7527 0.0000 0.7006 0.0000
# 3 5.8962 16.7527 53.7586 0.0000 19.4535 0.0000
# 4 0.0000 0.0000 0.0000 27.3884 0.0000 -0.5003
# 5 11.2907 0.7006 19.4535 0.0000 17.3967 0.0000
# 6 0.0000 0.0000 0.0000 -0.5003 0.0000 27.8342
#
#
#
# Elastic Compliance Matrix: (Units=1/GPa)
#
#
# Indices 1 2 3 4 5 6 
#
# 1 0.045698 -0.008105 0.013652 0.000000 -0.044599 0.000000
# 2 -0.008105 0.014894 -0.009135 0.000000 0.014876 0.000000
# 3 0.013652 -0.009135 0.038674 0.000000 -0.051739 0.000000
# 4 0.000000 0.000000 0.000000 0.036524 0.000000 0.000656
# 5 -0.044599 0.014876 -0.051739 0.000000 0.143685 0.000000
# 6 0.000000 0.000000 0.000000 0.000656 0.000000 0.035939
#
#
# Mechanical properties :
#
#
# Convention : Reuss Voigt Hill
#
# Bulk Modulus (GPa) = 10.85889 26.09818 18.47853
# Shear Modulus (GPa) = 14.15286 23.59764 18.87525
#
# Velocity S-wave (km/s) = 2.83690 3.66317 3.27619
# Velocity P-wave (km/s) = 4.11164 5.72123 4.98187
#
# Compressibility (1/GPa) = 0.09209042
#
# Stress axis : x y z
#
# Youngs Moduli (GPa) = 21.88275 67.14243 25.85725
#
# Poissons Ratio (x) = 0.54416 -0.35301
# Poissons Ratio (y) = 0.17735 0.23622
# Poissons Ratio (z) = -0.29875 0.61338
#
# Static dielectric constant tensor:
#      x y z
#    x 1.625220 0.000000 -0.019050 
#    y 0.000000 1.669230 0.000000 
#    z -0.019050 0.000000 1.648460 
# 
# From -- ./inp_files/25775.got.cif
#   From: 2010.05.17/outbox.cif.g08.bks.cpg/sg12_13_cif.got.tgz:25775.got - 2010.06.03 13:09:07.
