data_PCOD9171122
_publ_section_title
;
Structure prediction by ZEFSAII (Michael W. Deem and Ramdas Pophale) SiO2 
 PCOD9171122
Probable space group: C 2/M
;
_chemical_formula_sum "Si O2"
_cell_formula_units_Z 64
_cell_length_a 28.307602
_cell_length_b 9.351215
_cell_length_c 16.738238
_cell_angle_alpha 90.000000
_cell_angle_beta 95.342819
_cell_angle_gamma 90.000000
_cell_volume 4411.536841
_symmetry_space_group_name_H-M "C 2/M"
_symmetry_group_IT_number 12
_symmetry_cell_setting 'monoclinic'
loop_
_space_group_symop_operation_xyz
x,y,z
-x,y,-z
-x,-y,-z
x,-y,z
1/2+x,1/2+y,z
1/2-x,1/2+y,-z
1/2-x,1/2-y,-z
1/2+x,1/2-y,z
loop_
_atom_site_type_symbol
_atom_site_label
_atom_site_fract_x
_atom_site_fract_y
_atom_site_fract_z
Si Si1 0.787048 0.828831 0.062714
Si Si2 0.606565 0.670833 0.968927
Si Si3 0.340067 0.328848 0.719265
Si Si4 0.793358 0.163516 0.407606
Si Si5 0.984347 0.335507 0.091052
Si Si6 0.753884 0.171469 0.236756
Si Si7 0.924394 0.169487 0.854635
Si Si8 0.181725 0.335815 0.440149
O O1 0.840823 0.787084 0.049660
O O2 0.774497 0.799029 0.152875
O O3 0.783251 0.000000 0.049959
O O4 0.750000 0.750000 0.000000
O O5 0.601206 0.500000 0.957035
O O6 0.565245 0.752018 0.915003
O O7 0.598970 0.700337 0.062202
O O8 0.333666 0.500000 0.712343
O O9 0.294288 0.258107 0.754584
O O10 0.386260 0.299449 0.780067
O O11 0.342827 0.258242 0.632203
O O12 0.790445 0.206136 0.314307
O O13 0.820590 0.265476 0.472873
O O14 0.737803 0.164394 0.425398
O O15 0.810246 0.000000 0.417590
O O16 0.979329 0.500000 0.114428
O O17 0.027029 0.257225 0.143392
O O18 0.000000 0.332498 0.000000
O O19 0.744187 0.000000 0.241868
O O20 0.935041 0.000000 0.855172
O O21 0.165797 0.500000 0.436600
#
# Coordination Sequence:
#
# PCOD9171122 Si02
#       8
#     8   8   8   8   8   8   8   8
#     4  10  20  32  45  62  85 114 146 178 210 242
#     4   9  17  30  45  59  80 110 141 172 206 243
#     4  10  18  27  41  61  85 112 141 170 204 249
#     4   8  14  25  39  54  75 105 139 172 204 240
#     4   9  17  28  43  62  80 101 133 172 211 247
#     4   9  18  30  42  58  82 112 145 178 209 240
#     4   9  17  28  42  60  82 109 138 167 203 248
#     4   9  16  25  38  57  80 106 135 168 207 247
#
# _framework density 14.507415999999999
#
# number of rings (size 3 to 8) (size 9 to 14) (size 15 to 20)
#    0.000    2.875    0.000    2.625    0.000    7.500 
#    0.000    2.500    0.000    0.000    0.000    0.000 
#    0.000    1.000    0.000   11.500    0.000    3.500 
#
# Total GULP energy -178237.570388 kJ/mol
# GULP energy per Si atom -5569.924075 kJ/mol
# Density = 1.447440 g / cm^3
# Si number density = 14.507416 Si / 1000 Ang^3
#
#
#
# Elastic Constant Matrix: (Units=GPa)
#
#
# Indices 1 2 3 4 5 6 
#
# 1 89.6448 54.4652 56.1647 0.0000 16.0473 0.0000
# 2 54.4652 70.3219 64.3620 0.0000 17.8591 0.0000
# 3 56.1647 64.3620 114.7837 0.0000 15.6939 0.0000
# 4 0.0000 0.0000 0.0000 22.8686 0.0000 6.0361
# 5 16.0473 17.8591 15.6939 0.0000 17.4512 0.0000
# 6 0.0000 0.0000 0.0000 6.0361 0.0000 18.5265
#
#
#
# Elastic Compliance Matrix: (Units=1/GPa)
#
#
# Indices 1 2 3 4 5 6 
#
# 1 0.021579 -0.013468 -0.002484 0.000000 -0.003826 0.000000
# 2 -0.013468 0.043044 -0.015069 0.000000 -0.018113 0.000000
# 3 -0.002484 -0.015069 0.018193 0.000000 0.001344 0.000000
# 4 0.000000 0.000000 0.000000 0.047842 0.000000 -0.015588
# 5 -0.003826 -0.018113 0.001344 0.000000 0.078149 0.000000
# 6 0.000000 0.000000 0.000000 -0.015588 0.000000 0.059055
#
#
# Mechanical properties :
#
#
# Convention : Reuss Voigt Hill
#
# Bulk Modulus (GPa) = 48.13709 69.41493 58.77601
# Shear Modulus (GPa) = 14.84432 18.41982 16.63207
#
# Velocity S-wave (km/s) = 3.20226 3.56713 3.38960
# Velocity P-wave (km/s) = 6.85023 8.05715 7.47808
#
# Compressibility (1/GPa) = 0.02077400
#
# Stress axis : x y z
#
# Youngs Moduli (GPa) = 46.34114 23.23229 54.96611
#
# Poissons Ratio (x) = 0.31290 0.13652
# Poissons Ratio (y) = 0.62414 0.82827
# Poissons Ratio (z) = 0.11509 0.35008
#
# Static dielectric constant tensor:
#      x y z
#    x 1.449270 0.000000 0.000290 
#    y 0.000000 1.488350 0.000000 
#    z 0.000290 0.000000 1.484090 
# 
# From -- ./inp_files/287753.got.cif
#   From: 2010.05.17/outbox.cif.g08.bks.cpg/sg12_144_cif.got.tgz:287753.got - 2010.06.03 13:09:07.
