data_PCOD9171803
_publ_section_title
;
Structure prediction by ZEFSAII (Michael W. Deem and Ramdas Pophale) SiO2 
 PCOD9171803
Probable space group: C 2/M
;
_chemical_formula_sum "Si O2"
_cell_formula_units_Z 64
_cell_length_a 32.042756
_cell_length_b 13.945819
_cell_length_c 20.717098
_cell_angle_alpha 90.000000
_cell_angle_beta 155.419876
_cell_angle_gamma 90.000000
_cell_volume 3850.879814
_symmetry_space_group_name_H-M "C 2/M"
_symmetry_group_IT_number 12
_symmetry_cell_setting 'monoclinic'
loop_
_space_group_symop_operation_xyz
x,y,z
-x,y,-z
-x,-y,-z
x,-y,z
1/2+x,1/2+y,z
1/2-x,1/2+y,-z
1/2-x,1/2-y,-z
1/2+x,1/2-y,z
loop_
_atom_site_type_symbol
_atom_site_label
_atom_site_fract_x
_atom_site_fract_y
_atom_site_fract_z
Si Si1 0.958670 0.389155 0.868992
Si Si2 0.913664 0.260803 0.047765
Si Si3 0.204930 0.211455 0.700071
Si Si4 0.147276 0.890733 0.746893
Si Si5 0.013019 0.242903 0.639815
Si Si6 0.477836 0.388219 0.715881
Si Si7 0.750418 0.612058 0.628923
Si Si8 0.868173 0.612524 0.108400
O O1 0.965365 0.500000 0.854552
O O2 0.842523 0.358789 0.713150
O O3 0.023052 0.316724 0.917055
O O4 0.000000 0.388931 0.000000
O O5 0.906416 0.334917 0.097501
O O6 0.966603 0.166357 0.148825
O O7 0.801533 0.237085 0.866003
O O8 0.177120 0.131400 0.714843
O O9 0.242034 0.166581 0.684942
O O10 0.101388 0.267441 0.540668
O O11 0.068225 0.813495 0.660455
O O12 0.111160 0.000000 0.701937
O O13 0.247297 0.879843 0.931879
O O14 0.080295 0.330490 0.760396
O O15 0.004154 0.166876 0.686483
O O16 0.503543 0.500000 0.746921
O O17 0.358093 0.379417 0.556091
O O18 0.768334 0.500000 0.669457
O O19 0.892958 0.500000 0.144124
#
# Coordination Sequence:
#
# PCOD9171803 Si02
#       8
#     8   8   8   8   8   8   8   8
#     4  10  18  28  48  76 101 122 150 192 241 291
#     4  10  19  32  50  73  97 125 157 194 237 282
#     4  10  19  30  46  71 100 126 155 195 240 280
#     4  10  19  30  49  74  98 124 156 197 240 281
#     4  10  19  32  50  71  96 126 160 194 234 282
#     4   9  19  34  50  68  96 129 161 195 232 276
#     4   9  17  30  48  72  97 123 155 194 241 285
#     4   9  19  34  51  70  96 126 156 195 238 280
#
# _framework density 16.619578000000001
#
# number of rings (size 3 to 8) (size 9 to 14) (size 15 to 20)
#    0.000    2.375    1.250    1.875    0.000    3.500 
#    0.000    0.625    0.000    1.875    0.000    0.000 
#    0.000    0.000    0.000    0.000    0.000    0.000 
#
# Total GULP energy -178339.770469 kJ/mol
# GULP energy per Si atom -5573.117827 kJ/mol
# Density = 1.658175 g / cm^3
# Si number density = 16.619578 Si / 1000 Ang^3
#
#
#
# Elastic Constant Matrix: (Units=GPa)
#
#
# Indices 1 2 3 4 5 6 
#
# 1 49.0380 11.3929 20.6216 0.0000 6.4082 0.0000
# 2 11.3929 60.9302 45.3202 0.0000 2.1233 0.0000
# 3 20.6216 45.3202 97.8964 0.0000 -1.7368 0.0000
# 4 0.0000 0.0000 0.0000 18.2902 0.0000 1.4715
# 5 6.4082 2.1233 -1.7368 0.0000 19.8888 0.0000
# 6 0.0000 0.0000 0.0000 1.4715 0.0000 13.6527
#
#
#
# Elastic Compliance Matrix: (Units=1/GPa)
#
#
# Indices 1 2 3 4 5 6 
#
# 1 0.023604 -0.000506 -0.004879 0.000000 -0.007977 0.000000
# 2 -0.000506 0.025316 -0.011676 0.000000 -0.003559 0.000000
# 3 -0.004879 -0.011676 0.016724 0.000000 0.004279 0.000000
# 4 0.000000 0.000000 0.000000 0.055152 0.000000 -0.005945
# 5 -0.007977 -0.003559 0.004279 0.000000 0.053604 0.000000
# 6 0.000000 0.000000 0.000000 -0.005945 0.000000 0.073886
#
#
# Mechanical properties :
#
#
# Convention : Reuss Voigt Hill
#
# Bulk Modulus (GPa) = 31.72547 40.28155 36.00351
# Shear Modulus (GPa) = 17.06969 19.06832 18.06901
#
# Velocity S-wave (km/s) = 3.20829 3.39092 3.30087
# Velocity P-wave (km/s) = 5.73191 6.29453 6.01980
#
# Compressibility (1/GPa) = 0.03152042
#
# Stress axis : x y z
#
# Youngs Moduli (GPa) = 42.36507 39.50110 59.79433
#
# Poissons Ratio (x) = 0.02000 0.29176
# Poissons Ratio (y) = 0.02145 0.69817
# Poissons Ratio (z) = 0.20671 0.46122
#
# Static dielectric constant tensor:
#      x y z
#    x 1.556680 0.000000 0.018600 
#    y 0.000000 1.520860 0.000000 
#    z 0.018600 0.000000 1.599890 
# 
# From -- ./inp_files/224806.got.cif
#   From: 2010.05.17/outbox.cif.g08.bks.cpg/sg12_113_cif.got.tgz:224806.got - 2010.06.03 13:09:07.
