data_PCOD9171429
_publ_section_title
;
Structure prediction by ZEFSAII (Michael W. Deem and Ramdas Pophale) SiO2 
 PCOD9171429
Probable space group: C 2/M
;
_chemical_formula_sum "Si O2"
_cell_formula_units_Z 56
_cell_length_a 21.930909
_cell_length_b 18.967601
_cell_length_c 8.000025
_cell_angle_alpha 90.000000
_cell_angle_beta 123.834900
_cell_angle_gamma 90.000000
_cell_volume 2764.242121
_symmetry_space_group_name_H-M "C 2/M"
_symmetry_group_IT_number 12
_symmetry_cell_setting 'monoclinic'
loop_
_space_group_symop_operation_xyz
x,y,z
-x,y,-z
-x,-y,-z
x,-y,z
1/2+x,1/2+y,z
1/2-x,1/2+y,-z
1/2-x,1/2-y,-z
1/2+x,1/2-y,z
loop_
_atom_site_type_symbol
_atom_site_label
_atom_site_fract_x
_atom_site_fract_y
_atom_site_fract_z
Si Si1 0.952738 0.080658 0.601450
Si Si2 0.082647 0.144918 0.993384
Si Si3 0.204308 0.286286 0.656048
Si Si4 0.668951 0.343853 0.779760
Si Si5 0.221808 0.921165 0.329031
Si Si6 0.638896 0.783379 0.207680
Si Si7 0.299555 0.081249 0.811117
O O1 0.884751 0.129409 0.449320
O O2 0.000000 0.078462 0.500000
O O3 0.005095 0.112177 0.824424
O O4 0.930758 0.000000 0.603950
O O5 0.129407 0.141442 0.892385
O O6 0.136923 0.102500 0.199016
O O7 0.082852 0.225700 0.053415
O O8 0.178759 0.240125 0.772606
O O9 0.230540 0.366341 0.706486
O O10 0.279457 0.246197 0.715573
O O11 0.144302 0.284256 0.416631
O O12 0.743708 0.386806 0.862540
O O13 0.255302 0.918032 0.566363
O O14 0.226735 0.000000 0.271745
O O15 0.636526 0.861202 0.124433
O O16 0.319797 0.000000 0.876126
#
# Coordination Sequence:
#
# PCOD9171429 Si02
#       7
#     8   8   8   8   8   8   8
#     4   9  18  30  41  57  84 115 142 168 201 237
#     4  10  18  28  43  61  83 112 143 172 201 239
#     4   8  15  28  43  59  82 109 135 167 208 249
#     4  10  18  28  43  61  83 112 143 172 201 239
#     4   9  17  29  44  62  85 111 136 166 208 251
#     4   8  15  28  43  59  82 109 135 167 208 249
#     4   9  17  29  44  62  85 111 136 166 208 251
#
# _framework density 20.258716
#
# number of rings (size 3 to 8) (size 9 to 14) (size 15 to 20)
#    0.000    3.000    0.000    3.429    0.000    6.857 
#    0.000    2.857    0.000    5.143    0.000    1.000 
#    0.000    8.000    0.000    0.000    0.000    0.000 
#
# Total GULP energy -156230.389724 kJ/mol
# GULP energy per Si atom -5579.656776 kJ/mol
# Density = 2.021261 g / cm^3
# Si number density = 20.258716 Si / 1000 Ang^3
#
#
#
# Elastic Constant Matrix: (Units=GPa)
#
#
# Indices 1 2 3 4 5 6 
#
# 1 25.4733 17.3943 0.9175 0.0000 -5.0207 0.0000
# 2 17.3943 169.8621 22.9085 0.0000 5.4763 0.0000
# 3 0.9175 22.9085 79.4280 0.0000 1.8854 0.0000
# 4 0.0000 0.0000 0.0000 22.6191 0.0000 2.2377
# 5 -5.0207 5.4763 1.8854 0.0000 16.2584 0.0000
# 6 0.0000 0.0000 0.0000 2.2377 0.0000 14.9230
#
#
#
# Elastic Compliance Matrix: (Units=1/GPa)
#
#
# Indices 1 2 3 4 5 6 
#
# 1 0.045996 -0.005307 0.000621 0.000000 0.015919 0.000000
# 2 -0.005307 0.006795 -0.001810 0.000000 -0.003718 0.000000
# 3 0.000621 -0.001810 0.013122 0.000000 -0.000720 0.000000
# 4 0.000000 0.000000 0.000000 0.044876 0.000000 -0.006729
# 5 0.015919 -0.003718 -0.000720 0.000000 0.067759 0.000000
# 6 0.000000 0.000000 0.000000 -0.006729 0.000000 0.068020
#
#
# Mechanical properties :
#
#
# Convention : Reuss Voigt Hill
#
# Bulk Modulus (GPa) = 18.89613 39.68935 29.29274
# Shear Modulus (GPa) = 18.03760 26.32963 22.18361
#
# Velocity S-wave (km/s) = 2.98713 3.60900 3.31269
# Velocity P-wave (km/s) = 4.60922 6.08279 5.39654
#
# Compressibility (1/GPa) = 0.05292089
#
# Stress axis : x y z
#
# Youngs Moduli (GPa) = 21.74104 147.17623 76.20782
#
# Poissons Ratio (x) = 0.78109 -0.04736
# Poissons Ratio (y) = 0.11538 0.13795
# Poissons Ratio (z) = -0.01351 0.26641
#
# Static dielectric constant tensor:
#      x y z
#    x 1.749070 0.000000 -0.043790 
#    y 0.000000 1.750340 0.000000 
#    z -0.043790 0.000000 1.750170 
# 
# From -- ./inp_files/87302.got.cif
#   From: 2010.05.17/outbox.cif.g08.bks.cpg/sg12_44_cif.got.tgz:87302.got - 2010.06.03 13:09:07.
