data_PCOD9171357
_publ_section_title
;
Structure prediction by ZEFSAII (Michael W. Deem and Ramdas Pophale) SiO2 
 PCOD9171357
Probable space group: C 2/M
;
_chemical_formula_sum "Si O2"
_cell_formula_units_Z 64
_cell_length_a 29.405860
_cell_length_b 7.370691
_cell_length_c 15.353478
_cell_angle_alpha 90.000000
_cell_angle_beta 93.697461
_cell_angle_gamma 90.000000
_cell_volume 3320.809210
_symmetry_space_group_name_H-M "C 2/M"
_symmetry_group_IT_number 12
_symmetry_cell_setting 'monoclinic'
loop_
_space_group_symop_operation_xyz
x,y,z
-x,y,-z
-x,-y,-z
x,-y,z
1/2+x,1/2+y,z
1/2-x,1/2+y,-z
1/2-x,1/2-y,-z
1/2+x,1/2-y,z
loop_
_atom_site_type_symbol
_atom_site_label
_atom_site_fract_x
_atom_site_fract_y
_atom_site_fract_z
Si Si1 0.445868 0.220114 0.747068
Si Si2 0.515423 0.288273 0.909833
Si Si3 0.256601 0.782181 0.604235
Si Si4 0.832283 0.209002 0.312127
Si Si5 0.586062 0.278053 0.782007
Si Si6 0.642305 0.779294 0.347338
Si Si7 0.402265 0.779777 0.475527
Si Si8 0.515838 0.208276 0.617690
O O1 0.474354 0.276754 0.834853
O O2 0.393233 0.275598 0.732065
O O3 0.472759 0.286870 0.663747
O O4 0.447705 0.000000 0.745456
O O5 0.525299 0.500000 0.926613
O O6 0.560670 0.216907 0.866620
O O7 0.500000 0.208088 0.000000
O O8 0.250000 0.750000 0.500000
O O9 0.214462 0.710238 0.656472
O O10 0.305758 0.715527 0.643035
O O11 0.256358 0.000000 0.612823
O O12 0.862897 0.282810 0.236245
O O13 0.867121 0.214531 0.397920
O O14 0.822665 0.000000 0.288604
O O15 0.585225 0.500000 0.779001
O O16 0.553483 0.211438 0.700080
O O17 0.618325 0.726723 0.434989
O O18 0.643907 0.000000 0.346513
O O19 0.453657 0.717974 0.458284
O O20 0.403117 0.000000 0.472032
O O21 0.503816 0.000000 0.596091
#
# Coordination Sequence:
#
# PCOD9171357 Si02
#       8
#     8   8   8   8   8   8   8   8
#     4   9  17  29  42  59  84 110 135 165 200 241
#     4   9  17  30  48  67  85 104 127 160 205 255
#     4  10  18  28  41  58  80 109 146 181 208 232
#     4   9  16  25  39  58  80 106 138 175 205 233
#     4   8  14  25  40  59  82 104 127 160 203 244
#     4   9  17  27  39  56  81 111 141 173 205 234
#     4   9  15  24  38  55  77 108 141 171 202 231
#     4   8  14  23  37  56  77 104 138 167 192 230
#
# _framework density 19.272411000000002
#
# number of rings (size 3 to 8) (size 9 to 14) (size 15 to 20)
#    0.000    3.125    1.250    0.000    0.000    0.750 
#    0.000    3.750    0.000    0.000    0.000    9.625 
#    0.000    0.000    0.000    0.000    0.000    0.000 
#
# Total GULP energy -178272.774050 kJ/mol
# GULP energy per Si atom -5571.024189 kJ/mol
# Density = 1.922855 g / cm^3
# Si number density = 19.272411 Si / 1000 Ang^3
#
#
#
# Elastic Constant Matrix: (Units=GPa)
#
#
# Indices 1 2 3 4 5 6 
#
# 1 189.4617 1.7032 61.8412 0.0000 -21.3991 0.0000
# 2 1.7032 73.5980 -0.1327 0.0000 -5.7731 0.0000
# 3 61.8412 -0.1327 88.1690 0.0000 -27.7667 0.0000
# 4 0.0000 0.0000 0.0000 7.6312 0.0000 2.8288
# 5 -21.3991 -5.7731 -27.7667 0.0000 26.6739 0.0000
# 6 0.0000 0.0000 0.0000 2.8288 0.0000 5.1443
#
#
#
# Elastic Compliance Matrix: (Units=1/GPa)
#
#
# Indices 1 2 3 4 5 6 
#
# 1 0.006856 -0.000112 -0.004589 0.000000 0.000699 0.000000
# 2 -0.000112 0.013947 0.001520 0.000000 0.004511 0.000000
# 3 -0.004589 0.001520 0.020094 0.000000 0.017565 0.000000
# 4 0.000000 0.000000 0.000000 0.164590 0.000000 -0.090504
# 5 0.000699 0.004511 0.017565 0.000000 0.057312 0.000000
# 6 0.000000 0.000000 0.000000 -0.090504 0.000000 0.244154
#
#
# Mechanical properties :
#
#
# Convention : Reuss Voigt Hill
#
# Bulk Modulus (GPa) = 28.95542 53.11691 41.03617
# Shear Modulus (GPa) = 9.52697 27.07769 18.30233
#
# Velocity S-wave (km/s) = 2.22577 3.75240 3.08501
# Velocity P-wave (km/s) = 4.65428 6.81138 5.83340
#
# Compressibility (1/GPa) = 0.03453585
#
# Stress axis : x y z
#
# Youngs Moduli (GPa) = 145.86107 71.70254 49.76526
#
# Poissons Ratio (x) = 0.00804 0.22835
# Poissons Ratio (y) = 0.01635 -0.07566
# Poissons Ratio (z) = 0.66930 -0.10901
#
# Static dielectric constant tensor:
#      x y z
#    x 1.734510 0.000000 -0.030830 
#    y 0.000000 1.877700 0.000000 
#    z -0.030830 0.000000 1.663960 
# 
# From -- ./inp_files/248431.got.cif
#   From: 2010.05.17/outbox.cif.g08.bks.cpg/sg12_125_cif.got.tgz:248431.got - 2010.06.03 13:09:07.
