data_PCOD9171626
_publ_section_title
;
Structure prediction by ZEFSAII (Michael W. Deem and Ramdas Pophale) SiO2 
 PCOD9171626
Probable space group: C 2/M
;
_chemical_formula_sum "Si O2"
_cell_formula_units_Z 64
_cell_length_a 30.489347
_cell_length_b 7.703162
_cell_length_c 16.219694
_cell_angle_alpha 90.000000
_cell_angle_beta 118.822314
_cell_angle_gamma 90.000000
_cell_volume 3337.512542
_symmetry_space_group_name_H-M "C 2/M"
_symmetry_group_IT_number 12
_symmetry_cell_setting 'monoclinic'
loop_
_space_group_symop_operation_xyz
x,y,z
-x,y,-z
-x,-y,-z
x,-y,z
1/2+x,1/2+y,z
1/2-x,1/2+y,-z
1/2-x,1/2-y,-z
1/2+x,1/2-y,z
loop_
_atom_site_type_symbol
_atom_site_label
_atom_site_fract_x
_atom_site_fract_y
_atom_site_fract_z
Si Si1 0.068516 0.703275 0.939117
Si Si2 0.961331 0.794781 0.772758
Si Si3 0.818642 0.786172 0.215453
Si Si4 0.786466 0.299688 0.828546
Si Si5 0.423903 0.711632 0.385632
Si Si6 0.830889 0.799875 0.041288
Si Si7 0.027960 0.788136 0.401318
Si Si8 0.387723 0.790282 0.848464
O O1 0.080941 0.500000 0.948085
O O2 0.108997 0.792003 0.916216
O O3 0.011681 0.724662 0.860641
O O4 0.079295 0.765761 0.042199
O O5 0.956708 0.727006 0.675280
O O6 0.914264 0.761158 0.788553
O O7 0.968609 0.000000 0.773536
O O8 0.769175 0.724838 0.218319
O O9 0.870605 0.730089 0.303347
O O10 0.816690 0.731034 0.118087
O O11 0.818267 0.000000 0.214010
O O12 0.781240 0.500000 0.798441
O O13 0.831475 0.223541 0.814666
O O14 0.807003 0.294143 0.941172
O O15 0.423206 0.500000 0.384618
O O16 0.437412 0.767375 0.490848
O O17 0.470971 0.763610 0.371468
O O18 0.814936 0.000000 0.021384
O O19 0.029001 0.000000 0.402934
O O20 0.386281 0.000000 0.848875
#
# Coordination Sequence:
#
# PCOD9171626 Si02
#       8
#     8   8   8   8   8   8   8   8
#     4  10  20  33  47  65  93 126 156 183 218 270
#     4  11  20  29  46  71  93 114 149 193 233 270
#     4   9  16  26  45  70  92 119 156 193 224 263
#     4   9  18  32  46  63  91 125 159 190 222 265
#     4   8  13  25  44  66  94 120 142 176 225 273
#     4  10  18  28  45  71  98 120 149 188 228 267
#     4   8  15  26  42  68  97 118 138 177 231 277
#     4   9  19  33  45  59  86 124 159 187 220 267
#
# _framework density 19.175957
#
# number of rings (size 3 to 8) (size 9 to 14) (size 15 to 20)
#    0.000    2.750    0.000    4.125    0.000    6.000 
#    0.000    0.625    0.000    0.750    0.000   20.125 
#    0.000    0.000    0.000    0.000    0.000    0.375 
#
# Total GULP energy -178513.563896 kJ/mol
# GULP energy per Si atom -5578.548872 kJ/mol
# Density = 1.913231 g / cm^3
# Si number density = 19.175957 Si / 1000 Ang^3
#
#
#
# Elastic Constant Matrix: (Units=GPa)
#
#
# Indices 1 2 3 4 5 6 
#
# 1 115.9961 -6.6286 57.5842 0.0000 -9.8939 0.0000
# 2 -6.6286 35.0345 -3.9095 0.0000 -2.7110 0.0000
# 3 57.5842 -3.9095 53.4609 0.0000 -11.1314 0.0000
# 4 0.0000 0.0000 0.0000 -11.9464 0.0000 16.1919
# 5 -9.8939 -2.7110 -11.1314 0.0000 32.1761 0.0000
# 6 0.0000 0.0000 0.0000 16.1919 0.0000 -1.4471
#
#
#
# Elastic Compliance Matrix: (Units=1/GPa)
#
#
# Indices 1 2 3 4 5 6 
#
# 1 0.018627 0.001177 -0.020221 0.000000 -0.001169 0.000000
# 2 0.001177 0.029201 0.001568 0.000000 0.003365 0.000000
# 3 -0.020221 0.001568 0.042386 0.000000 0.008578 0.000000
# 4 0.000000 0.000000 0.000000 0.005909 0.000000 0.066119
# 5 -0.001169 0.003365 0.008578 0.000000 0.033971 0.000000
# 6 0.000000 0.000000 0.000000 0.066119 0.000000 0.048782
#
#
# Mechanical properties :
#
#
# Convention : Reuss Voigt Hill
#
# Bulk Modulus (GPa) = 18.09510 33.17597 25.63553
# Shear Modulus (GPa) = 21.52867 14.25288 17.89078
#
# Velocity S-wave (km/s) = 3.35429 2.72925 3.05779
# Velocity P-wave (km/s) = 4.94556 5.22208 5.08570
#
# Compressibility (1/GPa) = 0.05526358
#
# Stress axis : x y z
#
# Youngs Moduli (GPa) = 53.68627 34.24496 23.59261
#
# Poissons Ratio (x) = -0.04032 0.47706
# Poissons Ratio (y) = -0.06321 -0.03699
# Poissons Ratio (z) = 1.08557 -0.05369
#
# Static dielectric constant tensor:
#      x y z
#    x 1.682450 0.000000 -0.000480 
#    y 0.000000 1.722910 0.000000 
#    z -0.000480 0.000000 1.648260 
# 
# From -- ./inp_files/249201.got.cif
#   From: 2010.05.17/outbox.cif.g08.bks.cpg/sg12_125_cif.got.tgz:249201.got - 2010.06.03 13:09:07.
