data_PCOD9171413
_publ_section_title
;
Structure prediction by ZEFSAII (Michael W. Deem and Ramdas Pophale) SiO2 
 PCOD9171413
Probable space group: C 2/M
;
_chemical_formula_sum "Si O2"
_cell_formula_units_Z 56
_cell_length_a 25.255846
_cell_length_b 8.681841
_cell_length_c 19.507063
_cell_angle_alpha 90.000000
_cell_angle_beta 130.341920
_cell_angle_gamma 90.000000
_cell_volume 3260.105674
_symmetry_space_group_name_H-M "C 2/M"
_symmetry_group_IT_number 12
_symmetry_cell_setting 'monoclinic'
loop_
_space_group_symop_operation_xyz
x,y,z
-x,y,-z
-x,-y,-z
x,-y,z
1/2+x,1/2+y,z
1/2-x,1/2+y,-z
1/2-x,1/2-y,-z
1/2+x,1/2-y,z
loop_
_atom_site_type_symbol
_atom_site_label
_atom_site_fract_x
_atom_site_fract_y
_atom_site_fract_z
Si Si1 0.214871 0.816382 0.812529
Si Si2 0.299802 0.814848 0.599601
Si Si3 0.552700 0.314901 0.105403
Si Si4 0.956521 0.685681 0.750682
Si Si5 0.705836 0.185681 0.249316
Si Si6 0.402342 0.183618 0.187474
Si Si7 0.809508 0.815996 0.000001
O O1 0.229612 0.777091 0.746091
O O2 0.147150 0.750002 0.794299
O O3 0.212973 0.000000 0.819981
O O4 0.284067 0.750501 0.907226
O O5 0.250000 0.750000 0.500000
O O6 0.380513 0.767374 0.660739
O O7 0.280229 0.767376 0.660741
O O8 0.297101 0.000000 0.594199
O O9 0.552734 0.500000 0.105473
O O10 0.531549 0.256159 0.163655
O O11 0.632105 0.256163 0.163654
O O12 0.500000 0.264724 0.000000
O O13 0.956563 0.500000 0.759664
O O14 0.016480 0.722912 0.746090
O O15 0.696895 0.000000 0.240333
O O16 0.376841 0.249493 0.092775
O O17 0.392993 0.000000 0.180026
O O18 0.810370 0.000000 0.000003
O O19 0.750000 0.750000 0.000000
#
# Coordination Sequence:
#
# PCOD9171413 Si02
#       7
#     8   8   8   8   8   8   8
#     4  10  19  32  49  71  99 136 175 211 247 291
#     4   9  18  36  58  80  99 122 160 210 259 310
#     4  10  21  33  47  73 104 132 168 216 258 289
#     4   9  20  36  53  73 101 136 172 203 248 313
#     4   9  20  36  53  73 101 136 172 203 248 313
#     4  10  19  32  49  71  99 136 175 211 247 291
#     4  10  18  28  42  63  94 133 174 212 242 280
#
# _framework density 17.177358000000002
#
# number of rings (size 3 to 8) (size 9 to 14) (size 15 to 20)
#    0.000    2.429    0.000    5.143    2.000    5.714 
#    0.000    0.000    0.000    0.857    0.000    6.000 
#    0.000    0.000    0.000    0.000    0.000    0.000 
#
# Total GULP energy -155952.226647 kJ/mol
# GULP energy per Si atom -5569.722380 kJ/mol
# Density = 1.713826 g / cm^3
# Si number density = 17.177358 Si / 1000 Ang^3
#
#
#
# Elastic Constant Matrix: (Units=GPa)
#
#
# Indices 1 2 3 4 5 6 
#
# 1 148.8023 42.4622 69.9028 0.0000 -3.4680 0.0000
# 2 42.4622 50.4384 30.3850 0.0000 -0.7897 0.0000
# 3 69.9028 30.3850 127.1966 0.0000 2.0590 0.0000
# 4 0.0000 0.0000 0.0000 25.1921 0.0000 0.4890
# 5 -3.4680 -0.7897 2.0590 0.0000 13.2477 0.0000
# 6 0.0000 0.0000 0.0000 0.4890 0.0000 17.7033
#
#
#
# Elastic Compliance Matrix: (Units=1/GPa)
#
#
# Indices 1 2 3 4 5 6 
#
# 1 0.010650 -0.006262 -0.004407 0.000000 0.003100 0.000000
# 2 -0.006262 0.026908 -0.002993 0.000000 0.000430 0.000000
# 3 -0.004407 -0.002993 0.011048 0.000000 -0.003049 0.000000
# 4 0.000000 0.000000 0.000000 0.039716 0.000000 -0.001097
# 5 0.003100 0.000430 -0.003049 0.000000 0.076796 0.000000
# 6 0.000000 0.000000 0.000000 -0.001097 0.000000 0.056517
#
#
# Mechanical properties :
#
#
# Convention : Reuss Voigt Hill
#
# Bulk Modulus (GPa) = 46.99041 67.99304 57.49172
# Shear Modulus (GPa) = 19.52715 23.47445 21.50080
#
# Velocity S-wave (km/s) = 3.37530 3.70076 3.54177
# Velocity P-wave (km/s) = 6.52730 7.61115 7.08997
#
# Compressibility (1/GPa) = 0.02128094
#
# Stress axis : x y z
#
# Youngs Moduli (GPa) = 93.89800 37.16356 90.51261
#
# Poissons Ratio (x) = 0.23273 0.39889
# Poissons Ratio (y) = 0.58802 0.27093
# Poissons Ratio (z) = 0.41381 0.11124
#
# Static dielectric constant tensor:
#      x y z
#    x 1.606460 0.000000 -0.000780 
#    y 0.000000 1.582130 0.000000 
#    z -0.000780 0.000000 1.594500 
# 
# From -- ./inp_files/291953.got.cif
#   From: 2010.05.17/outbox.cif.g08.bks.cpg/sg12_146_cif.got.tgz:291953.got - 2010.06.03 13:09:07.
