data_PCOD9171041
_publ_section_title
;
Structure prediction by ZEFSAII (Michael W. Deem and Ramdas Pophale) SiO2 
 PCOD9171041
Probable space group: C 2/M
;
_chemical_formula_sum "Si O2"
_cell_formula_units_Z 40
_cell_length_a 13.937522
_cell_length_b 28.958973
_cell_length_c 8.317286
_cell_angle_alpha 90.000000
_cell_angle_beta 151.473193
_cell_angle_gamma 90.000000
_cell_volume 1603.198457
_symmetry_space_group_name_H-M "C 2/M"
_symmetry_group_IT_number 12
_symmetry_cell_setting 'monoclinic'
loop_
_space_group_symop_operation_xyz
x,y,z
-x,y,-z
-x,-y,-z
x,-y,z
1/2+x,1/2+y,z
1/2-x,1/2+y,-z
1/2-x,1/2-y,-z
1/2+x,1/2-y,z
loop_
_atom_site_type_symbol
_atom_site_label
_atom_site_fract_x
_atom_site_fract_y
_atom_site_fract_z
Si Si1 0.281993 0.054342 0.511291
Si Si2 0.277472 0.100619 0.819907
Si Si3 0.252670 0.601583 0.863559
Si Si4 0.716754 0.699677 0.163111
Si Si5 0.413727 0.200742 0.095638
O O1 0.185285 0.080072 0.521846
O O2 0.213287 0.065548 0.228873
O O3 0.278051 0.000000 0.532558
O O4 0.507908 0.074719 0.848243
O O5 0.189587 0.091751 0.867837
O O6 0.317513 0.156070 0.870186
O O7 0.366773 0.648520 0.979426
O O8 0.000000 0.609827 0.500000
O O9 0.822340 0.703327 0.141869
O O10 0.854324 0.694165 0.522830
O O11 0.617583 0.749583 0.028379
#
# Coordination Sequence:
#
# PCOD9171041 Si02
#       5
#     8   8   8   8   8
#     4  10  18  26  42  61  87 118 149 182 229 276
#     4   9  16  27  39  59  87 117 141 183 225 263
#     4   9  15  28  41  58  90 118 144 180 227 261
#     4   9  14  26  42  65  85 124 154 177 221 269
#     4   9  15  25  44  61  90 122 151 181 221 266
#
# _framework density 24.950123999999999
#
# number of rings (size 3 to 8) (size 9 to 14) (size 15 to 20)
#    0.000    2.800    6.000    1.200    0.000    4.400 
#    0.000    1.000    0.000    0.000    0.000    0.000 
#    0.000    4.800    0.000   50.200    0.000    0.000 
#
# Total GULP energy -111535.605534 kJ/mol
# GULP energy per Si atom -5576.780277 kJ/mol
# Density = 2.489334 g / cm^3
# Si number density = 24.950124 Si / 1000 Ang^3
#
#
#
# Elastic Constant Matrix: (Units=GPa)
#
#
# Indices 1 2 3 4 5 6 
#
# 1 136.6221 70.5802 40.0335 0.0000 -36.2986 0.0000
# 2 70.5802 198.5274 51.2742 0.0000 -25.6988 0.0000
# 3 40.0335 51.2742 103.8110 0.0000 -30.4179 0.0000
# 4 0.0000 0.0000 0.0000 37.0599 0.0000 -10.4434
# 5 -36.2986 -25.6988 -30.4179 0.0000 34.9137 0.0000
# 6 0.0000 0.0000 0.0000 -10.4434 0.0000 20.7573
#
#
#
# Elastic Compliance Matrix: (Units=1/GPa)
#
#
# Indices 1 2 3 4 5 6 
#
# 1 0.011345 -0.002736 -0.000212 0.000000 0.009596 0.000000
# 2 -0.002736 0.006584 -0.002162 0.000000 0.000117 0.000000
# 3 -0.000212 -0.002162 0.013766 0.000000 0.010182 0.000000
# 4 0.000000 0.000000 0.000000 0.031441 0.000000 0.015819
# 5 0.009596 0.000117 0.010182 0.000000 0.047576 0.000000
# 6 0.000000 0.000000 0.000000 0.015819 0.000000 0.056134
#
#
# Mechanical properties :
#
#
# Convention : Reuss Voigt Hill
#
# Bulk Modulus (GPa) = 46.56845 84.74848 65.65847
# Shear Modulus (GPa) = 27.14097 37.01767 32.07932
#
# Velocity S-wave (km/s) = 3.30177 3.85602 3.58961
# Velocity P-wave (km/s) = 5.76548 7.33935 6.59950
#
# Compressibility (1/GPa) = 0.02147376
#
# Stress axis : x y z
#
# Youngs Moduli (GPa) = 88.14701 151.89437 72.64404
#
# Poissons Ratio (x) = 0.41564 0.01537
# Poissons Ratio (y) = 0.24121 0.15706
# Poissons Ratio (z) = 0.01865 0.32841
#
# Static dielectric constant tensor:
#      x y z
#    x 2.002060 0.000000 -0.039610 
#    y 0.000000 1.903910 0.000000 
#    z -0.039610 0.000000 1.932200 
# 
# From -- ./inp_files/79612.got.cif
#   From: 2010.05.17/outbox.cif.g08.bks.cpg/sg12_40_cif.got.tgz:79612.got - 2010.06.03 13:09:07.
