data_PCOD9171234
_publ_section_title
;
Structure prediction by ZEFSAII (Michael W. Deem and Ramdas Pophale) SiO2 
 PCOD9171234
Probable space group: C 2/M
;
_chemical_formula_sum "Si O2"
_cell_formula_units_Z 36
_cell_length_a 9.330500
_cell_length_b 35.568787
_cell_length_c 5.627615
_cell_angle_alpha 90.000000
_cell_angle_beta 100.752867
_cell_angle_gamma 90.000000
_cell_volume 1834.868128
_symmetry_space_group_name_H-M "C 2/M"
_symmetry_group_IT_number 12
_symmetry_cell_setting 'monoclinic'
loop_
_space_group_symop_operation_xyz
x,y,z
-x,y,-z
-x,-y,-z
x,-y,z
1/2+x,1/2+y,z
1/2-x,1/2+y,-z
1/2-x,1/2-y,-z
1/2+x,1/2-y,z
loop_
_atom_site_type_symbol
_atom_site_label
_atom_site_fract_x
_atom_site_fract_y
_atom_site_fract_z
Si Si1 0.643697 0.192342 0.921224
Si Si2 0.144019 0.231139 0.660159
Si Si3 0.910655 0.500000 0.724534
Si Si4 0.669661 0.084502 0.290899
Si Si5 0.169673 0.386388 0.783317
O O1 0.769277 0.202754 0.145803
O O2 0.500000 0.176616 0.000000
O O3 0.597848 0.232008 0.794921
O O4 0.684430 0.158691 0.760593
O O5 0.250000 0.250000 0.500000
O O6 0.000000 0.214354 0.500000
O O7 0.827292 0.539463 0.710226
O O8 0.000000 0.500000 0.500000
O O9 0.000000 0.500000 0.000000
O O10 0.499044 0.098572 0.255507
O O11 0.736235 0.096986 0.563218
O O12 0.729020 0.101524 0.061632
#
# Coordination Sequence:
#
# PCOD9171234 Si02
#       5
#     8   8   4   8   8
#     4  11  22  35  55  79 104 140 191 235 276 341
#     4  11  24  38  57  79 106 143 182 237 294 336
#     4  12  16  26  38  64 102 144 172 221 258 339
#     4  10  18  27  43  69 100 139 183 212 275 320
#     4  10  19  29  46  70  96 136 184 219 264 326
#
# _framework density 19.619938999999999
#
# number of rings (size 3 to 8) (size 9 to 14) (size 15 to 20)
#    0.000    1.333    8.889    0.000    6.222    0.000 
#    0.000    0.000    0.000    0.000    0.000    0.000 
#    0.000    0.000    0.000   11.000    0.000    0.222 
#
# Total GULP energy -100295.076891 kJ/mol
# GULP energy per Si atom -5571.948716 kJ/mol
# Density = 1.957528 g / cm^3
# Si number density = 19.619939 Si / 1000 Ang^3
#
#
#
# Elastic Constant Matrix: (Units=GPa)
#
#
# Indices 1 2 3 4 5 6 
#
# 1 17.4766 -1.6591 8.8247 0.0000 7.0346 0.0000
# 2 -1.6591 121.3504 28.1588 0.0000 11.2605 0.0000
# 3 8.8247 28.1588 127.8183 0.0000 -14.8724 0.0000
# 4 0.0000 0.0000 0.0000 101.9565 0.0000 0.4629
# 5 7.0346 11.2605 -14.8724 0.0000 27.2174 0.0000
# 6 0.0000 0.0000 0.0000 0.4629 0.0000 -35.8327
#
#
#
# Elastic Compliance Matrix: (Units=1/GPa)
#
#
# Indices 1 2 3 4 5 6 
#
# 1 0.073056 0.005607 -0.009340 0.000000 -0.026306 0.000000
# 2 0.005607 0.009789 -0.003400 0.000000 -0.007357 0.000000
# 3 -0.009340 -0.003400 0.010318 0.000000 0.009459 0.000000
# 4 0.000000 0.000000 0.000000 0.009808 0.000000 0.000127
# 5 -0.026306 -0.007357 0.009459 0.000000 0.051752 0.000000
# 6 0.000000 0.000000 0.000000 0.000127 0.000000 -0.027906
#
#
# Mechanical properties :
#
#
# Convention : Reuss Voigt Hill
#
# Bulk Modulus (GPa) = 12.67460 37.47711 25.07585
# Shear Modulus (GPa) = 29.87195 34.08963 31.98079
#
# Velocity S-wave (km/s) = 3.90619 4.17285 4.04172
# Velocity P-wave (km/s) = 5.17866 6.50845 5.88126
#
# Compressibility (1/GPa) = 0.07889796
#
# Stress axis : x y z
#
# Youngs Moduli (GPa) = 13.68811 102.15765 96.91841
#
# Poissons Ratio (x) = -0.57281 0.90521
# Poissons Ratio (y) = -0.07675 0.32949
# Poissons Ratio (z) = 0.12785 0.34730
#
# Static dielectric constant tensor:
#      x y z
#    x 1.681640 0.000000 -0.054150 
#    y 0.000000 1.700810 0.000000 
#    z -0.054150 0.000000 1.849180 
# 
# From -- ./inp_files/8217.got.cif
#   From: 2010.05.17/outbox.cif.g08.bks.cpg/sg12_5_cif.got.tgz:8217.got - 2010.06.03 13:09:07.
