data_PCOD9171814
_publ_section_title
;
Structure prediction by ZEFSAII (Michael W. Deem and Ramdas Pophale) SiO2 
 PCOD9171814
Probable space group: C 2/M
;
_chemical_formula_sum "Si O2"
_cell_formula_units_Z 40
_cell_length_a 9.921081
_cell_length_b 28.548704
_cell_length_c 8.088102
_cell_angle_alpha 90.000000
_cell_angle_beta 135.180834
_cell_angle_gamma 90.000000
_cell_volume 1614.737687
_symmetry_space_group_name_H-M "C 2/M"
_symmetry_group_IT_number 12
_symmetry_cell_setting 'monoclinic'
loop_
_space_group_symop_operation_xyz
x,y,z
-x,y,-z
-x,-y,-z
x,-y,z
1/2+x,1/2+y,z
1/2-x,1/2+y,-z
1/2-x,1/2-y,-z
1/2+x,1/2-y,z
loop_
_atom_site_type_symbol
_atom_site_label
_atom_site_fract_x
_atom_site_fract_y
_atom_site_fract_z
Si Si1 0.186348 0.053640 0.340901
Si Si2 0.751407 0.909484 0.930953
Si Si3 0.228480 0.711579 0.203504
Si Si4 0.286520 0.309702 0.873219
Si Si5 0.276702 0.607976 0.322655
O O1 0.287756 0.054494 0.250441
O O2 0.297911 0.080090 0.583879
O O3 0.145874 0.000000 0.351713
O O4 0.983193 0.081535 0.150987
O O5 0.691928 0.860157 0.795380
O O6 0.688133 0.905685 0.067318
O O7 0.290348 0.764903 0.295740
O O8 0.273614 0.664564 0.343463
O O9 0.299070 0.702886 0.078625
O O10 0.000000 0.713903 0.000000
O O11 0.500000 0.317941 0.000000
O O12 0.500000 0.595080 0.500000
#
# Coordination Sequence:
#
# PCOD9171814 Si02
#       5
#     8   8   8   8   8
#     4  10  18  28  48  78 107 134 179 232 275 315
#     4   9  16  29  49  72 105 139 168 220 280 314
#     4   9  18  31  53  79 106 148 183 217 269 327
#     4   9  15  29  54  75 103 143 181 218 265 317
#     4   9  19  32  50  77 109 142 176 228 270 319
#
# _framework density 24.771826000000001
#
# number of rings (size 3 to 8) (size 9 to 14) (size 15 to 20)
#    0.000    2.800    2.000    1.200    0.000    4.400 
#    0.000    1.000    0.000    4.200    0.000    5.600 
#    0.000    0.000    0.000    0.000    0.000    0.000 
#
# Total GULP energy -111419.742827 kJ/mol
# GULP energy per Si atom -5570.987141 kJ/mol
# Density = 2.471544 g / cm^3
# Si number density = 24.771826 Si / 1000 Ang^3
#
#
#
# Elastic Constant Matrix: (Units=GPa)
#
#
# Indices 1 2 3 4 5 6 
#
# 1 94.9269 25.0694 41.0170 0.0000 -20.7120 0.0000
# 2 25.0694 162.2015 38.2726 0.0000 -41.4262 0.0000
# 3 41.0170 38.2726 100.7809 0.0000 -11.9502 0.0000
# 4 0.0000 0.0000 0.0000 13.3238 0.0000 -14.6517
# 5 -20.7120 -41.4262 -11.9502 0.0000 38.3707 0.0000
# 6 0.0000 0.0000 0.0000 -14.6517 0.0000 21.2036
#
#
#
# Elastic Compliance Matrix: (Units=1/GPa)
#
#
# Indices 1 2 3 4 5 6 
#
# 1 0.014070 0.000803 -0.005221 0.000000 0.006836 0.000000
# 2 0.000803 0.009067 -0.002656 0.000000 0.009396 0.000000
# 3 -0.005221 -0.002656 0.012857 0.000000 -0.001682 0.000000
# 4 0.000000 0.000000 0.000000 0.312546 0.000000 0.215969
# 5 0.006836 0.009396 -0.001682 0.000000 0.039372 0.000000
# 6 0.000000 0.000000 0.000000 0.215969 0.000000 0.196396
#
#
# Mechanical properties :
#
#
# Convention : Reuss Voigt Hill
#
# Bulk Modulus (GPa) = 45.77453 62.95859 54.36656
# Shear Modulus (GPa) = 8.25441 31.48297 19.86869
#
# Velocity S-wave (km/s) = 1.82741 3.56886 2.83515
# Velocity P-wave (km/s) = 4.79282 6.51559 5.71944
#
# Compressibility (1/GPa) = 0.02184621
#
# Stress axis : x y z
#
# Youngs Moduli (GPa) = 71.07531 110.28418 77.78112
#
# Poissons Ratio (x) = -0.08857 0.40607
# Poissons Ratio (y) = -0.05708 0.20660
# Poissons Ratio (z) = 0.37106 0.29294
#
# Static dielectric constant tensor:
#      x y z
#    x 1.978480 0.000000 -0.009270 
#    y 0.000000 1.976660 0.000000 
#    z -0.009270 0.000000 2.046910 
# 
# From -- ./inp_files/53891.got.cif
#   From: 2010.05.17/outbox.cif.g08.bks.cpg/sg12_27_cif.got.tgz:53891.got - 2010.06.03 13:09:07.
