data_PCOD9171120
_publ_section_title
;
Structure prediction by ZEFSAII (Michael W. Deem and Ramdas Pophale) SiO2 
 PCOD9171120
Probable space group: C 2/M
;
_chemical_formula_sum "Si O2"
_cell_formula_units_Z 56
_cell_length_a 28.199431
_cell_length_b 8.794853
_cell_length_c 16.722105
_cell_angle_alpha 90.000000
_cell_angle_beta 64.599080
_cell_angle_gamma 90.000000
_cell_volume 3746.325801
_symmetry_space_group_name_H-M "C 2/M"
_symmetry_group_IT_number 12
_symmetry_cell_setting 'monoclinic'
loop_
_space_group_symop_operation_xyz
x,y,z
-x,y,-z
-x,-y,-z
x,-y,z
1/2+x,1/2+y,z
1/2-x,1/2+y,-z
1/2-x,1/2-y,-z
1/2+x,1/2-y,z
loop_
_atom_site_type_symbol
_atom_site_label
_atom_site_fract_x
_atom_site_fract_y
_atom_site_fract_z
Si Si1 0.189308 0.181638 0.455575
Si Si2 0.508823 0.815371 0.186460
Si Si3 0.584653 0.183761 0.460939
Si Si4 0.515612 0.184693 0.362846
Si Si5 0.940485 0.675604 0.007993
Si Si6 0.198389 0.816854 0.634746
Si Si7 0.402346 0.318497 0.190988
O O1 0.140378 0.247811 0.442876
O O2 0.184550 0.225728 0.553046
O O3 0.245399 0.244800 0.386652
O O4 0.189146 0.000000 0.451196
O O5 0.521055 0.764982 0.267634
O O6 0.452046 0.754748 0.200454
O O7 0.506974 0.000000 0.185150
O O8 0.551334 0.768081 0.088526
O O9 0.560852 0.231362 0.392288
O O10 0.540352 0.229231 0.558215
O O11 0.587982 0.000000 0.459487
O O12 0.515977 0.000000 0.362233
O O13 0.923070 0.500000 0.020157
O O14 0.906388 0.768819 0.095586
O O15 0.000000 0.677697 0.000000
O O16 0.151486 0.770239 0.727366
O O17 0.203143 0.000000 0.634132
O O18 0.406714 0.500000 0.193649
#
# Coordination Sequence:
#
# PCOD9171120 Si02
#       7
#     8   8   8   8   8   8   8
#     4  10  19  30  44  62  84 109 138 171 206 243
#     4   9  16  27  42  60  85 114 142 169 198 239
#     4   9  16  28  45  63  85 111 140 172 202 237
#     4   8  15  27  44  64  83 111 146 169 194 240
#     4   8  15  26  39  57  82 111 139 167 201 243
#     4   9  19  32  43  59  83 111 141 169 202 246
#     4  10  18  27  41  61  85 110 137 171 208 244
#
# _framework density 14.947979
#
# number of rings (size 3 to 8) (size 9 to 14) (size 15 to 20)
#    0.000    3.000    0.000    3.429    0.000    4.286 
#    0.000    2.143    0.000    0.000    0.000    1.000 
#    0.000    0.000    0.000    0.000    0.000    0.000 
#
# Total GULP energy -155936.475471 kJ/mol
# GULP energy per Si atom -5569.159838 kJ/mol
# Density = 1.491396 g / cm^3
# Si number density = 14.947979 Si / 1000 Ang^3
#
#
#
# Elastic Constant Matrix: (Units=GPa)
#
#
# Indices 1 2 3 4 5 6 
#
# 1 102.1668 23.0527 66.6687 0.0000 -1.3360 0.0000
# 2 23.0527 16.9926 28.3654 0.0000 -4.3520 0.0000
# 3 66.6687 28.3654 140.7665 0.0000 2.7761 0.0000
# 4 0.0000 0.0000 0.0000 19.1998 0.0000 -2.5126
# 5 -1.3360 -4.3520 2.7761 0.0000 24.4913 0.0000
# 6 0.0000 0.0000 0.0000 -2.5126 0.0000 19.3314
#
#
#
# Elastic Compliance Matrix: (Units=1/GPa)
#
#
# Indices 1 2 3 4 5 6 
#
# 1 0.016056 -0.014177 -0.004726 0.000000 -0.001108 0.000000
# 2 -0.014177 0.109704 -0.015796 0.000000 0.020511 0.000000
# 3 -0.004726 -0.015796 0.012614 0.000000 -0.004494 0.000000
# 4 0.000000 0.000000 0.000000 0.052985 0.000000 0.006887
# 5 -0.001108 0.020511 -0.004494 0.000000 0.044925 0.000000
# 6 0.000000 0.000000 0.000000 0.006887 0.000000 0.052625
#
#
# Mechanical properties :
#
#
# Convention : Reuss Voigt Hill
#
# Bulk Modulus (GPa) = 14.49794 55.12217 34.81005
# Shear Modulus (GPa) = 13.11312 22.06043 17.58678
#
# Velocity S-wave (km/s) = 2.96505 3.84580 3.43378
# Velocity P-wave (km/s) = 4.63056 7.52837 6.24973
#
# Compressibility (1/GPa) = 0.06897533
#
# Stress axis : x y z
#
# Youngs Moduli (GPa) = 62.28155 9.11548 79.27877
#
# Poissons Ratio (x) = 0.12923 0.37465
# Poissons Ratio (y) = 0.88299 1.25228
# Poissons Ratio (z) = 0.29432 0.14399
#
# Static dielectric constant tensor:
#      x y z
#    x 1.467260 0.000000 0.017790 
#    y 0.000000 1.502790 0.000000 
#    z 0.017790 0.000000 1.517880 
# 
# From -- ./inp_files/291475.got.cif
#   From: 2010.05.17/outbox.cif.g08.bks.cpg/sg12_146_cif.got.tgz:291475.got - 2010.06.03 13:09:07.
