data_PCOD9171113
_publ_section_title
;
Structure prediction by ZEFSAII (Michael W. Deem and Ramdas Pophale) SiO2 
 PCOD9171113
Probable space group: C 2/M
;
_chemical_formula_sum "Si O2"
_cell_formula_units_Z 48
_cell_length_a 18.927210
_cell_length_b 21.104252
_cell_length_c 6.969441
_cell_angle_alpha 90.000000
_cell_angle_beta 57.515299
_cell_angle_gamma 90.000000
_cell_volume 2348.321521
_symmetry_space_group_name_H-M "C 2/M"
_symmetry_group_IT_number 12
_symmetry_cell_setting 'monoclinic'
loop_
_space_group_symop_operation_xyz
x,y,z
-x,y,-z
-x,-y,-z
x,-y,z
1/2+x,1/2+y,z
1/2-x,1/2+y,-z
1/2-x,1/2-y,-z
1/2+x,1/2-y,z
loop_
_atom_site_type_symbol
_atom_site_label
_atom_site_fract_x
_atom_site_fract_y
_atom_site_fract_z
Si Si1 0.618959 0.286632 0.163139
Si Si2 0.405880 0.862471 0.310588
Si Si3 0.431295 0.925183 0.854796
Si Si4 0.936425 0.215308 0.308548
Si Si5 0.784266 0.345799 0.007658
Si Si6 0.232963 0.826058 0.516368
O O1 0.591729 0.286568 0.426296
O O2 0.534685 0.300084 0.167900
O O3 0.699338 0.331749 0.014575
O O4 0.656924 0.216737 0.076363
O O5 0.413101 0.900015 0.098949
O O6 0.427601 0.788177 0.254726
O O7 0.309027 0.859691 0.518428
O O8 0.480085 0.892748 0.326426
O O9 0.347943 0.901975 0.868245
O O10 0.440626 0.000000 0.835874
O O11 0.866647 0.171467 0.308423
O O12 0.750412 0.350069 0.274965
O O13 0.250000 0.750000 0.500000
#
# Coordination Sequence:
#
# PCOD9171113 Si02
#       6
#     8   8   8   8   8   8
#     4   9  16  25  41  59  80 110 137 165 215 253
#     4   9  15  25  38  55  79 105 132 169 201 241
#     4  10  18  27  41  60  80 110 145 174 205 241
#     4   9  15  25  39  59  82 106 132 165 209 257
#     4   9  16  27  40  58  80 108 141 174 203 251
#     4   8  15  24  37  57  80 103 132 164 211 245
#
# _framework density 20.440131000000001
#
# number of rings (size 3 to 8) (size 9 to 14) (size 15 to 20)
#    0.000    3.000    1.667    1.000    0.000    0.000 
#    0.000    0.000    0.000    3.000    0.000   22.167 
#    0.000    0.000    0.000    0.000    0.000  611.333 
#
# Total GULP energy -133747.539875 kJ/mol
# GULP energy per Si atom -5572.814161 kJ/mol
# Density = 2.039361 g / cm^3
# Si number density = 20.440131 Si / 1000 Ang^3
#
#
#
# Elastic Constant Matrix: (Units=GPa)
#
#
# Indices 1 2 3 4 5 6 
#
# 1 132.1431 40.0694 63.2854 0.0000 -52.0798 0.0000
# 2 40.0694 73.6082 41.5744 0.0000 -30.9263 0.0000
# 3 63.2854 41.5744 149.6221 0.0000 -45.3941 0.0000
# 4 0.0000 0.0000 0.0000 5.0515 0.0000 -4.7342
# 5 -52.0798 -30.9263 -45.3941 0.0000 59.4202 0.0000
# 6 0.0000 0.0000 0.0000 -4.7342 0.0000 19.2407
#
#
#
# Elastic Compliance Matrix: (Units=1/GPa)
#
#
# Indices 1 2 3 4 5 6 
#
# 1 0.012482 -0.002121 -0.002221 0.000000 0.008140 0.000000
# 2 -0.002121 0.018639 -0.002477 0.000000 0.005950 0.000000
# 3 -0.002221 -0.002477 0.009541 0.000000 0.004053 0.000000
# 4 0.000000 0.000000 0.000000 0.257293 0.000000 0.063307
# 5 0.008140 0.005950 0.004053 0.000000 0.030157 0.000000
# 6 0.000000 0.000000 0.000000 0.063307 0.000000 0.067550
#
#
# Mechanical properties :
#
#
# Convention : Reuss Voigt Hill
#
# Bulk Modulus (GPa) = 37.00240 71.69242 54.34741
# Shear Modulus (GPa) = 11.95297 30.77210 21.36254
#
# Velocity S-wave (km/s) = 2.42085 3.88425 3.23635
# Velocity P-wave (km/s) = 5.09471 7.43418 6.37272
#
# Compressibility (1/GPa) = 0.02702528
#
# Stress axis : x y z
#
# Youngs Moduli (GPa) = 80.11396 53.65206 104.81395
#
# Poissons Ratio (x) = 0.11377 0.23277
# Poissons Ratio (y) = 0.16988 0.25961
# Poissons Ratio (z) = 0.17791 0.13289
#
# Static dielectric constant tensor:
#      x y z
#    x 1.894990 0.000000 0.002000 
#    y 0.000000 1.642740 0.000000 
#    z 0.002000 0.000000 1.790160 
# 
# From -- ./inp_files/146708.got.cif
#   From: 2010.05.17/outbox.cif.g08.bks.cpg/sg12_74_cif.got.tgz:146708.got - 2010.06.03 13:09:07.
