data_PCOD9171753
_publ_section_title
;
Structure prediction by ZEFSAII (Michael W. Deem and Ramdas Pophale) SiO2 
 PCOD9171753
Probable space group: C 2/M
;
_chemical_formula_sum "Si O2"
_cell_formula_units_Z 40
_cell_length_a 25.091567
_cell_length_b 8.984194
_cell_length_c 12.871372
_cell_angle_alpha 90.000000
_cell_angle_beta 58.886790
_cell_angle_gamma 90.000000
_cell_volume 2484.165807
_symmetry_space_group_name_H-M "C 2/M"
_symmetry_group_IT_number 12
_symmetry_cell_setting 'monoclinic'
loop_
_space_group_symop_operation_xyz
x,y,z
-x,y,-z
-x,-y,-z
x,-y,z
1/2+x,1/2+y,z
1/2-x,1/2+y,-z
1/2-x,1/2-y,-z
1/2+x,1/2-y,z
loop_
_atom_site_type_symbol
_atom_site_label
_atom_site_fract_x
_atom_site_fract_y
_atom_site_fract_z
Si Si1 0.699244 0.176870 0.906266
Si Si2 0.796059 0.822949 0.308179
Si Si3 0.164882 0.177444 0.502589
Si Si4 0.928386 0.678883 0.560259
Si Si5 0.830112 0.322182 0.835494
O O1 0.676505 0.255824 0.824800
O O2 0.769250 0.235458 0.857540
O O3 0.700227 0.000000 0.890177
O O4 0.662211 0.210677 0.049937
O O5 0.834452 0.791521 0.374570
O O6 0.727958 0.751105 0.394493
O O7 0.788774 0.000000 0.305496
O O8 0.106866 0.244037 0.499561
O O9 0.168408 0.000000 0.484471
O O10 0.926370 0.500000 0.547645
O O11 0.888413 0.713307 0.704003
O O12 0.000000 0.724038 0.500000
O O13 0.817655 0.500000 0.839064
#
# Coordination Sequence:
#
# PCOD9171753 Si02
#       5
#     8   8   8   8   8
#     4  10  18  28  47  73  99 127 159 197 244 295
#     4  10  19  31  48  71 101 129 156 200 250 293
#     4  10  20  32  48  72  98 127 164 201 243 291
#     4  10  20  34  52  72  98 132 165 199 241 288
#     4   9  18  31  46  69 100 129 160 199 242 288
#
# _framework density 16.101984999999999
#
# number of rings (size 3 to 8) (size 9 to 14) (size 15 to 20)
#    0.000    2.200    2.000    1.800    0.000    3.600 
#    0.000    0.000    0.000    1.200    0.000    8.400 
#    0.000    0.000    0.000    0.000    0.000    0.000 
#
# Total GULP energy -111538.344307 kJ/mol
# GULP energy per Si atom -5576.917215 kJ/mol
# Density = 1.606534 g / cm^3
# Si number density = 16.101985 Si / 1000 Ang^3
#
#
#
# Elastic Constant Matrix: (Units=GPa)
#
#
# Indices 1 2 3 4 5 6 
#
# 1 114.1694 48.1746 70.3595 0.0000 15.0966 0.0000
# 2 48.1746 48.6575 52.6216 0.0000 14.4920 0.0000
# 3 70.3595 52.6216 117.8628 0.0000 26.4423 0.0000
# 4 0.0000 0.0000 0.0000 24.1008 0.0000 8.4117
# 5 15.0966 14.4920 26.4423 0.0000 29.0275 0.0000
# 6 0.0000 0.0000 0.0000 8.4117 0.0000 24.6393
#
#
#
# Elastic Compliance Matrix: (Units=1/GPa)
#
#
# Indices 1 2 3 4 5 6 
#
# 1 0.016465 -0.011159 -0.005249 0.000000 0.001789 0.000000
# 2 -0.011159 0.047802 -0.013358 0.000000 -0.005893 0.000000
# 3 -0.005249 -0.013358 0.019448 0.000000 -0.008317 0.000000
# 4 0.000000 0.000000 0.000000 0.047105 0.000000 -0.016081
# 5 0.001789 -0.005893 -0.008317 0.000000 0.044038 0.000000
# 6 0.000000 0.000000 0.000000 -0.016081 0.000000 0.046076
#
#
# Mechanical properties :
#
#
# Convention : Reuss Voigt Hill
#
# Bulk Modulus (GPa) = 41.35081 69.22235 55.28658
# Shear Modulus (GPa) = 17.32950 22.85577 20.09264
#
# Velocity S-wave (km/s) = 3.28416 3.77163 3.53630
# Velocity P-wave (km/s) = 6.33382 7.87719 7.14729
#
# Compressibility (1/GPa) = 0.02418332
#
# Stress axis : x y z
#
# Youngs Moduli (GPa) = 60.73345 20.91984 51.42038
#
# Poissons Ratio (x) = 0.23343 0.26989
# Poissons Ratio (y) = 0.67770 0.68689
# Poissons Ratio (z) = 0.31877 0.27946
#
# Static dielectric constant tensor:
#      x y z
#    x 1.510340 0.000000 0.032060 
#    y 0.000000 1.538500 0.000000 
#    z 0.032060 0.000000 1.562570 
# 
# From -- ./inp_files/171385.got.cif
#   From: 2010.05.17/outbox.cif.g08.bks.cpg/sg12_86_cif.got.tgz:171385.got - 2010.06.03 13:09:07.
