data_PCOD9171320
_publ_section_title
;
Structure prediction by ZEFSAII (Michael W. Deem and Ramdas Pophale) SiO2 
 PCOD9171320
Probable space group: C 2/M
;
_chemical_formula_sum "Si O2"
_cell_formula_units_Z 56
_cell_length_a 12.949514
_cell_length_b 21.606159
_cell_length_c 12.520167
_cell_angle_alpha 90.000000
_cell_angle_beta 95.936464
_cell_angle_gamma 90.000000
_cell_volume 3484.222297
_symmetry_space_group_name_H-M "C 2/M"
_symmetry_group_IT_number 12
_symmetry_cell_setting 'monoclinic'
loop_
_space_group_symop_operation_xyz
x,y,z
-x,y,-z
-x,-y,-z
x,-y,z
1/2+x,1/2+y,z
1/2-x,1/2+y,-z
1/2-x,1/2-y,-z
1/2+x,1/2-y,z
loop_
_atom_site_type_symbol
_atom_site_label
_atom_site_fract_x
_atom_site_fract_y
_atom_site_fract_z
Si Si1 0.876706 0.647876 0.778990
Si Si2 0.373942 0.071602 0.988309
Si Si3 0.256264 0.069961 0.594025
Si Si4 0.242720 0.233083 0.321563
Si Si5 0.911671 0.569153 0.420390
Si Si6 0.623373 0.683333 0.510337
Si Si7 0.621405 0.857589 0.796201
O O1 0.840708 0.598338 0.685177
O O2 0.820916 0.711028 0.738765
O O3 0.000172 0.660572 0.798415
O O4 0.843383 0.615465 0.886211
O O5 0.344033 0.104717 0.095717
O O6 0.337789 0.000000 0.975982
O O7 0.500000 0.068889 0.000000
O O8 0.313491 0.066741 0.486484
O O9 0.164996 0.119382 0.566682
O O10 0.226249 0.000000 0.622039
O O11 0.328807 0.262651 0.410053
O O12 0.169834 0.194058 0.395746
O O13 0.300884 0.195643 0.234594
O O14 0.951480 0.500000 0.401104
O O15 0.883943 0.598858 0.307168
O O16 0.000000 0.602845 0.500000
O O17 0.500000 0.685934 0.500000
#
# Coordination Sequence:
#
# PCOD9171320 Si02
#       7
#     8   8   8   8   8   8   8
#     4  10  20  33  50  72 101 135 168 203 248 294
#     4   9  19  33  51  75 101 128 160 204 253 296
#     4  10  19  31  49  73  99 130 168 203 247 303
#     4  10  21  33  49  73  98 136 171 203 242 302
#     4  10  18  27  46  75 102 127 157 200 250 301
#     4  10  20  34  49  71 103 134 167 206 251 294
#     4  11  19  32  51  73 102 132 165 204 250 293
#
# _framework density 16.072452999999999
#
# number of rings (size 3 to 8) (size 9 to 14) (size 15 to 20)
#    0.000    2.000    2.857    1.714    0.000    2.571 
#    0.000    0.000    0.000    0.000    0.000    0.000 
#    0.000   11.429    0.000    0.000    0.000    0.000 
#
# Total GULP energy -155954.935105 kJ/mol
# GULP energy per Si atom -5569.819111 kJ/mol
# Density = 1.603587 g / cm^3
# Si number density = 16.072453 Si / 1000 Ang^3
#
#
#
# Elastic Constant Matrix: (Units=GPa)
#
#
# Indices 1 2 3 4 5 6 
#
# 1 71.0268 25.1563 13.2103 0.0000 -3.8501 0.0000
# 2 25.1563 83.0269 34.9044 0.0000 -7.2472 0.0000
# 3 13.2103 34.9044 104.5952 0.0000 -9.5378 0.0000
# 4 0.0000 0.0000 0.0000 34.8916 0.0000 -3.7527
# 5 -3.8501 -7.2472 -9.5378 0.0000 17.3486 0.0000
# 6 0.0000 0.0000 0.0000 -3.7527 0.0000 15.7774
#
#
#
# Elastic Compliance Matrix: (Units=1/GPa)
#
#
# Indices 1 2 3 4 5 6 
#
# 1 0.015824 -0.004518 -0.000361 0.000000 0.001426 0.000000
# 2 -0.004518 0.015499 -0.004319 0.000000 0.003097 0.000000
# 3 -0.000361 -0.004319 0.011450 0.000000 0.004410 0.000000
# 4 0.000000 0.000000 0.000000 0.029413 0.000000 0.006996
# 5 0.001426 0.003097 0.004410 0.000000 0.061677 0.000000
# 6 0.000000 0.000000 0.000000 0.006996 0.000000 0.065046
#
#
# Mechanical properties :
#
#
# Convention : Reuss Voigt Hill
#
# Bulk Modulus (GPa) = 41.02299 45.02121 43.02210
# Shear Modulus (GPa) = 22.17983 25.96205 24.07094
#
# Velocity S-wave (km/s) = 3.71885 4.02346 3.87415
# Velocity P-wave (km/s) = 6.63468 7.04674 6.84381
#
# Compressibility (1/GPa) = 0.02437657
#
# Stress axis : x y z
#
# Youngs Moduli (GPa) = 63.19556 64.51840 87.33804
#
# Poissons Ratio (x) = 0.29152 0.03150
# Poissons Ratio (y) = 0.28554 0.37723
# Poissons Ratio (z) = 0.02279 0.27867
#
# Static dielectric constant tensor:
#      x y z
#    x 1.552030 0.000000 0.002630 
#    y 0.000000 1.583040 0.000000 
#    z 0.002630 0.000000 1.536350 
# 
# From -- ./inp_files/133222.got.cif
#   From: 2010.05.17/outbox.cif.g08.bks.cpg/sg12_67_cif.got.tgz:133222.got - 2010.06.03 13:09:07.
