data_PCOD9171519
_publ_section_title
;
Structure prediction by ZEFSAII (Michael W. Deem and Ramdas Pophale) SiO2 
 PCOD9171519
Probable space group: C 2/M
;
_chemical_formula_sum "Si O2"
_cell_formula_units_Z 48
_cell_length_a 20.458803
_cell_length_b 9.692566
_cell_length_c 16.427587
_cell_angle_alpha 90.000000
_cell_angle_beta 67.089364
_cell_angle_gamma 90.000000
_cell_volume 3000.583718
_symmetry_space_group_name_H-M "C 2/M"
_symmetry_group_IT_number 12
_symmetry_cell_setting 'monoclinic'
loop_
_space_group_symop_operation_xyz
x,y,z
-x,y,-z
-x,-y,-z
x,-y,z
1/2+x,1/2+y,z
1/2-x,1/2+y,-z
1/2-x,1/2-y,-z
1/2+x,1/2-y,z
loop_
_atom_site_type_symbol
_atom_site_label
_atom_site_fract_x
_atom_site_fract_y
_atom_site_fract_z
Si Si1 0.035695 0.839668 0.610770
Si Si2 0.385650 0.340732 0.585868
Si Si3 0.551580 0.661336 0.050885
Si Si4 0.679122 0.161459 0.248810
Si Si5 0.782960 0.836331 0.057712
Si Si6 0.969148 0.662554 0.778090
O O1 0.094980 0.798221 0.515670
O O2 0.960784 0.836650 0.598067
O O3 0.024699 0.739182 0.691836
O O4 0.047200 0.000000 0.628931
O O5 0.362718 0.500000 0.595731
O O6 0.332969 0.247946 0.663722
O O7 0.544732 0.500000 0.079471
O O8 0.534290 0.760001 0.134487
O O9 0.500000 0.684957 0.000000
O O10 0.632781 0.682664 0.983966
O O11 0.744865 0.204501 0.160365
O O12 0.608371 0.176868 0.227245
O O13 0.686005 0.000000 0.265406
O O14 0.768008 0.000000 0.053260
O O15 0.750000 0.750000 0.000000
O O16 0.983706 0.500000 0.778926
#
# Coordination Sequence:
#
# PCOD9171519 Si02
#       6
#     8   8   8   8   8   8
#     4   8  14  25  40  60  89 122 154 186 224 274
#     4   8  14  24  39  61  89 121 153 185 224 272
#     4  10  21  35  50  68  92 126 164 198 233 276
#     4   9  17  27  41  65  94 120 149 187 233 279
#     4  10  19  32  49  69  94 123 158 196 234 280
#     4  10  18  28  44  67  93 122 155 191 236 281
#
# _framework density 15.996888
#
# number of rings (size 3 to 8) (size 9 to 14) (size 15 to 20)
#    0.000    2.833    1.667    1.500    0.000    2.333 
#    0.000    3.333    0.000    0.000    0.000    1.167 
#    0.000    0.000    0.000    0.000    0.000    0.000 
#
# Total GULP energy -133669.574402 kJ/mol
# GULP energy per Si atom -5569.565600 kJ/mol
# Density = 1.596048 g / cm^3
# Si number density = 15.996888 Si / 1000 Ang^3
#
#
#
# Elastic Constant Matrix: (Units=GPa)
#
#
# Indices 1 2 3 4 5 6 
#
# 1 43.4656 35.5376 38.7553 0.0000 -6.6381 0.0000
# 2 35.5376 91.3297 103.9331 0.0000 -11.4787 0.0000
# 3 38.7553 103.9331 175.0091 0.0000 -29.4484 0.0000
# 4 0.0000 0.0000 0.0000 35.8126 0.0000 -2.8796
# 5 -6.6381 -11.4787 -29.4484 0.0000 12.4800 0.0000
# 6 0.0000 0.0000 0.0000 -2.8796 0.0000 10.0039
#
#
#
# Elastic Compliance Matrix: (Units=1/GPa)
#
#
# Indices 1 2 3 4 5 6 
#
# 1 0.035129 -0.017865 0.005323 0.000000 0.014814 0.000000
# 2 -0.017865 0.049397 -0.032064 0.000000 -0.039729 0.000000
# 3 0.005323 -0.032064 0.031663 0.000000 0.048053 0.000000
# 4 0.000000 0.000000 0.000000 0.028585 0.000000 0.008228
# 5 0.014814 -0.039729 0.048053 0.000000 0.164855 0.000000
# 6 0.000000 0.000000 0.000000 0.008228 0.000000 0.102330
#
#
# Mechanical properties :
#
#
# Convention : Reuss Voigt Hill
#
# Bulk Modulus (GPa) = 37.06923 74.02851 55.54887
# Shear Modulus (GPa) = 9.80077 20.43119 15.11598
#
# Velocity S-wave (km/s) = 2.47790 3.57767 3.07731
# Velocity P-wave (km/s) = 5.60444 7.96515 6.88670
#
# Compressibility (1/GPa) = 0.02697655
#
# Stress axis : x y z
#
# Youngs Moduli (GPa) = 28.46617 20.24425 31.58228
#
# Poissons Ratio (x) = 0.36166 -0.16811
# Poissons Ratio (y) = 0.50854 1.01267
# Poissons Ratio (z) = -0.15152 0.64912
#
# Static dielectric constant tensor:
#      x y z
#    x 1.512690 0.000000 -0.017010 
#    y 0.000000 1.533480 0.000000 
#    z -0.017010 0.000000 1.537570 
# 
# From -- ./inp_files/230373.got.cif
#   From: 2010.05.17/outbox.cif.g08.bks.cpg/sg12_116_cif.got.tgz:230373.got - 2010.06.03 13:09:07.
