data_PCOD9171522
_publ_section_title
;
Structure prediction by ZEFSAII (Michael W. Deem and Ramdas Pophale) SiO2 
 PCOD9171522
Probable space group: C 2/M
;
_chemical_formula_sum "Si O2"
_cell_formula_units_Z 64
_cell_length_a 19.939035
_cell_length_b 8.399239
_cell_length_c 22.226960
_cell_angle_alpha 90.000000
_cell_angle_beta 103.161582
_cell_angle_gamma 90.000000
_cell_volume 3624.628454
_symmetry_space_group_name_H-M "C 2/M"
_symmetry_group_IT_number 12
_symmetry_cell_setting 'monoclinic'
loop_
_space_group_symop_operation_xyz
x,y,z
-x,y,-z
-x,-y,-z
x,-y,z
1/2+x,1/2+y,z
1/2-x,1/2+y,-z
1/2-x,1/2-y,-z
1/2+x,1/2-y,z
loop_
_atom_site_type_symbol
_atom_site_label
_atom_site_fract_x
_atom_site_fract_y
_atom_site_fract_z
Si Si1 0.785991 0.690533 0.947273
Si Si2 0.596100 0.807449 0.190291
Si Si3 0.934193 0.689683 0.564217
Si Si4 0.250841 0.306035 0.191725
Si Si5 0.123141 0.810251 0.700894
Si Si6 0.902593 0.310968 0.430871
Si Si7 0.936844 0.809221 0.945871
Si Si8 0.529744 0.192723 0.301355
O O1 0.786578 0.500000 0.947436
O O2 0.747658 0.743345 0.877920
O O3 0.864258 0.749593 0.957226
O O4 0.750000 0.750000 0.000000
O O5 0.676155 0.757196 0.201911
O O6 0.559282 0.749245 0.122124
O O7 0.560765 0.751734 0.244554
O O8 0.595002 0.000000 0.189522
O O9 0.920264 0.500000 0.562533
O O10 0.893876 0.752619 0.497327
O O11 0.928108 0.751701 0.630988
O O12 0.015678 0.706959 0.566495
O O13 0.251988 0.500000 0.193154
O O14 0.314590 0.250289 0.244722
O O15 0.134645 0.768500 0.633046
O O16 0.049845 0.739874 0.706543
O O17 0.118713 0.000000 0.705577
O O18 0.888231 0.500000 0.427004
O O19 0.936614 0.000000 0.945832
O O20 0.000000 0.752938 0.000000
O O21 0.532912 0.000000 0.303094
#
# Coordination Sequence:
#
# PCOD9171522 Si02
#       8
#     8   8   8   8   8   8   8   8
#     4  10  20  36  56  76  99 127 163 202 240 286
#     4   9  18  34  54  71  90 122 163 200 231 273
#     4   7  11  22  41  62  86 116 148 187 232 274
#     4   8  17  33  49  66  92 126 156 183 225 281
#     4  10  18  28  44  67  95 123 151 187 233 280
#     4   8  13  24  41  61  87 118 153 190 227 269
#     4  10  21  36  53  74 101 131 161 195 240 291
#     4   9  17  30  48  70  92 116 154 198 235 273
#
# _framework density 17.656981999999999
#
# number of rings (size 3 to 8) (size 9 to 14) (size 15 to 20)
#    0.000    3.125    0.000    3.375    0.000    2.500 
#    0.000   15.000    0.000    0.750    0.000    0.000 
#    0.000    0.000    0.000    0.000    0.000    0.750 
#
# Total GULP energy -178152.504555 kJ/mol
# GULP energy per Si atom -5567.265767 kJ/mol
# Density = 1.761679 g / cm^3
# Si number density = 17.656982 Si / 1000 Ang^3
#
#
#
# Elastic Constant Matrix: (Units=GPa)
#
#
# Indices 1 2 3 4 5 6 
#
# 1 57.4970 9.8801 94.9033 0.0000 -1.3461 0.0000
# 2 9.8801 13.8778 22.3191 0.0000 -3.0308 0.0000
# 3 94.9033 22.3191 214.2719 0.0000 -5.3378 0.0000
# 4 0.0000 0.0000 0.0000 24.2962 0.0000 2.0371
# 5 -1.3461 -3.0308 -5.3378 0.0000 25.6766 0.0000
# 6 0.0000 0.0000 0.0000 2.0371 0.0000 15.2313
#
#
#
# Elastic Compliance Matrix: (Units=1/GPa)
#
#
# Indices 1 2 3 4 5 6 
#
# 1 0.064843 -0.000535 -0.028729 0.000000 -0.002636 0.000000
# 2 -0.000535 0.088396 -0.008757 0.000000 0.008586 0.000000
# 3 -0.028729 -0.008757 0.018335 0.000000 0.001272 0.000000
# 4 0.000000 0.000000 0.000000 0.041625 0.000000 -0.005567
# 5 -0.002636 0.008586 0.001272 0.000000 0.040086 0.000000
# 6 0.000000 0.000000 0.000000 -0.005567 0.000000 0.066399
#
#
# Mechanical properties :
#
#
# Convention : Reuss Voigt Hill
#
# Bulk Modulus (GPa) = 10.46771 59.98352 35.22561
# Shear Modulus (GPa) = 11.69398 23.61044 17.65221
#
# Velocity S-wave (km/s) = 2.57628 3.66070 3.16528
# Velocity P-wave (km/s) = 3.84589 7.20507 5.77511
#
# Compressibility (1/GPa) = 0.09553191
#
# Stress axis : x y z
#
# Youngs Moduli (GPa) = 15.42197 11.31267 54.53953
#
# Poissons Ratio (x) = 0.00605 1.56689
# Poissons Ratio (y) = 0.00825 0.47759
# Poissons Ratio (z) = 0.44306 0.09906
#
# Static dielectric constant tensor:
#      x y z
#    x 1.574870 0.000000 -0.003430 
#    y 0.000000 1.610050 0.000000 
#    z -0.003430 0.000000 1.653410 
# 
# From -- ./inp_files/341999.got.cif
#   From: 2010.05.17/outbox.cif.g08.bks.cpg/sg12_171_cif.got.tgz:341999.got - 2010.06.03 13:09:07.
