data_PCOD9171869
_publ_section_title
;
Structure prediction by ZEFSAII (Michael W. Deem and Ramdas Pophale) SiO2 
 PCOD9171869
Probable space group: C 2/M
;
_chemical_formula_sum "Si O2"
_cell_formula_units_Z 64
_cell_length_a 8.947652
_cell_length_b 19.694626
_cell_length_c 16.837022
_cell_angle_alpha 90.000000
_cell_angle_beta 86.129682
_cell_angle_gamma 90.000000
_cell_volume 2960.264455
_symmetry_space_group_name_H-M "C 2/M"
_symmetry_group_IT_number 12
_symmetry_cell_setting 'monoclinic'
loop_
_space_group_symop_operation_xyz
x,y,z
-x,y,-z
-x,-y,-z
x,-y,z
1/2+x,1/2+y,z
1/2-x,1/2+y,-z
1/2-x,1/2-y,-z
1/2+x,1/2-y,z
loop_
_atom_site_type_symbol
_atom_site_label
_atom_site_fract_x
_atom_site_fract_y
_atom_site_fract_z
Si Si1 0.665129 0.917781 0.489384
Si Si2 0.129205 0.580031 0.936274
Si Si3 0.496716 0.420552 0.243541
Si Si4 0.665478 0.920929 0.310876
Si Si5 0.583118 0.417755 0.414879
Si Si6 0.304119 0.725685 0.127139
Si Si7 0.097136 0.844276 0.081957
Si Si8 0.497169 0.834396 0.201058
O O1 0.500000 0.890781 0.500000
O O2 0.719328 0.902589 0.398302
O O3 0.751873 0.897143 0.564669
O O4 0.665978 0.000000 0.492754
O O5 0.114081 0.500000 0.930727
O O6 0.297550 0.597359 0.959334
O O7 0.087606 0.612774 0.853126
O O8 0.000000 0.606675 0.000000
O O9 0.541648 0.500000 0.232924
O O10 0.315848 0.419128 0.252506
O O11 0.546162 0.393924 0.328389
O O12 0.563651 0.376247 0.170902
O O13 0.537676 0.871485 0.281938
O O14 0.613524 0.000000 0.314729
O O15 0.500000 0.397643 0.500000
O O16 0.562745 0.500000 0.411397
O O17 0.217779 0.783950 0.082129
O O18 0.430071 0.685456 0.072158
O O19 0.398097 0.765684 0.193206
O O20 0.163408 0.682626 0.162006
#
# Coordination Sequence:
#
# PCOD9171869 Si02
#       8
#     8   8   8   8   8   8   8   8
#     4   9  17  27  40  66 105 139 172 217 275 341
#     4  10  22  40  61  87 121 151 171 210 274 334
#     4  10  18  28  51  81 107 140 181 229 286 341
#     4  10  18  29  50  79 107 138 176 226 286 339
#     4   9  15  26  42  66 104 141 174 218 277 345
#     4   9  20  35  57  81 107 142 190 235 272 305
#     4  10  19  37  56  82 110 143 191 233 264 323
#     4  10  19  37  57  81 110 143 186 231 267 317
#
# _framework density 21.619689999999999
#
# number of rings (size 3 to 8) (size 9 to 14) (size 15 to 20)
#    0.000    2.375    2.500    0.750    0.000    2.000 
#    0.000   14.375    0.000    1.500    0.000   17.500 
#    0.000    0.000    0.000    0.000    0.000    0.000 
#
# Total GULP energy -178181.495654 kJ/mol
# GULP energy per Si atom -5568.171739 kJ/mol
# Density = 2.157048 g / cm^3
# Si number density = 21.619690 Si / 1000 Ang^3
#
#
#
# Elastic Constant Matrix: (Units=GPa)
#
#
# Indices 1 2 3 4 5 6 
#
# 1 109.5718 25.3147 14.8145 0.0000 0.1926 0.0000
# 2 25.3147 45.5247 11.6467 0.0000 6.2138 0.0000
# 3 14.8145 11.6467 40.0497 0.0000 0.9222 0.0000
# 4 0.0000 0.0000 0.0000 4.8107 0.0000 -4.3565
# 5 0.1926 6.2138 0.9222 0.0000 42.7866 0.0000
# 6 0.0000 0.0000 0.0000 -4.3565 0.0000 27.6707
#
#
#
# Elastic Compliance Matrix: (Units=1/GPa)
#
#
# Indices 1 2 3 4 5 6 
#
# 1 0.010708 -0.005450 -0.002394 0.000000 0.000795 0.000000
# 2 -0.005450 0.026981 -0.005743 0.000000 -0.003770 0.000000
# 3 -0.002394 -0.005743 0.027519 0.000000 0.000252 0.000000
# 4 0.000000 0.000000 0.000000 0.242437 0.000000 0.038169
# 5 0.000795 -0.003770 0.000252 0.000000 0.023910 0.000000
# 6 0.000000 0.000000 0.000000 0.038169 0.000000 0.042149
#
#
# Mechanical properties :
#
#
# Convention : Reuss Voigt Hill
#
# Bulk Modulus (GPa) = 26.29360 33.18867 29.74114
# Shear Modulus (GPa) = 12.09024 24.61162 18.35093
#
# Velocity S-wave (km/s) = 2.36736 3.37766 2.91659
# Velocity P-wave (km/s) = 4.43405 5.53136 5.01282
#
# Compressibility (1/GPa) = 0.03803206
#
# Stress axis : x y z
#
# Youngs Moduli (GPa) = 93.38857 37.06350 36.33854
#
# Poissons Ratio (x) = 0.20201 0.08700
# Poissons Ratio (y) = 0.50900 0.20870
# Poissons Ratio (z) = 0.22359 0.21287
#
# Static dielectric constant tensor:
#      x y z
#    x 1.922530 0.000000 0.021920 
#    y 0.000000 1.807410 0.000000 
#    z 0.021920 0.000000 1.861430 
# 
# From -- ./inp_files/258909.got.cif
#   From: 2010.05.17/outbox.cif.g08.bks.cpg/sg12_130_cif.got.tgz:258909.got - 2010.06.03 13:09:07.
