data_PCOD9171585
_publ_section_title
;
Structure prediction by ZEFSAII (Michael W. Deem and Ramdas Pophale) SiO2 
 PCOD9171585
Probable space group: C 2/M
;
_chemical_formula_sum "Si O2"
_cell_formula_units_Z 56
_cell_length_a 23.306252
_cell_length_b 8.635387
_cell_length_c 19.156325
_cell_angle_alpha 90.000000
_cell_angle_beta 118.237605
_cell_angle_gamma 90.000000
_cell_volume 3396.557360
_symmetry_space_group_name_H-M "C 2/M"
_symmetry_group_IT_number 12
_symmetry_cell_setting 'monoclinic'
loop_
_space_group_symop_operation_xyz
x,y,z
-x,y,-z
-x,-y,-z
x,-y,z
1/2+x,1/2+y,z
1/2-x,1/2+y,-z
1/2-x,1/2-y,-z
1/2+x,1/2-y,z
loop_
_atom_site_type_symbol
_atom_site_label
_atom_site_fract_x
_atom_site_fract_y
_atom_site_fract_z
Si Si1 0.153995 0.816433 0.397664
Si Si2 0.293724 0.314399 0.430789
Si Si3 0.853412 0.185100 0.044737
Si Si4 0.769661 0.313203 0.119002
Si Si5 0.244875 0.685750 0.729800
Si Si6 0.990926 0.313006 0.074825
Si Si7 0.384665 0.184903 0.762991
O O1 0.227400 0.770493 0.416802
O O2 0.152550 0.776701 0.479214
O O3 0.109963 0.731174 0.315418
O O4 0.145309 0.000000 0.385133
O O5 0.283355 0.500000 0.426967
O O6 0.301483 0.259946 0.355924
O O7 0.825662 0.243841 0.102530
O O8 0.923390 0.251826 0.066201
O O9 0.856206 0.000000 0.046521
O O10 0.799226 0.233595 0.955891
O O11 0.773348 0.500000 0.117869
O O12 0.772072 0.266871 0.201144
O O13 0.242024 0.500000 0.722870
O O14 0.318692 0.739392 0.755166
O O15 0.989090 0.500000 0.074289
O O16 0.052768 0.264629 0.156842
O O17 0.000000 0.261637 0.000000
O O18 0.377641 0.000000 0.764101
#
# Coordination Sequence:
#
# PCOD9171585 Si02
#       7
#     8   8   8   8   8   8   8
#     4   9  16  26  40  59  87 121 152 185 225 268
#     4   9  16  25  39  61  89 119 150 185 225 270
#     4  10  20  33  51  71  90 119 156 192 228 265
#     4   9  19  34  49  68  94 121 151 188 230 273
#     4  10  18  28  45  68  94 123 152 187 229 269
#     4  10  21  35  49  67  94 126 155 186 227 271
#     4  10  19  29  44  66  92 124 157 188 225 270
#
# _framework density 16.487280999999999
#
# number of rings (size 3 to 8) (size 9 to 14) (size 15 to 20)
#    0.000    2.429    0.000    4.714    0.000    4.857 
#    0.000    0.000    0.000    0.000    0.000    1.000 
#    0.000    8.000    0.000    0.000    0.000    0.000 
#
# Total GULP energy -156041.331988 kJ/mol
# GULP energy per Si atom -5572.904714 kJ/mol
# Density = 1.644976 g / cm^3
# Si number density = 16.487281 Si / 1000 Ang^3
#
#
#
# Elastic Constant Matrix: (Units=GPa)
#
#
# Indices 1 2 3 4 5 6 
#
# 1 74.0865 12.6208 60.7082 0.0000 -13.2952 0.0000
# 2 12.6208 17.7617 19.8400 0.0000 -3.3399 0.0000
# 3 60.7082 19.8400 146.5830 0.0000 -24.7728 0.0000
# 4 0.0000 0.0000 0.0000 25.9735 0.0000 -2.2838
# 5 -13.2952 -3.3399 -24.7728 0.0000 25.5999 0.0000
# 6 0.0000 0.0000 0.0000 -2.2838 0.0000 17.5756
#
#
#
# Elastic Compliance Matrix: (Units=1/GPa)
#
#
# Indices 1 2 3 4 5 6 
#
# 1 0.021175 -0.006188 -0.007424 0.000000 0.003005 0.000000
# 2 -0.006188 0.068137 -0.006815 0.000000 -0.000919 0.000000
# 3 -0.007424 -0.006815 0.011976 0.000000 0.006844 0.000000
# 4 0.000000 0.000000 0.000000 0.038946 0.000000 0.005061
# 5 0.003005 -0.000919 0.006844 0.000000 0.047127 0.000000
# 6 0.000000 0.000000 0.000000 0.005061 0.000000 0.057555
#
#
# Mechanical properties :
#
#
# Convention : Reuss Voigt Hill
#
# Bulk Modulus (GPa) = 16.54700 47.19658 31.87179
# Shear Modulus (GPa) = 16.34447 23.51396 19.92921
#
# Velocity S-wave (km/s) = 3.15197 3.78059 3.48050
# Velocity P-wave (km/s) = 4.82748 6.90980 5.96028
#
# Compressibility (1/GPa) = 0.06043392
#
# Stress axis : x y z
#
# Youngs Moduli (GPa) = 47.22605 14.67622 83.50096
#
# Poissons Ratio (x) = 0.09082 0.61993
# Poissons Ratio (y) = 0.29224 0.56905
# Poissons Ratio (z) = 0.35061 0.10002
#
# Static dielectric constant tensor:
#      x y z
#    x 1.520640 0.000000 -0.029360 
#    y 0.000000 1.557270 0.000000 
#    z -0.029360 0.000000 1.603080 
# 
# From -- ./inp_files/323802.got.cif
#   From: 2010.05.17/outbox.cif.g08.bks.cpg/sg12_162_cif.got.tgz:323802.got - 2010.06.03 13:09:07.
