data_PCOD9171651
_publ_section_title
;
Structure prediction by ZEFSAII (Michael W. Deem and Ramdas Pophale) SiO2 
 PCOD9171651
Probable space group: C 2/M
;
_chemical_formula_sum "Si O2"
_cell_formula_units_Z 56
_cell_length_a 16.253556
_cell_length_b 29.384792
_cell_length_c 13.664701
_cell_angle_alpha 90.000000
_cell_angle_beta 29.345703
_cell_angle_gamma 90.000000
_cell_volume 3198.425801
_symmetry_space_group_name_H-M "C 2/M"
_symmetry_group_IT_number 12
_symmetry_cell_setting 'monoclinic'
loop_
_space_group_symop_operation_xyz
x,y,z
-x,y,-z
-x,-y,-z
x,-y,z
1/2+x,1/2+y,z
1/2-x,1/2+y,-z
1/2-x,1/2-y,-z
1/2+x,1/2-y,z
loop_
_atom_site_type_symbol
_atom_site_label
_atom_site_fract_x
_atom_site_fract_y
_atom_site_fract_z
Si Si1 0.555877 0.806310 0.334543
Si Si2 0.213378 0.447848 0.675671
Si Si3 0.525289 0.177221 0.783206
Si Si4 0.880303 0.411953 0.009640
Si Si5 0.368426 0.289584 0.512665
Si Si6 0.341616 0.752839 0.094104
Si Si7 0.017275 0.885804 0.364297
O O1 0.500000 0.821902 0.500000
O O2 0.513507 0.837692 0.286932
O O3 0.456842 0.759138 0.409397
O O4 0.746689 0.791048 0.152799
O O5 0.269374 0.500000 0.618726
O O6 0.360716 0.414839 0.485087
O O7 0.031201 0.443263 0.813131
O O8 0.171534 0.431530 0.830291
O O9 0.475651 0.136823 0.908669
O O10 0.711494 0.196606 0.607071
O O11 0.403190 0.217951 0.939772
O O12 0.700876 0.403767 0.144413
O O13 0.283784 0.282954 0.707999
O O14 0.491265 0.332257 0.373804
O O15 0.500000 0.742664 0.000000
O O16 0.000000 0.890903 0.500000
#
# Coordination Sequence:
#
# PCOD9171651 Si02
#       7
#     8   8   8   8   8   8   8
#     4  10  20  33  44  64  92 127 170 207 248 281
#     4  10  20  33  47  69 103 131 155 191 239 302
#     4  11  19  29  48  66  92 127 165 208 243 282
#     4  10  19  29  45  68  92 125 163 190 230 281
#     4  10  18  31  45  66  93 124 162 204 240 287
#     4   9  18  28  45  64  88 118 159 205 244 284
#     4  10  18  28  46  67  96 130 162 188 229 282
#
# _framework density 17.508613
#
# number of rings (size 3 to 8) (size 9 to 14) (size 15 to 20)
#    0.000    2.000    1.429    5.571    4.000    3.143 
#    0.000    0.000    0.000    0.000    0.000    0.000 
#    0.000    2.286    0.000    1.286    0.000    0.000 
#
# Total GULP energy -155896.691253 kJ/mol
# GULP energy per Si atom -5567.738973 kJ/mol
# Density = 1.746876 g / cm^3
# Si number density = 17.508613 Si / 1000 Ang^3
#
#
#
# Elastic Constant Matrix: (Units=GPa)
#
#
# Indices 1 2 3 4 5 6 
#
# 1 53.9991 3.1370 13.8294 0.0001 4.1112 0.0000
# 2 3.1370 30.9862 11.2145 0.0000 -2.1151 0.0000
# 3 13.8294 11.2145 44.7327 0.0028 -19.8067 -0.0005
# 4 0.0001 0.0000 0.0028 11.6487 -0.0005 -3.0079
# 5 4.1112 -2.1151 -19.8067 -0.0005 28.4285 0.0000
# 6 0.0000 0.0000 -0.0005 -3.0079 0.0000 10.3420
#
#
#
# Elastic Compliance Matrix: (Units=1/GPa)
#
#
# Indices 1 2 3 4 5 6 
#
# 1 0.022585 0.001476 -0.012653 0.000002 -0.011972 0.000000
# 2 0.001476 0.036118 -0.012170 0.000003 -0.006005 0.000000
# 3 -0.012653 -0.012170 0.042989 -0.000009 0.030876 -0.000001
# 4 0.000002 0.000003 -0.000009 0.092818 -0.000005 0.026995
# 5 -0.011972 -0.006005 0.030876 -0.000005 0.057972 0.000000
# 6 0.000000 0.000000 -0.000001 0.026995 0.000000 0.104545
#
#
# Mechanical properties :
#
#
# Convention : Reuss Voigt Hill
#
# Bulk Modulus (GPa) = 18.18290 20.67552 19.42921
# Shear Modulus (GPa) = 11.84684 16.85299 14.34992
#
# Velocity S-wave (km/s) = 2.60403 3.10587 2.86596
# Velocity P-wave (km/s) = 4.41010 4.96954 4.69815
#
# Compressibility (1/GPa) = 0.05499674
#
# Stress axis : x y z
#
# Youngs Moduli (GPa) = 44.27680 27.68731 23.26175
#
# Poissons Ratio (x) = -0.04086 0.29434
# Poissons Ratio (y) = -0.06534 0.28310
# Poissons Ratio (z) = 0.56025 0.33695
#
# Static dielectric constant tensor:
#      x y z
#    x 1.657240 0.000000 -0.046130 
#    y 0.000000 1.622330 0.000000 
#    z -0.046130 0.000000 1.641740 
# 
# From -- ./inp_files/67052.got.cif
#   From: 2010.05.17/outbox.cif.g08.bks.cpg/sg12_34_cif.got.tgz:67052.got - 2010.06.03 13:09:07.
