data_PCOD9171289
_publ_section_title
;
Structure prediction by ZEFSAII (Michael W. Deem and Ramdas Pophale) SiO2 
 PCOD9171289
Probable space group: C 2/M
;
_chemical_formula_sum "Si O2"
_cell_formula_units_Z 42
_cell_length_a 15.976093
_cell_length_b 14.670771
_cell_length_c 19.992468
_cell_angle_alpha 90.000000
_cell_angle_beta 158.981411
_cell_angle_gamma 90.000000
_cell_volume 1680.683647
_symmetry_space_group_name_H-M "C 2/M"
_symmetry_group_IT_number 12
_symmetry_cell_setting 'monoclinic'
loop_
_space_group_symop_operation_xyz
x,y,z
-x,y,-z
-x,-y,-z
x,-y,z
1/2+x,1/2+y,z
1/2-x,1/2+y,-z
1/2-x,1/2-y,-z
1/2+x,1/2-y,z
loop_
_atom_site_type_symbol
_atom_site_label
_atom_site_fract_x
_atom_site_fract_y
_atom_site_fract_z
Si Si1 0.998602 0.862669 0.192441
Si Si2 0.302798 0.357552 0.525553
Si Si3 0.243788 0.663719 0.221970
Si Si4 0.000000 0.000000 0.000000
Si Si5 0.027900 0.358328 0.196179
Si Si6 0.208521 0.373053 0.707302
O O1 0.168621 0.894039 0.378414
O O2 0.022324 0.752626 0.200343
O O3 0.069513 0.898490 0.173637
O O4 0.735759 0.885567 0.014887
O O5 0.250000 0.250000 0.500000
O O6 0.548367 0.370518 0.669831
O O7 0.116144 0.392432 0.333346
O O8 0.192669 0.619109 0.256207
O O9 0.314083 0.767338 0.292201
O O10 0.000000 0.663171 0.000000
O O11 0.210870 0.077479 0.166202
O O12 0.000000 0.395646 0.500000
#
# Coordination Sequence:
#
# PCOD9171289 Si02
#       6
#     8   8   8   2   8   8
#     4   9  18  30  46  69  95 127 166 206 241 294
#     4  10  18  27  45  70 101 139 170 198 239 294
#     4  11  18  31  50  73 109 143 172 201 245 301
#     4  12  26  40  56  70  92 130 182 230 264 300
#     4   9  17  28  44  70 101 132 166 196 234 297
#     4  11  23  38  53  71  97 134 177 217 260 299
#
# _framework density 24.989830999999999
#
# number of rings (size 3 to 8) (size 9 to 14) (size 15 to 20)
#    0.000    1.905    2.857    4.286    2.667    1.524 
#    0.000    0.000    0.000    0.000    0.000    0.000 
#    0.000    3.048    0.000   23.143    0.000    0.000 
#
# Total GULP energy -117041.012153 kJ/mol
# GULP energy per Si atom -5573.381531 kJ/mol
# Density = 2.493295 g / cm^3
# Si number density = 24.989831 Si / 1000 Ang^3
#
#
#
# Elastic Constant Matrix: (Units=GPa)
#
#
# Indices 1 2 3 4 5 6 
#
# 1 129.9889 -15.2206 11.2063 -0.0074 -11.3658 0.0335
# 2 -15.2206 58.0600 -8.2143 0.1572 -8.0162 -0.2057
# 3 11.2063 -8.2143 137.3059 0.1370 -37.8534 -0.0925
# 4 -0.0074 0.1572 0.1370 -158.7195 0.0509 158.4902
# 5 -11.3658 -8.0162 -37.8534 0.0509 49.0339 -0.0390
# 6 0.0335 -0.2057 -0.0925 158.4902 -0.0390 -191.1238
#
#
#
# Elastic Compliance Matrix: (Units=1/GPa)
#
#
# Indices 1 2 3 4 5 6 
#
# 1 0.008185 0.002501 0.000149 0.000007 0.002421 0.000004
# 2 0.002501 0.019002 0.002476 0.000002 0.005598 -0.000021
# 3 0.000149 0.002476 0.009579 0.000025 0.007834 0.000012
# 4 0.000007 0.000002 0.000025 -0.036642 0.000035 -0.030386
# 5 0.002421 0.005598 0.007834 0.000035 0.027918 0.000014
# 6 0.000004 -0.000021 0.000012 -0.030386 0.000014 -0.030430
#
#
# Mechanical properties :
#
#
# Convention : Reuss Voigt Hill
#
# Bulk Modulus (GPa) = 21.26873 33.43307 27.35090
# Shear Modulus (GPa) = 1648.92038 -37.65632 805.63203
#
# Velocity S-wave (km/s) = 25.71515 -3.88605 17.97453
# Velocity P-wave (km/s) = 29.83658 2.59373 21.01778
#
# Compressibility (1/GPa) = 0.04701738
#
# Stress axis : x y z
#
# Youngs Moduli (GPa) = 122.17989 52.62535 104.39908
#
# Poissons Ratio (x) = -0.13162 -0.01556
# Poissons Ratio (y) = -0.30557 -0.25847
# Poissons Ratio (z) = -0.01822 -0.13029
#
# Static dielectric constant tensor:
#      x y z
#    x 2.027820 -0.000030 -0.036170 
#    y -0.000030 2.082620 -0.000080 
#    z -0.036170 -0.000080 1.983040 
# 
# From -- ./inp_files/317272.got.cif
#   From: 2010.05.17/outbox.cif.g08.bks.cpg/sg12_159_cif.got.tgz:317272.got - 2010.06.03 13:09:07.
