data_PCOD9171500
_publ_section_title
;
Structure prediction by ZEFSAII (Michael W. Deem and Ramdas Pophale) SiO2 
 PCOD9171500
Probable space group: C 2/M
;
_chemical_formula_sum "Si O2"
_cell_formula_units_Z 56
_cell_length_a 24.840828
_cell_length_b 7.356821
_cell_length_c 16.081508
_cell_angle_alpha 90.000000
_cell_angle_beta 63.020976
_cell_angle_gamma 90.000000
_cell_volume 2619.056622
_symmetry_space_group_name_H-M "C 2/M"
_symmetry_group_IT_number 12
_symmetry_cell_setting 'monoclinic'
loop_
_space_group_symop_operation_xyz
x,y,z
-x,y,-z
-x,-y,-z
x,-y,z
1/2+x,1/2+y,z
1/2-x,1/2+y,-z
1/2-x,1/2-y,-z
1/2+x,1/2-y,z
loop_
_atom_site_type_symbol
_atom_site_label
_atom_site_fract_x
_atom_site_fract_y
_atom_site_fract_z
Si Si1 0.905006 0.778019 0.961226
Si Si2 0.219411 0.217951 0.265718
Si Si3 0.358206 0.284102 0.172265
Si Si4 0.692814 0.716598 0.099035
Si Si5 0.470028 0.278140 0.198775
Si Si6 0.596485 0.278771 0.422685
Si Si7 0.506748 0.278575 0.629778
O O1 0.865562 0.716362 0.909935
O O2 0.974352 0.726024 0.899664
O O3 0.903014 0.000000 0.962906
O O4 0.875074 0.714799 0.068172
O O5 0.288170 0.256316 0.241398
O O6 0.206186 0.287825 0.181595
O O7 0.165147 0.282069 0.362746
O O8 0.214862 0.000000 0.266069
O O9 0.367279 0.500000 0.161770
O O10 0.406544 0.215934 0.205392
O O11 0.684924 0.500000 0.113221
O O12 0.750000 0.750000 0.000000
O O13 0.469429 0.500000 0.201717
O O14 0.483665 0.217323 0.282997
O O15 0.596059 0.500000 0.424626
O O16 0.560788 0.221491 0.530204
O O17 0.555560 0.224994 0.371882
O O18 0.506191 0.500000 0.631587
#
# Coordination Sequence:
#
# PCOD9171500 Si02
#       7
#     8   8   8   8   8   8   8
#     4   9  16  27  43  63  87 115 147 186 226 259
#     4  10  19  30  45  66  93 122 148 176 220 271
#     4  10  19  30  44  64  92 122 152 184 216 258
#     4  10  18  28  44  65  89 115 143 178 218 261
#     4   9  16  26  43  65  86 113 152 192 224 255
#     4   8  14  25  43  67  92 115 140 181 233 271
#     4   8  13  24  43  67  91 111 142 189 231 263
#
# _framework density 21.381744999999999
#
# number of rings (size 3 to 8) (size 9 to 14) (size 15 to 20)
#    0.000    2.857    1.429    2.143    0.000    5.143 
#    0.000    0.714    0.000    2.571    0.000    3.000 
#    0.000    0.000    0.000    0.000    0.000    0.000 
#
# Total GULP energy -156330.813772 kJ/mol
# GULP energy per Si atom -5583.243349 kJ/mol
# Density = 2.133308 g / cm^3
# Si number density = 21.381745 Si / 1000 Ang^3
#
#
#
# Elastic Constant Matrix: (Units=GPa)
#
#
# Indices 1 2 3 4 5 6 
#
# 1 128.2325 0.6744 65.8444 0.0000 -33.5749 0.0001
# 2 0.6744 77.0591 -5.5602 0.0001 3.0269 0.0003
# 3 65.8444 -5.5602 102.6329 0.0000 -33.4615 0.0000
# 4 0.0000 0.0001 0.0000 5.2894 0.0000 -9.1471
# 5 -33.5749 3.0269 -33.4615 0.0000 31.9013 0.0000
# 6 0.0001 0.0003 0.0000 -9.1471 0.0000 2.0896
#
#
#
# Elastic Compliance Matrix: (Units=1/GPa)
#
#
# Indices 1 2 3 4 5 6 
#
# 1 0.012708 -0.000819 -0.005792 0.000000 0.007377 0.000000
# 2 -0.000819 0.013093 0.000834 0.000000 -0.001230 0.000000
# 3 -0.005792 0.000834 0.017463 0.000000 0.012142 0.000000
# 4 0.000000 0.000000 0.000000 -0.028776 0.000000 -0.125964
# 5 0.007377 -0.001230 0.012142 0.000000 0.051964 0.000000
# 6 0.000000 0.000000 0.000000 -0.125964 0.000000 -0.072839
#
#
# Mechanical properties :
#
#
# Convention : Reuss Voigt Hill
#
# Bulk Modulus (GPa) = 31.53603 47.76020 39.64811
# Shear Modulus (GPa) = 317.71670 24.32046 171.01858
#
# Velocity S-wave (km/s) = 12.20308 3.37625 8.95305
# Velocity P-wave (km/s) = 14.60598 6.13059 11.20086
#
# Compressibility (1/GPa) = 0.03170976
#
# Stress axis : x y z
#
# Youngs Moduli (GPa) = 78.68797 76.37859 57.26249
#
# Poissons Ratio (x) = 0.06255 0.33168
# Poissons Ratio (y) = 0.06444 -0.04775
# Poissons Ratio (z) = 0.45578 -0.06369
#
# Static dielectric constant tensor:
#      x y z
#    x 1.751480 0.000000 -0.009410 
#    y 0.000000 1.868900 0.000000 
#    z -0.009410 0.000000 1.746310 
# 
# From -- ./inp_files/231937.got.cif
#   From: 2010.05.17/outbox.cif.g08.bks.cpg/sg12_116_cif.got.tgz:231937.got - 2010.06.03 13:09:07.
