data_PCOD9171644
_publ_section_title
;
Structure prediction by ZEFSAII (Michael W. Deem and Ramdas Pophale) SiO2 
 PCOD9171644
Probable space group: C 2/M
;
_chemical_formula_sum "Si O2"
_cell_formula_units_Z 56
_cell_length_a 23.654359
_cell_length_b 13.982857
_cell_length_c 20.573302
_cell_angle_alpha 90.000000
_cell_angle_beta 155.152930
_cell_angle_gamma 90.000000
_cell_volume 2859.333262
_symmetry_space_group_name_H-M "C 2/M"
_symmetry_group_IT_number 12
_symmetry_cell_setting 'monoclinic'
loop_
_space_group_symop_operation_xyz
x,y,z
-x,y,-z
-x,-y,-z
x,-y,z
1/2+x,1/2+y,z
1/2-x,1/2+y,-z
1/2-x,1/2-y,-z
1/2+x,1/2-y,z
loop_
_atom_site_type_symbol
_atom_site_label
_atom_site_fract_x
_atom_site_fract_y
_atom_site_fract_z
Si Si1 0.146551 0.698892 0.118001
Si Si2 0.569496 0.393175 0.002873
Si Si3 0.639532 0.884130 0.358400
Si Si4 0.885768 0.115389 0.693609
Si Si5 0.850848 0.614166 0.020205
Si Si6 0.442604 0.383732 0.254655
Si Si7 0.191224 0.884729 0.595612
O O1 0.172817 0.806980 0.120258
O O2 0.253555 0.664132 0.282338
O O3 0.141504 0.634356 0.048609
O O4 0.000000 0.695860 0.000000
O O5 0.617106 0.500000 0.032513
O O6 0.500000 0.403546 0.000000
O O7 0.457160 0.356521 0.834653
O O8 0.737412 0.849879 0.518427
O O9 0.486857 0.849089 0.196106
O O10 0.711338 0.863822 0.364303
O O11 0.636076 0.000000 0.359191
O O12 0.983825 0.138297 0.736058
O O13 0.876300 0.000000 0.687310
O O14 0.849778 0.500000 0.028814
O O15 0.708733 0.652997 0.897481
O O16 0.438101 0.500000 0.252917
O O17 0.542395 0.354717 0.417100
O O18 0.192910 0.000000 0.606281
#
# Coordination Sequence:
#
# PCOD9171644 Si02
#       7
#     8   8   8   8   8   8   8
#     4  11  20  29  46  71 103 134 171 203 248 285
#     4   9  19  35  54  75  94 119 168 226 260 286
#     4   8  14  25  46  73 103 132 159 191 239 294
#     4   8  14  30  53  73  94 127 163 206 256 291
#     4  10  18  28  45  77 112 139 162 189 229 300
#     4   8  16  29  48  75 106 136 165 191 233 298
#     4   9  16  28  46  73 108 141 163 188 232 296
#
# _framework density 19.584986000000001
#
# number of rings (size 3 to 8) (size 9 to 14) (size 15 to 20)
#    0.000    3.000    1.429    2.143    0.000    1.143 
#    0.000    3.571    0.000    0.000    7.429    2.000 
#    0.000    0.857    0.000    0.000    0.000    0.000 
#
# Total GULP energy -156084.737227 kJ/mol
# GULP energy per Si atom -5574.454901 kJ/mol
# Density = 1.954041 g / cm^3
# Si number density = 19.584986 Si / 1000 Ang^3
#
#
#
# Elastic Constant Matrix: (Units=GPa)
#
#
# Indices 1 2 3 4 5 6 
#
# 1 36.1251 -7.5904 83.0673 -0.0002 -7.8428 0.0000
# 2 -7.5904 56.7193 41.9856 -0.0001 -7.0868 0.0000
# 3 83.0673 41.9856 164.6144 0.0000 -10.1776 -0.0001
# 4 -0.0002 -0.0001 0.0000 1.6935 -0.0001 18.1809
# 5 -7.8428 -7.0868 -10.1776 -0.0001 40.4537 0.0000
# 6 0.0000 0.0000 -0.0001 18.1809 0.0000 -37.3704
#
#
#
# Elastic Compliance Matrix: (Units=1/GPa)
#
#
# Indices 1 2 3 4 5 6 
#
# 1 -0.040712 -0.026019 0.026828 -0.000001 -0.005701 0.000000
# 2 -0.026019 0.005347 0.011694 0.000000 -0.001166 0.000000
# 3 0.026828 0.011694 -0.010155 0.000001 0.004695 0.000000
# 4 -0.000001 0.000000 0.000001 0.094890 0.000000 0.046164
# 5 -0.005701 -0.001166 0.004695 0.000000 0.024591 0.000000
# 6 0.000000 0.000000 0.000000 0.046164 0.000000 -0.004300
#
#
# Mechanical properties :
#
#
# Convention : Reuss Voigt Hill
#
# Bulk Modulus (GPa) = -48.74401 54.70933 2.98266
# Shear Modulus (GPa) = 132.21269 10.28843 71.25056
#
# Velocity S-wave (km/s) = 8.22519 2.29448 6.03814
# Velocity P-wave (km/s) = 8.07852 5.91730 7.08085
#
# Compressibility (1/GPa) = -0.02051534
#
# Stress axis : x y z
#
# Youngs Moduli (GPa) = -24.56302 187.02929 -98.47138
#
# Poissons Ratio (x) = 4.86636 2.64175
# Poissons Ratio (y) = -0.63911 1.15152
# Poissons Ratio (z) = 0.65897 -2.18712
#
# Static dielectric constant tensor:
#      x y z
#    x 1.652170 0.000000 0.012160 
#    y 0.000000 1.761160 0.000000 
#    z 0.012160 0.000000 1.710790 
# 
# From -- ./inp_files/284567.got.cif
#   From: 2010.05.17/outbox.cif.g08.bks.cpg/sg12_143_cif.got.tgz:284567.got - 2010.06.03 13:09:07.
