data_PCOD9171586
_publ_section_title
;
Structure prediction by ZEFSAII (Michael W. Deem and Ramdas Pophale) SiO2 
 PCOD9171586
Probable space group: C 2/M
;
_chemical_formula_sum "Si O2"
_cell_formula_units_Z 64
_cell_length_a 30.422408
_cell_length_b 15.273259
_cell_length_c 12.990433
_cell_angle_alpha 90.000000
_cell_angle_beta 150.685896
_cell_angle_gamma 90.000000
_cell_volume 2955.206088
_symmetry_space_group_name_H-M "C 2/M"
_symmetry_group_IT_number 12
_symmetry_cell_setting 'monoclinic'
loop_
_space_group_symop_operation_xyz
x,y,z
-x,y,-z
-x,-y,-z
x,-y,z
1/2+x,1/2+y,z
1/2-x,1/2+y,-z
1/2-x,1/2-y,-z
1/2+x,1/2-y,z
loop_
_atom_site_type_symbol
_atom_site_label
_atom_site_fract_x
_atom_site_fract_y
_atom_site_fract_z
Si Si1 0.796284 0.098257 0.796363
Si Si2 0.534141 0.271006 0.186020
Si Si3 0.321736 0.250001 0.999649
Si Si4 0.771898 0.592050 0.768196
Si Si5 0.437817 0.399307 0.587666
Si Si6 0.417107 0.103563 0.588891
Si Si7 0.792227 0.841221 0.559942
Si Si8 0.887014 0.738065 0.353670
O O1 0.835109 0.163177 0.960827
O O2 0.687159 0.106057 0.584962
O O3 0.818870 0.117023 0.722756
O O4 0.821665 0.000000 0.873286
O O5 0.506599 0.349423 0.207870
O O6 0.533059 0.175733 0.236921
O O7 0.632674 0.307125 0.364179
O O8 0.500000 0.266170 0.000000
O O9 0.324921 0.171196 0.925730
O O10 0.218286 0.253362 0.828097
O O11 0.384843 0.234586 0.226226
O O12 0.812960 0.500000 0.883210
O O13 0.668828 0.592427 0.599572
O O14 0.768808 0.600104 0.638279
O O15 0.466708 0.500000 0.627347
O O16 0.435053 0.326454 0.492100
O O17 0.419526 0.151907 0.482160
O O18 0.443331 0.000000 0.643135
O O19 0.750000 0.750000 0.500000
#
# Coordination Sequence:
#
# PCOD9171586 Si02
#       8
#     8   8   8   8   8   8   8   8
#     4  10  18  28  45  68  94 127 159 190 234 282
#     4  10  20  32  48  71  96 123 159 195 232 272
#     4   9  15  25  38  62  94 120 153 194 229 273
#     4   9  16  25  40  61  88 121 153 185 225 271
#     4   8  15  28  43  60  85 119 154 187 228 274
#     4   9  17  30  46  67  94 125 158 191 231 283
#     4  11  17  31  48  64  95 130 154 188 228 280
#     4   8  15  25  40  61  91 124 152 188 234 278
#
# _framework density 21.656696
#
# number of rings (size 3 to 8) (size 9 to 14) (size 15 to 20)
#    0.000    2.750    2.500    1.875    0.000    2.000 
#    0.000    5.000    0.000    0.000    0.000    3.500 
#    0.000    6.000    0.000    0.000    0.000    0.000 
#
# Total GULP energy -178215.910844 kJ/mol
# GULP energy per Si atom -5569.247214 kJ/mol
# Density = 2.160740 g / cm^3
# Si number density = 21.656696 Si / 1000 Ang^3
#
#
#
# Elastic Constant Matrix: (Units=GPa)
#
#
# Indices 1 2 3 4 5 6 
#
# 1 60.4395 33.6347 18.4679 0.0000 -13.4237 0.0000
# 2 33.6347 218.9772 64.4778 0.0000 -37.3815 0.0000
# 3 18.4679 64.4778 77.2202 0.0000 -41.7891 0.0000
# 4 0.0000 0.0000 0.0000 8.7808 0.0000 -2.8748
# 5 -13.4237 -37.3815 -41.7891 0.0000 43.3549 0.0000
# 6 0.0000 0.0000 0.0000 -2.8748 0.0000 7.3147
#
#
#
# Elastic Compliance Matrix: (Units=1/GPa)
#
#
# Indices 1 2 3 4 5 6 
#
# 1 0.018680 -0.002017 -0.001242 0.000000 0.002847 0.000000
# 2 -0.002017 0.006284 -0.004537 0.000000 0.000420 0.000000
# 3 -0.001242 -0.004537 0.030751 0.000000 0.025343 0.000000
# 4 0.000000 0.000000 0.000000 0.130703 0.000000 0.051369
# 5 0.002847 0.000420 0.025343 0.000000 0.048737 0.000000
# 6 0.000000 0.000000 0.000000 0.051369 0.000000 0.156901
#
#
# Mechanical properties :
#
#
# Convention : Reuss Voigt Hill
#
# Bulk Modulus (GPa) = 24.92479 65.53308 45.22894
# Shear Modulus (GPa) = 11.87579 27.89385 19.88482
#
# Velocity S-wave (km/s) = 2.34426 3.59277 3.03344
# Velocity P-wave (km/s) = 4.34298 6.89466 5.76185
#
# Compressibility (1/GPa) = 0.04012069
#
# Stress axis : x y z
#
# Youngs Moduli (GPa) = 53.53300 159.12545 32.51959
#
# Poissons Ratio (x) = 0.32103 0.04040
# Poissons Ratio (y) = 0.10800 0.14755
# Poissons Ratio (z) = 0.06651 0.72201
#
# Static dielectric constant tensor:
#      x y z
#    x 1.793380 0.000000 -0.031800 
#    y 0.000000 1.747300 0.000000 
#    z -0.031800 0.000000 1.873800 
# 
# From -- ./inp_files/189484.got.cif
#   From: 2010.05.17/outbox.cif.g08.bks.cpg/sg12_95_cif.got.tgz:189484.got - 2010.06.03 13:09:07.
