data_PCOD9171393
_publ_section_title
;
Structure prediction by ZEFSAII (Michael W. Deem and Ramdas Pophale) SiO2 
 PCOD9171393
Probable space group: C 2/M
;
_chemical_formula_sum "Si O2"
_cell_formula_units_Z 64
_cell_length_a 28.353671
_cell_length_b 8.905264
_cell_length_c 22.942898
_cell_angle_alpha 90.000000
_cell_angle_beta 132.666483
_cell_angle_gamma 90.000000
_cell_volume 4259.665912
_symmetry_space_group_name_H-M "C 2/M"
_symmetry_group_IT_number 12
_symmetry_cell_setting 'monoclinic'
loop_
_space_group_symop_operation_xyz
x,y,z
-x,y,-z
-x,-y,-z
x,-y,z
1/2+x,1/2+y,z
1/2-x,1/2+y,-z
1/2-x,1/2-y,-z
1/2+x,1/2-y,z
loop_
_atom_site_type_symbol
_atom_site_label
_atom_site_fract_x
_atom_site_fract_y
_atom_site_fract_z
Si Si1 0.398252 0.318708 0.522504
Si Si2 0.533074 0.672078 0.591740
Si Si3 0.848206 0.321674 0.359704
Si Si4 0.875893 0.320214 0.736689
Si Si5 0.788600 0.320307 0.774453
Si Si6 0.820734 0.318666 0.564616
Si Si7 0.486976 0.323997 0.894935
Si Si8 0.602580 0.322873 0.064749
O O1 0.392459 0.500000 0.517226
O O2 0.474290 0.281597 0.583859
O O3 0.366045 0.254759 0.436615
O O4 0.363663 0.247431 0.548747
O O5 0.500000 0.671406 0.500000
O O6 0.551991 0.500000 0.620372
O O7 0.595235 0.774412 0.637420
O O8 0.846352 0.500000 0.365130
O O9 0.780011 0.258317 0.282409
O O10 0.879023 0.500000 0.741135
O O11 0.825819 0.274923 0.745754
O O12 0.850267 0.275293 0.652058
O O13 0.945862 0.257467 0.811344
O O14 0.781488 0.500000 0.768373
O O15 0.834180 0.267917 0.865570
O O16 0.817922 0.500000 0.558886
O O17 0.750000 0.250000 0.500000
O O18 0.492285 0.500000 0.885574
O O19 0.442908 0.311664 0.916124
O O20 0.557528 0.269743 0.973642
O O21 0.616869 0.500000 0.068873
#
# Coordination Sequence:
#
# PCOD9171393 Si02
#       8
#     8   8   8   8   8   8   8   8
#     4  10  20  34  49  64  85 114 148 185 222 261
#     4   8  16  31  48  64  84 110 139 176 221 264
#     4  11  20  29  45  67  89 114 144 179 219 264
#     4   9  19  31  42  59  84 114 149 185 216 251
#     4  10  18  28  42  61  88 120 149 177 214 259
#     4  11  22  34  47  64  88 119 153 189 224 256
#     4   8  14  25  42  59  79 109 142 177 215 255
#     4   8  14  25  39  59  84 109 140 176 214 255
#
# _framework density 15.024652
#
# number of rings (size 3 to 8) (size 9 to 14) (size 15 to 20)
#    0.000    2.625    0.000    4.500    0.000    5.750 
#    0.000    2.500    0.000    0.000    0.000    0.000 
#    0.000    1.000    0.000    3.250    0.000    4.750 
#
# Total GULP energy -178261.146773 kJ/mol
# GULP energy per Si atom -5570.660837 kJ/mol
# Density = 1.499046 g / cm^3
# Si number density = 15.024652 Si / 1000 Ang^3
#
#
#
# Elastic Constant Matrix: (Units=GPa)
#
#
# Indices 1 2 3 4 5 6 
#
# 1 90.1225 40.3497 53.7819 0.0000 14.8911 0.0000
# 2 40.3497 59.3634 48.3140 0.0000 14.4500 0.0001
# 3 53.7819 48.3140 122.0606 0.0000 21.2766 0.0000
# 4 0.0000 0.0000 0.0000 26.0955 0.0000 4.7225
# 5 14.8911 14.4500 21.2766 0.0000 19.1815 0.0000
# 6 0.0000 0.0001 0.0000 4.7225 0.0000 20.1039
#
#
#
# Elastic Compliance Matrix: (Units=1/GPa)
#
#
# Indices 1 2 3 4 5 6 
#
# 1 0.017572 -0.007843 -0.004079 0.000000 -0.003209 0.000000
# 2 -0.007843 0.029892 -0.006833 0.000000 -0.008850 0.000000
# 3 -0.004079 -0.006833 0.013941 0.000000 -0.007149 0.000000
# 4 0.000000 0.000000 0.000000 0.040022 0.000000 -0.009401
# 5 -0.003209 -0.008850 -0.007149 0.000000 0.069222 0.000000
# 6 0.000000 0.000000 0.000000 -0.009401 0.000000 0.051950
#
#
# Mechanical properties :
#
#
# Convention : Reuss Voigt Hill
#
# Bulk Modulus (GPa) = 41.85076 61.82640 51.83858
# Shear Modulus (GPa) = 18.65159 21.68291 20.16725
#
# Velocity S-wave (km/s) = 3.52717 3.80301 3.66769
# Velocity P-wave (km/s) = 6.67107 7.77966 7.24659
#
# Compressibility (1/GPa) = 0.02389443
#
# Stress axis : x y z
#
# Youngs Moduli (GPa) = 56.90986 33.45353 71.73218
#
# Poissons Ratio (x) = 0.26238 0.29256
# Poissons Ratio (y) = 0.44635 0.49018
# Poissons Ratio (z) = 0.23211 0.22860
#
# Static dielectric constant tensor:
#      x y z
#    x 1.495900 0.000000 0.010570 
#    y 0.000000 1.501680 0.000000 
#    z 0.010570 0.000000 1.502980 
# 
# From -- ./inp_files/326977.got.cif
#   From: 2010.05.17/outbox.cif.g08.bks.cpg/sg12_164_cif.got.tgz:326977.got - 2010.06.03 13:09:07.
