data_PCOD9171260
_publ_section_title
;
Structure prediction by ZEFSAII (Michael W. Deem and Ramdas Pophale) SiO2 
 PCOD9171260
Probable space group: C 2/M
;
_chemical_formula_sum "Si O2"
_cell_formula_units_Z 56
_cell_length_a 33.782140
_cell_length_b 14.382431
_cell_length_c 9.257164
_cell_angle_alpha 90.000000
_cell_angle_beta 126.646517
_cell_angle_gamma 90.000000
_cell_volume 3608.711396
_symmetry_space_group_name_H-M "C 2/M"
_symmetry_group_IT_number 12
_symmetry_cell_setting 'monoclinic'
loop_
_space_group_symop_operation_xyz
x,y,z
-x,y,-z
-x,-y,-z
x,-y,z
1/2+x,1/2+y,z
1/2-x,1/2+y,-z
1/2-x,1/2-y,-z
1/2+x,1/2-y,z
loop_
_atom_site_type_symbol
_atom_site_label
_atom_site_fract_x
_atom_site_fract_y
_atom_site_fract_z
Si Si1 0.231381 0.107812 0.928081
Si Si2 0.868898 0.606541 0.969673
Si Si3 0.213967 0.608604 0.460065
Si Si4 0.138070 0.721003 0.470274
Si Si5 0.191850 0.892224 0.512103
Si Si6 0.168688 0.722314 0.856781
Si Si7 0.057221 0.609500 0.122583
O O1 0.217260 0.113833 0.726509
O O2 0.193809 0.176369 0.929019
O O3 0.229058 0.000000 0.965798
O O4 0.285538 0.150924 0.062218
O O5 0.867553 0.500000 0.023625
O O6 0.823439 0.614853 0.757749
O O7 0.917831 0.618890 0.980593
O O8 0.862060 0.682559 0.077486
O O9 0.215966 0.500000 0.506056
O O10 0.188031 0.667394 0.528098
O O11 0.267745 0.636692 0.519703
O O12 0.146038 0.822949 0.419963
O O13 0.138152 0.724765 0.642435
O O14 0.091457 0.668329 0.303928
O O15 0.179350 0.000000 0.461069
O O16 0.061335 0.500000 0.170048
O O17 0.000000 0.635508 0.000000
#
# Coordination Sequence:
#
# PCOD9171260 Si02
#       7
#     8   8   8   8   8   8   8
#     4   9  17  28  41  61  96 133 154 174 211 261
#     4   9  16  28  48  66  88 123 152 175 216 275
#     4   9  16  27  42  62  91 126 153 176 215 267
#     4  10  19  28  45  68  90 114 150 195 225 254
#     4   9  16  28  44  63  90 125 158 178 208 264
#     4  10  18  27  44  68  91 121 156 185 215 253
#     4   9  19  36  53  67  86 115 148 185 236 285
#
# _framework density 15.518003999999999
#
# number of rings (size 3 to 8) (size 9 to 14) (size 15 to 20)
#    0.000    2.714    1.429    2.143    0.000    2.286 
#    0.000    0.714    0.000    3.000    0.000    0.000 
#    0.000    4.571    0.000    0.000    0.000    0.000 
#
# Total GULP energy -156060.927069 kJ/mol
# GULP energy per Si atom -5573.604538 kJ/mol
# Density = 1.548268 g / cm^3
# Si number density = 15.518004 Si / 1000 Ang^3
#
#
#
# Elastic Constant Matrix: (Units=GPa)
#
#
# Indices 1 2 3 4 5 6 
#
# 1 59.7784 30.0603 22.2963 0.0000 12.8084 0.0000
# 2 30.0603 82.6467 23.4981 0.0000 7.7994 0.0000
# 3 22.2963 23.4981 28.2170 0.0000 11.2755 0.0000
# 4 0.0000 0.0000 0.0000 15.8267 0.0000 0.1807
# 5 12.8084 7.7994 11.2755 0.0000 16.9209 0.0000
# 6 0.0000 0.0000 0.0000 0.1807 0.0000 22.5689
#
#
#
# Elastic Compliance Matrix: (Units=1/GPa)
#
#
# Indices 1 2 3 4 5 6 
#
# 1 0.025874 -0.004935 -0.012836 0.000000 -0.008758 0.000000
# 2 -0.004935 0.016846 -0.011611 0.000000 0.003708 0.000000
# 3 -0.012836 -0.011611 0.067096 0.000000 -0.029643 0.000000
# 4 0.000000 0.000000 0.000000 0.063190 0.000000 -0.000506
# 5 -0.008758 0.003708 -0.029643 0.000000 0.083771 0.000000
# 6 0.000000 0.000000 0.000000 -0.000506 0.000000 0.044313
#
#
# Mechanical properties :
#
#
# Convention : Reuss Voigt Hill
#
# Bulk Modulus (GPa) = 19.58736 35.81681 27.70209
# Shear Modulus (GPa) = 13.26713 17.38248 15.32481
#
# Velocity S-wave (km/s) = 2.92713 3.35049 3.14594
# Velocity P-wave (km/s) = 4.90651 6.17241 5.57550
#
# Compressibility (1/GPa) = 0.05105332
#
# Stress axis : x y z
#
# Youngs Moduli (GPa) = 38.64882 59.36150 14.90395
#
# Poissons Ratio (x) = 0.29295 0.19130
# Poissons Ratio (y) = 0.19073 0.17305
# Poissons Ratio (z) = 0.49608 0.68923
#
# Static dielectric constant tensor:
#      x y z
#    x 1.511550 0.000000 -0.022500 
#    y 0.000000 1.547180 0.000000 
#    z -0.022500 0.000000 1.502030 
# 
# From -- ./inp_files/96515.got.cif
#   From: 2010.05.17/outbox.cif.g08.bks.cpg/sg12_49_cif.got.tgz:96515.got - 2010.06.03 13:09:07.
