data_PCOD9171467
_publ_section_title
;
Structure prediction by ZEFSAII (Michael W. Deem and Ramdas Pophale) SiO2 
 PCOD9171467
Probable space group: C 2/M
;
_chemical_formula_sum "Si O2"
_cell_formula_units_Z 64
_cell_length_a 17.194279
_cell_length_b 28.900436
_cell_length_c 15.194637
_cell_angle_alpha 90.000000
_cell_angle_beta 155.441314
_cell_angle_gamma 90.000000
_cell_volume 3138.198601
_symmetry_space_group_name_H-M "C 2/M"
_symmetry_group_IT_number 12
_symmetry_cell_setting 'monoclinic'
loop_
_space_group_symop_operation_xyz
x,y,z
-x,y,-z
-x,-y,-z
x,-y,z
1/2+x,1/2+y,z
1/2-x,1/2+y,-z
1/2-x,1/2-y,-z
1/2+x,1/2-y,z
loop_
_atom_site_type_symbol
_atom_site_label
_atom_site_fract_x
_atom_site_fract_y
_atom_site_fract_z
Si Si1 0.988528 0.132704 0.204136
Si Si2 0.959296 0.715658 0.147346
Si Si3 0.307100 0.250191 0.756939
Si Si4 0.538777 0.281917 0.691921
Si Si5 0.767037 0.448669 0.497104
Si Si6 0.221027 0.049136 0.239355
Si Si7 0.452965 0.125413 0.231179
Si Si8 0.741304 0.146795 0.680663
O O1 0.011499 0.175350 0.295511
O O2 0.103378 0.087366 0.353313
O O3 0.078060 0.142535 0.199535
O O4 0.766494 0.124672 0.975547
O O5 0.947685 0.736152 0.233540
O O6 0.005661 0.662299 0.209704
O O7 0.111265 0.748080 0.258589
O O8 0.757434 0.715069 0.891032
O O9 0.258146 0.302083 0.738151
O O10 0.114781 0.223162 0.541901
O O11 0.500000 0.232780 0.000000
O O12 0.748217 0.500000 0.514746
O O13 0.758273 0.452612 0.381709
O O14 0.964316 0.423529 0.714273
O O15 0.275631 0.101973 0.273313
O O16 0.292767 0.000000 0.272962
O O17 0.000000 0.048103 0.000000
O O18 0.568359 0.142157 0.435538
#
# Coordination Sequence:
#
# PCOD9171467 Si02
#       8
#     8   8   8   8   8   8   8   8
#     4   9  17  30  50  68  86 119 162 199 230 274
#     4  10  19  33  52  69  90 127 170 201 231 284
#     4  12  22  30  45  71 103 130 156 200 253 291
#     4  10  19  33  52  69  90 127 170 201 231 284
#     4   9  18  29  44  69  95 115 146 197 245 286
#     4   8  14  26  41  54  77 117 154 184 225 272
#     4   9  17  30  50  68  86 119 162 199 230 274
#     4  10  18  28  43  66  89 114 159 204 241 277
#
# _framework density 20.393865000000002
#
# number of rings (size 3 to 8) (size 9 to 14) (size 15 to 20)
#    0.000    2.625    2.500    2.250    0.000    1.000 
#    0.000    0.000    0.000   18.000    0.000   35.000 
#    0.000    8.000    0.000   22.000    0.000    0.000 
#
# Total GULP energy -178189.907126 kJ/mol
# GULP energy per Si atom -5568.434598 kJ/mol
# Density = 2.034745 g / cm^3
# Si number density = 20.393865 Si / 1000 Ang^3
#
#
#
# Elastic Constant Matrix: (Units=GPa)
#
#
# Indices 1 2 3 4 5 6 
#
# 1 34.5040 10.8902 11.8549 0.0000 16.2465 0.0000
# 2 10.8902 130.8003 36.2694 0.0000 5.8282 0.0000
# 3 11.8549 36.2694 143.2223 -0.0001 9.1695 0.0000
# 4 0.0000 0.0000 -0.0001 53.6432 0.0000 -0.5017
# 5 16.2465 5.8282 9.1695 0.0000 23.2071 0.0000
# 6 0.0000 0.0000 0.0000 -0.5017 0.0000 -0.1473
#
#
#
# Elastic Compliance Matrix: (Units=1/GPa)
#
#
# Indices 1 2 3 4 5 6 
#
# 1 0.044111 -0.001999 -0.001231 0.000000 -0.029892 0.000002
# 2 -0.001999 0.008350 -0.001954 0.000000 0.000075 0.000000
# 3 -0.001231 -0.001954 0.007687 0.000000 -0.001685 0.000000
# 4 0.000000 0.000000 0.000000 0.018066 0.000000 -0.061545
# 5 -0.029892 0.000075 -0.001685 0.000000 0.064664 -0.000001
# 6 0.000002 0.000000 0.000000 -0.061545 -0.000001 -6.581202
#
#
# Mechanical properties :
#
#
# Convention : Reuss Voigt Hill
#
# Bulk Modulus (GPa) = 20.08856 47.39507 33.74181
# Shear Modulus (GPa) = -0.77987 31.97473 15.59743
#
# Velocity S-wave (km/s) = -0.61906 3.96392 2.76852
# Velocity P-wave (km/s) = 3.05953 6.65135 5.17693
#
# Compressibility (1/GPa) = 0.04977958
#
# Stress axis : x y z
#
# Youngs Moduli (GPa) = 22.66992 119.75814 130.09484
#
# Poissons Ratio (x) = 0.23943 0.16016
# Poissons Ratio (y) = 0.04532 0.25419
# Poissons Ratio (z) = 0.02791 0.23399
#
# Static dielectric constant tensor:
#      x y z
#    x 1.790620 0.000000 -0.010100 
#    y 0.000000 1.805680 0.000000 
#    z -0.010100 0.000000 1.785060 
# 
# From -- ./inp_files/286788.got.cif
#   From: 2010.05.17/outbox.cif.g08.bks.cpg/sg12_144_cif.got.tgz:286788.got - 2010.06.03 13:09:07.
