data_PCOD9171451
_publ_section_title
;
Structure prediction by ZEFSAII (Michael W. Deem and Ramdas Pophale) SiO2 
 PCOD9171451
Probable space group: C 2/M
;
_chemical_formula_sum "Si O2"
_cell_formula_units_Z 64
_cell_length_a 28.035916
_cell_length_b 8.733232
_cell_length_c 16.888941
_cell_angle_alpha 90.000000
_cell_angle_beta 92.912879
_cell_angle_gamma 90.000000
_cell_volume 4129.815760
_symmetry_space_group_name_H-M "C 2/M"
_symmetry_group_IT_number 12
_symmetry_cell_setting 'monoclinic'
loop_
_space_group_symop_operation_xyz
x,y,z
-x,y,-z
-x,-y,-z
x,-y,z
1/2+x,1/2+y,z
1/2-x,1/2+y,-z
1/2-x,1/2-y,-z
1/2+x,1/2-y,z
loop_
_atom_site_type_symbol
_atom_site_label
_atom_site_fract_x
_atom_site_fract_y
_atom_site_fract_z
Si Si1 0.979908 0.824414 0.088416
Si Si2 0.924503 0.316324 0.853430
Si Si3 0.346692 0.184153 0.716403
Si Si4 0.745249 0.817568 0.766212
Si Si5 0.114239 0.318113 0.975314
Si Si6 0.314830 0.683746 0.560232
Si Si7 0.714306 0.317714 0.931545
Si Si8 0.713481 0.682111 0.609011
O O1 0.023469 0.759653 0.143489
O O2 0.969161 0.000000 0.107584
O O3 0.931745 0.726184 0.081120
O O4 0.000000 0.820277 0.000000
O O5 0.930541 0.500000 0.854716
O O6 0.890036 0.274689 0.778229
O O7 0.898938 0.276133 0.934816
O O8 0.297305 0.247769 0.749458
O O9 0.351292 0.254973 0.628963
O O10 0.343361 0.000000 0.711293
O O11 0.727779 0.752335 0.847858
O O12 0.709775 0.767132 0.692115
O O13 0.748989 0.000000 0.768776
O O14 0.122693 0.500000 0.973115
O O15 0.160906 0.230141 0.950955
O O16 0.309083 0.500000 0.567624
O O17 0.321686 0.717356 0.467557
O O18 0.265525 0.766394 0.581284
O O19 0.780855 0.000000 0.070720
O O20 0.750000 0.250000 0.000000
O O21 0.713295 0.500000 0.622123
#
# Coordination Sequence:
#
# PCOD9171451 Si02
#       8
#     8   8   8   8   8   8   8   8
#     4   9  17  29  46  67  88 112 145 184 224 266
#     4   9  18  30  45  65  89 118 148 181 223 269
#     4  10  18  28  43  64  92 122 152 186 225 268
#     4  11  21  32  46  64  87 118 155 190 226 265
#     4  10  19  33  50  66  88 118 152 188 226 264
#     4   9  16  25  39  60  85 114 147 181 221 267
#     4  12  24  37  50  66  90 119 154 190 225 262
#     4   9  16  27  42  59  82 113 148 185 222 262
#
# _framework density 15.497059999999999
#
# number of rings (size 3 to 8) (size 9 to 14) (size 15 to 20)
#    0.000    2.125    0.000    6.375    0.000    5.500 
#    0.000    0.000    0.000    0.000    0.000    0.000 
#    0.000    1.000    0.000   10.500    0.000    5.750 
#
# Total GULP energy -178389.003043 kJ/mol
# GULP energy per Si atom -5574.656345 kJ/mol
# Density = 1.546179 g / cm^3
# Si number density = 15.497060 Si / 1000 Ang^3
#
#
#
# Elastic Constant Matrix: (Units=GPa)
#
#
# Indices 1 2 3 4 5 6 
#
# 1 62.0847 27.0675 43.4591 0.0000 19.2921 0.0000
# 2 27.0675 73.0649 39.0136 0.0000 8.3750 0.0000
# 3 43.4591 39.0136 115.9808 0.0000 23.5861 0.0000
# 4 0.0000 0.0000 0.0000 25.5881 0.0000 3.4369
# 5 19.2921 8.3750 23.5861 0.0000 21.9962 0.0000
# 6 0.0000 0.0000 0.0000 3.4369 0.0000 23.9125
#
#
#
# Elastic Compliance Matrix: (Units=1/GPa)
#
#
# Indices 1 2 3 4 5 6 
#
# 1 0.027049 -0.005498 -0.004971 0.000000 -0.016299 0.000000
# 2 -0.005498 0.017803 -0.004515 0.000000 0.002885 0.000000
# 3 -0.004971 -0.004515 0.013770 0.000000 -0.008686 0.000000
# 4 0.000000 0.000000 0.000000 0.039850 0.000000 -0.005728
# 5 -0.016299 0.002885 -0.008686 0.000000 0.067974 0.000000
# 6 0.000000 0.000000 0.000000 -0.005728 0.000000 0.042642
#
#
# Mechanical properties :
#
#
# Convention : Reuss Voigt Hill
#
# Bulk Modulus (GPa) = 34.89963 52.24564 43.57264
# Shear Modulus (GPa) = 20.11194 23.73870 21.92532
#
# Velocity S-wave (km/s) = 3.60639 3.91809 3.76547
# Velocity P-wave (km/s) = 6.31748 7.36580 6.86169
#
# Compressibility (1/GPa) = 0.02865360
#
# Stress axis : x y z
#
# Youngs Moduli (GPa) = 36.97035 56.16896 72.62018
#
# Poissons Ratio (x) = 0.30879 0.36103
# Poissons Ratio (y) = 0.20325 0.32791
# Poissons Ratio (z) = 0.18380 0.25363
#
# Static dielectric constant tensor:
#      x y z
#    x 1.494910 0.000000 0.027600 
#    y 0.000000 1.518950 0.000000 
#    z 0.027600 0.000000 1.545400 
# 
# From -- ./inp_files/287660.got.cif
#   From: 2010.05.17/outbox.cif.g08.bks.cpg/sg12_144_cif.got.tgz:287660.got - 2010.06.03 13:09:07.
