data_PCOD9171556
_publ_section_title
;
Structure prediction by ZEFSAII (Michael W. Deem and Ramdas Pophale) SiO2 
 PCOD9171556
Probable space group: C 2/M
;
_chemical_formula_sum "Si O2"
_cell_formula_units_Z 48
_cell_length_a 12.221149
_cell_length_b 26.722488
_cell_length_c 16.290071
_cell_angle_alpha 90.000000
_cell_angle_beta 150.895453
_cell_angle_gamma 90.000000
_cell_volume 2587.674755
_symmetry_space_group_name_H-M "C 2/M"
_symmetry_group_IT_number 12
_symmetry_cell_setting 'monoclinic'
loop_
_space_group_symop_operation_xyz
x,y,z
-x,y,-z
-x,-y,-z
x,-y,z
1/2+x,1/2+y,z
1/2-x,1/2+y,-z
1/2-x,1/2-y,-z
1/2+x,1/2-y,z
loop_
_atom_site_type_symbol
_atom_site_label
_atom_site_fract_x
_atom_site_fract_y
_atom_site_fract_z
Si Si1 0.028151 0.186074 0.320846
Si Si2 0.344239 0.805175 0.039167
Si Si3 0.714398 0.274606 0.600871
Si Si4 0.234524 0.888957 0.102774
Si Si5 0.122619 0.000000 0.992020
Si Si6 0.881215 0.605745 0.510852
Si Si7 0.768704 0.500000 0.400209
O O1 0.131963 0.236982 0.350580
O O2 0.093728 0.187505 0.459069
O O3 0.173469 0.142848 0.375161
O O4 0.771616 0.182673 0.123685
O O5 0.612799 0.800447 0.223443
O O6 0.259223 0.846349 0.049607
O O7 0.250000 0.750000 0.000000
O O8 0.500000 0.246834 0.500000
O O9 0.435579 0.882075 0.299828
O O10 0.244309 0.945703 0.072214
O O11 0.000000 0.884313 0.000000
O O12 0.936980 0.000000 0.798356
O O13 0.000000 0.000000 0.000000
O O14 0.782929 0.550462 0.460530
O O15 0.000000 0.607182 0.500000
O O16 0.000000 0.500000 0.500000
#
# Coordination Sequence:
#
# PCOD9171556 Si02
#       7
#     8   8   8   8   4   8   4
#     4  10  20  36  54  77 106 138 186 222 269 333
#     4  10  21  38  51  79 110 143 190 226 267 334
#     4  10  21  37  55  76 107 143 181 231 272 317
#     4  11  20  33  53  80 113 150 182 229 279 334
#     4  10  18  30  48  78 110 143 184 222 273 342
#     4  11  19  31  51  77 110 148 179 219 273 330
#     4  10  18  28  44  74 108 143 178 216 265 332
#
# _framework density 18.549472000000002
#
# number of rings (size 3 to 8) (size 9 to 14) (size 15 to 20)
#    0.000    1.667    1.667    7.000    0.000    2.000 
#    0.000    0.000    0.000    0.000    0.000    2.333 
#    0.000    4.000    0.000    0.000    0.000    0.000 
#
# Total GULP energy -133733.841779 kJ/mol
# GULP energy per Si atom -5572.243407 kJ/mol
# Density = 1.850725 g / cm^3
# Si number density = 18.549472 Si / 1000 Ang^3
#
#
#
# Elastic Constant Matrix: (Units=GPa)
#
#
# Indices 1 2 3 4 5 6 
#
# 1 19.8035 5.3182 26.2636 -0.0004 0.6665 -0.0002
# 2 5.3182 94.0164 22.7103 -0.0001 -6.2032 -0.0001
# 3 26.2636 22.7103 180.8568 -0.0014 -5.0975 -0.0005
# 4 -0.0004 -0.0001 -0.0014 34.2315 -0.0005 -5.3305
# 5 0.6665 -6.2032 -5.0975 -0.0005 23.7489 -0.0002
# 6 -0.0002 -0.0001 -0.0005 -5.3305 -0.0002 22.5298
#
#
#
# Elastic Compliance Matrix: (Units=1/GPa)
#
#
# Indices 1 2 3 4 5 6 
#
# 1 0.063115 -0.001652 -0.009075 0.000000 -0.004151 0.000000
# 2 -0.001652 0.011172 -0.001086 0.000000 0.002731 0.000000
# 3 -0.009075 -0.001086 0.007025 0.000000 0.001479 0.000000
# 4 0.000000 0.000000 0.000000 0.030330 0.000001 0.007176
# 5 -0.004151 0.002731 0.001479 0.000001 0.043255 0.000001
# 6 0.000000 0.000000 0.000000 0.007176 0.000001 0.046084
#
#
# Mechanical properties :
#
#
# Convention : Reuss Voigt Hill
#
# Bulk Modulus (GPa) = 17.33513 44.80678 31.07095
# Shear Modulus (GPa) = 20.50566 32.12768 26.31667
#
# Velocity S-wave (km/s) = 3.32845 4.16625 3.77069
# Velocity P-wave (km/s) = 4.91295 6.88122 5.97864
#
# Compressibility (1/GPa) = 0.05768634
#
# Stress axis : x y z
#
# Youngs Moduli (GPa) = 15.84421 89.50589 142.34609
#
# Poissons Ratio (x) = 0.14786 1.29178
# Poissons Ratio (y) = 0.02617 0.15460
# Poissons Ratio (z) = 0.14378 0.09721
#
# Static dielectric constant tensor:
#      x y z
#    x 1.647650 0.000000 -0.017010 
#    y 0.000000 1.623520 0.000000 
#    z -0.017010 0.000000 1.677590 
# 
# From -- ./inp_files/150368.got.cif
#   From: 2010.05.17/outbox.cif.g08.bks.cpg/sg12_76_cif.got.tgz:150368.got - 2010.06.03 13:09:07.
