data_PCOD9171095
_publ_section_title
;
Structure prediction by ZEFSAII (Michael W. Deem and Ramdas Pophale) SiO2 
 PCOD9171095
Probable space group: C 2/M
;
_chemical_formula_sum "Si O2"
_cell_formula_units_Z 64
_cell_length_a 27.471505
_cell_length_b 8.706830
_cell_length_c 17.704373
_cell_angle_alpha 90.000000
_cell_angle_beta 100.802788
_cell_angle_gamma 90.000000
_cell_volume 4159.657221
_symmetry_space_group_name_H-M "C 2/M"
_symmetry_group_IT_number 12
_symmetry_cell_setting 'monoclinic'
loop_
_space_group_symop_operation_xyz
x,y,z
-x,y,-z
-x,-y,-z
x,-y,z
1/2+x,1/2+y,z
1/2-x,1/2+y,-z
1/2-x,1/2-y,-z
1/2+x,1/2-y,z
loop_
_atom_site_type_symbol
_atom_site_label
_atom_site_fract_x
_atom_site_fract_y
_atom_site_fract_z
Si Si1 0.433745 0.683011 0.819266
Si Si2 0.965733 0.816924 0.664887
Si Si3 0.558586 0.822719 0.495909
Si Si4 0.304378 0.683222 0.028427
Si Si5 0.629760 0.183177 0.826108
Si Si6 0.954552 0.817219 0.093126
Si Si7 0.109644 0.682608 0.051697
Si Si8 0.074780 0.314062 0.664322
O O1 0.423962 0.500000 0.819197
O O2 0.437967 0.732929 0.733254
O O3 0.488788 0.708745 0.869057
O O4 0.395766 0.768508 0.863012
O O5 0.937419 0.769651 0.580295
O O6 0.021195 0.747353 0.675754
O O7 0.971299 0.000000 0.670308
O O8 0.500000 0.821497 0.500000
O O9 0.583623 0.763747 0.580315
O O10 0.572703 0.000000 0.486828
O O11 0.304377 0.500000 0.023263
O O12 0.326263 0.734622 0.116084
O O13 0.250000 0.750000 0.000000
O O14 0.342233 0.751271 0.976999
O O15 0.580530 0.229148 0.858267
O O16 0.617044 0.228707 0.736565
O O17 0.637052 0.000000 0.831911
O O18 0.944871 0.000000 0.094769
O O19 0.936666 0.757033 0.006968
O O20 0.108556 0.500000 0.043110
O O21 0.071172 0.500000 0.662029
#
# Coordination Sequence:
#
# PCOD9171095 Si02
#       8
#     8   8   8   8   8   8   8   8
#     4  10  20  31  42  60  90 124 156 190 228 267
#     4  10  18  27  40  60  86 120 160 195 227 263
#     4   8  15  27  39  55  82 119 156 189 228 266
#     4  11  22  38  56  71  92 117 144 183 231 276
#     4  10  18  29  47  70  92 118 155 191 227 270
#     4  10  18  30  44  60  88 123 153 187 229 266
#     4  11  22  33  47  68  88 113 152 189 225 270
#     4   9  17  28  42  60  88 121 154 191 227 268
#
# _framework density 15.385883
#
# number of rings (size 3 to 8) (size 9 to 14) (size 15 to 20)
#    0.000    2.125    1.250    6.000    0.000    6.250 
#    0.000    0.000    0.000    0.000    0.000    0.000 
#    0.000    1.000    0.000    3.000    0.000    4.625 
#
# Total GULP energy -178397.094536 kJ/mol
# GULP energy per Si atom -5574.909204 kJ/mol
# Density = 1.535086 g / cm^3
# Si number density = 15.385883 Si / 1000 Ang^3
#
#
#
# Elastic Constant Matrix: (Units=GPa)
#
#
# Indices 1 2 3 4 5 6 
#
# 1 42.6435 18.6234 38.6334 0.0000 6.3225 0.0000
# 2 18.6234 39.1672 26.1431 0.0000 -0.7121 0.0000
# 3 38.6334 26.1431 137.5859 0.0000 0.6685 0.0000
# 4 0.0000 0.0000 0.0000 24.9078 0.0000 -0.2879
# 5 6.3225 -0.7121 0.6685 0.0000 14.0720 0.0000
# 6 0.0000 0.0000 0.0000 -0.2879 0.0000 17.4555
#
#
#
# Elastic Compliance Matrix: (Units=1/GPa)
#
#
# Indices 1 2 3 4 5 6 
#
# 1 0.039766 -0.013564 -0.008501 0.000000 -0.018149 0.000000
# 2 -0.013564 0.033910 -0.002673 0.000000 0.007937 0.000000
# 3 -0.008501 -0.002673 0.010147 0.000000 0.003202 0.000000
# 4 0.000000 0.000000 0.000000 0.040156 0.000000 0.000662
# 5 -0.018149 0.007937 0.003202 0.000000 0.079467 0.000000
# 6 0.000000 0.000000 0.000000 0.000662 0.000000 0.057300
#
#
# Mechanical properties :
#
#
# Convention : Reuss Voigt Hill
#
# Bulk Modulus (GPa) = 29.11419 42.91069 36.01244
# Shear Modulus (GPa) = 15.54387 20.35350 17.94868
#
# Velocity S-wave (km/s) = 3.18192 3.64107 3.41921
# Velocity P-wave (km/s) = 5.69765 6.75476 6.24860
#
# Compressibility (1/GPa) = 0.03434752
#
# Stress axis : x y z
#
# Youngs Moduli (GPa) = 25.14713 29.49011 98.54695
#
# Poissons Ratio (x) = 0.40001 0.83770
# Poissons Ratio (y) = 0.34110 0.26342
# Poissons Ratio (z) = 0.21376 0.07883
#
# Static dielectric constant tensor:
#      x y z
#    x 1.476310 0.000000 0.007070 
#    y 0.000000 1.516000 0.000000 
#    z 0.007070 0.000000 1.569170 
# 
# From -- ./inp_files/291626.got.cif
#   From: 2010.05.17/outbox.cif.g08.bks.cpg/sg12_146_cif.got.tgz:291626.got - 2010.06.03 13:09:07.
