data_PCOD9171824
_publ_section_title
;
Structure prediction by ZEFSAII (Michael W. Deem and Ramdas Pophale) SiO2 
 PCOD9171824
Probable space group: C 2/M
;
_chemical_formula_sum "Si O2"
_cell_formula_units_Z 56
_cell_length_a 21.830400
_cell_length_b 23.664721
_cell_length_c 11.845218
_cell_angle_alpha 90.000000
_cell_angle_beta 25.937439
_cell_angle_gamma 90.000000
_cell_volume 2676.544631
_symmetry_space_group_name_H-M "C 2/M"
_symmetry_group_IT_number 12
_symmetry_cell_setting 'monoclinic'
loop_
_space_group_symop_operation_xyz
x,y,z
-x,y,-z
-x,-y,-z
x,-y,z
1/2+x,1/2+y,z
1/2-x,1/2+y,-z
1/2-x,1/2-y,-z
1/2+x,1/2-y,z
loop_
_atom_site_type_symbol
_atom_site_label
_atom_site_fract_x
_atom_site_fract_y
_atom_site_fract_z
Si Si1 0.088218 0.736183 0.738741
Si Si2 0.706436 0.937910 0.618409
Si Si3 0.544172 0.117007 0.699252
Si Si4 0.241685 0.563934 0.829275
Si Si5 0.452325 0.358679 0.207025
Si Si6 0.045799 0.067906 0.257570
Si Si7 0.152964 0.432863 0.298939
O O1 0.250000 0.750000 0.500000
O O2 0.065867 0.681463 0.699511
O O3 0.035229 0.794746 0.770839
O O4 0.000000 0.726966 0.000000
O O5 0.575853 0.923490 0.754978
O O6 0.711044 0.941545 0.745577
O O7 0.796109 0.881654 0.453311
O O8 0.760327 0.000000 0.490691
O O9 0.648571 0.099416 0.425697
O O10 0.385218 0.103968 0.924012
O O11 0.229069 0.500000 0.898497
O O12 0.404970 0.583398 0.562531
O O13 0.522182 0.402902 0.175468
O O14 0.500000 0.359121 0.000000
O O15 0.034317 0.000000 0.270573
O O16 0.210561 0.081069 0.004443
O O17 0.161659 0.500000 0.308108
O O18 0.000000 0.422495 0.500000
#
# Coordination Sequence:
#
# PCOD9171824 Si02
#       7
#     8   8   8   8   8   8   8
#     4  11  24  38  53  83 120 159 199 231 276 341
#     4  10  18  28  48  79 116 150 181 220 272 345
#     4  12  21  34  55  81 115 155 193 233 282 338
#     4   9  18  31  50  82 117 148 181 222 277 347
#     4  10  19  31  48  75 113 149 186 223 270 335
#     4   9  19  35  55  80 111 147 184 232 291 344
#     4  10  22  40  62  87 112 145 195 247 293 342
#
# _framework density 20.922498000000001
#
# number of rings (size 3 to 8) (size 9 to 14) (size 15 to 20)
#    0.000    1.857    1.429    4.714    4.000    3.429 
#    0.000    0.714    0.000    4.286    0.000    0.000 
#    0.000    0.000    0.000    0.000    0.000    0.000 
#
# Total GULP energy -156000.309530 kJ/mol
# GULP energy per Si atom -5571.439626 kJ/mol
# Density = 2.087488 g / cm^3
# Si number density = 20.922498 Si / 1000 Ang^3
#
#
#
# Elastic Constant Matrix: (Units=GPa)
#
#
# Indices 1 2 3 4 5 6 
#
# 1 54.8039 22.0528 34.2010 0.0005 -16.0940 -0.0002
# 2 22.0528 83.4017 34.2301 0.0006 4.8786 -0.0010
# 3 34.2010 34.2301 159.0895 0.0000 -15.7148 -0.0012
# 4 0.0005 0.0006 0.0000 17.9741 -0.0005 4.4564
# 5 -16.0940 4.8786 -15.7148 -0.0005 33.8738 0.0007
# 6 -0.0002 -0.0010 -0.0012 4.4564 0.0007 16.8788
#
#
#
# Elastic Compliance Matrix: (Units=1/GPa)
#
#
# Indices 1 2 3 4 5 6 
#
# 1 0.026251 -0.006372 -0.003092 0.000000 0.011956 -0.000001
# 2 -0.006372 0.015074 -0.002502 -0.000001 -0.006359 0.000001
# 3 -0.003092 -0.002502 0.007734 0.000000 0.002479 0.000000
# 4 0.000000 -0.000001 0.000000 0.059533 0.000001 -0.015718
# 5 0.011956 -0.006359 0.002479 0.000001 0.037268 -0.000002
# 6 -0.000001 0.000001 0.000000 -0.015718 -0.000002 0.063396
#
#
# Mechanical properties :
#
#
# Convention : Reuss Voigt Hill
#
# Bulk Modulus (GPa) = 39.79540 53.14034 46.46787
# Shear Modulus (GPa) = 20.69872 27.53273 24.11572
#
# Velocity S-wave (km/s) = 3.14873 3.63152 3.39871
# Velocity P-wave (km/s) = 5.68164 6.56032 6.13672
#
# Compressibility (1/GPa) = 0.02512853
#
# Stress axis : x y z
#
# Youngs Moduli (GPa) = 38.09365 66.34095 129.30698
#
# Poissons Ratio (x) = 0.42271 0.39975
# Poissons Ratio (y) = 0.24272 0.32348
# Poissons Ratio (z) = 0.11777 0.16596
#
# Static dielectric constant tensor:
#      x y z
#    x 1.799450 0.000000 -0.052910 
#    y 0.000000 1.724750 0.000000 
#    z -0.052910 0.000000 1.770620 
# 
# From -- ./inp_files/247358.got.cif
#   From: 2010.05.17/outbox.cif.g08.bks.cpg/sg12_124_cif.got.tgz:247358.got - 2010.06.03 13:09:07.
