data_PCOD9171492
_publ_section_title
;
Structure prediction by ZEFSAII (Michael W. Deem and Ramdas Pophale) SiO2 
 PCOD9171492
Probable space group: C 2/M
;
_chemical_formula_sum "Si O2"
_cell_formula_units_Z 48
_cell_length_a 5.580355
_cell_length_b 39.997792
_cell_length_c 9.088001
_cell_angle_alpha 90.000000
_cell_angle_beta 94.738225
_cell_angle_gamma 90.000000
_cell_volume 2021.526637
_symmetry_space_group_name_H-M "C 2/M"
_symmetry_group_IT_number 12
_symmetry_cell_setting 'monoclinic'
loop_
_space_group_symop_operation_xyz
x,y,z
-x,y,-z
-x,-y,-z
x,-y,z
1/2+x,1/2+y,z
1/2-x,1/2+y,-z
1/2-x,1/2-y,-z
1/2+x,1/2-y,z
loop_
_atom_site_type_symbol
_atom_site_label
_atom_site_fract_x
_atom_site_fract_y
_atom_site_fract_z
Si Si1 0.510980 0.263663 0.325429
Si Si2 0.248646 0.886830 0.487926
Si Si3 0.462677 0.934913 0.832778
Si Si4 0.462456 0.460417 0.825082
Si Si5 0.151403 0.164017 0.221374
Si Si6 0.352988 0.857256 0.802368
O O1 0.500000 0.256787 0.500000
O O2 0.731777 0.242347 0.265751
O O3 0.595259 0.301311 0.298987
O O4 0.500000 0.905902 0.500000
O O5 0.207150 0.865703 0.339522
O O6 0.288919 0.860009 0.623543
O O7 0.000000 0.905532 0.500000
O O8 0.715391 0.942410 0.766741
O O9 0.412953 0.895532 0.843619
O O10 0.213852 0.950385 0.762418
O O11 0.500000 0.949211 0.000000
O O12 0.427234 0.500000 0.813890
O O13 0.500000 0.450996 0.000000
O O14 0.411225 0.164815 0.156409
O O15 0.895812 0.154178 0.137752
#
# Coordination Sequence:
#
# PCOD9171492 Si02
#       6
#     8   8   8   8   8   8
#     4  10  19  28  41  62  89 120 148 176 218 271
#     4   8  15  25  40  57  80 110 142 172 207 249
#     4  10  19  30  45  69  97 118 145 182 215 260
#     4   9  17  30  47  65  90 123 148 172 215 266
#     4  10  18  30  44  62  90 119 148 181 219 264
#     4  10  18  28  44  63  89 120 146 178 222 259
#
# _framework density 23.744433000000001
#
# number of rings (size 3 to 8) (size 9 to 14) (size 15 to 20)
#    0.000    2.500    0.000    4.000    0.000    6.667 
#    0.000    0.000    0.000    0.000    0.000    0.000 
#    0.000  133.333    0.000    0.000    0.000    0.000 
#
# Total GULP energy -133813.072527 kJ/mol
# GULP energy per Si atom -5575.544689 kJ/mol
# Density = 2.369039 g / cm^3
# Si number density = 23.744433 Si / 1000 Ang^3
#
#
#
# Elastic Constant Matrix: (Units=GPa)
#
#
# Indices 1 2 3 4 5 6 
#
# 1 312.0030 40.1861 27.7337 0.0000 23.1008 0.0000
# 2 40.1861 32.3891 -5.4028 0.0000 8.9759 0.0000
# 3 27.7337 -5.4028 43.8598 0.0000 3.4731 0.0000
# 4 0.0000 0.0000 0.0000 13.5334 0.0000 3.7510
# 5 23.1008 8.9759 3.4731 0.0000 25.7174 0.0000
# 6 0.0000 0.0000 0.0000 3.7510 0.0000 43.0231
#
#
#
# Elastic Compliance Matrix: (Units=1/GPa)
#
#
# Indices 1 2 3 4 5 6 
#
# 1 0.004315 -0.005481 -0.003284 0.000000 -0.001520 0.000000
# 2 -0.005481 0.042362 0.009567 0.000000 -0.011154 0.000000
# 3 -0.003284 0.009567 0.026368 0.000000 -0.003951 0.000000
# 4 0.000000 0.000000 0.000000 0.075721 0.000000 -0.006602
# 5 -0.001520 -0.011154 -0.003951 0.000000 0.044676 0.000000
# 6 0.000000 0.000000 0.000000 -0.006602 0.000000 0.023819
#
#
# Mechanical properties :
#
#
# Convention : Reuss Voigt Hill
#
# Bulk Modulus (GPa) = 13.39580 57.03175 35.21377
# Shear Modulus (GPa) = 20.78670 38.17043 29.47857
#
# Velocity S-wave (km/s) = 2.96198 4.01378 3.52731
# Velocity P-wave (km/s) = 4.16554 6.74920 5.60818
#
# Compressibility (1/GPa) = 0.07465028
#
# Stress axis : x y z
#
# Youngs Moduli (GPa) = 231.72636 23.60628 37.92539
#
# Poissons Ratio (x) = 0.12938 0.12453
# Poissons Ratio (y) = 1.27004 -0.36284
# Poissons Ratio (z) = 0.76088 -0.22584
#
# Static dielectric constant tensor:
#      x y z
#    x 2.054320 0.000000 -0.034460 
#    y 0.000000 1.814630 0.000000 
#    z -0.034460 0.000000 1.958490 
# 
# From -- ./inp_files/192423.got.cif
#   From: 2010.05.17/outbox.cif.g08.bks.cpg/sg12_97_cif.got.tgz:192423.got - 2010.06.03 13:09:07.
