data_PCOD9171832
_publ_section_title
;
Structure prediction by ZEFSAII (Michael W. Deem and Ramdas Pophale) SiO2 
 PCOD9171832
Probable space group: C 2/M
;
_chemical_formula_sum "Si O2"
_cell_formula_units_Z 64
_cell_length_a 18.160816
_cell_length_b 18.545725
_cell_length_c 12.108263
_cell_angle_alpha 90.000000
_cell_angle_beta 130.219339
_cell_angle_gamma 90.000000
_cell_volume 3113.970524
_symmetry_space_group_name_H-M "C 2/M"
_symmetry_group_IT_number 12
_symmetry_cell_setting 'monoclinic'
loop_
_space_group_symop_operation_xyz
x,y,z
-x,y,-z
-x,-y,-z
x,-y,z
1/2+x,1/2+y,z
1/2-x,1/2+y,-z
1/2-x,1/2-y,-z
1/2+x,1/2-y,z
loop_
_atom_site_type_symbol
_atom_site_label
_atom_site_fract_x
_atom_site_fract_y
_atom_site_fract_z
Si Si1 0.768231 0.419939 0.538765
Si Si2 0.540610 0.422067 0.342824
Si Si3 0.281188 0.845835 0.136889
Si Si4 0.354418 0.834002 0.431291
Si Si5 0.978051 0.235228 0.692262
Si Si6 0.920574 0.081022 0.002358
Si Si7 0.824882 0.278139 0.726504
Si Si8 0.158203 0.710582 0.007581
O O1 0.797425 0.500000 0.604303
O O2 0.652527 0.420467 0.416253
O O3 0.818520 0.399394 0.472592
O O4 0.795579 0.354998 0.646788
O O5 0.525675 0.500000 0.387076
O O6 0.519723 0.341918 0.367461
O O7 0.472760 0.423467 0.170075
O O8 0.357658 0.857430 0.307349
O O9 0.182366 0.883120 0.079976
O O10 0.313410 0.858024 0.041528
O O11 0.251963 0.761509 0.108102
O O12 0.446228 0.796129 0.574933
O O13 0.268628 0.773633 0.357198
O O14 0.896490 0.239536 0.709430
O O15 0.074647 0.251924 0.854214
O O16 0.903871 0.000000 0.941719
O O17 0.000000 0.117766 0.000000
O O18 0.869256 0.294566 0.890404
#
# Coordination Sequence:
#
# PCOD9171832 Si02
#       8
#     8   8   8   8   8   8   8   8
#     4  10  18  32  55  84 115 142 176 231 289 337
#     4  10  18  28  48  83 116 141 173 220 289 354
#     4  10  21  36  51  78 113 147 188 229 264 344
#     4  10  19  32  54  79 110 142 189 234 290 329
#     4  11  18  33  56  82 112 147 184 244 285 327
#     4  10  20  32  54  85 116 144 172 219 290 355
#     4  10  19  34  53  82 111 145 194 237 278 333
#     4  10  22  34  53  75 107 154 195 225 278 318
#
# _framework density 20.552537999999998
#
# number of rings (size 3 to 8) (size 9 to 14) (size 15 to 20)
#    0.000    1.875    3.750    1.875    1.750    2.000 
#    0.000    0.625    0.000    9.750    0.000    8.750 
#    0.000    0.000    0.000    0.000    0.000    0.125 
#
# Total GULP energy -178252.419292 kJ/mol
# GULP energy per Si atom -5570.388103 kJ/mol
# Density = 2.050576 g / cm^3
# Si number density = 20.552538 Si / 1000 Ang^3
#
#
#
# Elastic Constant Matrix: (Units=GPa)
#
#
# Indices 1 2 3 4 5 6 
#
# 1 63.4799 21.1517 22.2846 0.0000 -1.7940 0.0000
# 2 21.1517 81.2452 13.7245 0.0000 4.5217 0.0000
# 3 22.2846 13.7245 84.9965 0.0000 -1.4093 0.0000
# 4 0.0000 0.0000 0.0000 -117.6025 0.0000 -23.9837
# 5 -1.7940 4.5217 -1.4093 0.0000 25.9707 0.0000
# 6 0.0000 0.0000 0.0000 -23.9837 0.0000 7.8238
#
#
#
# Elastic Compliance Matrix: (Units=1/GPa)
#
#
# Indices 1 2 3 4 5 6 
#
# 1 0.018692 -0.004260 -0.004183 0.000000 0.001806 0.000000
# 2 -0.004260 0.013765 -0.001151 0.000000 -0.002753 0.000000
# 3 -0.004183 -0.001151 0.013058 0.000000 0.000620 0.000000
# 4 0.000000 0.000000 0.000000 -0.005232 0.000000 -0.016039
# 5 0.001806 -0.002753 0.000620 0.000000 0.039143 0.000000
# 6 0.000000 0.000000 0.000000 -0.016039 0.000000 0.078647
#
#
# Mechanical properties :
#
#
# Convention : Reuss Voigt Hill
#
# Bulk Modulus (GPa) = 37.98480 38.22703 38.10592
# Shear Modulus (GPa) = 26.87631 -5.25755 10.80938
#
# Velocity S-wave (km/s) = 3.62012 -1.60114 2.29582
# Velocity P-wave (km/s) = 5.99963 3.90152 5.06051
#
# Compressibility (1/GPa) = 0.02632632
#
# Stress axis : x y z
#
# Youngs Moduli (GPa) = 53.49895 72.64646 76.58108
#
# Poissons Ratio (x) = 0.30949 0.32033
# Poissons Ratio (y) = 0.22792 0.08818
# Poissons Ratio (z) = 0.22378 0.08364
#
# Static dielectric constant tensor:
#      x y z
#    x 1.811880 0.000000 -0.044380 
#    y 0.000000 1.785870 0.000000 
#    z -0.044380 0.000000 1.743690 
# 
# From -- ./inp_files/159572.got.cif
#   From: 2010.05.17/outbox.cif.g08.bks.cpg/sg12_80_cif.got.tgz:159572.got - 2010.06.03 13:09:07.
