data_PCOD9171181
_publ_section_title
;
Structure prediction by ZEFSAII (Michael W. Deem and Ramdas Pophale) SiO2 
 PCOD9171181
Probable space group: C 2/M
;
_chemical_formula_sum "Si O2"
_cell_formula_units_Z 56
_cell_length_a 24.899992
_cell_length_b 9.105796
_cell_length_c 18.136186
_cell_angle_alpha 90.000000
_cell_angle_beta 61.974386
_cell_angle_gamma 90.000000
_cell_volume 3629.900533
_symmetry_space_group_name_H-M "C 2/M"
_symmetry_group_IT_number 12
_symmetry_cell_setting 'monoclinic'
loop_
_space_group_symop_operation_xyz
x,y,z
-x,y,-z
-x,-y,-z
x,-y,z
1/2+x,1/2+y,z
1/2-x,1/2+y,-z
1/2-x,1/2-y,-z
1/2+x,1/2-y,z
loop_
_atom_site_type_symbol
_atom_site_label
_atom_site_fract_x
_atom_site_fract_y
_atom_site_fract_z
Si Si1 0.184795 0.330861 0.958151
Si Si2 0.070466 0.325183 0.461769
Si Si3 0.710169 0.326003 0.633563
Si Si4 0.841688 0.325855 0.731732
Si Si5 0.787286 0.676632 0.220175
Si Si6 0.168144 0.168543 0.114080
Si Si7 0.665974 0.326143 0.500809
O O1 0.165627 0.500000 0.979282
O O2 0.176921 0.284706 0.878220
O O3 0.258228 0.327717 0.922688
O O4 0.156388 0.233019 0.040667
O O5 0.074245 0.500000 0.475095
O O6 0.106260 0.299637 0.362118
O O7 0.106026 0.237009 0.501685
O O8 0.000000 0.284764 0.500000
O O9 0.716490 0.500000 0.642774
O O10 0.687106 0.244966 0.721452
O O11 0.669849 0.303793 0.586387
O O12 0.776163 0.258455 0.571012
O O13 0.829489 0.500000 0.743450
O O14 0.780507 0.242960 0.745421
O O15 0.857525 0.264687 0.802373
O O16 0.783571 0.500000 0.226342
O O17 0.148929 0.000000 0.132845
O O18 0.672563 0.500000 0.482229
#
# Coordination Sequence:
#
# PCOD9171181 Si02
#       7
#     8   8   8   8   8   8   8
#     4   8  15  25  36  55  83 113 143 175 213 257
#     4  10  21  35  49  66  89 118 154 193 231 269
#     4  10  19  30  45  66  91 119 149 184 225 270
#     4  10  18  28  43  60  83 116 149 183 225 267
#     4  10  18  27  42  64  89 116 148 183 217 263
#     4   9  16  25  38  56  80 111 146 181 214 257
#     4  10  20  32  47  66  88 116 152 189 226 267
#
# _framework density 15.42742
#
# number of rings (size 3 to 8) (size 9 to 14) (size 15 to 20)
#    0.000    2.429    1.429    3.000    0.000    6.571 
#    0.000    0.000    0.000    0.000    0.000    0.000 
#    0.000    1.143    0.000   12.857    0.000    6.714 
#
# Total GULP energy -156037.426934 kJ/mol
# GULP energy per Si atom -5572.765248 kJ/mol
# Density = 1.539231 g / cm^3
# Si number density = 15.427420 Si / 1000 Ang^3
#
#
#
# Elastic Constant Matrix: (Units=GPa)
#
#
# Indices 1 2 3 4 5 6 
#
# 1 64.8606 42.2203 43.2520 0.0000 14.6533 -0.0001
# 2 42.2203 81.0641 58.8243 0.0000 20.1671 -0.0002
# 3 43.2520 58.8243 90.9616 0.0000 34.5853 0.0000
# 4 0.0000 0.0000 0.0000 25.4377 0.0000 9.7896
# 5 14.6533 20.1671 34.5853 0.0000 24.9743 0.0000
# 6 -0.0001 -0.0002 0.0000 9.7896 0.0000 18.3300
#
#
#
# Elastic Compliance Matrix: (Units=1/GPa)
#
#
# Indices 1 2 3 4 5 6 
#
# 1 0.025330 -0.008272 -0.007570 0.000000 0.002300 0.000000
# 2 -0.008272 0.026168 -0.014363 0.000000 0.003613 0.000000
# 3 -0.007570 -0.014363 0.037559 0.000000 -0.035974 0.000000
# 4 0.000000 0.000000 0.000000 0.049482 0.000000 -0.026427
# 5 0.002300 0.003613 -0.035974 0.000000 0.085592 0.000000
# 6 0.000000 0.000000 0.000000 -0.026427 0.000000 0.068670
#
#
# Mechanical properties :
#
#
# Convention : Reuss Voigt Hill
#
# Bulk Modulus (GPa) = 34.90606 58.38660 46.64633
# Shear Modulus (GPa) = 13.78320 19.92103 16.85211
#
# Velocity S-wave (km/s) = 2.99226 3.59733 3.30865
# Velocity P-wave (km/s) = 5.88330 7.42849 6.70059
#
# Compressibility (1/GPa) = 0.02864832
#
# Stress axis : x y z
#
# Youngs Moduli (GPa) = 39.47824 38.21478 26.62443
#
# Poissons Ratio (x) = 0.31611 0.20154
# Poissons Ratio (y) = 0.32656 0.38241
# Poissons Ratio (z) = 0.29884 0.54888
#
# Static dielectric constant tensor:
#      x y z
#    x 1.493500 0.000000 0.036730 
#    y 0.000000 1.516840 0.000000 
#    z 0.036730 0.000000 1.529770 
# 
# From -- ./inp_files/287333.got.cif
#   From: 2010.05.17/outbox.cif.g08.bks.cpg/sg12_144_cif.got.tgz:287333.got - 2010.06.03 13:09:07.
