data_PCOD9171408
_publ_section_title
;
Structure prediction by ZEFSAII (Michael W. Deem and Ramdas Pophale) SiO2 
 PCOD9171408
Probable space group: C 2/M
;
_chemical_formula_sum "Si O2"
_cell_formula_units_Z 64
_cell_length_a 32.233427
_cell_length_b 7.736251
_cell_length_c 21.993741
_cell_angle_alpha 90.000000
_cell_angle_beta 137.562063
_cell_angle_gamma 90.000000
_cell_volume 3700.884602
_symmetry_space_group_name_H-M "C 2/M"
_symmetry_group_IT_number 12
_symmetry_cell_setting 'monoclinic'
loop_
_space_group_symop_operation_xyz
x,y,z
-x,y,-z
-x,-y,-z
x,-y,z
1/2+x,1/2+y,z
1/2-x,1/2+y,-z
1/2-x,1/2-y,-z
1/2+x,1/2-y,z
loop_
_atom_site_type_symbol
_atom_site_label
_atom_site_fract_x
_atom_site_fract_y
_atom_site_fract_z
Si Si1 0.192986 0.792516 0.395293
Si Si2 0.998357 0.789253 0.900159
Si Si3 0.526228 0.795562 0.388015
Si Si4 0.776875 0.212258 0.709101
Si Si5 0.858993 0.702553 0.409013
Si Si6 0.057834 0.208877 0.285689
Si Si7 0.057724 0.203007 0.601523
Si Si8 0.901352 0.210570 0.899598
O O1 0.250000 0.750000 0.500000
O O2 0.206019 0.732463 0.340812
O O3 0.127925 0.728494 0.351089
O O4 0.188153 0.000000 0.386719
O O5 0.982735 0.730596 0.815496
O O6 0.943147 0.741198 0.886477
O O7 0.999246 0.000000 0.900204
O O8 0.061476 0.731680 0.000510
O O9 0.586623 0.723164 0.489095
O O10 0.532837 0.759123 0.324296
O O11 0.464330 0.729169 0.353600
O O12 0.525830 0.000000 0.396868
O O13 0.708820 0.274099 0.652845
O O14 0.831885 0.268084 0.813106
O O15 0.776639 0.000000 0.709581
O O16 0.855250 0.500000 0.420241
O O17 0.882258 0.718861 0.364786
O O18 0.058995 0.000000 0.284987
O O19 0.000000 0.275304 0.500000
O O20 0.062133 0.000000 0.594877
O O21 0.900971 0.000000 0.900392
#
# Coordination Sequence:
#
# PCOD9171408 Si02
#       8
#     8   8   8   8   8   8   8   8
#     4  10  19  29  40  57  86 122 154 180 207 245
#     4   8  13  22  38  62  87 110 141 185 226 253
#     4  10  19  30  44  63  88 118 149 177 210 257
#     4   9  15  25  40  60  86 117 148 177 212 254
#     4   9  17  28  43  63  88 116 146 178 212 255
#     4  10  18  28  42  63  89 116 147 183 220 253
#     4   9  17  30  47  65  85 110 142 181 222 257
#     4   8  12  21  39  61  85 111 143 183 222 255
#
# _framework density 17.293161999999999
#
# number of rings (size 3 to 8) (size 9 to 14) (size 15 to 20)
#    0.000    2.875    1.250    2.250    0.000    3.500 
#    0.000    0.625    0.000    0.000    0.000    4.375 
#    0.000    0.000    0.000    0.000    0.000    0.000 
#
# Total GULP energy -178300.365999 kJ/mol
# GULP energy per Si atom -5571.886437 kJ/mol
# Density = 1.725380 g / cm^3
# Si number density = 17.293162 Si / 1000 Ang^3
#
#
#
# Elastic Constant Matrix: (Units=GPa)
#
#
# Indices 1 2 3 4 5 6 
#
# 1 92.4200 -7.0780 41.9679 0.0000 -17.4236 0.0000
# 2 -7.0780 24.6039 -2.5296 -0.0001 0.5528 0.0000
# 3 41.9679 -2.5296 103.0353 0.0000 -13.4403 0.0000
# 4 0.0000 -0.0001 0.0000 7.3654 0.0000 -4.2206
# 5 -17.4236 0.5528 -13.4403 0.0000 13.7316 0.0000
# 6 0.0000 0.0000 0.0000 -4.2206 0.0000 13.8578
#
#
#
# Elastic Compliance Matrix: (Units=1/GPa)
#
#
# Indices 1 2 3 4 5 6 
#
# 1 0.016123 0.003828 -0.004384 0.000000 0.016012 0.000000
# 2 0.003828 0.041662 -0.000139 0.000001 0.003043 0.000000
# 3 -0.004384 -0.000139 0.012338 0.000000 0.006519 0.000000
# 4 0.000000 0.000001 0.000000 0.164474 0.000000 0.050094
# 5 0.016012 0.003043 0.006519 0.000000 0.099400 0.000000
# 6 0.000000 0.000000 0.000000 0.050094 0.000000 0.087418
#
#
# Mechanical properties :
#
#
# Convention : Reuss Voigt Hill
#
# Bulk Modulus (GPa) = 14.54933 31.64219 23.09576
# Shear Modulus (GPa) = 11.21782 19.50423 15.36103
#
# Velocity S-wave (km/s) = 2.54969 3.36200 2.98362
# Velocity P-wave (km/s) = 4.13516 5.77996 5.02531
#
# Compressibility (1/GPa) = 0.06873170
#
# Stress axis : x y z
#
# Youngs Moduli (GPa) = 62.02283 24.00244 81.04915
#
# Poissons Ratio (x) = -0.09188 0.35536
# Poissons Ratio (y) = -0.23741 0.01129
# Poissons Ratio (z) = 0.27194 0.00334
#
# Static dielectric constant tensor:
#      x y z
#    x 1.591660 0.000000 0.005090 
#    y 0.000000 1.641570 0.000000 
#    z 0.005090 0.000000 1.594980 
# 
# From -- ./inp_files/326794.got.cif
#   From: 2010.05.17/outbox.cif.g08.bks.cpg/sg12_164_cif.got.tgz:326794.got - 2010.06.03 13:09:07.
