data_PCOD9171867
_publ_section_title
;
Structure prediction by ZEFSAII (Michael W. Deem and Ramdas Pophale) SiO2 
 PCOD9171867
Probable space group: C 2/M
;
_chemical_formula_sum "Si O2"
_cell_formula_units_Z 48
_cell_length_a 23.140388
_cell_length_b 20.497925
_cell_length_c 15.625509
_cell_angle_alpha 90.000000
_cell_angle_beta 163.194939
_cell_angle_gamma 90.000000
_cell_volume 2142.828296
_symmetry_space_group_name_H-M "C 2/M"
_symmetry_group_IT_number 12
_symmetry_cell_setting 'monoclinic'
loop_
_space_group_symop_operation_xyz
x,y,z
-x,y,-z
-x,-y,-z
x,-y,z
1/2+x,1/2+y,z
1/2-x,1/2+y,-z
1/2-x,1/2-y,-z
1/2+x,1/2-y,z
loop_
_atom_site_type_symbol
_atom_site_label
_atom_site_fract_x
_atom_site_fract_y
_atom_site_fract_z
Si Si1 0.710428 0.695376 0.718164
Si Si2 0.183939 0.075105 0.003277
Si Si3 0.764386 0.840444 0.763165
Si Si4 0.742987 0.322098 0.948201
Si Si5 0.206413 0.607977 0.319147
Si Si6 0.760555 0.179286 0.562878
O O1 0.686832 0.772833 0.692199
O O2 0.490931 0.666135 0.401628
O O3 0.824808 0.676782 0.967148
O O4 0.797676 0.670413 0.751956
O O5 0.290061 0.122943 0.084780
O O6 0.937465 0.081283 0.644312
O O7 0.234777 0.000000 0.062126
O O8 0.254799 0.100579 0.197202
O O9 0.690109 0.835731 0.559964
O O10 0.002114 0.831624 0.095703
O O11 0.750000 0.250000 0.000000
O O12 0.181162 0.628678 0.380982
O O13 0.000000 0.571724 0.000000
O O14 0.750000 0.250000 0.500000
#
# Coordination Sequence:
#
# PCOD9171867 Si02
#       6
#     8   8   8   8   8   8
#     4  10  19  31  54  88 115 142 191 251 302 341
#     4  10  22  40  60  83 118 162 199 238 298 365
#     4  10  19  32  52  85 118 152 193 239 296 350
#     4  10  20  35  56  84 113 147 197 251 298 345
#     4  10  20  34  55  87 122 153 194 241 294 349
#     4  10  18  28  50  86 122 151 185 239 298 346
#
# _framework density 22.400300999999999
#
# number of rings (size 3 to 8) (size 9 to 14) (size 15 to 20)
#    0.000    2.000    3.333    1.000    0.000    1.667 
#    0.000   13.333    0.000    2.000    0.000    0.000 
#    0.000    0.000    0.000    0.000    0.000    0.000 
#
# Total GULP energy -133644.154643 kJ/mol
# GULP energy per Si atom -5568.506443 kJ/mol
# Density = 2.234932 g / cm^3
# Si number density = 22.400301 Si / 1000 Ang^3
#
#
#
# Elastic Constant Matrix: (Units=GPa)
#
#
# Indices 1 2 3 4 5 6 
#
# 1 155.4250 62.0645 29.5862 0.0000 -49.3855 0.0000
# 2 62.0645 138.9300 10.7356 0.0000 -32.3394 0.0000
# 3 29.5862 10.7356 123.9069 -0.0001 -43.1769 0.0000
# 4 0.0000 0.0000 -0.0001 9.6516 0.0000 -4.0615
# 5 -49.3855 -32.3394 -43.1769 0.0000 41.2947 0.0000
# 6 0.0000 0.0000 0.0000 -4.0615 0.0000 13.6556
#
#
#
# Elastic Compliance Matrix: (Units=1/GPa)
#
#
# Indices 1 2 3 4 5 6 
#
# 1 0.011427 -0.001811 0.002669 0.000000 0.015039 0.000000
# 2 -0.001811 0.009646 0.002320 0.000000 0.007815 0.000000
# 3 0.002669 0.002320 0.014123 0.000000 0.019775 0.000000
# 4 0.000000 0.000000 0.000000 0.118432 0.000000 0.035224
# 5 0.015039 0.007815 0.019775 0.000000 0.068998 0.000000
# 6 0.000000 0.000000 0.000000 0.035224 0.000000 0.083706
#
#
# Mechanical properties :
#
#
# Convention : Reuss Voigt Hill
#
# Bulk Modulus (GPa) = 24.06580 69.22607 46.64594
# Shear Modulus (GPa) = 15.93224 33.97877 24.95551
#
# Velocity S-wave (km/s) = 2.66982 3.89895 3.34139
# Velocity P-wave (km/s) = 4.50231 7.15823 5.97959
#
# Compressibility (1/GPa) = 0.04155274
#
# Stress axis : x y z
#
# Youngs Moduli (GPa) = 87.50834 103.66455 70.80514
#
# Poissons Ratio (x) = 0.18769 -0.18896
# Poissons Ratio (y) = 0.15844 -0.16424
# Poissons Ratio (z) = -0.23354 -0.24046
#
# Static dielectric constant tensor:
#      x y z
#    x 1.955810 0.000000 0.010300 
#    y 0.000000 1.784450 0.000000 
#    z 0.010300 0.000000 1.919440 
# 
# From -- ./inp_files/241851.got.cif
#   From: 2010.05.17/outbox.cif.g08.bks.cpg/sg12_121_cif.got.tgz:241851.got - 2010.06.03 13:09:07.
