data_PCOD9171134
_publ_section_title
;
Structure prediction by ZEFSAII (Michael W. Deem and Ramdas Pophale) SiO2 
 PCOD9171134
Probable space group: C 2/M
;
_chemical_formula_sum "Si O2"
_cell_formula_units_Z 56
_cell_length_a 27.355186
_cell_length_b 14.872209
_cell_length_c 24.996224
_cell_angle_alpha 90.000000
_cell_angle_beta 18.663586
_cell_angle_gamma 90.000000
_cell_volume 3254.275933
_symmetry_space_group_name_H-M "C 2/M"
_symmetry_group_IT_number 12
_symmetry_cell_setting 'monoclinic'
loop_
_space_group_symop_operation_xyz
x,y,z
-x,y,-z
-x,-y,-z
x,-y,z
1/2+x,1/2+y,z
1/2-x,1/2+y,-z
1/2-x,1/2-y,-z
1/2+x,1/2-y,z
loop_
_atom_site_type_symbol
_atom_site_label
_atom_site_fract_x
_atom_site_fract_y
_atom_site_fract_z
Si Si1 0.469668 0.719879 0.587748
Si Si2 0.130786 0.839058 0.736640
Si Si3 0.824072 0.599030 0.632861
Si Si4 0.078011 0.769028 0.587412
Si Si5 0.022209 0.102920 0.213933
Si Si6 0.807389 0.165350 0.121951
Si Si7 0.845451 0.601969 0.826631
O O1 0.500000 0.671793 0.500000
O O2 0.559313 0.816985 0.490475
O O3 0.527484 0.683342 0.584191
O O4 0.292070 0.743895 0.774123
O O5 0.228446 0.896759 0.677421
O O6 0.245593 0.759555 0.600592
O O7 0.070456 0.885453 0.745432
O O8 0.979543 0.814436 0.926888
O O9 0.894793 0.500000 0.563188
O O10 0.718470 0.617245 0.794343
O O11 0.041016 0.829625 0.676412
O O12 0.974826 0.677777 0.697936
O O13 0.008849 0.000000 0.245568
O O14 0.201050 0.120539 0.015114
O O15 0.729270 0.108658 0.155089
O O16 0.901307 0.500000 0.777309
#
# Coordination Sequence:
#
# PCOD9171134 Si02
#       7
#     8   8   8   8   8   8   8
#     4   8  17  30  45  64  87 115 149 186 222 263
#     4  10  20  30  42  64  92 121 153 185 220 263
#     4  10  18  27  41  63  93 126 154 178 210 260
#     4  10  19  32  50  68  91 121 153 187 229 273
#     4  10  20  34  49  66  89 119 157 196 230 265
#     4   9  17  28  42  64  94 124 151 177 213 264
#     4   9  18  31  48  69  93 121 152 186 223 267
#
# _framework density 17.208129
#
# number of rings (size 3 to 8) (size 9 to 14) (size 15 to 20)
#    0.000    2.571    0.000    2.143    0.000   10.571 
#    0.000    0.000    0.000    0.429    0.000    0.000 
#    0.000   14.857    0.000    0.000    0.000    0.000 
#
# Total GULP energy -156000.444773 kJ/mol
# GULP energy per Si atom -5571.444456 kJ/mol
# Density = 1.716896 g / cm^3
# Si number density = 17.208129 Si / 1000 Ang^3
#
#
#
# Elastic Constant Matrix: (Units=GPa)
#
#
# Indices 1 2 3 4 5 6 
#
# 1 84.2519 26.9573 34.6716 0.0039 12.8058 -0.0003
# 2 26.9573 31.2719 32.2124 -0.0034 10.5299 0.0012
# 3 34.6716 32.2124 99.8497 -0.0034 9.6120 0.0022
# 4 0.0039 -0.0034 -0.0034 8.8825 -0.0002 1.0427
# 5 12.8058 10.5299 9.6120 -0.0002 31.9336 0.0002
# 6 -0.0003 0.0012 0.0022 1.0427 0.0002 4.6246
#
#
#
# Elastic Compliance Matrix: (Units=1/GPa)
#
#
# Indices 1 2 3 4 5 6 
#
# 1 0.016729 -0.011828 -0.001774 -0.000014 -0.002275 0.000008
# 2 -0.011828 0.060718 -0.014428 0.000025 -0.010935 -0.000014
# 3 -0.001774 -0.014428 0.015200 0.000002 0.000894 -0.000004
# 4 -0.000014 0.000025 0.000002 0.115642 -0.000002 -0.026074
# 5 -0.002275 -0.010935 0.000894 -0.000002 0.035564 0.000001
# 6 0.000008 -0.000014 -0.000004 -0.026074 0.000001 0.222113
#
#
# Mechanical properties :
#
#
# Convention : Reuss Voigt Hill
#
# Bulk Modulus (GPa) = 27.33271 44.78402 36.05836
# Shear Modulus (GPa) = 9.35941 17.19029 13.27485
#
# Velocity S-wave (km/s) = 2.33468 3.16407 2.78047
# Velocity P-wave (km/s) = 4.81516 6.27932 5.59534
#
# Compressibility (1/GPa) = 0.03658620
#
# Stress axis : x y z
#
# Youngs Moduli (GPa) = 59.77467 16.46963 65.79002
#
# Poissons Ratio (x) = 0.19480 0.11674
# Poissons Ratio (y) = 0.70699 0.94925
# Poissons Ratio (z) = 0.10607 0.23763
#
# Static dielectric constant tensor:
#      x y z
#    x 1.618760 0.000000 0.007530 
#    y 0.000000 1.559190 0.000000 
#    z 0.007530 0.000000 1.617670 
# 
# From -- ./inp_files/352043.got.cif
#   From: 2010.05.17/outbox.cif.g08.bks.cpg/sg12_177_cif.got.tgz:352043.got - 2010.06.03 13:09:07.
