data_PCOD9171058
_publ_section_title
;
Structure prediction by ZEFSAII (Michael W. Deem and Ramdas Pophale) SiO2 
 PCOD9171058
Probable space group: C 2/M
;
_chemical_formula_sum "Si O2"
_cell_formula_units_Z 64
_cell_length_a 26.019222
_cell_length_b 7.535132
_cell_length_c 18.359019
_cell_angle_alpha 90.000000
_cell_angle_beta 76.732690
_cell_angle_gamma 90.000000
_cell_volume 3503.368446
_symmetry_space_group_name_H-M "C 2/M"
_symmetry_group_IT_number 12
_symmetry_cell_setting 'monoclinic'
loop_
_space_group_symop_operation_xyz
x,y,z
-x,y,-z
-x,-y,-z
x,-y,z
1/2+x,1/2+y,z
1/2-x,1/2+y,-z
1/2-x,1/2-y,-z
1/2+x,1/2-y,z
loop_
_atom_site_type_symbol
_atom_site_label
_atom_site_fract_x
_atom_site_fract_y
_atom_site_fract_z
Si Si1 0.817769 0.784706 0.595714
Si Si2 0.190685 0.289816 0.990899
Si Si3 0.490769 0.283262 0.419172
Si Si4 0.402257 0.712211 0.688355
Si Si5 0.872321 0.217418 0.426791
Si Si6 0.300325 0.292801 0.320535
Si Si7 0.773563 0.207466 0.173207
Si Si8 0.339053 0.212882 0.847893
O O1 0.856663 0.723023 0.647853
O O2 0.841912 0.729667 0.510437
O O3 0.758604 0.719894 0.627791
O O4 0.816318 0.000000 0.597743
O O5 0.183901 0.500000 0.986180
O O6 0.155752 0.222950 0.070290
O O7 0.250000 0.250000 0.000000
O O8 0.189111 0.217765 0.909650
O O9 0.500000 0.230884 0.500000
O O10 0.490434 0.500000 0.418434
O O11 0.540424 0.222312 0.355144
O O12 0.433164 0.226070 0.411476
O O13 0.403273 0.500000 0.679284
O O14 0.385107 0.750066 0.776180
O O15 0.841333 0.282048 0.365698
O O16 0.871772 0.000000 0.427029
O O17 0.314815 0.500000 0.308368
O O18 0.296536 0.215033 0.240258
O O19 0.716145 0.283234 0.168879
O O20 0.763767 0.000000 0.191461
O O21 0.333341 0.000000 0.855270
#
# Coordination Sequence:
#
# PCOD9171058 Si02
#       8
#     8   8   8   8   8   8   8   8
#     4  10  18  28  43  66  90 117 153 186 220 263
#     4   9  17  28  43  63  87 117 147 175 214 264
#     4   9  15  27  45  65  88 113 148 194 229 255
#     4  10  18  26  44  69  88 113 150 187 221 256
#     4   9  17  29  45  63  87 120 155 189 225 262
#     4  10  19  30  44  64  91 123 152 180 221 270
#     4   9  17  28  41  61  89 119 147 176 216 264
#     4   9  17  29  42  60  90 119 141 172 218 270
#
# _framework density 18.268134
#
# number of rings (size 3 to 8) (size 9 to 14) (size 15 to 20)
#    0.000    2.625    2.500    1.500    0.000    3.000 
#    0.000    0.000    0.000    1.875    0.000    0.875 
#    0.000    7.000    0.000    0.000    0.000    0.000 
#
# Total GULP energy -178398.590310 kJ/mol
# GULP energy per Si atom -5574.955947 kJ/mol
# Density = 1.822655 g / cm^3
# Si number density = 18.268134 Si / 1000 Ang^3
#
#
#
# Elastic Constant Matrix: (Units=GPa)
#
#
# Indices 1 2 3 4 5 6 
#
# 1 110.3703 -5.6300 77.9108 0.0000 2.9624 0.0000
# 2 -5.6300 40.3404 -7.2626 0.0000 3.2334 0.0000
# 3 77.9108 -7.2626 159.2603 0.0000 -13.4108 0.0000
# 4 0.0000 0.0000 0.0000 10.8944 0.0000 -6.3651
# 5 2.9624 3.2334 -13.4108 0.0000 17.4854 0.0000
# 6 0.0000 0.0000 0.0000 -6.3651 0.0000 8.4664
#
#
#
# Elastic Compliance Matrix: (Units=1/GPa)
#
#
# Indices 1 2 3 4 5 6 
#
# 1 0.015064 0.001371 -0.008064 0.000000 -0.008991 0.000000
# 2 0.001371 0.025384 0.000077 0.000000 -0.004868 0.000000
# 3 -0.008064 0.000077 0.011055 0.000000 0.009831 0.000000
# 4 0.000000 0.000000 0.000000 0.163692 0.000000 0.123065
# 5 -0.008991 -0.004868 0.009831 0.000000 0.067154 0.000000
# 6 0.000000 0.000000 0.000000 0.123065 0.000000 0.210635
#
#
# Mechanical properties :
#
#
# Convention : Reuss Voigt Hill
#
# Bulk Modulus (GPa) = 26.12866 48.88970 37.50918
# Shear Modulus (GPa) = 9.63440 23.69940 16.66690
#
# Velocity S-wave (km/s) = 2.29898 3.60572 3.02379
# Velocity P-wave (km/s) = 4.62396 6.64495 5.72435
#
# Compressibility (1/GPa) = 0.03827216
#
# Stress axis : x y z
#
# Youngs Moduli (GPa) = 66.38328 39.39422 90.45435
#
# Poissons Ratio (x) = -0.05402 0.72942
# Poissons Ratio (y) = -0.09103 -0.00695
# Poissons Ratio (z) = 0.53531 -0.00303
#
# Static dielectric constant tensor:
#      x y z
#    x 1.597010 0.000000 0.004860 
#    y 0.000000 1.766140 0.000000 
#    z 0.004860 0.000000 1.663910 
# 
# From -- ./inp_files/287517.got.cif
#   From: 2010.05.17/outbox.cif.g08.bks.cpg/sg12_144_cif.got.tgz:287517.got - 2010.06.03 13:09:07.
