data_PCOD9171527
_publ_section_title
;
Structure prediction by ZEFSAII (Michael W. Deem and Ramdas Pophale) SiO2 
 PCOD9171527
Probable space group: C 2/M
;
_chemical_formula_sum "Si O2"
_cell_formula_units_Z 56
_cell_length_a 16.348166
_cell_length_b 21.951004
_cell_length_c 15.907254
_cell_angle_alpha 90.000000
_cell_angle_beta 145.525029
_cell_angle_gamma 90.000000
_cell_volume 3231.249565
_symmetry_space_group_name_H-M "C 2/M"
_symmetry_group_IT_number 12
_symmetry_cell_setting 'monoclinic'
loop_
_space_group_symop_operation_xyz
x,y,z
-x,y,-z
-x,-y,-z
x,-y,z
1/2+x,1/2+y,z
1/2-x,1/2+y,-z
1/2-x,1/2-y,-z
1/2+x,1/2-y,z
loop_
_atom_site_type_symbol
_atom_site_label
_atom_site_fract_x
_atom_site_fract_y
_atom_site_fract_z
Si Si1 0.829305 0.570674 0.375840
Si Si2 0.729958 0.328541 0.168920
Si Si3 0.542808 0.706140 0.854989
Si Si4 0.764747 0.140288 0.543929
Si Si5 0.891567 0.706331 0.844753
Si Si6 0.881133 0.850300 0.463892
Si Si7 0.494720 0.232543 0.655182
O O1 0.792253 0.500000 0.333364
O O2 0.733142 0.613058 0.232113
O O3 0.801816 0.591463 0.448724
O O4 0.000000 0.577918 0.500000
O O5 0.667507 0.269139 0.163733
O O6 0.896997 0.314500 0.294119
O O7 0.642975 0.329124 0.006530
O O8 0.401188 0.668246 0.709358
O O9 0.487650 0.768310 0.850740
O O10 0.592989 0.730709 0.806778
O O11 0.827858 0.119660 0.506774
O O12 0.644775 0.194272 0.431246
O O13 0.761875 0.664211 0.709010
O O14 0.000000 0.674610 0.000000
O O15 0.940307 0.784293 0.545518
O O16 0.000000 0.877025 0.500000
#
# Coordination Sequence:
#
# PCOD9171527 Si02
#       7
#     8   8   8   8   8   8   8
#     4  11  23  38  57  78  99 139 192 230 263 307
#     4  11  20  31  49  71 109 141 167 216 262 306
#     4  10  19  30  45  75 105 144 171 198 255 326
#     4  11  20  34  51  72 105 138 180 220 259 306
#     4  10  18  28  44  68 107 138 169 199 249 318
#     4  11  19  31  48  73 102 142 174 204 257 322
#     4  11  18  29  50  72 107 143 176 201 252 322
#
# _framework density 17.330756999999998
#
# number of rings (size 3 to 8) (size 9 to 14) (size 15 to 20)
#    0.000    1.286    7.143    1.286    0.000    0.000 
#    0.000    1.429    0.000    0.429    0.000    0.000 
#    0.000    0.571    0.000    0.000    0.000    0.000 
#
# Total GULP energy -155897.814035 kJ/mol
# GULP energy per Si atom -5567.779073 kJ/mol
# Density = 1.729131 g / cm^3
# Si number density = 17.330757 Si / 1000 Ang^3
#
#
#
# Elastic Constant Matrix: (Units=GPa)
#
#
# Indices 1 2 3 4 5 6 
#
# 1 98.3310 24.9699 24.5219 0.0000 -8.6925 0.0000
# 2 24.9699 44.7465 25.4863 0.0000 -8.5059 0.0000
# 3 24.5219 25.4863 104.0254 0.0000 -16.9052 0.0000
# 4 0.0000 0.0000 0.0000 12.5717 0.0000 0.3255
# 5 -8.6925 -8.5059 -16.9052 0.0000 23.7489 0.0000
# 6 0.0000 0.0000 0.0000 0.3255 0.0000 12.6434
#
#
#
# Elastic Compliance Matrix: (Units=1/GPa)
#
#
# Indices 1 2 3 4 5 6 
#
# 1 0.012064 -0.005771 -0.001185 0.000000 0.001505 0.000000
# 2 -0.005771 0.029359 -0.005051 0.000000 0.004807 0.000000
# 3 -0.001185 -0.005051 0.012174 0.000000 0.006423 0.000000
# 4 0.000000 0.000000 0.000000 0.079597 0.000000 -0.002049
# 5 0.001505 0.004807 0.006423 0.000000 0.048952 0.000000
# 6 0.000000 0.000000 0.000000 -0.002049 0.000000 0.079146
#
#
# Mechanical properties :
#
#
# Convention : Reuss Voigt Hill
#
# Bulk Modulus (GPa) = 33.80461 44.11767 38.96114
# Shear Modulus (GPa) = 16.93957 21.26777 19.10367
#
# Velocity S-wave (km/s) = 3.12978 3.50690 3.32369
# Velocity P-wave (km/s) = 5.71039 6.47374 6.10401
#
# Compressibility (1/GPa) = 0.02958176
#
# Stress axis : x y z
#
# Youngs Moduli (GPa) = 82.89270 34.06074 82.14342
#
# Poissons Ratio (x) = 0.19655 0.09737
# Poissons Ratio (y) = 0.47835 0.41495
# Poissons Ratio (z) = 0.09826 0.17206
#
# Static dielectric constant tensor:
#      x y z
#    x 1.709350 0.000000 -0.015640 
#    y 0.000000 1.548010 0.000000 
#    z -0.015640 0.000000 1.623160 
# 
# From -- ./inp_files/90341.got.cif
#   From: 2010.05.17/outbox.cif.g08.bks.cpg/sg12_46_cif.got.tgz:90341.got - 2010.06.03 13:09:07.
