data_PCOD9171437
_publ_section_title
;
Structure prediction by ZEFSAII (Michael W. Deem and Ramdas Pophale) SiO2 
 PCOD9171437
Probable space group: C 2/M
;
_chemical_formula_sum "Si O2"
_cell_formula_units_Z 64
_cell_length_a 28.483340
_cell_length_b 9.057440
_cell_length_c 21.047892
_cell_angle_alpha 90.000000
_cell_angle_beta 127.479559
_cell_angle_gamma 90.000000
_cell_volume 4309.138836
_symmetry_space_group_name_H-M "C 2/M"
_symmetry_group_IT_number 12
_symmetry_cell_setting 'monoclinic'
loop_
_space_group_symop_operation_xyz
x,y,z
-x,y,-z
-x,-y,-z
x,-y,z
1/2+x,1/2+y,z
1/2-x,1/2+y,-z
1/2-x,1/2-y,-z
1/2+x,1/2-y,z
loop_
_atom_site_type_symbol
_atom_site_label
_atom_site_fract_x
_atom_site_fract_y
_atom_site_fract_z
Si Si1 0.390454 0.176923 0.759169
Si Si2 0.840819 0.830300 0.598471
Si Si3 0.303216 0.677187 0.083852
Si Si4 0.788394 0.330000 0.439843
Si Si5 0.376251 0.675739 0.026006
Si Si6 0.734794 0.823545 0.277241
Si Si7 0.993050 0.678129 0.067431
Si Si8 0.254357 0.322979 0.850427
O O1 0.382559 0.254425 0.684825
O O2 0.332010 0.209580 0.753127
O O3 0.449318 0.222791 0.844788
O O4 0.391436 0.000000 0.750815
O O5 0.833499 0.742519 0.526812
O O6 0.775571 0.828995 0.577423
O O7 0.857045 0.000000 0.600646
O O8 0.295836 0.500000 0.080969
O O9 0.359909 0.708123 0.086157
O O10 0.295934 0.749254 0.146755
O O11 0.250000 0.750000 0.000000
O O12 0.803155 0.500000 0.438347
O O13 0.778239 0.237172 0.367678
O O14 0.385269 0.500000 0.027919
O O15 0.433283 0.759292 0.048003
O O16 0.318049 0.711995 0.935780
O O17 0.745768 0.743443 0.219840
O O18 0.740116 0.000000 0.275238
O O19 0.990516 0.500000 0.065744
O O20 0.000000 0.726136 0.000000
O O21 0.248099 0.500000 0.845038
#
# Coordination Sequence:
#
# PCOD9171437 Si02
#       8
#     8   8   8   8   8   8   8   8
#     4   9  18  30  42  59  84 115 150 184 217 253
#     4   9  16  26  41  59  79 108 145 179 213 254
#     4   9  17  30  46  64  84 107 139 177 218 262
#     4   9  16  26  40  59  84 111 139 174 214 256
#     4   9  19  32  45  62  84 111 144 182 219 255
#     4  10  18  28  43  62  87 117 146 177 214 256
#     4  10  20  32  45  62  85 115 151 185 216 252
#     4  10  19  30  44  64  88 113 143 177 217 263
#
# _framework density 14.852156000000001
#
# number of rings (size 3 to 8) (size 9 to 14) (size 15 to 20)
#    0.000    2.625    0.000    3.375    0.000    8.250 
#    0.000    0.000    0.000    0.000    0.000    0.000 
#    0.000    1.000    0.000   10.500    0.000    6.250 
#
# Total GULP energy -178291.678057 kJ/mol
# GULP energy per Si atom -5571.614939 kJ/mol
# Density = 1.481835 g / cm^3
# Si number density = 14.852156 Si / 1000 Ang^3
#
#
#
# Elastic Constant Matrix: (Units=GPa)
#
#
# Indices 1 2 3 4 5 6 
#
# 1 88.1414 46.3987 55.3459 0.0000 -16.4793 0.0000
# 2 46.3987 63.6301 50.0125 0.0000 -12.8786 0.0000
# 3 55.3459 50.0125 114.6931 0.0000 -17.8260 0.0000
# 4 0.0000 0.0000 0.0000 24.4464 0.0000 -3.9613
# 5 -16.4793 -12.8786 -17.8260 0.0000 18.7373 0.0000
# 6 0.0000 0.0000 0.0000 -3.9613 0.0000 23.3391
#
#
#
# Elastic Compliance Matrix: (Units=1/GPa)
#
#
# Indices 1 2 3 4 5 6 
#
# 1 0.020900 -0.010269 -0.004516 0.000000 0.007028 0.000000
# 2 -0.010269 0.029928 -0.007395 0.000000 0.004503 0.000000
# 3 -0.004516 -0.007395 0.014922 0.000000 0.005142 0.000000
# 4 0.000000 0.000000 0.000000 0.042063 0.000000 0.007139
# 5 0.007028 0.004503 0.005142 0.000000 0.067538 0.000000
# 6 0.000000 0.000000 0.000000 0.007139 0.000000 0.044058
#
#
# Mechanical properties :
#
#
# Convention : Reuss Voigt Hill
#
# Bulk Modulus (GPa) = 46.74838 63.33097 55.03967
# Shear Modulus (GPa) = 18.45719 20.95172 19.70445
#
# Velocity S-wave (km/s) = 3.52906 3.75998 3.64635
# Velocity P-wave (km/s) = 6.93901 7.84751 7.40720
#
# Compressibility (1/GPa) = 0.02139112
#
# Stress axis : x y z
#
# Youngs Moduli (GPa) = 47.84580 33.41397 67.01673
#
# Poissons Ratio (x) = 0.34313 0.30262
# Poissons Ratio (y) = 0.49133 0.49558
# Poissons Ratio (z) = 0.21605 0.24709
#
# Static dielectric constant tensor:
#      x y z
#    x 1.480940 0.000000 -0.014560 
#    y 0.000000 1.496060 0.000000 
#    z -0.014560 0.000000 1.487260 
# 
# From -- ./inp_files/326934.got.cif
#   From: 2010.05.17/outbox.cif.g08.bks.cpg/sg12_164_cif.got.tgz:326934.got - 2010.06.03 13:09:07.
