data_PCOD9171948
_publ_section_title
;
Structure prediction by ZEFSAII (Michael W. Deem and Ramdas Pophale) SiO2 
 PCOD9171948
Probable space group: C 2/M
;
_chemical_formula_sum "Si O2"
_cell_formula_units_Z 64
_cell_length_a 19.617794
_cell_length_b 14.306660
_cell_length_c 29.123593
_cell_angle_alpha 90.000000
_cell_angle_beta 29.285732
_cell_angle_gamma 90.000000
_cell_volume 3998.425377
_symmetry_space_group_name_H-M "C 2/M"
_symmetry_group_IT_number 12
_symmetry_cell_setting 'monoclinic'
loop_
_space_group_symop_operation_xyz
x,y,z
-x,y,-z
-x,-y,-z
x,-y,z
1/2+x,1/2+y,z
1/2-x,1/2+y,-z
1/2-x,1/2-y,-z
1/2+x,1/2-y,z
loop_
_atom_site_type_symbol
_atom_site_label
_atom_site_fract_x
_atom_site_fract_y
_atom_site_fract_z
Si Si1 0.845261 0.291750 0.091064
Si Si2 0.282117 0.388322 0.919826
Si Si3 0.785392 0.390943 0.598530
Si Si4 0.868207 0.608010 0.903075
Si Si5 0.052999 0.227264 0.776618
Si Si6 0.404763 0.607550 0.998555
Si Si7 0.934930 0.393032 0.610768
Si Si8 0.319148 0.706189 0.199589
O O1 0.750196 0.346996 0.111206
O O2 0.804894 0.282009 0.167724
O O3 0.861984 0.186324 0.060645
O O4 0.000000 0.334512 0.000000
O O5 0.287663 0.500000 0.916248
O O6 0.426506 0.346534 0.853234
O O7 0.160888 0.359749 0.027321
O O8 0.743502 0.500000 0.614261
O O9 0.660229 0.317673 0.677342
O O10 0.858431 0.392524 0.605928
O O11 0.906882 0.361509 0.491831
O O12 0.912307 0.500000 0.877271
O O13 0.975880 0.674606 0.813871
O O14 0.717326 0.613245 0.967587
O O15 0.130703 0.238672 0.779698
O O16 0.406377 0.500000 0.013674
O O17 0.555656 0.636574 0.889879
O O18 0.943617 0.500000 0.620752
O O19 0.831664 0.339570 0.704911
#
# Coordination Sequence:
#
# PCOD9171948 Si02
#       8
#     8   8   8   8   8   8   8   8
#     4  10  21  33  43  67 100 136 164 192 236 290
#     4  11  21  33  50  69  95 131 170 205 238 281
#     4   8  15  26  44  73 101 122 152 199 251 293
#     4  10  19  30  47  70  95 125 162 204 241 277
#     4  11  18  31  51  72  93 125 162 205 244 283
#     4  10  18  29  44  67  98 128 159 193 235 287
#     4   8  14  26  43  69 102 126 151 196 249 297
#     4  10  19  28  48  70  99 130 162 195 239 293
#
# _framework density 16.006301000000001
#
# number of rings (size 3 to 8) (size 9 to 14) (size 15 to 20)
#    0.000    2.250    2.500    3.375    0.000    4.000 
#    0.000    0.625    0.000    0.750    0.000    7.875 
#    0.000    0.000    0.000    0.000    0.000    0.000 
#
# Total GULP energy -178147.910416 kJ/mol
# GULP energy per Si atom -5567.122201 kJ/mol
# Density = 1.596987 g / cm^3
# Si number density = 16.006301 Si / 1000 Ang^3
#
#
#
# Elastic Constant Matrix: (Units=GPa)
#
#
# Indices 1 2 3 4 5 6 
#
# 1 56.4637 9.6752 13.0040 0.0004 -0.1751 0.0000
# 2 9.6752 59.7092 41.1608 -0.0002 -5.2004 0.0001
# 3 13.0040 41.1608 113.7491 -0.0003 0.7041 0.0004
# 4 0.0004 -0.0002 -0.0003 18.1560 -0.0002 -6.6782
# 5 -0.1751 -5.2004 0.7041 -0.0002 11.5529 -0.0002
# 6 0.0000 0.0001 0.0004 -6.6782 -0.0002 6.5544
#
#
#
# Elastic Compliance Matrix: (Units=1/GPa)
#
#
# Indices 1 2 3 4 5 6 
#
# 1 0.018377 -0.002110 -0.001334 -0.000001 -0.000590 -0.000001
# 2 -0.002110 0.023918 -0.008483 0.000001 0.011251 0.000001
# 3 -0.001334 -0.008483 0.012042 0.000000 -0.004573 -0.000001
# 4 -0.000001 0.000001 0.000000 0.088094 0.000003 0.089758
# 5 -0.000590 0.011251 -0.004573 0.000003 0.091893 0.000006
# 6 -0.000001 0.000001 -0.000001 0.089758 0.000006 0.244023
#
#
# Mechanical properties :
#
#
# Convention : Reuss Voigt Hill
#
# Bulk Modulus (GPa) = 32.80497 39.73354 36.26925
# Shear Modulus (GPa) = 9.75875 18.32479 14.04177
#
# Velocity S-wave (km/s) = 2.47185 3.38723 2.96508
# Velocity P-wave (km/s) = 5.35596 6.33840 5.86778
#
# Compressibility (1/GPa) = 0.03048319
#
# Stress axis : x y z
#
# Youngs Moduli (GPa) = 54.41475 41.81034 83.04432
#
# Poissons Ratio (x) = 0.08821 0.11077
# Poissons Ratio (y) = 0.11480 0.70448
# Poissons Ratio (z) = 0.07258 0.35468
#
# Static dielectric constant tensor:
#      x y z
#    x 1.567740 0.000000 0.003420 
#    y 0.000000 1.542890 0.000000 
#    z 0.003420 0.000000 1.552490 
# 
# From -- ./inp_files/379337.got.cif
#   From: 2010.05.17/outbox.cif.g08.bks.cpg/sg12_190_cif.got.tgz:379337.got - 2010.06.03 13:09:07.
