data_PCOD9171846
_publ_section_title
;
Structure prediction by ZEFSAII (Michael W. Deem and Ramdas Pophale) SiO2 
 PCOD9171846
Probable space group: C 2/M
;
_chemical_formula_sum "Si O2"
_cell_formula_units_Z 64
_cell_length_a 16.085910
_cell_length_b 7.591249
_cell_length_c 20.398208
_cell_angle_alpha 90.000000
_cell_angle_beta 71.835128
_cell_angle_gamma 90.000000
_cell_volume 2366.732470
_symmetry_space_group_name_H-M "C 2/M"
_symmetry_group_IT_number 12
_symmetry_cell_setting 'monoclinic'
loop_
_space_group_symop_operation_xyz
x,y,z
-x,y,-z
-x,-y,-z
x,-y,z
1/2+x,1/2+y,z
1/2-x,1/2+y,-z
1/2-x,1/2-y,-z
1/2+x,1/2-y,z
loop_
_atom_site_type_symbol
_atom_site_label
_atom_site_fract_x
_atom_site_fract_y
_atom_site_fract_z
Si Si1 0.563543 0.212325 0.041202
Si Si2 0.610236 0.787939 0.667815
Si Si3 0.051888 0.705725 0.548088
Si Si4 0.212896 0.294152 0.918456
Si Si5 0.805841 0.786142 0.580236
Si Si6 0.170516 0.207142 0.789995
Si Si7 0.867961 0.204197 0.699801
Si Si8 0.401041 0.710553 0.828863
O O1 0.541979 0.262581 0.120562
O O2 0.564274 0.000000 0.038722
O O3 0.500000 0.277192 0.000000
O O4 0.658436 0.279074 0.992690
O O5 0.549628 0.722354 0.622692
O O6 0.707848 0.729731 0.621584
O O7 0.604533 0.734653 0.745279
O O8 0.608108 0.000000 0.667130
O O9 0.029394 0.500000 0.557337
O O10 0.151436 0.717034 0.496496
O O11 0.000000 0.791426 0.500000
O O12 0.227379 0.500000 0.927166
O O13 0.154408 0.281861 0.866411
O O14 0.306397 0.215798 0.875861
O O15 0.865537 0.720088 0.627187
O O16 0.806758 0.000000 0.578789
O O17 0.264245 0.289021 0.745424
O O18 0.182166 0.000000 0.794423
O O19 0.915971 0.283897 0.751938
O O20 0.890772 0.000000 0.687465
O O21 0.394600 0.500000 0.821052
#
# Coordination Sequence:
#
# PCOD9171846 Si02
#       8
#     8   8   8   8   8   8   8   8
#     4  10  21  35  50  71 100 133 168 205 245 290
#     4   9  18  34  53  72 100 134 162 196 248 300
#     4  10  21  35  50  71 100 133 168 205 245 290
#     4   9  18  34  53  72 100 134 162 196 248 300
#     4   9  17  31  53  76  98 129 164 199 243 294
#     4  10  18  28  49  80 103 121 159 209 245 284
#     4   8  16  32  51  74 103 131 159 195 249 302
#     4   9  17  31  53  76  98 129 164 199 243 294
#
# _framework density 27.041499999999999
#
# number of rings (size 3 to 8) (size 9 to 14) (size 15 to 20)
#    0.000    2.750    0.000    3.375    0.000    5.500 
#    0.000    1.250    0.000    4.500    0.000    0.000 
#    0.000    0.000    0.000    0.000    0.000    0.000 
#
# Total GULP energy -178928.095961 kJ/mol
# GULP energy per Si atom -5591.502999 kJ/mol
# Density = 2.697995 g / cm^3
# Si number density = 27.041500 Si / 1000 Ang^3
#
#
#
# Elastic Constant Matrix: (Units=GPa)
#
#
# Indices 1 2 3 4 5 6 
#
# 1 76.4430 10.1177 40.6595 0.0000 23.2708 0.0000
# 2 10.1177 98.6123 -0.5484 0.0001 -0.1587 0.0001
# 3 40.6595 -0.5484 240.5173 0.0000 22.3340 0.0000
# 4 0.0000 0.0001 0.0000 18.8110 0.0000 0.9767
# 5 23.2708 -0.1587 22.3340 0.0000 62.5914 0.0000
# 6 0.0000 0.0001 0.0000 0.9767 0.0000 7.2435
#
#
#
# Elastic Compliance Matrix: (Units=1/GPa)
#
#
# Indices 1 2 3 4 5 6 
#
# 1 0.016071 -0.001670 -0.002240 0.000000 -0.005180 0.000000
# 2 -0.001670 0.010314 0.000254 0.000000 0.000556 0.000000
# 3 -0.002240 0.000254 0.004612 0.000000 -0.000812 0.000000
# 4 0.000000 0.000000 0.000000 0.053535 0.000000 -0.007218
# 5 -0.005180 0.000556 -0.000812 0.000000 0.018194 0.000000
# 6 0.000000 0.000000 0.000000 -0.007218 0.000000 0.139029
#
#
# Mechanical properties :
#
#
# Convention : Reuss Voigt Hill
#
# Bulk Modulus (GPa) = 42.21690 57.33669 49.77679
# Shear Modulus (GPa) = 19.45818 42.08542 30.77180
#
# Velocity S-wave (km/s) = 2.68539 3.94931 3.37701
# Velocity P-wave (km/s) = 5.02602 6.48424 5.80113
#
# Compressibility (1/GPa) = 0.02368720
#
# Stress axis : x y z
#
# Youngs Moduli (GPa) = 62.22491 96.95244 216.81021
#
# Poissons Ratio (x) = 0.16188 0.48556
# Poissons Ratio (y) = 0.10389 -0.05510
# Poissons Ratio (z) = 0.13936 -0.02464
#
# Static dielectric constant tensor:
#      x y z
#    x 2.273330 0.000000 0.043040 
#    y 0.000000 1.961910 0.000000 
#    z 0.043040 0.000000 2.120990 
# 
# From -- ./inp_files/313975.got.cif
#   From: 2010.05.17/outbox.cif.g08.bks.cpg/sg12_157_cif.got.tgz:313975.got - 2010.06.03 13:09:07.
