data_PCOD9171042
_publ_section_title
;
Structure prediction by ZEFSAII (Michael W. Deem and Ramdas Pophale) SiO2 
 PCOD9171042
Probable space group: C 2/M
;
_chemical_formula_sum "Si O2"
_cell_formula_units_Z 64
_cell_length_a 25.942774
_cell_length_b 7.397509
_cell_length_c 19.957134
_cell_angle_alpha 90.000000
_cell_angle_beta 115.667999
_cell_angle_gamma 90.000000
_cell_volume 3452.062556
_symmetry_space_group_name_H-M "C 2/M"
_symmetry_group_IT_number 12
_symmetry_cell_setting 'monoclinic'
loop_
_space_group_symop_operation_xyz
x,y,z
-x,y,-z
-x,-y,-z
x,-y,z
1/2+x,1/2+y,z
1/2-x,1/2+y,-z
1/2-x,1/2-y,-z
1/2+x,1/2-y,z
loop_
_atom_site_type_symbol
_atom_site_label
_atom_site_fract_x
_atom_site_fract_y
_atom_site_fract_z
Si Si1 0.004149 0.214802 0.816485
Si Si2 0.948954 0.779557 0.921132
Si Si3 0.991723 0.283405 0.658169
Si Si4 0.112786 0.277769 0.665362
Si Si5 0.210169 0.710332 0.816684
Si Si6 0.333364 0.721305 0.928233
Si Si7 0.563536 0.789759 0.502663
Si Si8 0.634778 0.718898 0.903928
O O1 0.965721 0.282357 0.856170
O O2 0.980299 0.244865 0.728911
O O3 0.069471 0.283400 0.857471
O O4 0.008581 0.000000 0.828808
O O5 0.888083 0.721093 0.915802
O O6 0.947590 0.000000 0.920616
O O7 0.000000 0.726713 0.000000
O O8 0.992571 0.500000 0.650693
O O9 0.946985 0.212933 0.577360
O O10 0.055800 0.221375 0.674243
O O11 0.112546 0.500000 0.665216
O O12 0.168993 0.214422 0.735653
O O13 0.104374 0.216075 0.583890
O O14 0.218453 0.500000 0.804340
O O15 0.273106 0.786121 0.865007
O O16 0.174589 0.720288 0.865651
O O17 0.332636 0.500000 0.928295
O O18 0.342239 0.775860 0.010503
O O19 0.500000 0.785203 0.500000
O O20 0.579818 0.000000 0.503959
O O21 0.634501 0.500000 0.902419
#
# Coordination Sequence:
#
# PCOD9171042 Si02
#       8
#     8   8   8   8   8   8   8   8
#     4  10  18  26  42  63  81 106 139 172 201 233
#     4   9  15  27  44  59  77 106 143 176 201 228
#     4   9  15  25  41  59  82 108 132 162 202 245
#     4   8  13  22  37  59  83 105 130 161 199 238
#     4  10  18  27  42  64  86 106 131 169 207 238
#     4   9  17  28  42  60  80 106 143 175 198 231
#     4   7  11  20  36  56  77 105 135 157 188 240
#     4  10  18  28  41  59  84 112 138 162 195 247
#
# _framework density 18.539639999999999
#
# number of rings (size 3 to 8) (size 9 to 14) (size 15 to 20)
#    0.000    3.000    2.500    1.875    0.000    0.000 
#    0.000    0.000    0.000    6.000    0.000    0.875 
#    0.000    0.000    0.000    0.000    0.000    0.000 
#
# Total GULP energy -178404.586957 kJ/mol
# GULP energy per Si atom -5575.143342 kJ/mol
# Density = 1.849744 g / cm^3
# Si number density = 18.539640 Si / 1000 Ang^3
#
#
#
# Elastic Constant Matrix: (Units=GPa)
#
#
# Indices 1 2 3 4 5 6 
#
# 1 96.8213 -2.0257 89.7102 0.0000 10.6584 0.0000
# 2 -2.0257 60.1713 0.9724 0.0000 3.3020 0.0000
# 3 89.7102 0.9724 204.6113 0.0000 -2.6602 0.0000
# 4 0.0000 0.0000 0.0000 6.2542 0.0000 -7.6288
# 5 10.6584 3.3020 -2.6602 0.0000 19.5609 0.0000
# 6 0.0000 0.0000 0.0000 -7.6288 0.0000 6.9903
#
#
#
# Elastic Compliance Matrix: (Units=1/GPa)
#
#
# Indices 1 2 3 4 5 6 
#
# 1 0.020002 0.001496 -0.008938 0.000000 -0.012367 0.000000
# 2 0.001496 0.016889 -0.000785 0.000000 -0.003773 0.000000
# 3 -0.008938 -0.000785 0.008891 0.000000 0.006212 0.000000
# 4 0.000000 0.000000 0.000000 -0.482767 0.000000 -0.526862
# 5 -0.012367 -0.003773 0.006212 0.000000 0.059343 0.000000
# 6 0.000000 0.000000 0.000000 -0.526862 0.000000 -0.431929
#
#
# Mechanical properties :
#
#
# Convention : Reuss Voigt Hill
#
# Bulk Modulus (GPa) = 34.09622 59.87975 46.98798
# Shear Modulus (GPa) = -6.38292 24.75753 9.18731
#
# Velocity S-wave (km/s) = -1.85750 3.65825 2.22851
# Velocity P-wave (km/s) = 3.71894 7.08605 5.65874
#
# Compressibility (1/GPa) = 0.02932876
#
# Stress axis : x y z
#
# Youngs Moduli (GPa) = 49.99416 59.20884 112.47961
#
# Poissons Ratio (x) = -0.08861 1.00532
# Poissons Ratio (y) = -0.07482 0.08835
# Poissons Ratio (z) = 0.44684 0.04651
#
# Static dielectric constant tensor:
#      x y z
#    x 1.597480 0.000000 -0.000820 
#    y 0.000000 1.728910 0.000000 
#    z -0.000820 0.000000 1.676310 
# 
# From -- ./inp_files/288858.got.cif
#   From: 2010.05.17/outbox.cif.g08.bks.cpg/sg12_145_cif.got.tgz:288858.got - 2010.06.03 13:09:07.
