data_PCOD9171891
_publ_section_title
;
Structure prediction by ZEFSAII (Michael W. Deem and Ramdas Pophale) SiO2 
 PCOD9171891
Probable space group: C 2/M
;
_chemical_formula_sum "Si O2"
_cell_formula_units_Z 56
_cell_length_a 27.694036
_cell_length_b 9.023298
_cell_length_c 14.829048
_cell_angle_alpha 90.000000
_cell_angle_beta 76.751183
_cell_angle_gamma 90.000000
_cell_volume 3607.023924
_symmetry_space_group_name_H-M "C 2/M"
_symmetry_group_IT_number 12
_symmetry_cell_setting 'monoclinic'
loop_
_space_group_symop_operation_xyz
x,y,z
-x,y,-z
-x,-y,-z
x,-y,z
1/2+x,1/2+y,z
1/2-x,1/2+y,-z
1/2-x,1/2-y,-z
1/2+x,1/2-y,z
loop_
_atom_site_type_symbol
_atom_site_label
_atom_site_fract_x
_atom_site_fract_y
_atom_site_fract_z
Si Si1 0.317526 0.821136 0.771453
Si Si2 0.182592 0.677012 0.603637
Si Si3 0.375140 0.327180 0.214130
Si Si4 0.211202 0.171981 0.898888
Si Si5 0.702397 0.323093 0.406487
Si Si6 0.860005 0.322237 0.935383
Si Si7 0.556890 0.178933 0.958187
O O1 0.264029 0.781082 0.837337
O O2 0.321032 0.742736 0.674070
O O3 0.356782 0.777844 0.832176
O O4 0.318398 0.000000 0.758771
O O5 0.177861 0.500000 0.600317
O O6 0.142380 0.744680 0.688489
O O7 0.238278 0.710718 0.617008
O O8 0.180517 0.748883 0.505691
O O9 0.384992 0.500000 0.227222
O O10 0.328671 0.317722 0.164842
O O11 0.420147 0.251411 0.141135
O O12 0.215124 0.000000 0.924734
O O13 0.188054 0.264153 0.990314
O O14 0.696915 0.500000 0.412605
O O15 0.858474 0.500000 0.937565
O O16 0.907861 0.275009 0.972854
O O17 0.559975 0.000000 0.948913
O O18 0.500000 0.219442 0.000000
#
# Coordination Sequence:
#
# PCOD9171891 Si02
#       7
#     8   8   8   8   8   8   8
#     4  10  18  29  42  61  91 124 156 188 224 267
#     4  10  19  31  46  65  91 124 159 192 226 266
#     4  10  18  29  47  69  94 121 154 192 230 275
#     4   9  17  27  40  60  89 122 151 185 224 263
#     4  10  20  30  44  65  91 125 161 193 223 262
#     4   9  18  29  44  64  87 119 156 190 226 271
#     4   9  18  33  50  69  94 121 153 194 236 277
#
# _framework density 15.525264
#
# number of rings (size 3 to 8) (size 9 to 14) (size 15 to 20)
#    0.000    2.429    1.429    1.714    0.000    3.143 
#    0.000    0.000    0.000    0.000    0.000    1.000 
#    0.000    8.000    0.000    0.000    0.000    0.000 
#
# Total GULP energy -156105.458240 kJ/mol
# GULP energy per Si atom -5575.194937 kJ/mol
# Density = 1.548993 g / cm^3
# Si number density = 15.525264 Si / 1000 Ang^3
#
#
#
# Elastic Constant Matrix: (Units=GPa)
#
#
# Indices 1 2 3 4 5 6 
#
# 1 58.2274 29.1313 56.7335 0.0000 -6.6384 0.0000
# 2 29.1313 39.7154 58.3216 0.0000 0.0238 0.0000
# 3 56.7335 58.3216 149.9669 0.0000 6.6011 0.0000
# 4 0.0000 0.0000 0.0000 30.7780 0.0000 -0.7413
# 5 -6.6384 0.0238 6.6011 0.0000 23.2660 0.0000
# 6 0.0000 0.0000 0.0000 -0.7413 0.0000 13.5551
#
#
#
# Elastic Compliance Matrix: (Units=1/GPa)
#
#
# Indices 1 2 3 4 5 6 
#
# 1 0.032318 -0.011684 -0.008191 0.000000 0.011557 0.000000
# 2 -0.011684 0.063915 -0.020543 0.000000 0.002429 0.000000
# 3 -0.008191 -0.020543 0.018084 0.000000 -0.007447 0.000000
# 4 0.000000 0.000000 0.000000 0.032534 0.000000 0.001779
# 5 0.011557 0.002429 -0.007447 0.000000 0.048389 0.000000
# 6 0.000000 0.000000 0.000000 0.001779 0.000000 0.073870
#
#
# Mechanical properties :
#
#
# Convention : Reuss Voigt Hill
#
# Bulk Modulus (GPa) = 29.86776 59.58695 44.72736
# Shear Modulus (GPa) = 13.84632 20.43472 17.14052
#
# Velocity S-wave (km/s) = 2.98964 3.63192 3.32631
# Velocity P-wave (km/s) = 5.58544 7.48677 6.60488
#
# Compressibility (1/GPa) = 0.03348092
#
# Stress axis : x y z
#
# Youngs Moduli (GPa) = 30.94250 15.64567 55.29787
#
# Poissons Ratio (x) = 0.18280 0.45295
# Poissons Ratio (y) = 0.36153 1.13600
# Poissons Ratio (z) = 0.25345 0.32141
#
# Static dielectric constant tensor:
#      x y z
#    x 1.515080 0.000000 0.022240 
#    y 0.000000 1.517300 0.000000 
#    z 0.022240 0.000000 1.505370 
# 
# From -- ./inp_files/186839.got.cif
#   From: 2010.05.17/outbox.cif.g08.bks.cpg/sg12_94_cif.got.tgz:186839.got - 2010.06.03 13:09:07.
