data_PCOD9171130
_publ_section_title
;
Structure prediction by ZEFSAII (Michael W. Deem and Ramdas Pophale) SiO2 
 PCOD9171130
Probable space group: C 2/M
;
_chemical_formula_sum "Si O2"
_cell_formula_units_Z 56
_cell_length_a 33.102996
_cell_length_b 9.221297
_cell_length_c 23.077394
_cell_angle_alpha 90.000000
_cell_angle_beta 148.657272
_cell_angle_gamma 90.000000
_cell_volume 3664.205608
_symmetry_space_group_name_H-M "C 2/M"
_symmetry_group_IT_number 12
_symmetry_cell_setting 'monoclinic'
loop_
_space_group_symop_operation_xyz
x,y,z
-x,y,-z
-x,-y,-z
x,-y,z
1/2+x,1/2+y,z
1/2-x,1/2+y,-z
1/2-x,1/2-y,-z
1/2+x,1/2-y,z
loop_
_atom_site_type_symbol
_atom_site_label
_atom_site_fract_x
_atom_site_fract_y
_atom_site_fract_z
Si Si1 0.318566 0.828544 0.156655
Si Si2 0.339792 0.828459 0.045050
Si Si3 0.274130 0.832688 0.440176
Si Si4 0.002832 0.171558 0.788723
Si Si5 0.136668 0.332553 0.326140
Si Si6 0.482392 0.173319 0.411521
Si Si7 0.914419 0.828664 0.557561
O O1 0.340009 0.805864 0.115183
O O2 0.393771 0.789633 0.286293
O O3 0.301942 0.000000 0.143438
O O4 0.241952 0.736774 0.076022
O O5 0.413356 0.745976 0.108961
O O6 0.344827 0.000000 0.040599
O O7 0.193503 0.749473 0.351532
O O8 0.317599 0.832406 0.556073
O O9 0.332748 0.750197 0.469444
O O10 0.262587 0.000000 0.409432
O O11 0.942988 0.248272 0.759135
O O12 0.965896 0.191003 0.679076
O O13 0.007680 0.000000 0.805662
O O14 0.124000 0.500000 0.294597
O O15 0.500000 0.203357 0.500000
O O16 0.539763 0.257866 0.439278
O O17 0.491355 0.000000 0.412431
O O18 0.903192 0.000000 0.535695
#
# Coordination Sequence:
#
# PCOD9171130 Si02
#       7
#     8   8   8   8   8   8   8
#     4   9  18  31  45  63  87 114 147 186 227 269
#     4  10  18  28  45  65  87 116 149 185 224 268
#     4   9  16  26  40  57  82 115 149 182 218 263
#     4  10  18  27  41  62  89 119 150 182 220 267
#     4   9  16  25  38  58  85 115 147 181 218 261
#     4  10  20  34  50  66  87 117 153 191 230 270
#     4  10  19  29  43  62  86 116 151 187 225 267
#
# _framework density 15.282985999999999
#
# number of rings (size 3 to 8) (size 9 to 14) (size 15 to 20)
#    0.000    2.429    1.429    2.143    0.000    6.000 
#    0.000    0.000    0.000    0.000    0.000    0.000 
#    0.000    1.143    0.000   12.286    0.000    6.000 
#
# Total GULP energy -156108.893332 kJ/mol
# GULP energy per Si atom -5575.317619 kJ/mol
# Density = 1.524820 g / cm^3
# Si number density = 15.282986 Si / 1000 Ang^3
#
#
#
# Elastic Constant Matrix: (Units=GPa)
#
#
# Indices 1 2 3 4 5 6 
#
# 1 92.9347 82.0288 65.4716 0.0000 38.8746 0.0000
# 2 82.0288 118.9904 64.4350 0.0000 35.2283 0.0000
# 3 65.4716 64.4350 83.7609 0.0000 26.8351 0.0000
# 4 0.0000 0.0000 0.0000 20.0239 0.0000 11.4284
# 5 38.8746 35.2283 26.8351 0.0000 33.4636 0.0000
# 6 0.0000 0.0000 0.0000 11.4284 0.0000 27.5495
#
#
#
# Elastic Compliance Matrix: (Units=1/GPa)
#
#
# Indices 1 2 3 4 5 6 
#
# 1 0.046478 -0.016161 -0.016216 0.000000 -0.023976 0.000000
# 2 -0.016161 0.022049 -0.003913 0.000000 -0.001299 0.000000
# 3 -0.016216 -0.003913 0.027277 0.000000 0.001083 0.000000
# 4 0.000000 0.000000 0.000000 0.065432 0.000000 -0.027143
# 5 -0.023976 -0.001299 0.001083 0.000000 0.058236 0.000000
# 6 0.000000 0.000000 0.000000 -0.027143 0.000000 0.047558
#
#
# Mechanical properties :
#
#
# Convention : Reuss Voigt Hill
#
# Bulk Modulus (GPa) = 43.05887 79.95074 61.50480
# Shear Modulus (GPa) = 14.39471 21.79077 18.09274
#
# Velocity S-wave (km/s) = 3.07233 3.78010 3.44444
# Velocity P-wave (km/s) = 6.38915 8.45454 7.49335
#
# Compressibility (1/GPa) = 0.02322402
#
# Stress axis : x y z
#
# Youngs Moduli (GPa) = 21.51548 45.35420 36.66153
#
# Poissons Ratio (x) = 0.73299 0.59449
# Poissons Ratio (y) = 0.34772 0.14345
# Poissons Ratio (z) = 0.34889 0.17746
#
# Static dielectric constant tensor:
#      x y z
#    x 1.481670 0.000000 0.011970 
#    y 0.000000 1.508100 0.000000 
#    z 0.011970 0.000000 1.486660 
# 
# From -- ./inp_files/237450.got.cif
#   From: 2010.05.17/outbox.cif.g08.bks.cpg/sg12_119_cif.got.tgz:237450.got - 2010.06.03 13:09:07.
