data_PCOD9171545
_publ_section_title
;
Structure prediction by ZEFSAII (Michael W. Deem and Ramdas Pophale) SiO2 
 PCOD9171545
Probable space group: C 2/M
;
_chemical_formula_sum "Si O2"
_cell_formula_units_Z 56
_cell_length_a 19.851545
_cell_length_b 9.193374
_cell_length_c 22.396465
_cell_angle_alpha 90.000000
_cell_angle_beta 125.192222
_cell_angle_gamma 90.000000
_cell_volume 3340.329994
_symmetry_space_group_name_H-M "C 2/M"
_symmetry_group_IT_number 12
_symmetry_cell_setting 'monoclinic'
loop_
_space_group_symop_operation_xyz
x,y,z
-x,y,-z
-x,-y,-z
x,-y,z
1/2+x,1/2+y,z
1/2-x,1/2+y,-z
1/2-x,1/2-y,-z
1/2+x,1/2-y,z
loop_
_atom_site_type_symbol
_atom_site_label
_atom_site_fract_x
_atom_site_fract_y
_atom_site_fract_z
Si Si1 0.194752 0.824537 0.921985
Si Si2 0.342795 0.175407 0.762086
Si Si3 0.531441 0.674272 0.680323
Si Si4 0.716124 0.676818 0.796496
Si Si5 0.753890 0.672835 0.593531
Si Si6 0.493310 0.673408 0.192043
Si Si7 0.620070 0.172297 0.451575
O O1 0.220475 0.779015 0.867897
O O2 0.097708 0.788214 0.878107
O O3 0.201916 0.000000 0.929171
O O4 0.250000 0.750000 0.000000
O O5 0.291443 0.223677 0.793701
O O6 0.290231 0.214324 0.676167
O O7 0.432481 0.244266 0.801512
O O8 0.349981 0.000000 0.766558
O O9 0.526130 0.500000 0.668929
O O10 0.627064 0.719799 0.724285
O O11 0.506961 0.704598 0.736910
O O12 0.467773 0.754280 0.604934
O O13 0.715056 0.500000 0.796055
O O14 0.736840 0.500000 0.584779
O O15 0.672658 0.757929 0.531856
O O16 0.824105 0.699778 0.579279
O O17 0.503734 0.500000 0.191002
O O18 0.612164 0.000000 0.454925
#
# Coordination Sequence:
#
# PCOD9171545 Si02
#       7
#     8   8   8   8   8   8   8
#     4   9  18  35  56  78 101 128 161 195 234 284
#     4  10  18  32  52  74  98 125 164 207 241 282
#     4   9  16  30  50  69  92 127 166 202 242 288
#     4   8  17  33  53  74  98 128 161 199 242 287
#     4   9  18  29  43  67  96 126 161 203 247 288
#     4   9  18  31  50  74 100 128 159 196 241 290
#     4  10  18  28  44  69  96 124 164 210 247 281
#
# _framework density 16.764810000000001
#
# number of rings (size 3 to 8) (size 9 to 14) (size 15 to 20)
#    0.000    2.857    1.429    2.143    0.000    1.714 
#    0.000    5.000    0.000    8.571    0.000    0.000 
#    0.000    0.000    0.000    0.000    0.000    0.000 
#
# Total GULP energy -156060.449283 kJ/mol
# GULP energy per Si atom -5573.587474 kJ/mol
# Density = 1.672665 g / cm^3
# Si number density = 16.764810 Si / 1000 Ang^3
#
#
#
# Elastic Constant Matrix: (Units=GPa)
#
#
# Indices 1 2 3 4 5 6 
#
# 1 126.0475 37.8160 66.3360 0.0000 11.9688 0.0000
# 2 37.8160 18.9042 41.3622 0.0000 8.6127 0.0000
# 3 66.3360 41.3622 131.0409 0.0000 17.9546 0.0000
# 4 0.0000 0.0000 0.0000 30.3570 0.0000 7.1894
# 5 11.9688 8.6127 17.9546 0.0000 17.3102 0.0000
# 6 0.0000 0.0000 0.0000 7.1894 0.0000 21.5803
#
#
#
# Elastic Compliance Matrix: (Units=1/GPa)
#
#
# Indices 1 2 3 4 5 6 
#
# 1 0.024155 -0.074822 0.009998 0.000000 0.010156 0.000000
# 2 -0.074822 0.421726 -0.085765 0.000000 -0.069138 0.000000
# 3 0.009998 -0.085765 0.028840 0.000000 0.005846 0.000000
# 4 0.000000 0.000000 0.000000 0.035763 0.000000 -0.011914
# 5 0.010156 -0.069138 0.005846 0.000000 0.079083 0.000000
# 6 0.000000 0.000000 0.000000 -0.011914 0.000000 0.050308
#
#
# Mechanical properties :
#
#
# Convention : Reuss Voigt Hill
#
# Bulk Modulus (GPa) = 5.76231 63.00233 34.38232
# Shear Modulus (GPa) = 5.00550 22.54806 13.77678
#
# Velocity S-wave (km/s) = 1.72980 3.67135 2.86976
# Velocity P-wave (km/s) = 2.72657 7.45878 5.61550
#
# Compressibility (1/GPa) = 0.17354157
#
# Stress axis : x y z
#
# Youngs Moduli (GPa) = 41.39868 2.37121 34.67356
#
# Poissons Ratio (x) = 0.17742 -0.34665
# Poissons Ratio (y) = 3.09755 2.97378
# Poissons Ratio (z) = -0.41389 0.20337
#
# Static dielectric constant tensor:
#      x y z
#    x 1.568190 0.000000 -0.002900 
#    y 0.000000 1.557330 0.000000 
#    z -0.002900 0.000000 1.545890 
# 
# From -- ./inp_files/314446.got.cif
#   From: 2010.05.17/outbox.cif.g08.bks.cpg/sg12_158_cif.got.tgz:314446.got - 2010.06.03 13:09:07.
