data_PCOD9171472
_publ_section_title
;
Structure prediction by ZEFSAII (Michael W. Deem and Ramdas Pophale) SiO2 
 PCOD9171472
Probable space group: C 2/M
;
_chemical_formula_sum "Si O2"
_cell_formula_units_Z 64
_cell_length_a 20.232371
_cell_length_b 15.058797
_cell_length_c 12.145680
_cell_angle_alpha 90.000000
_cell_angle_beta 59.666799
_cell_angle_gamma 90.000000
_cell_volume 3193.901690
_symmetry_space_group_name_H-M "C 2/M"
_symmetry_group_IT_number 12
_symmetry_cell_setting 'monoclinic'
loop_
_space_group_symop_operation_xyz
x,y,z
-x,y,-z
-x,-y,-z
x,-y,z
1/2+x,1/2+y,z
1/2-x,1/2+y,-z
1/2-x,1/2-y,-z
1/2+x,1/2-y,z
loop_
_atom_site_type_symbol
_atom_site_label
_atom_site_fract_x
_atom_site_fract_y
_atom_site_fract_z
Si Si1 0.725158 0.346440 0.648625
Si Si2 0.577005 0.397084 0.643612
Si Si3 0.917055 0.394490 0.099080
Si Si4 0.311302 0.142012 0.371728
Si Si5 0.662301 0.599834 0.364500
Si Si6 0.768673 0.609265 0.091322
Si Si7 0.460519 0.391520 0.918277
Si Si8 0.715196 0.392736 0.904704
O O1 0.649758 0.395831 0.665521
O O2 0.705243 0.244787 0.639135
O O3 0.796724 0.373861 0.512271
O O4 0.737864 0.359053 0.765958
O O5 0.559199 0.500000 0.635213
O O6 0.604438 0.357576 0.502650
O O7 0.507308 0.357894 0.772580
O O8 0.919665 0.500000 0.075716
O O9 0.890398 0.381806 0.247414
O O10 0.846229 0.359546 0.085449
O O11 0.000000 0.356886 0.000000
O O12 0.241844 0.093620 0.366562
O O13 0.634344 0.500000 0.362974
O O14 0.693807 0.639890 0.224153
O O15 0.766643 0.500000 0.098159
O O16 0.764365 0.635585 0.968318
O O17 0.464163 0.500000 0.910938
O O18 0.500000 0.365274 0.000000
O O19 0.372289 0.366231 0.997098
O O20 0.716877 0.500000 0.897898
#
# Coordination Sequence:
#
# PCOD9171472 Si02
#       8
#     8   8   8   8   8   8   8   8
#     4  10  18  28  43  66  96 125 149 191 232 267
#     4   9  15  25  42  62  85 121 162 187 216 264
#     4   9  17  33  55  72  89 116 152 201 251 286
#     4   9  18  30  44  69  93 113 154 197 229 275
#     4   8  14  27  46  61  81 116 153 192 228 266
#     4   8  15  28  46  69  93 116 151 197 236 278
#     4   9  15  24  37  59  92 121 149 182 212 255
#     4  10  18  28  44  67  97 129 155 184 231 281
#
# _framework density 20.038186
#
# number of rings (size 3 to 8) (size 9 to 14) (size 15 to 20)
#    0.000    3.000    1.250    1.500    0.000    1.500 
#    2.250    3.125    0.000    4.500    0.000    3.500 
#    0.000    0.000    0.000    0.000    0.000    0.000 
#
# Total GULP energy -178260.177635 kJ/mol
# GULP energy per Si atom -5570.630551 kJ/mol
# Density = 1.999258 g / cm^3
# Si number density = 20.038186 Si / 1000 Ang^3
#
#
#
# Elastic Constant Matrix: (Units=GPa)
#
#
# Indices 1 2 3 4 5 6 
#
# 1 50.6125 -0.1799 62.1365 0.0000 0.1507 0.0000
# 2 -0.1799 27.6122 -6.2790 0.0000 -0.2808 0.0000
# 3 62.1365 -6.2790 206.0000 0.0000 5.3364 0.0000
# 4 0.0000 0.0000 0.0000 18.4924 0.0000 -2.9035
# 5 0.1507 -0.2808 5.3364 0.0000 28.1272 0.0000
# 6 0.0000 0.0000 0.0000 -2.9035 0.0000 4.6782
#
#
#
# Elastic Compliance Matrix: (Units=1/GPa)
#
#
# Indices 1 2 3 4 5 6 
#
# 1 0.031558 -0.001966 -0.009621 0.000000 0.001637 0.000000
# 2 -0.001966 0.036592 0.001707 0.000000 0.000052 0.000000
# 3 -0.009621 0.001707 0.007845 0.000000 -0.001420 0.000000
# 4 0.000000 0.000000 0.000000 0.059915 0.000000 0.037185
# 5 0.001637 0.000052 -0.001420 0.000000 0.035814 0.000000
# 6 0.000000 0.000000 0.000000 0.037185 0.000000 0.236837
#
#
# Mechanical properties :
#
#
# Convention : Reuss Voigt Hill
#
# Bulk Modulus (GPa) = 17.78249 43.95331 30.86790
# Shear Modulus (GPa) = 11.18404 25.49603 18.34004
#
# Velocity S-wave (km/s) = 2.36505 3.57090 3.02860
# Velocity P-wave (km/s) = 4.04370 6.24373 5.26003
#
# Compressibility (1/GPa) = 0.05623509
#
# Stress axis : x y z
#
# Youngs Moduli (GPa) = 31.68765 27.32852 127.46530
#
# Poissons Ratio (x) = 0.05372 1.22638
# Poissons Ratio (y) = 0.06229 -0.21757
# Poissons Ratio (z) = 0.30488 -0.04665
#
# Static dielectric constant tensor:
#      x y z
#    x 1.695690 0.000000 -0.005430 
#    y 0.000000 1.764310 0.000000 
#    z -0.005430 0.000000 1.774790 
# 
# From -- ./inp_files/168483.got.cif
#   From: 2010.05.17/outbox.cif.g08.bks.cpg/sg12_85_cif.got.tgz:168483.got - 2010.06.03 13:09:07.
