data_PCOD9171621
_publ_section_title
;
Structure prediction by ZEFSAII (Michael W. Deem and Ramdas Pophale) SiO2 
 PCOD9171621
Probable space group: C 2/M
;
_chemical_formula_sum "Si O2"
_cell_formula_units_Z 48
_cell_length_a 20.004615
_cell_length_b 7.618143
_cell_length_c 20.703360
_cell_angle_alpha 90.000000
_cell_angle_beta 49.589495
_cell_angle_gamma 90.000000
_cell_volume 2402.393402
_symmetry_space_group_name_H-M "C 2/M"
_symmetry_group_IT_number 12
_symmetry_cell_setting 'monoclinic'
loop_
_space_group_symop_operation_xyz
x,y,z
-x,y,-z
-x,-y,-z
x,-y,z
1/2+x,1/2+y,z
1/2-x,1/2+y,-z
1/2-x,1/2-y,-z
1/2+x,1/2-y,z
loop_
_atom_site_type_symbol
_atom_site_label
_atom_site_fract_x
_atom_site_fract_y
_atom_site_fract_z
Si Si1 0.517532 0.795639 0.266883
Si Si2 0.307883 0.288701 0.027003
Si Si3 0.693804 0.785614 0.220555
Si Si4 0.823959 0.208609 0.401747
Si Si5 0.504508 0.701323 0.127779
Si Si6 0.189145 0.784615 0.736725
O O1 0.595324 0.730762 0.264071
O O2 0.420655 0.780195 0.357017
O O3 0.517406 0.702579 0.197422
O O4 0.535064 0.000000 0.241381
O O5 0.314027 0.500000 0.027052
O O6 0.256836 0.228339 0.122479
O O7 0.250000 0.250000 0.000000
O O8 0.407102 0.218947 0.957212
O O9 0.734987 0.727442 0.262295
O O10 0.694202 0.000000 0.221564
O O11 0.750000 0.250000 0.500000
O O12 0.800207 0.271700 0.344213
O O13 0.833291 0.000000 0.392274
O O14 0.499915 0.500000 0.107778
O O15 0.407164 0.776627 0.178798
O O16 0.187207 0.000000 0.737992
#
# Coordination Sequence:
#
# PCOD9171621 Si02
#       6
#     8   8   8   8   8   8
#     4  10  18  30  51  75 100 131 164 200 244 294
#     4  10  18  28  45  71 100 133 173 212 245 282
#     4   9  17  29  47  73 102 132 167 207 248 285
#     4  10  20  36  58  79  98 124 159 201 245 298
#     4   9  17  29  47  70  98 134 173 211 247 283
#     4   8  16  31  49  72 100 127 162 207 250 289
#
# _framework density 19.980074999999999
#
# number of rings (size 3 to 8) (size 9 to 14) (size 15 to 20)
#    0.000    2.667    1.667    2.000    0.000    0.667 
#    0.000    4.167    0.000   20.000    0.000    5.833 
#    0.000    0.000    0.000    0.000    0.000    0.000 
#
# Total GULP energy -133870.561128 kJ/mol
# GULP energy per Si atom -5577.940047 kJ/mol
# Density = 1.993460 g / cm^3
# Si number density = 19.980075 Si / 1000 Ang^3
#
#
#
# Elastic Constant Matrix: (Units=GPa)
#
#
# Indices 1 2 3 4 5 6 
#
# 1 155.1930 -4.3195 63.5905 0.0001 -14.2306 -0.0003
# 2 -4.3195 45.2567 -6.8482 0.0010 1.5421 -0.0011
# 3 63.5905 -6.8482 122.7583 -0.0002 -16.7881 0.0001
# 4 0.0001 0.0010 -0.0002 12.1443 -0.0001 -1.2260
# 5 -14.2306 1.5421 -16.7881 -0.0001 20.9245 0.0002
# 6 -0.0003 -0.0011 0.0001 -1.2260 0.0002 14.5988
#
#
#
# Elastic Compliance Matrix: (Units=1/GPa)
#
#
# Indices 1 2 3 4 5 6 
#
# 1 0.008292 0.000109 -0.003953 0.000000 0.002460 0.000000
# 2 0.000109 0.022296 0.001092 -0.000002 -0.000692 0.000002
# 3 -0.003953 0.001092 0.011093 0.000000 0.006131 0.000000
# 4 0.000000 -0.000002 0.000000 0.083047 0.000000 0.006974
# 5 0.002460 -0.000692 0.006131 0.000000 0.054434 -0.000001
# 6 0.000000 0.000002 0.000000 0.006974 -0.000001 0.069085
#
#
# Mechanical properties :
#
#
# Convention : Reuss Voigt Hill
#
# Bulk Modulus (GPa) = 27.64058 47.56151 37.60105
# Shear Modulus (GPa) = 18.81057 27.58586 23.19822
#
# Velocity S-wave (km/s) = 3.07166 3.71977 3.41114
# Velocity P-wave (km/s) = 5.14240 6.50423 5.86299
#
# Compressibility (1/GPa) = 0.03617869
#
# Stress axis : x y z
#
# Youngs Moduli (GPa) = 120.60041 44.85207 90.14569
#
# Poissons Ratio (x) = -0.00491 0.35633
# Poissons Ratio (y) = -0.01320 -0.09848
# Poissons Ratio (z) = 0.47671 -0.04900
#
# Static dielectric constant tensor:
#      x y z
#    x 1.702900 0.000000 -0.021130 
#    y 0.000000 1.776260 0.000000 
#    z -0.021130 0.000000 1.695690 
# 
# From -- ./inp_files/248790.got.cif
#   From: 2010.05.17/outbox.cif.g08.bks.cpg/sg12_125_cif.got.tgz:248790.got - 2010.06.03 13:09:07.
