data_PCOD9171175
_publ_section_title
;
Structure prediction by ZEFSAII (Michael W. Deem and Ramdas Pophale) SiO2 
 PCOD9171175
Probable space group: C 2/M
;
_chemical_formula_sum "Si O2"
_cell_formula_units_Z 56
_cell_length_a 28.374381
_cell_length_b 8.245775
_cell_length_c 16.775129
_cell_angle_alpha 90.000000
_cell_angle_beta 65.002516
_cell_angle_gamma 90.000000
_cell_volume 3557.200532
_symmetry_space_group_name_H-M "C 2/M"
_symmetry_group_IT_number 12
_symmetry_cell_setting 'monoclinic'
loop_
_space_group_symop_operation_xyz
x,y,z
-x,y,-z
-x,-y,-z
x,-y,z
1/2+x,1/2+y,z
1/2-x,1/2+y,-z
1/2-x,1/2-y,-z
1/2+x,1/2-y,z
loop_
_atom_site_type_symbol
_atom_site_label
_atom_site_fract_x
_atom_site_fract_y
_atom_site_fract_z
Si Si1 0.101481 0.195675 0.308594
Si Si2 0.992948 0.199134 0.307816
Si Si3 0.979962 0.192377 0.136929
Si Si4 0.942672 0.812514 0.500210
Si Si5 0.188746 0.304146 0.960416
Si Si6 0.197614 0.693304 0.137073
Si Si7 0.920672 0.692660 0.029746
O O1 0.051238 0.248689 0.292587
O O2 0.093828 0.259140 0.404703
O O3 0.154514 0.242496 0.228188
O O4 0.098482 0.000000 0.315029
O O5 0.979726 0.251449 0.228079
O O6 0.953230 0.257365 0.405029
O O7 0.992451 0.000000 0.309435
O O8 0.938486 0.271496 0.106988
O O9 0.971153 0.000000 0.142911
O O10 0.036390 0.226254 0.057927
O O11 0.000000 0.815249 0.500000
O O12 0.926610 0.000000 0.499867
O O13 0.189842 0.500000 0.959745
O O14 0.243419 0.244572 0.886655
O O15 0.137184 0.251225 0.950784
O O16 0.186123 0.248111 0.054675
O O17 0.194607 0.500000 0.138503
O O18 0.923669 0.500000 0.013961
#
# Coordination Sequence:
#
# PCOD9171175 Si02
#       7
#     8   8   8   8   8   8   8
#     4   9  15  25  43  63  85 113 141 167 197 240
#     4   8  14  24  40  63  87 111 140 172 200 232
#     4  10  18  27  42  64  87 110 139 171 204 241
#     4   7  11  21  38  60  83 108 139 169 196 232
#     4   9  19  33  45  58  79 110 143 171 201 242
#     4  10  19  29  43  63  85 107 134 170 209 246
#     4  10  19  31  44  58  82 112 141 172 203 240
#
# _framework density 15.742717000000001
#
# number of rings (size 3 to 8) (size 9 to 14) (size 15 to 20)
#    0.000    3.000    0.000    4.714    0.000    1.714 
#    0.000    0.714    0.000    5.571    0.000    1.000 
#    0.000    0.000    0.000    0.000    0.000    0.000 
#
# Total GULP energy -155915.823006 kJ/mol
# GULP energy per Si atom -5568.422250 kJ/mol
# Density = 1.570689 g / cm^3
# Si number density = 15.742717 Si / 1000 Ang^3
#
#
#
# Elastic Constant Matrix: (Units=GPa)
#
#
# Indices 1 2 3 4 5 6 
#
# 1 97.6906 2.0482 59.5148 0.0000 -4.8700 0.0000
# 2 2.0482 6.6803 -0.5152 0.0000 -1.5356 0.0000
# 3 59.5148 -0.5152 137.4177 0.0000 -3.0695 0.0000
# 4 0.0000 0.0000 0.0000 10.5509 0.0000 -2.1670
# 5 -4.8700 -1.5356 -3.0695 0.0000 24.7493 0.0000
# 6 0.0000 0.0000 0.0000 -2.1670 0.0000 16.6214
#
#
#
# Elastic Compliance Matrix: (Units=1/GPa)
#
#
# Indices 1 2 3 4 5 6 
#
# 1 0.014130 -0.004400 -0.006097 0.000000 0.001751 0.000000
# 2 -0.004400 0.153314 0.002681 0.000000 0.008980 0.000000
# 3 -0.006097 0.002681 0.009932 0.000000 0.000198 0.000000
# 4 0.000000 0.000000 0.000000 0.097386 0.000000 0.012696
# 5 0.001751 0.008980 0.000198 0.000000 0.041331 0.000000
# 6 0.000000 0.000000 0.000000 0.012696 0.000000 0.061819
#
#
# Mechanical properties :
#
#
# Convention : Reuss Voigt Hill
#
# Bulk Modulus (GPa) = 6.18259 40.43159 23.30709
# Shear Modulus (GPa) = 11.17416 22.43372 16.80394
#
# Velocity S-wave (km/s) = 2.66710 3.77904 3.27067
# Velocity P-wave (km/s) = 3.66338 6.69179 5.39446
#
# Compressibility (1/GPa) = 0.16174439
#
# Stress axis : x y z
#
# Youngs Moduli (GPa) = 70.76903 6.52255 100.68236
#
# Poissons Ratio (x) = 0.02870 0.61388
# Poissons Ratio (y) = 0.31139 -0.26993
# Poissons Ratio (z) = 0.43149 -0.01749
#
# Static dielectric constant tensor:
#      x y z
#    x 1.505550 0.000000 0.012850 
#    y 0.000000 1.548090 0.000000 
#    z 0.012850 0.000000 1.550950 
# 
# From -- ./inp_files/248130.got.cif
#   From: 2010.05.17/outbox.cif.g08.bks.cpg/sg12_125_cif.got.tgz:248130.got - 2010.06.03 13:09:07.
