data_PCOD9171246
_publ_section_title
;
Structure prediction by ZEFSAII (Michael W. Deem and Ramdas Pophale) SiO2 
 PCOD9171246
Probable space group: C 2/M
;
_chemical_formula_sum "Si O2"
_cell_formula_units_Z 40
_cell_length_a 8.132240
_cell_length_b 14.071950
_cell_length_c 17.145627
_cell_angle_alpha 90.000000
_cell_angle_beta 127.706065
_cell_angle_gamma 90.000000
_cell_volume 1552.320893
_symmetry_space_group_name_H-M "C 2/M"
_symmetry_group_IT_number 12
_symmetry_cell_setting 'monoclinic'
loop_
_space_group_symop_operation_xyz
x,y,z
-x,y,-z
-x,-y,-z
x,-y,z
1/2+x,1/2+y,z
1/2-x,1/2+y,-z
1/2-x,1/2-y,-z
1/2+x,1/2-y,z
loop_
_atom_site_type_symbol
_atom_site_label
_atom_site_fract_x
_atom_site_fract_y
_atom_site_fract_z
Si Si1 0.213713 0.393166 0.800176
Si Si2 0.167399 0.115333 0.910850
Si Si3 0.321017 0.138279 0.386056
Si Si4 0.950558 0.822689 0.566352
Si Si5 0.046304 0.614608 0.138537
O O1 0.244304 0.500000 0.841863
O O2 0.441665 0.346436 0.868530
O O3 0.162604 0.403536 0.694381
O O4 0.026012 0.352818 0.797043
O O5 0.257646 0.150423 0.854325
O O6 0.148581 0.000000 0.900229
O O7 0.342836 0.133302 0.026124
O O8 0.500000 0.108909 0.500000
O O9 0.109538 0.122558 0.373146
O O10 0.362032 0.248770 0.376564
O O11 0.750000 0.750000 0.500000
O O12 0.000000 0.876982 0.500000
O O13 0.080134 0.500000 0.151706
#
# Coordination Sequence:
#
# PCOD9171246 Si02
#       5
#     8   8   8   8   8
#     4  10  18  27  43  71 101 121 142 175 227 287
#     4   8  14  26  42  63  90 121 156 184 214 255
#     4   9  17  31  47  67  88 116 151 189 227 258
#     4   7  13  29  49  62  76 104 155 201 219 237
#     4   8  14  26  43  62  90 123 153 186 214 252
#
# _framework density 25.767868
#
# number of rings (size 3 to 8) (size 9 to 14) (size 15 to 20)
#    0.000    4.000    0.000    1.800    0.000    2.800 
#   10.800    0.000    0.000    0.600    0.000    5.600 
#    0.000    0.000    0.000    0.000    0.000    0.000 
#
# Total GULP energy -111473.018405 kJ/mol
# GULP energy per Si atom -5573.650920 kJ/mol
# Density = 2.570922 g / cm^3
# Si number density = 25.767868 Si / 1000 Ang^3
#
#
#
# Elastic Constant Matrix: (Units=GPa)
#
#
# Indices 1 2 3 4 5 6 
#
# 1 141.4093 27.4567 45.6084 0.0000 -55.5166 0.0000
# 2 27.4567 60.7715 4.5651 0.0000 -3.8731 0.0000
# 3 45.6084 4.5651 83.5717 0.0000 -18.3834 0.0000
# 4 0.0000 0.0000 0.0000 12.5017 0.0000 -3.5035
# 5 -55.5166 -3.8731 -18.3834 0.0000 60.1804 0.0000
# 6 0.0000 0.0000 0.0000 -3.5035 0.0000 28.5818
#
#
#
# Elastic Compliance Matrix: (Units=1/GPa)
#
#
# Indices 1 2 3 4 5 6 
#
# 1 0.014050 -0.005269 -0.004935 0.000000 0.011114 0.000000
# 2 -0.005269 0.018539 0.001132 0.000000 -0.003321 0.000000
# 3 -0.004935 0.001132 0.014592 0.000000 -0.000022 0.000000
# 4 0.000000 0.000000 0.000000 0.082835 0.000000 0.010154
# 5 0.011114 -0.003321 -0.000022 0.000000 0.026649 0.000000
# 6 0.000000 0.000000 0.000000 0.010154 0.000000 0.036232
#
#
# Mechanical properties :
#
#
# Convention : Reuss Voigt Hill
#
# Bulk Modulus (GPa) = 34.43794 49.00145 41.71970
# Shear Modulus (GPa) = 22.65324 34.12758 28.39041
#
# Velocity S-wave (km/s) = 2.96822 3.64321 3.32290
# Velocity P-wave (km/s) = 5.01406 6.06260 5.56309
#
# Compressibility (1/GPa) = 0.02903774
#
# Stress axis : x y z
#
# Youngs Moduli (GPa) = 71.17582 53.94103 68.52966
#
# Poissons Ratio (x) = 0.28420 0.33818
# Poissons Ratio (y) = 0.37500 -0.07758
# Poissons Ratio (z) = 0.35124 -0.06106
#
# Static dielectric constant tensor:
#      x y z
#    x 2.070420 0.000000 -0.023450 
#    y 0.000000 2.123300 0.000000 
#    z -0.023450 0.000000 2.080500 
# 
# From -- ./inp_files/122829.got.cif
#   From: 2010.05.17/outbox.cif.g08.bks.cpg/sg12_62_cif.got.tgz:122829.got - 2010.06.03 13:09:07.
