data_PCOD9171037
_publ_section_title
;
Structure prediction by ZEFSAII (Michael W. Deem and Ramdas Pophale) SiO2 
 PCOD9171037
Probable space group: C 2/M
;
_chemical_formula_sum "Si O2"
_cell_formula_units_Z 64
_cell_length_a 24.448922
_cell_length_b 7.479822
_cell_length_c 17.107677
_cell_angle_alpha 90.000000
_cell_angle_beta 82.655959
_cell_angle_gamma 90.000000
_cell_volume 3102.877160
_symmetry_space_group_name_H-M "C 2/M"
_symmetry_group_IT_number 12
_symmetry_cell_setting 'monoclinic'
loop_
_space_group_symop_operation_xyz
x,y,z
-x,y,-z
-x,-y,-z
x,-y,z
1/2+x,1/2+y,z
1/2-x,1/2+y,-z
1/2-x,1/2-y,-z
1/2+x,1/2-y,z
loop_
_atom_site_type_symbol
_atom_site_label
_atom_site_fract_x
_atom_site_fract_y
_atom_site_fract_z
Si Si1 0.558703 0.294583 0.776101
Si Si2 0.146181 0.705015 0.065796
Si Si3 0.736742 0.213788 0.413051
Si Si4 0.647886 0.211883 0.318260
Si Si5 0.735825 0.786342 0.161315
Si Si6 0.939536 0.717753 0.043863
Si Si7 0.678145 0.720075 0.735164
Si Si8 0.937979 0.794687 0.783946
O O1 0.556529 0.500000 0.748564
O O2 0.564713 0.288581 0.868322
O O3 0.615957 0.216034 0.735675
O O4 0.498921 0.214428 0.769046
O O5 0.158940 0.500000 0.042666
O O6 0.202540 0.785607 0.091968
O O7 0.101938 0.703576 0.145419
O O8 0.111234 0.782711 0.000623
O O9 0.750000 0.250000 0.500000
O O10 0.677755 0.279653 0.390871
O O11 0.783909 0.276589 0.344441
O O12 0.734995 0.000000 0.403728
O O13 0.693554 0.239005 0.241603
O O14 0.592482 0.292121 0.293589
O O15 0.638171 0.000000 0.326287
O O16 0.793278 0.721501 0.187965
O O17 0.741224 0.000000 0.148300
O O18 0.938130 0.500000 0.045057
O O19 0.000000 0.768063 0.000000
O O20 0.677742 0.500000 0.737505
O O21 0.942643 0.000000 0.810255
#
# Coordination Sequence:
#
# PCOD9171037 Si02
#       8
#     8   8   8   8   8   8   8   8
#     4  10  20  31  45  65  92 124 156 191 231 276
#     4   9  16  28  45  63  84 115 156 197 235 279
#     4   9  17  31  54  79  99 120 149 184 225 271
#     4   8  15  28  46  68  92 120 151 182 220 271
#     4   7  11  23  45  64  79 109 153 189 216 260
#     4  10  19  30  44  63  89 122 159 197 237 278
#     4   8  15  30  48  67  92 123 153 180 223 283
#     4  10  18  26  41  67  92 116 151 196 233 261
#
# _framework density 20.626018999999999
#
# number of rings (size 3 to 8) (size 9 to 14) (size 15 to 20)
#    0.000    3.125    1.250    2.625    0.000    1.750 
#    0.000    1.250    0.000    3.750    0.000    5.250 
#    0.000    0.000    0.000    0.000    0.000    0.000 
#
# Total GULP energy -178278.375148 kJ/mol
# GULP energy per Si atom -5571.199223 kJ/mol
# Density = 2.057907 g / cm^3
# Si number density = 20.626019 Si / 1000 Ang^3
#
#
#
# Elastic Constant Matrix: (Units=GPa)
#
#
# Indices 1 2 3 4 5 6 
#
# 1 114.1817 -4.7822 39.4376 0.0000 19.9471 0.0000
# 2 -4.7822 51.3293 -3.7252 0.0000 2.9450 0.0000
# 3 39.4376 -3.7252 57.0186 0.0000 21.0308 0.0000
# 4 0.0000 0.0000 0.0000 0.7306 0.0000 5.8969
# 5 19.9471 2.9450 21.0308 0.0000 30.2066 0.0000
# 6 0.0000 0.0000 0.0000 5.8969 0.0000 4.1156
#
#
#
# Elastic Compliance Matrix: (Units=1/GPa)
#
#
# Indices 1 2 3 4 5 6 
#
# 1 0.011710 0.000756 -0.006957 0.000000 -0.002963 0.000000
# 2 0.000756 0.019947 0.002263 0.000000 -0.004019 0.000000
# 3 -0.006957 0.002263 0.028101 0.000000 -0.015191 0.000000
# 4 0.000000 0.000000 0.000000 -0.129561 0.000000 0.185634
# 5 -0.002963 -0.004019 -0.015191 0.000000 0.046030 0.000000
# 6 0.000000 0.000000 0.000000 0.185634 0.000000 -0.023001
#
#
# Mechanical properties :
#
#
# Convention : Reuss Voigt Hill
#
# Bulk Modulus (GPa) = 19.27454 31.59889 25.43671
# Shear Modulus (GPa) = -231.46810 19.78387 -105.84212
#
# Velocity S-wave (km/s) = -10.60495 3.10041 -7.17121
# Velocity P-wave (km/s) = 11.85699 5.30753 7.49728
#
# Compressibility (1/GPa) = 0.05188192
#
# Stress axis : x y z
#
# Youngs Moduli (GPa) = 85.39539 50.13201 35.58553
#
# Poissons Ratio (x) = -0.03790 0.24758
# Poissons Ratio (y) = -0.06456 -0.08052
# Poissons Ratio (z) = 0.59413 -0.11344
#
# Static dielectric constant tensor:
#      x y z
#    x 1.809400 0.000000 0.028340 
#    y 0.000000 1.854890 0.000000 
#    z 0.028340 0.000000 1.717260 
# 
# From -- ./inp_files/287549.got.cif
#   From: 2010.05.17/outbox.cif.g08.bks.cpg/sg12_144_cif.got.tgz:287549.got - 2010.06.03 13:09:07.
