data_PCOD9171617
_publ_section_title
;
Structure prediction by ZEFSAII (Michael W. Deem and Ramdas Pophale) SiO2 
 PCOD9171617
Probable space group: C 2/M
;
_chemical_formula_sum "Si O2"
_cell_formula_units_Z 48
_cell_length_a 20.927358
_cell_length_b 8.690143
_cell_length_c 20.824234
_cell_angle_alpha 90.000000
_cell_angle_beta 131.376913
_cell_angle_gamma 90.000000
_cell_volume 2841.778041
_symmetry_space_group_name_H-M "C 2/M"
_symmetry_group_IT_number 12
_symmetry_cell_setting 'monoclinic'
loop_
_space_group_symop_operation_xyz
x,y,z
-x,y,-z
-x,-y,-z
x,-y,z
1/2+x,1/2+y,z
1/2-x,1/2+y,-z
1/2-x,1/2-y,-z
1/2+x,1/2-y,z
loop_
_atom_site_type_symbol
_atom_site_label
_atom_site_fract_x
_atom_site_fract_y
_atom_site_fract_z
Si Si1 0.473497 0.316478 0.583412
Si Si2 0.237782 0.316894 0.777634
Si Si3 0.345288 0.183077 0.056868
Si Si4 0.910366 0.185319 0.230098
Si Si5 0.592494 0.314724 0.036232
Si Si6 0.861072 0.816854 0.398738
O O1 0.460087 0.500000 0.580339
O O2 0.506602 0.260014 0.674290
O O3 0.392544 0.257143 0.489257
O O4 0.555945 0.297522 0.592073
O O5 0.225553 0.500000 0.775146
O O6 0.172028 0.235816 0.782987
O O7 0.332853 0.278550 0.863373
O O8 0.213850 0.264585 0.689879
O O9 0.399813 0.245553 0.152885
O O10 0.340398 0.000000 0.056529
O O11 0.250000 0.250000 0.000000
O O12 0.383889 0.237716 0.015297
O O13 0.911651 0.000000 0.227911
O O14 0.592523 0.500000 0.027199
O O15 0.500000 0.268154 0.000000
O O16 0.844446 0.000000 0.391340
#
# Coordination Sequence:
#
# PCOD9171617 Si02
#       6
#     8   8   8   8   8   8
#     4   7  12  23  40  63  91 126 162 195 237 296
#     4  10  18  28  45  70  98 128 166 207 250 298
#     4  12  23  35  53  77 103 133 170 210 255 304
#     4  10  18  30  49  71  98 131 166 204 248 297
#     4  10  22  39  55  72 100 137 174 212 254 302
#     4   8  13  24  41  61  91 128 163 196 239 296
#
# _framework density 16.890833000000001
#
# number of rings (size 3 to 8) (size 9 to 14) (size 15 to 20)
#    0.000    2.500    1.667    4.500    0.000    1.000 
#    0.000    7.500    0.000    0.000    0.000    1.167 
#    0.000    0.000    0.000    0.000    0.000    0.000 
#
# Total GULP energy -133674.275083 kJ/mol
# GULP energy per Si atom -5569.761462 kJ/mol
# Density = 1.685239 g / cm^3
# Si number density = 16.890833 Si / 1000 Ang^3
#
#
#
# Elastic Constant Matrix: (Units=GPa)
#
#
# Indices 1 2 3 4 5 6 
#
# 1 61.0028 31.7953 58.0169 0.0000 -0.6370 0.0000
# 2 31.7953 51.0784 56.2818 0.0000 -1.1756 0.0000
# 3 58.0169 56.2818 208.4063 0.0000 -11.2004 0.0000
# 4 0.0000 0.0000 0.0000 28.8808 0.0000 -2.7549
# 5 -0.6370 -1.1756 -11.2004 0.0000 12.5476 0.0000
# 6 0.0000 0.0000 0.0000 -2.7549 0.0000 11.9113
#
#
#
# Elastic Compliance Matrix: (Units=1/GPa)
#
#
# Indices 1 2 3 4 5 6 
#
# 1 0.026757 -0.011835 -0.004453 0.000000 -0.003725 0.000000
# 2 -0.011835 0.033330 -0.005852 0.000000 -0.002701 0.000000
# 3 -0.004453 -0.005852 0.007958 0.000000 0.006330 0.000000
# 4 0.000000 0.000000 0.000000 0.035406 0.000000 0.008189
# 5 -0.003725 -0.002701 0.006330 0.000000 0.084904 0.000000
# 6 0.000000 0.000000 0.000000 0.008189 0.000000 0.085848
#
#
# Mechanical properties :
#
#
# Convention : Reuss Voigt Hill
#
# Bulk Modulus (GPa) = 42.07541 68.07507 55.07524
# Shear Modulus (GPa) = 15.31835 22.29417 18.80626
#
# Velocity S-wave (km/s) = 3.01475 3.63698 3.34039
# Velocity P-wave (km/s) = 6.08955 7.61756 6.89601
#
# Compressibility (1/GPa) = 0.02376685
#
# Stress axis : x y z
#
# Youngs Moduli (GPa) = 37.37298 30.00257 125.65417
#
# Poissons Ratio (x) = 0.35509 0.55951
# Poissons Ratio (y) = 0.44232 0.73528
# Poissons Ratio (z) = 0.16641 0.17556
#
# Static dielectric constant tensor:
#      x y z
#    x 1.530210 0.000000 -0.003350 
#    y 0.000000 1.571870 0.000000 
#    z -0.003350 0.000000 1.640100 
# 
# From -- ./inp_files/280516.got.cif
#   From: 2010.05.17/outbox.cif.g08.bks.cpg/sg12_141_cif.got.tgz:280516.got - 2010.06.03 13:09:07.
