data_PCOD9171404
_publ_section_title
;
Structure prediction by ZEFSAII (Michael W. Deem and Ramdas Pophale) SiO2 
 PCOD9171404
Probable space group: C 2/M
;
_chemical_formula_sum "Si O2"
_cell_formula_units_Z 56
_cell_length_a 30.365154
_cell_length_b 7.933537
_cell_length_c 30.243626
_cell_angle_alpha 90.000000
_cell_angle_beta 26.599998
_cell_angle_gamma 90.000000
_cell_volume 3262.275070
_symmetry_space_group_name_H-M "C 2/M"
_symmetry_group_IT_number 12
_symmetry_cell_setting 'monoclinic'
loop_
_space_group_symop_operation_xyz
x,y,z
-x,y,-z
-x,-y,-z
x,-y,z
1/2+x,1/2+y,z
1/2-x,1/2+y,-z
1/2-x,1/2-y,-z
1/2+x,1/2-y,z
loop_
_atom_site_type_symbol
_atom_site_label
_atom_site_fract_x
_atom_site_fract_y
_atom_site_fract_z
Si Si1 0.836154 0.200504 0.361952
Si Si2 0.119396 0.308189 0.437314
Si Si3 0.312700 0.295892 0.719059
Si Si4 0.095023 0.705260 0.888469
Si Si5 0.885677 0.795164 0.413956
Si Si6 0.530116 0.305669 0.357682
Si Si7 0.166674 0.697771 0.730794
O O1 0.887367 0.260502 0.361320
O O2 0.720470 0.242855 0.471628
O O3 0.872725 0.275122 0.282968
O O4 0.846313 0.000000 0.350566
O O5 0.084974 0.500000 0.471147
O O6 0.129282 0.254664 0.377536
O O7 0.048547 0.199549 0.531609
O O8 0.229976 0.293164 0.356918
O O9 0.312365 0.500000 0.720701
O O10 0.199918 0.239512 0.814586
O O11 0.371123 0.231538 0.709498
O O12 0.093666 0.500000 0.892076
O O13 0.098873 0.749499 0.832956
O O14 0.000000 0.767651 0.000000
O O15 0.973111 0.730594 0.366796
O O16 0.887111 0.000000 0.413516
O O17 0.551576 0.500000 0.327124
O O18 0.189773 0.500000 0.716142
#
# Coordination Sequence:
#
# PCOD9171404 Si02
#       7
#     8   8   8   8   8   8   8
#     4  10  18  28  42  63  87 115 151 184 215 253
#     4  11  20  28  40  61  88 118 149 178 209 250
#     4   9  18  30  45  63  84 113 145 177 217 262
#     4   8  15  29  48  68  86 105 138 185 227 262
#     4   9  18  29  42  59  86 121 152 182 212 248
#     4  10  18  29  43  60  85 118 150 176 209 254
#     4  10  18  29  46  65  87 116 146 180 223 263
#
# _framework density 17.165935999999999
#
# number of rings (size 3 to 8) (size 9 to 14) (size 15 to 20)
#    0.000    2.429    1.429    3.429    0.000    2.857 
#    0.000    0.000    0.000   10.714    0.000    1.000 
#    0.000    0.000    0.000    0.000    0.000    0.000 
#
# Total GULP energy -156075.113697 kJ/mol
# GULP energy per Si atom -5574.111203 kJ/mol
# Density = 1.712687 g / cm^3
# Si number density = 17.165936 Si / 1000 Ang^3
#
#
#
# Elastic Constant Matrix: (Units=GPa)
#
#
# Indices 1 2 3 4 5 6 
#
# 1 165.3662 3.9368 51.6968 -0.0189 6.3653 0.0088
# 2 3.9368 27.8204 -0.6596 -0.0301 0.2981 0.0203
# 3 51.6968 -0.6596 73.8951 -0.0124 10.0306 0.0143
# 4 -0.0189 -0.0301 -0.0124 2.4091 0.0149 2.6224
# 5 6.3653 0.2981 10.0306 0.0149 14.0556 -0.0068
# 6 0.0088 0.0203 0.0143 2.6224 -0.0068 16.9244
#
#
#
# Elastic Compliance Matrix: (Units=1/GPa)
#
#
# Indices 1 2 3 4 5 6 
#
# 1 0.007784 -0.001237 -0.005516 0.000014 0.000438 0.000000
# 2 -0.001237 0.036165 0.001347 0.000608 -0.001169 -0.000138
# 3 -0.005516 0.001347 0.018900 0.000193 -0.011018 -0.000049
# 4 0.000014 0.000608 0.000193 0.499331 -0.000725 -0.077371
# 5 0.000438 -0.001169 -0.011018 -0.000725 0.078836 0.000155
# 6 0.000000 -0.000138 -0.000049 -0.077371 0.000155 0.071075
#
#
# Mechanical properties :
#
#
# Convention : Reuss Voigt Hill
#
# Bulk Modulus (GPa) = 19.21735 41.89220 30.55478
# Shear Modulus (GPa) = 6.75448 20.81832 13.78640
#
# Velocity S-wave (km/s) = 1.98579 3.48626 2.83702
# Velocity P-wave (km/s) = 4.05921 6.37672 5.34508
#
# Compressibility (1/GPa) = 0.05203630
#
# Stress axis : x y z
#
# Youngs Moduli (GPa) = 128.46367 27.65097 52.91126
#
# Poissons Ratio (x) = 0.03420 0.29188
# Poissons Ratio (y) = 0.15891 -0.07127
# Poissons Ratio (z) = 0.70865 -0.03725
#
# Static dielectric constant tensor:
#      x y z
#    x 1.646430 -0.000010 -0.005060 
#    y -0.000010 1.617080 0.000010 
#    z -0.005060 0.000010 1.546650 
# 
# From -- ./inp_files/247725.got.cif
#   From: 2010.05.17/outbox.cif.g08.bks.cpg/sg12_124_cif.got.tgz:247725.got - 2010.06.03 13:09:07.
