data_PCOD9171048
_publ_section_title
;
Structure prediction by ZEFSAII (Michael W. Deem and Ramdas Pophale) SiO2 
 PCOD9171048
Probable space group: C 2/M
;
_chemical_formula_sum "Si O2"
_cell_formula_units_Z 56
_cell_length_a 24.245626
_cell_length_b 18.916825
_cell_length_c 25.465397
_cell_angle_alpha 90.000000
_cell_angle_beta 17.800066
_cell_angle_gamma 90.000000
_cell_volume 3570.445644
_symmetry_space_group_name_H-M "C 2/M"
_symmetry_group_IT_number 12
_symmetry_cell_setting 'monoclinic'
loop_
_space_group_symop_operation_xyz
x,y,z
-x,y,-z
-x,-y,-z
x,-y,z
1/2+x,1/2+y,z
1/2-x,1/2+y,-z
1/2-x,1/2-y,-z
1/2+x,1/2-y,z
loop_
_atom_site_type_symbol
_atom_site_label
_atom_site_fract_x
_atom_site_fract_y
_atom_site_fract_z
Si Si1 0.565925 0.417240 0.500018
Si Si2 0.960065 0.080854 0.297186
Si Si3 0.512031 0.709994 0.793087
Si Si4 0.054250 0.419152 0.702991
Si Si5 0.933059 0.657358 0.198010
Si Si6 0.598316 0.790034 0.206813
Si Si7 0.170915 0.157371 0.198028
O O1 0.500000 0.412569 0.500000
O O2 0.581985 0.500000 0.500073
O O3 0.759401 0.380215 0.331746
O O4 0.422863 0.380170 0.668256
O O5 0.769532 0.081522 0.500090
O O6 0.937216 0.130138 0.266660
O O7 0.103960 0.116341 0.206069
O O8 0.007783 0.000000 0.241938
O O9 0.608825 0.761748 0.746340
O O10 0.521377 0.750029 0.728621
O O11 0.303700 0.709848 0.999952
O O12 0.991445 0.500000 0.758289
O O13 0.015886 0.383639 0.794116
O O14 0.970349 0.369900 0.733497
O O15 0.112020 0.656364 0.000003
O O16 0.601576 0.738272 0.253587
#
# Coordination Sequence:
#
# PCOD9171048 Si02
#       7
#     8   8   8   8   8   8   8
#     4  11  24  38  51  70  91 115 156 203 244 280
#     4  10  18  26  42  71 102 130 158 186 221 270
#     4   8  16  28  43  66  91 123 161 186 219 271
#     4  10  18  26  42  71 102 130 158 186 221 270
#     4  10  20  34  51  68  91 126 162 193 229 275
#     4   8  16  28  43  66  91 123 161 186 219 271
#     4  10  20  34  51  68  91 126 162 193 229 275
#
# _framework density 15.684316000000001
#
# number of rings (size 3 to 8) (size 9 to 14) (size 15 to 20)
#    0.000    2.429    1.429    3.429    2.000    6.286 
#    0.000    1.429    0.000    0.000    0.000    0.000 
#    0.000    2.286    0.000    6.286    0.000    0.000 
#
# Total GULP energy -155971.811270 kJ/mol
# GULP energy per Si atom -5570.421831 kJ/mol
# Density = 1.564862 g / cm^3
# Si number density = 15.684316 Si / 1000 Ang^3
#
#
#
# Elastic Constant Matrix: (Units=GPa)
#
#
# Indices 1 2 3 4 5 6 
#
# 1 41.1339 28.5564 26.1688 0.0061 0.5111 -0.0011
# 2 28.5564 106.1738 15.4725 0.0239 1.2284 -0.0059
# 3 26.1688 15.4725 62.9993 0.0349 -2.4442 -0.0059
# 4 0.0061 0.0239 0.0349 32.4215 -0.0106 -0.9451
# 5 0.5111 1.2284 -2.4442 -0.0106 5.1127 0.0000
# 6 -0.0011 -0.0059 -0.0059 -0.9451 0.0000 22.0297
#
#
#
# Elastic Compliance Matrix: (Units=1/GPa)
#
#
# Indices 1 2 3 4 5 6 
#
# 1 0.039645 -0.008409 -0.014752 0.000012 -0.008995 -0.000004
# 2 -0.008409 0.011616 0.000575 -0.000008 -0.001675 0.000002
# 3 -0.014752 0.000575 0.022325 -0.000018 0.012009 0.000005
# 4 0.000012 -0.000008 -0.000018 0.030882 0.000057 0.001325
# 5 -0.008995 -0.001675 0.012009 0.000057 0.202636 0.000005
# 6 -0.000004 0.000002 0.000005 0.001325 0.000005 0.045450
#
#
# Mechanical properties :
#
#
# Convention : Reuss Voigt Hill
#
# Bulk Modulus (GPa) = 35.19229 38.96693 37.07961
# Shear Modulus (GPa) = 12.27904 21.25339 16.76622
#
# Velocity S-wave (km/s) = 2.80105 3.68512 3.27307
# Velocity P-wave (km/s) = 5.74001 6.55784 6.16251
#
# Compressibility (1/GPa) = 0.02841532
#
# Stress axis : x y z
#
# Youngs Moduli (GPa) = 25.22368 86.08967 44.79199
#
# Poissons Ratio (x) = 0.72394 0.66076
# Poissons Ratio (y) = 0.21211 -0.02576
# Poissons Ratio (z) = 0.37209 -0.04952
#
# Static dielectric constant tensor:
#      x y z
#    x 1.495470 0.000000 -0.004760 
#    y 0.000000 1.571210 0.000010 
#    z -0.004760 0.000010 1.547640 
# 
# From -- ./inp_files/97379.got.cif
#   From: 2010.05.17/outbox.cif.g08.bks.cpg/sg12_49_cif.got.tgz:97379.got - 2010.06.03 13:09:07.
