data_PCOD9171565
_publ_section_title
;
Structure prediction by ZEFSAII (Michael W. Deem and Ramdas Pophale) SiO2 
 PCOD9171565
Probable space group: C 2/M
;
_chemical_formula_sum "Si O2"
_cell_formula_units_Z 48
_cell_length_a 23.562069
_cell_length_b 17.675799
_cell_length_c 23.884115
_cell_angle_alpha 90.000000
_cell_angle_beta 161.304239
_cell_angle_gamma 90.000000
_cell_volume 3188.510179
_symmetry_space_group_name_H-M "C 2/M"
_symmetry_group_IT_number 12
_symmetry_cell_setting 'monoclinic'
loop_
_space_group_symop_operation_xyz
x,y,z
-x,y,-z
-x,-y,-z
x,-y,z
1/2+x,1/2+y,z
1/2-x,1/2+y,-z
1/2-x,1/2-y,-z
1/2+x,1/2-y,z
loop_
_atom_site_type_symbol
_atom_site_label
_atom_site_fract_x
_atom_site_fract_y
_atom_site_fract_z
Si Si1 0.826515 0.409160 0.951492
Si Si2 0.695504 0.338270 0.944770
Si Si3 0.699396 0.302829 0.399489
Si Si4 0.021428 0.090808 0.583808
Si Si5 0.822812 0.650789 0.679105
Si Si6 0.465673 0.910873 0.693135
O O1 0.832635 0.500000 0.965609
O O2 0.732076 0.370585 0.916903
O O3 0.710476 0.392600 0.788449
O O4 0.024438 0.376643 0.136040
O O5 0.489081 0.342326 0.766257
O O6 0.750000 0.250000 0.000000
O O7 0.832100 0.382988 0.112098
O O8 0.750000 0.250000 0.500000
O O9 0.677898 0.241000 0.330773
O O10 0.855544 0.363962 0.544276
O O11 0.867456 0.124710 0.478249
O O12 0.000000 0.116937 0.500000
O O13 0.000115 0.000000 0.564500
O O14 0.877232 0.611378 0.670783
O O15 0.455496 0.000000 0.675714
#
# Coordination Sequence:
#
# PCOD9171565 Si02
#       6
#     8   8   8   8   8   8
#     4  10  19  30  47  66  91 126 159 190 226 269
#     4  11  17  28  46  68  93 121 160 188 224 276
#     4  10  18  28  45  65  89 123 154 190 229 273
#     4  10  21  33  46  65  89 122 164 203 233 263
#     4  10  18  30  47  64  88 122 159 193 227 271
#     4  10  20  30  44  68  96 126 159 189 224 277
#
# _framework density 15.054053
#
# number of rings (size 3 to 8) (size 9 to 14) (size 15 to 20)
#    0.000    1.833    5.000    5.000    0.000    3.333 
#    0.000    2.500    0.000    0.000    0.000    0.000 
#    0.000    0.667    0.000    3.167    0.000    0.000 
#
# Total GULP energy -133752.704555 kJ/mol
# GULP energy per Si atom -5573.029356 kJ/mol
# Density = 1.501979 g / cm^3
# Si number density = 15.054053 Si / 1000 Ang^3
#
#
#
# Elastic Constant Matrix: (Units=GPa)
#
#
# Indices 1 2 3 4 5 6 
#
# 1 11.5107 8.2496 13.5567 -0.0003 -6.9881 0.0001
# 2 8.2496 93.8443 46.0906 -0.0001 -11.4071 0.0007
# 3 13.5567 46.0906 105.4274 -0.0133 -7.0774 0.0001
# 4 -0.0003 -0.0001 -0.0133 30.9842 0.0018 2.7158
# 5 -6.9881 -11.4071 -7.0774 0.0018 17.1537 -0.0008
# 6 0.0001 0.0007 0.0001 2.7158 -0.0008 3.2153
#
#
#
# Elastic Compliance Matrix: (Units=1/GPa)
#
#
# Indices 1 2 3 4 5 6 
#
# 1 0.132533 0.001346 -0.014343 -0.000009 0.048969 0.000016
# 2 0.001346 0.014392 -0.005950 -0.000003 0.007664 0.000002
# 3 -0.014343 -0.005950 0.013651 0.000006 -0.004168 -0.000005
# 4 -0.000009 -0.000003 0.000006 0.034855 -0.000008 -0.029441
# 5 0.048969 0.007664 -0.004168 -0.000008 0.081622 0.000024
# 6 0.000016 0.000002 -0.000005 -0.029441 0.000024 0.335881
#
#
# Mechanical properties :
#
#
# Convention : Reuss Voigt Hill
#
# Bulk Modulus (GPa) = 8.15123 38.50847 23.32985
# Shear Modulus (GPa) = 7.22833 19.79634 13.51234
#
# Velocity S-wave (km/s) = 2.19363 3.63025 2.99923
# Velocity P-wave (km/s) = 3.44128 6.57323 5.24641
#
# Compressibility (1/GPa) = 0.12268080
#
# Stress axis : x y z
#
# Youngs Moduli (GPa) = 7.54529 69.48495 73.25376
#
# Poissons Ratio (x) = -0.09355 1.05071
# Poissons Ratio (y) = -0.01016 0.43589
# Poissons Ratio (z) = 0.10823 0.41346
#
# Static dielectric constant tensor:
#      x y z
#    x 1.481080 0.000000 -0.012720 
#    y 0.000000 1.498120 -0.000010 
#    z -0.012720 -0.000010 1.542270 
# 
# From -- ./inp_files/322590.got.cif
#   From: 2010.05.17/outbox.cif.g08.bks.cpg/sg12_162_cif.got.tgz:322590.got - 2010.06.03 13:09:07.
