data_PCOD9171896
_publ_section_title
;
Structure prediction by ZEFSAII (Michael W. Deem and Ramdas Pophale) SiO2 
 PCOD9171896
Probable space group: C 2/M
;
_chemical_formula_sum "Si O2"
_cell_formula_units_Z 64
_cell_length_a 5.311540
_cell_length_b 31.800937
_cell_length_c 26.772125
_cell_angle_alpha 90.000000
_cell_angle_beta 73.382024
_cell_angle_gamma 90.000000
_cell_volume 4333.255458
_symmetry_space_group_name_H-M "C 2/M"
_symmetry_group_IT_number 12
_symmetry_cell_setting 'monoclinic'
loop_
_space_group_symop_operation_xyz
x,y,z
-x,y,-z
-x,-y,-z
x,-y,z
1/2+x,1/2+y,z
1/2-x,1/2+y,-z
1/2-x,1/2-y,-z
1/2+x,1/2-y,z
loop_
_atom_site_type_symbol
_atom_site_label
_atom_site_fract_x
_atom_site_fract_y
_atom_site_fract_z
Si Si1 0.029279 0.949552 0.150011
Si Si2 0.245661 0.850501 0.644236
Si Si3 0.433326 0.948884 0.216061
Si Si4 0.065469 0.722323 0.440404
Si Si5 0.794619 0.051329 0.969019
Si Si6 0.309015 0.454163 0.593847
Si Si7 0.636949 0.921085 0.444818
Si Si8 0.686244 0.886027 0.685784
O O1 0.229854 0.939222 0.183030
O O2 0.118690 0.933449 0.090713
O O3 0.729734 0.939869 0.181115
O O4 0.039468 0.000000 0.145382
O O5 0.325625 0.809689 0.607481
O O6 0.297077 0.887622 0.601345
O O7 0.438161 0.859243 0.680042
O O8 0.942035 0.856337 0.677383
O O9 0.370386 0.917146 0.264810
O O10 0.415087 0.000000 0.228669
O O11 0.295301 0.756540 0.436829
O O12 0.000000 0.704417 0.500000
O O13 0.795853 0.000000 0.968124
O O14 0.500000 0.064228 0.000000
O O15 0.000000 0.064197 0.000000
O O16 0.312336 0.500000 0.617743
O O17 0.595496 0.444243 0.556058
O O18 0.251006 0.418480 0.637461
O O19 0.079563 0.451682 0.566417
O O20 0.500000 0.900291 0.500000
#
# Coordination Sequence:
#
# PCOD9171896 Si02
#       8
#     8   8   8   8   8   8   8   8
#     4   9  17  26  38  57  77 103 140 185 231 265
#     4  10  20  34  48  65  87 105 130 159 194 251
#     4  10  18  29  43  58  80 108 147 191 224 253
#     4  10  20  34  54  76  93 109 127 154 199 252
#     4   9  15  23  35  51  74 102 132 171 226 282
#     4  10  20  31  42  57  76  99 134 169 198 239
#     4  10  20  31  44  59  77 103 126 155 198 237
#     4  10  20  32  46  61  80 111 138 168 212 241
#
# _framework density 14.769496999999999
#
# number of rings (size 3 to 8) (size 9 to 14) (size 15 to 20)
#    0.000    2.250    0.000    3.750    0.000    4.500 
#    0.000    7.500    0.000    0.000    0.000    0.000 
#    0.000    0.000    0.000    0.000    0.000    0.000 
#
# Total GULP energy -178197.142066 kJ/mol
# GULP energy per Si atom -5568.660690 kJ/mol
# Density = 1.473588 g / cm^3
# Si number density = 14.769497 Si / 1000 Ang^3
#
#
#
# Elastic Constant Matrix: (Units=GPa)
#
#
# Indices 1 2 3 4 5 6 
#
# 1 112.3369 10.2675 44.7037 0.0000 -0.0957 0.0000
# 2 10.2675 28.6903 13.2439 0.0000 0.3971 0.0000
# 3 44.7037 13.2439 92.8699 0.0000 1.1170 0.0000
# 4 0.0000 0.0000 0.0000 7.7510 0.0000 5.5762
# 5 -0.0957 0.3971 1.1170 0.0000 16.3392 0.0000
# 6 0.0000 0.0000 0.0000 5.5762 0.0000 9.1726
#
#
#
# Elastic Compliance Matrix: (Units=1/GPa)
#
#
# Indices 1 2 3 4 5 6 
#
# 1 0.011083 -0.001614 -0.005110 0.000000 0.000453 0.000000
# 2 -0.001614 0.037551 -0.004571 0.000000 -0.000610 0.000000
# 3 -0.005110 -0.004571 0.013890 0.000000 -0.000868 0.000000
# 4 0.000000 0.000000 0.000000 0.229296 0.000000 -0.139393
# 5 0.000453 -0.000610 -0.000868 0.000000 0.061279 0.000000
# 6 0.000000 0.000000 0.000000 -0.139393 0.000000 0.193759
#
#
# Mechanical properties :
#
#
# Convention : Reuss Voigt Hill
#
# Bulk Modulus (GPa) = 25.04116 41.14747 33.09431
# Shear Modulus (GPa) = 8.57986 17.69803 13.13894
#
# Velocity S-wave (km/s) = 2.41284 3.46538 2.98585
# Velocity P-wave (km/s) = 4.97532 6.62812 5.86028
#
# Compressibility (1/GPa) = 0.03993426
#
# Stress axis : x y z
#
# Youngs Moduli (GPa) = 90.22580 26.63048 71.99437
#
# Poissons Ratio (x) = 0.04297 0.36792
# Poissons Ratio (y) = 0.14559 0.32908
# Poissons Ratio (z) = 0.46109 0.12173
#
# Static dielectric constant tensor:
#      x y z
#    x 1.522370 0.000000 0.000190 
#    y 0.000000 1.463590 0.000000 
#    z 0.000190 0.000000 1.489680 
# 
# From -- ./inp_files/331642.got.cif
#   From: 2010.05.17/outbox.cif.g08.bks.cpg/sg12_166_cif.got.tgz:331642.got - 2010.06.03 13:09:07.
