data_PCOD9171355
_publ_section_title
;
Structure prediction by ZEFSAII (Michael W. Deem and Ramdas Pophale) SiO2 
 PCOD9171355
Probable space group: C 2/M
;
_chemical_formula_sum "Si O2"
_cell_formula_units_Z 64
_cell_length_a 25.069632
_cell_length_b 9.272201
_cell_length_c 18.725810
_cell_angle_alpha 90.000000
_cell_angle_beta 81.244624
_cell_angle_gamma 90.000000
_cell_volume 4302.104542
_symmetry_space_group_name_H-M "C 2/M"
_symmetry_group_IT_number 12
_symmetry_cell_setting 'monoclinic'
loop_
_space_group_symop_operation_xyz
x,y,z
-x,y,-z
-x,-y,-z
x,-y,z
1/2+x,1/2+y,z
1/2-x,1/2+y,-z
1/2-x,1/2-y,-z
1/2+x,1/2-y,z
loop_
_atom_site_type_symbol
_atom_site_label
_atom_site_fract_x
_atom_site_fract_y
_atom_site_fract_z
Si Si1 0.955455 0.329517 0.803263
Si Si2 0.558109 0.833475 0.529056
Si Si3 0.841413 0.670281 0.744167
Si Si4 0.492964 0.666505 0.334974
Si Si5 0.669338 0.327854 0.995486
Si Si6 0.229425 0.326809 0.112977
Si Si7 0.952346 0.173017 0.955460
Si Si8 0.608896 0.665881 0.393237
O O1 0.965999 0.500000 0.805612
O O2 0.895457 0.311899 0.781548
O O3 0.957334 0.255054 0.879652
O O4 0.996077 0.252542 0.739937
O O5 0.500000 0.832742 0.500000
O O6 0.548296 0.746459 0.603882
O O7 0.599434 0.755488 0.467276
O O8 0.572184 0.000000 0.538869
O O9 0.837208 0.500000 0.728172
O O10 0.791830 0.715909 0.804755
O O11 0.850466 0.759834 0.670537
O O12 0.478313 0.500000 0.325461
O O13 0.550655 0.666825 0.364793
O O14 0.673810 0.500000 0.006765
O O15 0.709082 0.292554 0.921541
O O16 0.692791 0.246923 0.059829
O O17 0.606543 0.293560 0.999717
O O18 0.222199 0.500000 0.109784
O O19 0.954654 0.000000 0.942258
O O20 0.000000 0.211210 0.000000
O O21 0.622694 0.500000 0.404909
#
# Coordination Sequence:
#
# PCOD9171355 Si02
#       8
#     8   8   8   8   8   8   8   8
#     4  10  18  28  41  57  76 100 134 171 206 245
#     4   9  15  23  34  49  71 100 133 165 197 232
#     4   9  16  25  37  54  77 102 128 164 204 240
#     4   9  16  25  37  52  72  99 131 167 202 236
#     4   9  17  28  43  60  78 102 133 167 207 250
#     4   9  16  27  42  60  80 102 130 169 209 246
#     4  10  20  32  44  59  81 108 137 171 210 251
#     4   9  16  23  33  50  73 101 133 163 193 234
#
# _framework density 14.876440000000001
#
# number of rings (size 3 to 8) (size 9 to 14) (size 15 to 20)
#    0.000    2.750    1.250    1.500    0.000    5.750 
#    0.000    0.000    0.000    0.000    0.000    0.000 
#    0.000    0.000    0.000    1.125    0.000   11.375 
#
# Total GULP energy -178206.618033 kJ/mol
# GULP energy per Si atom -5568.956814 kJ/mol
# Density = 1.484258 g / cm^3
# Si number density = 14.876440 Si / 1000 Ang^3
#
#
#
# Elastic Constant Matrix: (Units=GPa)
#
#
# Indices 1 2 3 4 5 6 
#
# 1 52.4503 29.8736 44.4827 0.0000 -15.3185 0.0000
# 2 29.8736 80.2336 67.5017 0.0000 -18.0924 0.0000
# 3 44.4827 67.5017 129.4204 0.0000 -41.3339 0.0000
# 4 0.0000 0.0000 0.0000 29.7629 0.0000 -3.7493
# 5 -15.3185 -18.0924 -41.3339 0.0000 21.4098 0.0000
# 6 0.0000 0.0000 0.0000 -3.7493 0.0000 8.5879
#
#
#
# Elastic Compliance Matrix: (Units=1/GPa)
#
#
# Indices 1 2 3 4 5 6 
#
# 1 0.027902 -0.004575 -0.005380 0.000000 0.005710 0.000000
# 2 -0.004575 0.023705 -0.014186 0.000000 -0.010629 0.000000
# 3 -0.005380 -0.014186 0.031082 0.000000 0.044169 0.000000
# 4 0.000000 0.000000 0.000000 0.035554 0.000000 0.015522
# 5 0.005710 -0.010629 0.044169 0.000000 0.127084 0.000000
# 6 0.000000 0.000000 0.000000 0.015522 0.000000 0.123220
#
#
# Mechanical properties :
#
#
# Convention : Reuss Voigt Hill
#
# Bulk Modulus (GPa) = 29.06438 60.64669 44.85554
# Shear Modulus (GPa) = 11.67411 19.96854 15.82133
#
# Velocity S-wave (km/s) = 2.80436 3.66771 3.26470
# Velocity P-wave (km/s) = 5.48320 7.66756 6.66547
#
# Compressibility (1/GPa) = 0.03440638
#
# Stress axis : x y z
#
# Youngs Moduli (GPa) = 35.83974 42.18483 32.17323
#
# Poissons Ratio (x) = 0.19298 0.17311
# Poissons Ratio (y) = 0.16395 0.45642
# Poissons Ratio (z) = 0.19283 0.59845
#
# Static dielectric constant tensor:
#      x y z
#    x 1.467850 0.000000 -0.033240 
#    y 0.000000 1.496240 0.000000 
#    z -0.033240 0.000000 1.488500 
# 
# From -- ./inp_files/294543.got.cif
#   From: 2010.05.17/outbox.cif.g08.bks.cpg/sg12_148_cif.got.tgz:294543.got - 2010.06.03 13:09:07.
