data_PCOD9171653
_publ_section_title
;
Structure prediction by ZEFSAII (Michael W. Deem and Ramdas Pophale) SiO2 
 PCOD9171653
Probable space group: C 2/M
;
_chemical_formula_sum "Si O2"
_cell_formula_units_Z 56
_cell_length_a 9.656058
_cell_length_b 18.550870
_cell_length_c 18.508048
_cell_angle_alpha 90.000000
_cell_angle_beta 45.294436
_cell_angle_gamma 90.000000
_cell_volume 2356.297505
_symmetry_space_group_name_H-M "C 2/M"
_symmetry_group_IT_number 12
_symmetry_cell_setting 'monoclinic'
loop_
_space_group_symop_operation_xyz
x,y,z
-x,y,-z
-x,-y,-z
x,-y,z
1/2+x,1/2+y,z
1/2-x,1/2+y,-z
1/2-x,1/2-y,-z
1/2+x,1/2-y,z
loop_
_atom_site_type_symbol
_atom_site_label
_atom_site_fract_x
_atom_site_fract_y
_atom_site_fract_z
Si Si1 0.234830 0.689233 0.913348
Si Si2 0.230357 0.855358 0.370409
Si Si3 0.256099 0.081231 0.962309
Si Si4 0.261838 0.835127 0.512909
Si Si5 0.808298 0.663010 0.811269
Si Si6 0.705965 0.813437 0.344605
Si Si7 0.267907 0.078425 0.209190
O O1 0.314816 0.766859 0.860954
O O2 0.286656 0.638072 0.827994
O O3 0.294527 0.645803 0.963563
O O4 0.000000 0.697752 0.000000
O O5 0.170299 0.871095 0.475382
O O6 0.467101 0.855796 0.285464
O O7 0.180463 0.772563 0.367146
O O8 0.188341 0.905622 0.317971
O O9 0.207833 0.102632 0.897436
O O10 0.494632 0.079423 0.876077
O O11 0.191985 0.000000 0.005202
O O12 0.250000 0.750000 0.500000
O O13 0.492813 0.849569 0.426931
O O14 0.188954 0.843098 0.621710
O O15 0.718712 0.676864 0.764693
O O16 0.205707 0.000000 0.206622
#
# Coordination Sequence:
#
# PCOD9171653 Si02
#       7
#     8   8   8   8   8   8   8
#     4  10  18  29  45  67  90 117 153 196 234 265
#     4   9  16  27  43  68  97 116 149 179 226 271
#     4   9  18  30  43  62  89 120 153 188 229 271
#     4   8  15  25  43  67  94 118 142 177 225 265
#     4  10  18  28  46  68  90 119 152 192 228 262
#     4   9  15  27  43  67  95 114 145 188 220 266
#     4   9  16  27  44  65  92 120 148 186 230 273
#
# _framework density 23.766098
#
# number of rings (size 3 to 8) (size 9 to 14) (size 15 to 20)
#    0.000    2.857    1.429    0.857    0.000    1.714 
#    0.000    0.000    0.000    1.286    0.000   14.000 
#    0.000    0.000    0.000    0.000    0.000    0.000 
#
# Total GULP energy -156270.335988 kJ/mol
# GULP energy per Si atom -5581.083428 kJ/mol
# Density = 2.371201 g / cm^3
# Si number density = 23.766098 Si / 1000 Ang^3
#
#
#
# Elastic Constant Matrix: (Units=GPa)
#
#
# Indices 1 2 3 4 5 6 
#
# 1 72.7197 -2.1597 40.1709 0.0001 27.0550 -0.0001
# 2 -2.1597 44.6246 24.6286 -0.0001 17.5282 -0.0001
# 3 40.1709 24.6286 129.1047 0.0001 27.0795 -0.0005
# 4 0.0001 -0.0001 0.0001 -10.2628 -0.0001 -15.5408
# 5 27.0550 17.5282 27.0795 -0.0001 52.6963 0.0003
# 6 -0.0001 -0.0001 -0.0005 -15.5408 0.0003 3.0197
#
#
#
# Elastic Compliance Matrix: (Units=1/GPa)
#
#
# Indices 1 2 3 4 5 6 
#
# 1 0.021308 0.008553 -0.006019 0.000000 -0.010692 0.000000
# 2 0.008553 0.030699 -0.006114 0.000000 -0.011461 0.000000
# 3 -0.006019 -0.006114 0.010883 0.000000 -0.000469 0.000000
# 4 0.000000 0.000000 0.000000 -0.011081 0.000001 -0.057029
# 5 -0.010692 -0.011461 -0.000469 0.000001 0.028519 -0.000001
# 6 0.000000 0.000000 0.000000 -0.057029 -0.000001 0.037661
#
#
# Mechanical properties :
#
#
# Convention : Reuss Voigt Hill
#
# Bulk Modulus (GPa) = 17.94348 41.30318 29.62333
# Shear Modulus (GPa) = 34.78861 21.34458 28.06660
#
# Velocity S-wave (km/s) = 3.83010 3.00010 3.44022
# Velocity P-wave (km/s) = 5.20826 5.42380 5.31712
#
# Compressibility (1/GPa) = 0.05573056
#
# Stress axis : x y z
#
# Youngs Moduli (GPa) = 46.93027 32.57445 91.88592
#
# Poissons Ratio (x) = -0.27860 0.55307
# Poissons Ratio (y) = -0.40139 0.56175
# Poissons Ratio (z) = 0.28248 0.19915
#
# Static dielectric constant tensor:
#      x y z
#    x 1.999330 0.000000 -0.021550 
#    y 0.000000 1.833490 0.000000 
#    z -0.021550 0.000000 1.963110 
# 
# From -- ./inp_files/264302.got.cif
#   From: 2010.05.17/outbox.cif.g08.bks.cpg/sg12_133_cif.got.tgz:264302.got - 2010.06.03 13:09:07.
