data_PCOD9171632
_publ_section_title
;
Structure prediction by ZEFSAII (Michael W. Deem and Ramdas Pophale) SiO2 
 PCOD9171632
Probable space group: C 2/M
;
_chemical_formula_sum "Si O2"
_cell_formula_units_Z 64
_cell_length_a 19.844951
_cell_length_b 8.791741
_cell_length_c 21.013259
_cell_angle_alpha 90.000000
_cell_angle_beta 84.979822
_cell_angle_gamma 90.000000
_cell_volume 3652.154552
_symmetry_space_group_name_H-M "C 2/M"
_symmetry_group_IT_number 12
_symmetry_cell_setting 'monoclinic'
loop_
_space_group_symop_operation_xyz
x,y,z
-x,y,-z
-x,-y,-z
x,-y,z
1/2+x,1/2+y,z
1/2-x,1/2+y,-z
1/2-x,1/2-y,-z
1/2+x,1/2-y,z
loop_
_atom_site_type_symbol
_atom_site_label
_atom_site_fract_x
_atom_site_fract_y
_atom_site_fract_z
Si Si1 0.210761 0.682396 0.775255
Si Si2 0.679086 0.182652 0.322333
Si Si3 0.386359 0.183915 0.334183
Si Si4 0.533318 0.183729 0.287551
Si Si5 0.265100 0.816896 0.429926
Si Si6 0.076802 0.676140 0.021410
Si Si7 0.872037 0.181448 0.107414
Si Si8 0.021933 0.181375 0.148958
O O1 0.217436 0.500000 0.775204
O O2 0.278306 0.757570 0.741751
O O3 0.152882 0.723938 0.727783
O O4 0.185648 0.742761 0.844967
O O5 0.600906 0.225075 0.319686
O O6 0.712080 0.257572 0.381816
O O7 0.685055 0.000000 0.325811
O O8 0.463227 0.238444 0.324943
O O9 0.338553 0.232496 0.396226
O O10 0.388126 0.000000 0.336110
O O11 0.536153 0.246732 0.215939
O O12 0.531068 0.000000 0.284191
O O13 0.250000 0.750000 0.500000
O O14 0.263242 0.000000 0.431872
O O15 0.095436 0.500000 0.026319
O O16 0.071262 0.755685 0.090102
O O17 0.122733 0.757326 0.964863
O O18 0.000000 0.683242 0.000000
O O19 0.944750 0.219539 0.134134
O O20 0.864923 0.000000 0.108110
O O21 0.027147 0.000000 0.151373
#
# Coordination Sequence:
#
# PCOD9171632 Si02
#       8
#     8   8   8   8   8   8   8   8
#     4  10  18  31  52  74 102 138 177 219 261 314
#     4  10  21  35  54  80 109 138 172 215 261 308
#     4   8  16  31  53  78 101 132 176 213 248 297
#     4  10  19  34  54  76 105 140 176 215 258 313
#     4  10  20  37  60  83 108 140 175 213 254 306
#     4   9  17  28  43  65  96 136 177 217 263 319
#     4  10  18  28  45  72 103 132 172 225 273 312
#     4  10  19  29  45  72 104 136 170 218 271 312
#
# _framework density 17.523902
#
# number of rings (size 3 to 8) (size 9 to 14) (size 15 to 20)
#    0.000    2.375    1.250    3.000    0.000    3.500 
#    0.000    1.250    0.000    4.500    0.000    0.000 
#    0.000    0.000    0.000    0.000    0.000    0.000 
#
# Total GULP energy -178481.225249 kJ/mol
# GULP energy per Si atom -5577.538289 kJ/mol
# Density = 1.748402 g / cm^3
# Si number density = 17.523902 Si / 1000 Ang^3
#
#
#
# Elastic Constant Matrix: (Units=GPa)
#
#
# Indices 1 2 3 4 5 6 
#
# 1 110.3804 34.0469 62.9108 0.0000 -16.1020 0.0000
# 2 34.0469 41.3247 32.6056 0.0000 -5.3196 0.0000
# 3 62.9108 32.6056 128.9540 0.0000 -29.6011 0.0000
# 4 0.0000 0.0000 0.0000 32.2841 0.0000 -4.6138
# 5 -16.1020 -5.3196 -29.6011 0.0000 22.1230 0.0000
# 6 0.0000 0.0000 0.0000 -4.6138 0.0000 18.9045
#
#
#
# Elastic Compliance Matrix: (Units=1/GPa)
#
#
# Indices 1 2 3 4 5 6 
#
# 1 0.014449 -0.008101 -0.004379 0.000000 0.002710 0.000000
# 2 -0.008101 0.035053 -0.006249 0.000000 -0.005829 0.000000
# 3 -0.004379 -0.006249 0.015002 0.000000 0.015384 0.000000
# 4 0.000000 0.000000 0.000000 0.032094 0.000000 0.007833
# 5 0.002710 -0.005829 0.015384 0.000000 0.066356 0.000000
# 6 0.000000 0.000000 0.000000 0.007833 0.000000 0.054809
#
#
# Mechanical properties :
#
#
# Convention : Reuss Voigt Hill
#
# Bulk Modulus (GPa) = 36.97231 59.97621 48.47426
# Shear Modulus (GPa) = 18.92238 24.73537 21.82888
#
# Velocity S-wave (km/s) = 3.28960 3.76110 3.53322
# Velocity P-wave (km/s) = 5.96428 7.29115 6.66084
#
# Compressibility (1/GPa) = 0.02704727
#
# Stress axis : x y z
#
# Youngs Moduli (GPa) = 69.20756 28.52825 66.65663
#
# Poissons Ratio (x) = 0.23110 0.29188
# Poissons Ratio (y) = 0.56064 0.41654
# Poissons Ratio (z) = 0.30305 0.17827
#
# Static dielectric constant tensor:
#      x y z
#    x 1.608850 0.000000 -0.011070 
#    y 0.000000 1.585610 0.000000 
#    z -0.011070 0.000000 1.569800 
# 
# From -- ./inp_files/281285.got.cif
#   From: 2010.05.17/outbox.cif.g08.bks.cpg/sg12_141_cif.got.tgz:281285.got - 2010.06.03 13:09:07.
