data_PCOD9171570
_publ_section_title
;
Structure prediction by ZEFSAII (Michael W. Deem and Ramdas Pophale) SiO2 
 PCOD9171570
Probable space group: C 2/M
;
_chemical_formula_sum "Si O2"
_cell_formula_units_Z 64
_cell_length_a 20.517828
_cell_length_b 7.475792
_cell_length_c 21.401592
_cell_angle_alpha 90.000000
_cell_angle_beta 95.798573
_cell_angle_gamma 90.000000
_cell_volume 3265.929330
_symmetry_space_group_name_H-M "C 2/M"
_symmetry_group_IT_number 12
_symmetry_cell_setting 'monoclinic'
loop_
_space_group_symop_operation_xyz
x,y,z
-x,y,-z
-x,-y,-z
x,-y,z
1/2+x,1/2+y,z
1/2-x,1/2+y,-z
1/2-x,1/2-y,-z
1/2+x,1/2-y,z
loop_
_atom_site_type_symbol
_atom_site_label
_atom_site_fract_x
_atom_site_fract_y
_atom_site_fract_z
Si Si1 0.415046 0.210413 0.171103
Si Si2 0.295487 0.712610 0.445229
Si Si3 0.448319 0.211083 0.445019
Si Si4 0.692795 0.786321 0.043618
Si Si5 0.260926 0.717587 0.174167
Si Si6 0.580283 0.781097 0.692799
Si Si7 0.938506 0.280556 0.035417
Si Si8 0.732831 0.294888 0.690249
O O1 0.335977 0.230051 0.166288
O O2 0.442064 0.278474 0.240426
O O3 0.439064 0.283568 0.107187
O O4 0.430151 0.000000 0.171927
O O5 0.299288 0.500000 0.437575
O O6 0.250000 0.750000 0.500000
O O7 0.371581 0.771634 0.456936
O O8 0.261690 0.786511 0.378346
O O9 0.500000 0.286637 0.500000
O O10 0.455120 0.278509 0.374199
O O11 0.461690 0.000000 0.442277
O O12 0.714841 0.719168 0.113630
O O13 0.685759 0.000000 0.049343
O O14 0.750000 0.750000 0.000000
O O15 0.626438 0.718259 0.006523
O O16 0.260312 0.500000 0.175838
O O17 0.241650 0.782677 0.241771
O O18 0.654328 0.711103 0.692836
O O19 0.583186 0.000000 0.692985
O O20 0.936654 0.500000 0.037482
O O21 0.000000 0.228539 0.000000
O O22 0.756388 0.500000 0.689515
#
# Coordination Sequence:
#
# PCOD9171570 Si02
#       8
#     8   8   8   8   8   8   8   8
#     4   9  15  25  43  64  86 111 146 184 218 261
#     4  10  19  31  49  70  95 125 159 192 228 279
#     4   9  17  30  48  69  96 123 151 192 238 277
#     4  10  18  28  45  67  89 113 146 184 222 262
#     4   9  16  26  43  66  90 110 140 185 228 265
#     4   8  14  24  41  65  88 111 146 185 220 263
#     4   9  17  28  42  61  88 118 145 176 215 259
#     4   8  15  27  42  63  90 116 144 181 224 267
#
# _framework density 19.596260999999998
#
# number of rings (size 3 to 8) (size 9 to 14) (size 15 to 20)
#    0.000    3.000    1.250    0.375    0.000    0.750 
#    0.000    0.000    2.750    1.500    0.000    0.000 
#    0.000    0.000    0.000    0.000    0.000    0.000 
#
# Total GULP energy -178163.345761 kJ/mol
# GULP energy per Si atom -5567.604555 kJ/mol
# Density = 1.955166 g / cm^3
# Si number density = 19.596261 Si / 1000 Ang^3
#
#
#
# Elastic Constant Matrix: (Units=GPa)
#
#
# Indices 1 2 3 4 5 6 
#
# 1 75.5012 -7.9794 80.6309 0.0000 -2.1720 0.0000
# 2 -7.9794 57.0215 3.2713 0.0000 4.3065 0.0000
# 3 80.6309 3.2713 262.9155 0.0000 -2.5265 0.0000
# 4 0.0000 0.0000 0.0000 -3.6631 0.0000 4.4136
# 5 -2.1720 4.3065 -2.5265 0.0000 30.8381 0.0000
# 6 0.0000 0.0000 0.0000 4.4136 0.0000 7.4835
#
#
#
# Elastic Compliance Matrix: (Units=1/GPa)
#
#
# Indices 1 2 3 4 5 6 
#
# 1 0.020267 0.003159 -0.006250 0.000000 0.000474 0.000000
# 2 0.003159 0.018232 -0.001219 0.000000 -0.002424 0.000000
# 3 -0.006250 -0.001219 0.005737 0.000000 0.000200 0.000000
# 4 0.000000 0.000000 0.000000 -0.159587 0.000000 0.094122
# 5 0.000474 -0.002424 0.000200 0.000000 0.032816 0.000000
# 6 0.000000 0.000000 0.000000 0.094122 0.000000 0.078116
#
#
# Mechanical properties :
#
#
# Convention : Reuss Voigt Hill
#
# Bulk Modulus (GPa) = 28.07704 60.80931 44.44317
# Shear Modulus (GPa) = 311.05124 28.23272 169.64198
#
# Velocity S-wave (km/s) = 12.61247 3.79980 9.31432
# Velocity P-wave (km/s) = 15.04853 7.09576 11.76452
#
# Compressibility (1/GPa) = 0.03561629
#
# Stress axis : x y z
#
# Youngs Moduli (GPa) = 49.34058 54.84789 174.29384
#
# Poissons Ratio (x) = -0.17326 1.08939
# Poissons Ratio (y) = -0.15586 0.21245
# Poissons Ratio (z) = 0.30839 0.06685
#
# Static dielectric constant tensor:
#      x y z
#    x 1.585900 0.000000 -0.002280 
#    y 0.000000 1.726830 0.000000 
#    z -0.002280 0.000000 1.775890 
# 
# From -- ./inp_files/319208.got.cif
#   From: 2010.05.17/outbox.cif.g08.bks.cpg/sg12_160_cif.got.tgz:319208.got - 2010.06.03 13:09:07.
