data_PCOD9171373
_publ_section_title
;
Structure prediction by ZEFSAII (Michael W. Deem and Ramdas Pophale) SiO2 
 PCOD9171373
Probable space group: C 2/M
;
_chemical_formula_sum "Si O2"
_cell_formula_units_Z 56
_cell_length_a 27.409887
_cell_length_b 8.024010
_cell_length_c 14.201970
_cell_angle_alpha 90.000000
_cell_angle_beta 60.473213
_cell_angle_gamma 90.000000
_cell_volume 2717.872847
_symmetry_space_group_name_H-M "C 2/M"
_symmetry_group_IT_number 12
_symmetry_cell_setting 'monoclinic'
loop_
_space_group_symop_operation_xyz
x,y,z
-x,y,-z
-x,-y,-z
x,-y,z
1/2+x,1/2+y,z
1/2-x,1/2+y,-z
1/2-x,1/2-y,-z
1/2+x,1/2-y,z
loop_
_atom_site_type_symbol
_atom_site_label
_atom_site_fract_x
_atom_site_fract_y
_atom_site_fract_z
Si Si1 0.388450 0.806018 0.384411
Si Si2 0.694014 0.301938 0.953199
Si Si3 0.980109 0.296551 0.165910
Si Si4 0.679911 0.307433 0.170905
Si Si5 0.713231 0.305202 0.625020
Si Si6 0.681555 0.697744 0.369220
Si Si7 0.086774 0.298819 0.958385
O O1 0.447378 0.737677 0.289730
O O2 0.344673 0.789437 0.338397
O O3 0.359653 0.727839 0.503567
O O4 0.394516 0.000000 0.400430
O O5 0.706127 0.500000 0.949176
O O6 0.668234 0.239088 0.077849
O O7 0.647954 0.272932 0.917571
O O8 0.752443 0.207724 0.885091
O O9 0.979843 0.500000 0.168533
O O10 0.043453 0.245753 0.082306
O O11 0.943156 0.248100 0.109984
O O12 0.662185 0.500000 0.184860
O O13 0.659284 0.235280 0.290100
O O14 0.700725 0.500000 0.632493
O O15 0.750000 0.250000 0.500000
O O16 0.756891 0.271605 0.666810
O O17 0.689446 0.500000 0.353597
O O18 0.090479 0.500000 0.955058
#
# Coordination Sequence:
#
# PCOD9171373 Si02
#       7
#     8   8   8   8   8   8   8
#     4  10  18  30  47  70  98 129 161 201 242 283
#     4  10  20  34  52  77 101 123 159 209 253 288
#     4   8  17  32  52  74  98 130 168 197 232 296
#     4   9  20  36  52  70  98 134 167 196 241 301
#     4  10  18  28  41  63  94 128 160 194 234 282
#     4  10  19  32  48  67  93 130 167 199 236 288
#     4   9  17  34  55  74  96 130 167 198 239 294
#
# _framework density 20.604348000000002
#
# number of rings (size 3 to 8) (size 9 to 14) (size 15 to 20)
#    0.000    2.571    0.000    5.143    2.000    1.714 
#    0.000    3.571    0.000    0.857    0.000    6.000 
#    0.000    0.000    0.000    0.000    0.000    0.000 
#
# Total GULP energy -156051.821978 kJ/mol
# GULP energy per Si atom -5573.279356 kJ/mol
# Density = 2.055745 g / cm^3
# Si number density = 20.604348 Si / 1000 Ang^3
#
#
#
# Elastic Constant Matrix: (Units=GPa)
#
#
# Indices 1 2 3 4 5 6 
#
# 1 29.7212 -7.5110 -4.6997 0.0000 -5.6037 0.0000
# 2 -7.5110 29.8950 -1.5652 0.0000 3.1991 0.0000
# 3 -4.6997 -1.5652 86.4382 0.0000 -6.4235 0.0000
# 4 0.0000 0.0000 0.0000 14.0438 0.0000 1.9635
# 5 -5.6037 3.1991 -6.4235 0.0000 30.4723 0.0000
# 6 0.0000 0.0000 0.0000 1.9635 0.0000 9.8939
#
#
#
# Elastic Compliance Matrix: (Units=1/GPa)
#
#
# Indices 1 2 3 4 5 6 
#
# 1 0.037547 0.008874 0.002688 0.000000 0.006540 0.000000
# 2 0.008874 0.035939 0.000990 0.000000 -0.001932 0.000000
# 3 0.002688 0.000990 0.011949 0.000000 0.002909 0.000000
# 4 0.000000 0.000000 0.000000 0.073238 0.000000 -0.014535
# 5 0.006540 -0.001932 0.002909 0.000000 0.034835 0.000000
# 6 0.000000 0.000000 0.000000 -0.014535 0.000000 0.103957
#
#
# Mechanical properties :
#
#
# Convention : Reuss Voigt Hill
#
# Bulk Modulus (GPa) = 9.04656 13.16694 11.10675
# Shear Modulus (GPa) = 16.17041 21.53736 18.85388
#
# Velocity S-wave (km/s) = 2.80448 3.23659 3.02825
# Velocity P-wave (km/s) = 3.85836 4.51349 4.19872
#
# Compressibility (1/GPa) = 0.11053923
#
# Stress axis : x y z
#
# Youngs Moduli (GPa) = 26.63347 27.82513 83.68736
#
# Poissons Ratio (x) = -0.24693 -0.22496
# Poissons Ratio (y) = -0.23636 -0.08282
# Poissons Ratio (z) = -0.07159 -0.02754
#
# Static dielectric constant tensor:
#      x y z
#    x 1.725490 0.000000 0.018280 
#    y 0.000000 1.751790 0.000000 
#    z 0.018280 0.000000 1.821520 
# 
# From -- ./inp_files/242980.got.cif
#   From: 2010.05.17/outbox.cif.g08.bks.cpg/sg12_122_cif.got.tgz:242980.got - 2010.06.03 13:09:07.
