data_PCOD9171854
_publ_section_title
;
Structure prediction by ZEFSAII (Michael W. Deem and Ramdas Pophale) SiO2 
 PCOD9171854
Probable space group: C 2/M
;
_chemical_formula_sum "Si O2"
_cell_formula_units_Z 32
_cell_length_a 18.440771
_cell_length_b 8.565851
_cell_length_c 24.281199
_cell_angle_alpha 90.000000
_cell_angle_beta 160.853579
_cell_angle_gamma 90.000000
_cell_volume 1257.973716
_symmetry_space_group_name_H-M "C 2/M"
_symmetry_group_IT_number 12
_symmetry_cell_setting 'monoclinic'
loop_
_space_group_symop_operation_xyz
x,y,z
-x,y,-z
-x,-y,-z
x,-y,z
1/2+x,1/2+y,z
1/2-x,1/2+y,-z
1/2-x,1/2-y,-z
1/2+x,1/2-y,z
loop_
_atom_site_type_symbol
_atom_site_label
_atom_site_fract_x
_atom_site_fract_y
_atom_site_fract_z
Si Si1 0.250996 0.500000 0.846680
Si Si2 0.298946 0.324586 0.476893
Si Si3 0.743217 0.166503 0.148043
Si Si4 0.265793 0.819282 0.689329
Si Si5 0.197203 0.500000 0.686515
O O1 0.222498 0.334281 0.855599
O O2 0.114109 0.500000 0.690419
O O3 0.500000 0.500000 0.000000
O O4 0.217239 0.500000 0.422203
O O5 0.250000 0.250000 0.500000
O O6 0.567254 0.333337 0.668853
O O7 0.196047 0.265258 0.346681
O O8 0.776357 0.000000 0.141929
O O9 0.500000 0.163514 0.000000
O O10 0.322901 0.664928 0.765930
O O11 0.000000 0.835430 0.500000
O O12 0.348840 0.000000 0.759115
O O13 0.000000 0.500000 0.500000
#
# Coordination Sequence:
#
# PCOD9171854 Si02
#       5
#     4   8   8   8   4
#     4  10  20  32  52  84 112 142 184 233 282 329
#     4  10  21  33  52  83 118 148 181 238 296 332
#     4   9  18  33  51  74 110 146 186 226 273 332
#     4   9  18  32  49  74 108 143 183 225 280 335
#     4  10  18  28  50  76 104 144 176 225 284 325
#
# _framework density 25.437732
#
# number of rings (size 3 to 8) (size 9 to 14) (size 15 to 20)
#    0.000    2.500    0.000    3.000    3.500    3.000 
#    0.000    0.000    0.000    0.000    0.000   15.750 
#    0.000    0.000    0.000    0.000    0.000    0.000 
#
# Total GULP energy -89125.909769 kJ/mol
# GULP energy per Si atom -5570.369361 kJ/mol
# Density = 2.537983 g / cm^3
# Si number density = 25.437732 Si / 1000 Ang^3
#
#
#
# Elastic Constant Matrix: (Units=GPa)
#
#
# Indices 1 2 3 4 5 6 
#
# 1 95.5479 41.1280 8.9509 -0.0001 -16.2842 -0.0022
# 2 41.1280 276.4529 4.7740 -0.0556 -6.7300 0.0116
# 3 8.9509 4.7740 82.9983 -0.0720 -9.8603 0.0152
# 4 -0.0001 -0.0556 -0.0720 10.0832 0.0217 4.1472
# 5 -16.2842 -6.7300 -9.8603 0.0217 27.0682 0.0017
# 6 -0.0022 0.0116 0.0152 4.1472 0.0017 32.0747
#
#
#
# Elastic Compliance Matrix: (Units=1/GPa)
#
#
# Indices 1 2 3 4 5 6 
#
# 1 0.012398 -0.001669 -0.000423 -0.000029 0.006890 0.000005
# 2 -0.001669 0.003865 -0.000050 0.000023 -0.000061 -0.000004
# 3 -0.000423 -0.000050 0.012611 0.000088 0.004327 -0.000018
# 4 -0.000029 0.000023 0.000088 0.104746 -0.000063 -0.013544
# 5 0.006890 -0.000061 0.004327 -0.000063 0.042650 0.000004
# 6 0.000005 -0.000004 -0.000018 -0.013544 0.000004 0.032928
#
#
# Mechanical properties :
#
#
# Convention : Reuss Voigt Hill
#
# Bulk Modulus (GPa) = 40.66497 62.74497 51.70497
# Shear Modulus (GPa) = 22.55515 40.52165 31.53840
#
# Velocity S-wave (km/s) = 2.98095 3.99554 3.52494
# Velocity P-wave (km/s) = 5.27910 6.78273 6.07759
#
# Compressibility (1/GPa) = 0.02459119
#
# Stress axis : x y z
#
# Youngs Moduli (GPa) = 80.65564 258.73303 79.29565
#
# Poissons Ratio (x) = 0.43195 0.03351
# Poissons Ratio (y) = 0.13465 0.00393
# Poissons Ratio (z) = 0.03408 0.01282
#
# Static dielectric constant tensor:
#      x y z
#    x 2.613150 0.000000 -0.000880 
#    y 0.000000 2.128300 -0.000020 
#    z -0.000880 -0.000020 2.077020 
# 
# From -- ./inp_files/151176.got.cif
#   From: 2010.05.17/outbox.cif.g08.bks.cpg/sg12_76_cif.got.tgz:151176.got - 2010.06.03 13:09:07.
