data_PCOD9171311
_publ_section_title
;
Structure prediction by ZEFSAII (Michael W. Deem and Ramdas Pophale) SiO2 
 PCOD9171311
Probable space group: C 2/M
;
_chemical_formula_sum "Si O2"
_cell_formula_units_Z 64
_cell_length_a 21.686522
_cell_length_b 21.699702
_cell_length_c 12.144016
_cell_angle_alpha 90.000000
_cell_angle_beta 135.736308
_cell_angle_gamma 90.000000
_cell_volume 3988.756698
_symmetry_space_group_name_H-M "C 2/M"
_symmetry_group_IT_number 12
_symmetry_cell_setting 'monoclinic'
loop_
_space_group_symop_operation_xyz
x,y,z
-x,y,-z
-x,-y,-z
x,-y,z
1/2+x,1/2+y,z
1/2-x,1/2+y,-z
1/2-x,1/2-y,-z
1/2+x,1/2-y,z
loop_
_atom_site_type_symbol
_atom_site_label
_atom_site_fract_x
_atom_site_fract_y
_atom_site_fract_z
Si Si1 0.511370 0.170906 0.767051
Si Si2 0.696029 0.694700 0.571101
Si Si3 0.425481 0.065945 0.312394
Si Si4 0.682854 0.335984 0.973544
Si Si5 0.998357 0.197957 0.365975
Si Si6 0.695356 0.195526 0.071014
Si Si7 0.307182 0.837592 0.502911
Si Si8 0.749849 0.072800 0.767414
O O1 0.547368 0.117625 0.736096
O O2 0.509392 0.232846 0.691282
O O3 0.410478 0.156049 0.669432
O O4 0.591618 0.180309 0.955201
O O5 0.593808 0.674887 0.447370
O O6 0.746889 0.680873 0.748765
O O7 0.698810 0.769308 0.559344
O O8 0.745440 0.665023 0.530786
O O9 0.500000 0.064272 0.500000
O O10 0.336871 0.075126 0.267044
O O11 0.420759 0.000000 0.248293
O O12 0.588283 0.335675 0.791350
O O13 0.759099 0.338098 0.976365
O O14 0.698298 0.268815 0.048764
O O15 0.684500 0.387529 0.071097
O O16 0.000000 0.198857 0.500000
O O17 0.274817 0.889397 0.374954
O O18 0.771568 0.000000 0.776975
#
# Coordination Sequence:
#
# PCOD9171311 Si02
#       8
#     8   8   8   8   8   8   8   8
#     4  10  19  28  48  79 111 144 171 209 262 325
#     4  10  20  35  51  77 107 141 179 219 270 323
#     4  10  18  27  45  76 109 138 174 213 244 300
#     4  10  19  31  51  83 108 134 172 228 276 313
#     4  10  19  30  53  80 101 138 178 221 278 321
#     4  10  18  29  52  80 112 137 168 220 272 318
#     4  10  21  34  51  73 112 148 176 213 260 324
#     4  11  21  34  55  80 110 145 181 218 264 317
#
# _framework density 16.045099
#
# number of rings (size 3 to 8) (size 9 to 14) (size 15 to 20)
#    0.000    1.875    5.000    0.375    1.750    0.500 
#    0.000    0.625    0.000    3.375    0.000    1.750 
#    0.000    0.000    0.000    0.000    0.000    0.000 
#
# Total GULP energy -178163.659090 kJ/mol
# GULP energy per Si atom -5567.614347 kJ/mol
# Density = 1.600858 g / cm^3
# Si number density = 16.045099 Si / 1000 Ang^3
#
#
#
# Elastic Constant Matrix: (Units=GPa)
#
#
# Indices 1 2 3 4 5 6 
#
# 1 75.8187 26.6552 45.2250 0.0000 19.4160 0.0000
# 2 26.6552 56.4379 32.1030 0.0000 3.4119 0.0000
# 3 45.2250 32.1030 109.8705 0.0000 19.7017 0.0000
# 4 0.0000 0.0000 0.0000 20.7966 0.0000 -8.8378
# 5 19.4160 3.4119 19.7017 0.0000 17.3611 0.0000
# 6 0.0000 0.0000 0.0000 -8.8378 0.0000 22.1978
#
#
#
# Elastic Compliance Matrix: (Units=1/GPa)
#
#
# Indices 1 2 3 4 5 6 
#
# 1 0.023308 -0.007672 -0.003702 0.000000 -0.020358 0.000000
# 2 -0.007672 0.023957 -0.005695 0.000000 0.010335 0.000000
# 3 -0.003702 -0.005695 0.014245 0.000000 -0.010906 0.000000
# 4 0.000000 0.000000 0.000000 0.057877 0.000000 0.023043
# 5 -0.020358 0.010335 -0.010906 0.000000 0.090713 0.000000
# 6 0.000000 0.000000 0.000000 0.023043 0.000000 0.054224
#
#
# Mechanical properties :
#
#
# Convention : Reuss Voigt Hill
#
# Bulk Modulus (GPa) = 36.53356 50.01039 43.27197
# Shear Modulus (GPa) = 16.25559 21.28070 18.76814
#
# Velocity S-wave (km/s) = 3.18641 3.64580 3.42382
# Velocity P-wave (km/s) = 6.02962 6.99705 6.53127
#
# Compressibility (1/GPa) = 0.02737210
#
# Stress axis : x y z
#
# Youngs Moduli (GPa) = 42.90364 41.74191 70.19920
#
# Poissons Ratio (x) = 0.32024 0.25987
# Poissons Ratio (y) = 0.32915 0.39980
# Poissons Ratio (z) = 0.15882 0.23773
#
# Static dielectric constant tensor:
#      x y z
#    x 1.525910 0.000000 0.027270 
#    y 0.000000 1.553200 0.000000 
#    z 0.027270 0.000000 1.562510 
# 
# From -- ./inp_files/159579.got.cif
#   From: 2010.05.17/outbox.cif.g08.bks.cpg/sg12_80_cif.got.tgz:159579.got - 2010.06.03 13:09:07.
