data_PCOD9171031
_publ_section_title
;
Structure prediction by ZEFSAII (Michael W. Deem and Ramdas Pophale) SiO2 
 PCOD9171031
Probable space group: C 2/M
;
_chemical_formula_sum "Si O2"
_cell_formula_units_Z 56
_cell_length_a 14.836323
_cell_length_b 20.424903
_cell_length_c 8.017737
_cell_angle_alpha 90.000000
_cell_angle_beta 118.013906
_cell_angle_gamma 90.000000
_cell_volume 2144.948919
_symmetry_space_group_name_H-M "C 2/M"
_symmetry_group_IT_number 12
_symmetry_cell_setting 'monoclinic'
loop_
_space_group_symop_operation_xyz
x,y,z
-x,y,-z
-x,-y,-z
x,-y,z
1/2+x,1/2+y,z
1/2-x,1/2+y,-z
1/2-x,1/2-y,-z
1/2+x,1/2-y,z
loop_
_atom_site_type_symbol
_atom_site_label
_atom_site_fract_x
_atom_site_fract_y
_atom_site_fract_z
Si Si1 0.848559 0.573047 0.846505
Si Si2 0.878536 0.070142 0.197436
Si Si3 0.906179 0.422715 0.520975
Si Si4 0.866162 0.704817 0.968748
Si Si5 0.858154 0.215789 0.638733
Si Si6 0.384358 0.290218 0.293263
Si Si7 0.182166 0.074689 0.240617
O O1 0.887847 0.500000 0.906595
O O2 0.729300 0.569083 0.795636
O O3 0.868425 0.596438 0.673813
O O4 0.897628 0.629295 0.999202
O O5 0.927007 0.138242 0.287681
O O6 0.929589 0.000000 0.274260
O O7 0.863202 0.074925 0.984337
O O8 0.929209 0.500000 0.562839
O O9 0.803720 0.417013 0.323658
O O10 0.000000 0.392821 0.500000
O O11 0.898222 0.746038 0.834675
O O12 0.741526 0.704085 0.840595
O O13 0.903532 0.738236 0.167636
O O14 0.750000 0.250000 0.500000
O O15 0.909368 0.225693 0.504701
O O16 0.850776 0.138528 0.682321
O O17 0.166268 0.000000 0.297283
#
# Coordination Sequence:
#
# PCOD9171031 Si02
#       7
#     8   8   8   8   8   8   8
#     4   9  17  29  43  57  77 109 139 172 211 241
#     4   9  16  26  40  58  80 106 137 172 203 237
#     4   9  17  29  42  55  72  98 136 178 214 244
#     4   9  16  27  39  58  83 100 134 169 195 242
#     4  10  18  26  41  60  79 106 134 164 202 240
#     4   9  16  25  38  55  80 105 129 166 197 235
#     4  10  18  28  41  59  81 106 140 176 205 239
#
# _framework density 26.107849999999999
#
# number of rings (size 3 to 8) (size 9 to 14) (size 15 to 20)
#    0.000    2.714    1.429    2.571    2.000    1.714 
#    0.000    0.714    0.000    4.286    0.000    0.000 
#    0.000    0.000    0.000    0.000    0.000   25.714 
#
# Total GULP energy -156542.947947 kJ/mol
# GULP energy per Si atom -5590.819570 kJ/mol
# Density = 2.604843 g / cm^3
# Si number density = 26.107850 Si / 1000 Ang^3
#
#
#
# Elastic Constant Matrix: (Units=GPa)
#
#
# Indices 1 2 3 4 5 6 
#
# 1 102.6361 25.9990 28.0400 0.0000 -16.1834 0.0000
# 2 25.9990 207.0982 103.8962 0.0000 -13.7053 0.0000
# 3 28.0400 103.8962 172.3744 0.0000 -14.4529 0.0000
# 4 0.0000 0.0000 0.0000 29.5513 0.0000 -11.9827
# 5 -16.1834 -13.7053 -14.4529 0.0000 38.7490 0.0000
# 6 0.0000 0.0000 0.0000 -11.9827 0.0000 0.0339
#
#
#
# Elastic Compliance Matrix: (Units=1/GPa)
#
#
# Indices 1 2 3 4 5 6 
#
# 1 0.010798 -0.000545 -0.001100 0.000000 0.003906 0.000000
# 2 -0.000545 0.006981 -0.004058 0.000000 0.000728 0.000000
# 3 -0.001100 -0.004058 0.008534 0.000000 0.001288 0.000000
# 4 0.000000 0.000000 0.000000 -0.000238 0.000000 -0.084039
# 5 0.003906 0.000728 0.001288 0.000000 0.028177 0.000000
# 6 0.000000 0.000000 0.000000 -0.084039 0.000000 -0.207254
#
#
# Mechanical properties :
#
#
# Convention : Reuss Voigt Hill
#
# Bulk Modulus (GPa) = 67.08613 88.66435 77.87524
# Shear Modulus (GPa) = -36.59635 35.27840 -0.65898
#
# Velocity S-wave (km/s) = -3.74804 3.67993 -0.50294
# Velocity P-wave (km/s) = 2.64974 7.21737 5.43652
#
# Compressibility (1/GPa) = 0.01490621
#
# Stress axis : x y z
#
# Youngs Moduli (GPa) = 92.61131 143.24521 117.17450
#
# Poissons Ratio (x) = 0.07806 0.12895
# Poissons Ratio (y) = 0.05047 0.47550
# Poissons Ratio (z) = 0.10192 0.58129
#
# Static dielectric constant tensor:
#      x y z
#    x 2.177240 0.000000 -0.011370 
#    y 0.000000 2.038330 0.000000 
#    z -0.011370 0.000000 1.996010 
# 
# From -- ./inp_files/88805.got.cif
#   From: 2010.05.17/outbox.cif.g08.bks.cpg/sg12_45_cif.got.tgz:88805.got - 2010.06.03 13:09:07.
