data_PCOD9171833
_publ_section_title
;
Structure prediction by ZEFSAII (Michael W. Deem and Ramdas Pophale) SiO2 
 PCOD9171833
Probable space group: C 2/M
;
_chemical_formula_sum "Si O2"
_cell_formula_units_Z 58
_cell_length_a 25.373983
_cell_length_b 21.305085
_cell_length_c 14.059519
_cell_angle_alpha 90.000000
_cell_angle_beta 158.842356
_cell_angle_gamma 90.000000
_cell_volume 2743.289724
_symmetry_space_group_name_H-M "C 2/M"
_symmetry_group_IT_number 12
_symmetry_cell_setting 'monoclinic'
loop_
_space_group_symop_operation_xyz
x,y,z
-x,y,-z
-x,-y,-z
x,-y,z
1/2+x,1/2+y,z
1/2-x,1/2+y,-z
1/2-x,1/2-y,-z
1/2+x,1/2-y,z
loop_
_atom_site_type_symbol
_atom_site_label
_atom_site_fract_x
_atom_site_fract_y
_atom_site_fract_z
Si Si1 0.121142 0.848527 0.127038
Si Si2 0.325592 0.206392 0.046234
Si Si3 0.863252 0.424701 0.644687
Si Si4 0.501820 0.575968 0.743895
Si Si5 0.675572 0.075715 0.197106
Si Si6 0.340823 0.773256 0.381190
Si Si7 0.000000 0.500000 0.500000
Si Si8 0.710324 0.884498 0.857747
O O1 0.238044 0.894915 0.371612
O O2 0.221534 0.791647 0.258939
O O3 0.044462 0.886485 0.911873
O O4 0.000000 0.829943 0.000000
O O5 0.490504 0.230386 0.304615
O O6 0.328154 0.139338 0.101594
O O7 0.250000 0.250000 0.000000
O O8 0.222283 0.214225 0.782085
O O9 0.857637 0.500000 0.625578
O O10 0.836773 0.409595 0.711205
O O11 0.027652 0.401261 0.897613
O O12 0.509970 0.500000 0.771954
O O13 0.337146 0.592695 0.437884
O O14 0.619947 0.599195 0.866949
O O15 0.667082 0.000000 0.176478
O O16 0.331377 0.830730 0.288805
O O17 0.879284 0.445447 0.318599
#
# Coordination Sequence:
#
# PCOD9171833 Si02
#       8
#     8   8   8   8   8   8   2   8
#     4  11  21  33  51  83 122 152 204 259 301 351
#     4  10  19  41  66  87 114 148 213 259 309 360
#     4   9  16  29  47  72 112 167 206 241 290 355
#     4  10  18  28  48  83 123 166 204 236 296 374
#     4   8  15  27  45  68 107 161 210 237 276 352
#     4  10  22  39  62  90 112 157 213 258 300 357
#     4  12  16  32  56 100 140 154 182 238 340 394
#     4  10  19  31  57  93 130 158 188 247 317 377
#
# _framework density 21.142499999999998
#
# number of rings (size 3 to 8) (size 9 to 14) (size 15 to 20)
#    0.000    2.207    3.448    2.483    0.000    0.552 
#    0.000    6.207    0.000    0.000    0.000    7.724 
#    0.000    0.000    0.000    0.621    0.000    0.000 
#
# Total GULP energy -161594.363321 kJ/mol
# GULP energy per Si atom -5572.219425 kJ/mol
# Density = 2.109438 g / cm^3
# Si number density = 21.142500 Si / 1000 Ang^3
#
#
#
# Elastic Constant Matrix: (Units=GPa)
#
#
# Indices 1 2 3 4 5 6 
#
# 1 68.4503 13.7934 44.1185 0.0000 22.3314 0.0000
# 2 13.7934 27.0528 7.7970 0.0000 -3.0566 0.0000
# 3 44.1185 7.7970 126.2165 0.0000 41.8575 0.0000
# 4 0.0000 0.0000 0.0000 12.1756 0.0000 9.8317
# 5 22.3314 -3.0566 41.8575 0.0000 31.8718 0.0000
# 6 0.0000 0.0000 0.0000 9.8317 0.0000 15.7889
#
#
#
# Elastic Compliance Matrix: (Units=1/GPa)
#
#
# Indices 1 2 3 4 5 6 
#
# 1 0.023583 -0.012821 -0.002770 0.000000 -0.014115 0.000000
# 2 -0.012821 0.047290 -0.005178 0.000000 0.020319 0.000000
# 3 -0.002770 -0.005178 0.015470 0.000000 -0.018872 0.000000
# 4 0.000000 0.000000 0.000000 0.165194 0.000000 -0.102865
# 5 -0.014115 0.020319 -0.018872 0.000000 0.067999 0.000000
# 6 0.000000 0.000000 0.000000 -0.102865 0.000000 0.127389
#
#
# Mechanical properties :
#
#
# Convention : Reuss Voigt Hill
#
# Bulk Modulus (GPa) = 22.31947 39.23749 30.77848
# Shear Modulus (GPa) = 9.93249 22.36797 16.15023
#
# Velocity S-wave (km/s) = 2.16981 3.25616 2.76683
# Velocity P-wave (km/s) = 4.10573 5.72151 4.97959
#
# Compressibility (1/GPa) = 0.04480393
#
# Stress axis : x y z
#
# Youngs Moduli (GPa) = 42.40309 21.14615 64.64233
#
# Poissons Ratio (x) = 0.27111 0.17909
# Poissons Ratio (y) = 0.54364 0.33474
# Poissons Ratio (z) = 0.11748 0.10950
#
# Static dielectric constant tensor:
#      x y z
#    x 1.798330 0.000000 0.020780 
#    y 0.000000 1.768520 0.000000 
#    z 0.020780 0.000000 1.780240 
# 
# From -- ./inp_files/247290.got.cif
#   From: 2010.05.17/outbox.cif.g08.bks.cpg/sg12_124_cif.got.tgz:247290.got - 2010.06.03 13:09:07.
