data_PCOD9171069
_publ_section_title
;
Structure prediction by ZEFSAII (Michael W. Deem and Ramdas Pophale) SiO2 
 PCOD9171069
Probable space group: C 2/M
;
_chemical_formula_sum "Si O2"
_cell_formula_units_Z 56
_cell_length_a 21.435700
_cell_length_b 36.478574
_cell_length_c 5.469417
_cell_angle_alpha 90.000000
_cell_angle_beta 75.217315
_cell_angle_gamma 90.000000
_cell_volume 4135.217552
_symmetry_space_group_name_H-M "C 2/M"
_symmetry_group_IT_number 12
_symmetry_cell_setting 'monoclinic'
loop_
_space_group_symop_operation_xyz
x,y,z
-x,y,-z
-x,-y,-z
x,-y,z
1/2+x,1/2+y,z
1/2-x,1/2+y,-z
1/2-x,1/2-y,-z
1/2+x,1/2-y,z
loop_
_atom_site_type_symbol
_atom_site_label
_atom_site_fract_x
_atom_site_fract_y
_atom_site_fract_z
Si Si1 0.077275 0.415756 0.422725
Si Si2 0.387341 0.217682 0.612662
Si Si3 0.777186 0.767806 0.722814
Si Si4 0.212955 0.653092 0.787044
Si Si5 0.578161 0.042014 0.921839
Si Si6 0.430112 0.813547 0.069891
Si Si7 0.184525 0.642180 0.315474
O O1 0.095550 0.437384 0.652812
O O2 0.115781 0.377903 0.384219
O O3 0.000000 0.410332 0.500000
O O4 0.095550 0.437383 0.156088
O O5 0.352275 0.256716 0.647725
O O6 0.424685 0.209997 0.323961
O O7 0.331154 0.185873 0.668848
O O8 0.424684 0.209997 0.826679
O O9 0.750000 0.750000 0.500000
O O10 0.754111 0.809674 0.745889
O O11 0.750000 0.750000 0.000000
O O12 0.135265 0.662379 0.864732
O O13 0.222321 0.632892 0.523247
O O14 0.222320 0.632892 0.032108
O O15 0.601173 0.000000 0.898827
O O16 0.500000 0.040903 0.000000
O O17 0.500000 0.833101 0.000000
#
# Coordination Sequence:
#
# PCOD9171069 Si02
#       7
#     8   8   8   8   8   8   8
#     4  10  19  28  40  56  73  95 113 138 178 226
#     4  10  19  29  40  54  67  95 119 147 176 209
#     4  12  16  30  45  54  68  85 129 160 174 200
#     4  10  19  28  40  55  68  96 118 148 176 210
#     4   9  17  30  44  55  66  85 119 152 173 199
#     4  10  18  27  36  50  70  89 112 135 173 221
#     4  10  18  27  36  53  76  87 109 133 178 225
#
# _framework density 13.542215000000001
#
# number of rings (size 3 to 8) (size 9 to 14) (size 15 to 20)
#    0.000    1.857    5.714    1.714    0.000    6.286 
#    0.000    1.429    0.000    0.000    0.000    0.000 
#    0.000    0.000    0.000    0.000    0.000    0.000 
#
# Total GULP energy -155870.175465 kJ/mol
# GULP energy per Si atom -5566.791981 kJ/mol
# Density = 1.351139 g / cm^3
# Si number density = 13.542215 Si / 1000 Ang^3
#
#
#
# Elastic Constant Matrix: (Units=GPa)
#
#
# Indices 1 2 3 4 5 6 
#
# 1 12.6819 9.5183 14.0564 0.0000 6.3344 0.0000
# 2 9.5183 40.3856 17.5742 0.0000 2.7605 0.0000
# 3 14.0564 17.5742 125.7295 0.0000 32.3911 0.0000
# 4 0.0000 0.0000 0.0000 16.7362 0.0000 1.9889
# 5 6.3344 2.7605 32.3911 0.0000 17.4850 0.0000
# 6 0.0000 0.0000 0.0000 1.9889 0.0000 10.9306
#
#
#
# Elastic Compliance Matrix: (Units=1/GPa)
#
#
# Indices 1 2 3 4 5 6 
#
# 1 0.116700 -0.025080 0.000632 0.000000 -0.039489 0.000000
# 2 -0.025080 0.031995 -0.005180 0.000000 0.013630 0.000000
# 3 0.000632 -0.005180 0.016175 0.000000 -0.029375 0.000000
# 4 0.000000 0.000000 0.000000 0.061071 0.000000 -0.011112
# 5 -0.039489 0.013630 -0.029375 0.000000 0.123764 0.000000
# 6 0.000000 0.000000 0.000000 -0.011112 0.000000 0.093509
#
#
# Mechanical properties :
#
#
# Convention : Reuss Voigt Hill
#
# Bulk Modulus (GPa) = 9.46848 29.01051 19.23949
# Shear Modulus (GPa) = 9.29933 18.20688 13.75310
#
# Velocity S-wave (km/s) = 2.62332 3.67066 3.19026
# Velocity P-wave (km/s) = 4.02278 6.27963 5.27335
#
# Compressibility (1/GPa) = 0.10561359
#
# Stress axis : x y z
#
# Youngs Moduli (GPa) = 8.56901 31.25519 61.82497
#
# Poissons Ratio (x) = 0.78389 -0.03909
# Poissons Ratio (y) = 0.21491 0.32024
# Poissons Ratio (z) = -0.00542 0.16189
#
# Static dielectric constant tensor:
#      x y z
#    x 1.443140 0.000000 0.035780 
#    y 0.000000 1.453050 0.000000 
#    z 0.035780 0.000000 1.547580 
# 
# From -- ./inp_files/26586.got.cif
#   From: 2010.05.17/outbox.cif.g08.bks.cpg/sg12_14_cif.got.tgz:26586.got - 2010.06.03 13:09:07.
