data_PCOD9171482
_publ_section_title
;
Structure prediction by ZEFSAII (Michael W. Deem and Ramdas Pophale) SiO2 
 PCOD9171482
Probable space group: C 2/M
;
_chemical_formula_sum "Si O2"
_cell_formula_units_Z 48
_cell_length_a 7.679915
_cell_length_b 22.852564
_cell_length_c 12.326062
_cell_angle_alpha 90.000000
_cell_angle_beta 96.566684
_cell_angle_gamma 90.000000
_cell_volume 2149.102299
_symmetry_space_group_name_H-M "C 2/M"
_symmetry_group_IT_number 12
_symmetry_cell_setting 'monoclinic'
loop_
_space_group_symop_operation_xyz
x,y,z
-x,y,-z
-x,-y,-z
x,-y,z
1/2+x,1/2+y,z
1/2-x,1/2+y,-z
1/2-x,1/2-y,-z
1/2+x,1/2-y,z
loop_
_atom_site_type_symbol
_atom_site_label
_atom_site_fract_x
_atom_site_fract_y
_atom_site_fract_z
Si Si1 0.522447 0.336025 0.833710
Si Si2 0.626120 0.770249 0.107015
Si Si3 0.981511 0.322373 0.320036
Si Si4 0.275138 0.431825 0.057490
Si Si5 0.133611 0.200803 0.607401
Si Si6 0.070057 0.430314 0.822519
O O1 0.361160 0.298697 0.865680
O O2 0.687036 0.299263 0.894181
O O3 0.555812 0.398411 0.886619
O O4 0.551668 0.330916 0.707653
O O5 0.545028 0.795799 0.210368
O O6 0.500000 0.784840 0.000000
O O7 0.169035 0.323034 0.397006
O O8 0.909470 0.386045 0.278315
O O9 0.863005 0.270987 0.364392
O O10 0.311026 0.500000 0.055466
O O11 0.124098 0.422341 0.138508
O O12 0.193109 0.416174 0.934859
O O13 0.000000 0.192549 0.500000
O O14 0.090262 0.500000 0.798177
#
# Coordination Sequence:
#
# PCOD9171482 Si02
#       6
#     8   8   8   8   8   8
#     4  10  19  30  47  70  96 124 160 193 236 282
#     4  10  18  28  43  71 100 123 146 187 238 288
#     4  10  19  31  49  73  96 123 158 195 240 286
#     4   9  16  28  47  71  98 127 156 190 227 276
#     4  10  20  33  48  69  96 127 161 200 241 277
#     4   9  16  28  47  72  98 124 156 192 228 276
#
# _framework density 22.334906
#
# number of rings (size 3 to 8) (size 9 to 14) (size 15 to 20)
#    0.000    2.333    3.333    3.000    0.000    2.667 
#    0.000    0.000    0.000    3.000    0.000   21.000 
#    0.000    0.000    0.000    0.000    0.000    0.000 
#
# Total GULP energy -134166.417033 kJ/mol
# GULP energy per Si atom -5590.267376 kJ/mol
# Density = 2.228407 g / cm^3
# Si number density = 22.334906 Si / 1000 Ang^3
#
#
#
# Elastic Constant Matrix: (Units=GPa)
#
#
# Indices 1 2 3 4 5 6 
#
# 1 44.8768 4.8352 5.4380 0.0000 5.3056 0.0000
# 2 4.8352 125.0557 39.2240 0.0000 10.6168 0.0000
# 3 5.4380 39.2240 128.5970 0.0000 21.5360 0.0000
# 4 0.0000 0.0000 0.0000 29.5381 0.0000 4.6922
# 5 5.3056 10.6168 21.5360 0.0000 23.0198 0.0000
# 6 0.0000 0.0000 0.0000 4.6922 0.0000 21.3767
#
#
#
# Elastic Compliance Matrix: (Units=1/GPa)
#
#
# Indices 1 2 3 4 5 6 
#
# 1 0.022932 -0.000462 0.000024 0.000000 -0.005095 0.000000
# 2 -0.000462 0.008918 -0.002407 0.000000 -0.001755 0.000000
# 3 0.000024 -0.002407 0.009871 0.000000 -0.008130 0.000000
# 4 0.000000 0.000000 0.000000 0.035078 0.000000 -0.007700
# 5 -0.005095 -0.001755 -0.008130 0.000000 0.053031 0.000000
# 6 0.000000 0.000000 0.000000 -0.007700 0.000000 0.048470
#
#
# Mechanical properties :
#
#
# Convention : Reuss Voigt Hill
#
# Bulk Modulus (GPa) = 27.75212 44.16933 35.96072
# Shear Modulus (GPa) = 25.51029 31.38905 28.44967
#
# Velocity S-wave (km/s) = 3.38327 3.75291 3.57287
# Velocity P-wave (km/s) = 5.26445 6.21272 5.75814
#
# Compressibility (1/GPa) = 0.03603328
#
# Stress axis : x y z
#
# Youngs Moduli (GPa) = 43.60641 112.13065 101.30830
#
# Poissons Ratio (x) = 0.05178 -0.00247
# Poissons Ratio (y) = 0.02014 0.24382
# Poissons Ratio (z) = -0.00106 0.26987
#
# Static dielectric constant tensor:
#      x y z
#    x 1.977830 0.000000 0.032410 
#    y 0.000000 1.898260 0.000000 
#    z 0.032410 0.000000 1.846810 
# 
# From -- ./inp_files/207016.got.cif
#   From: 2010.05.17/outbox.cif.g08.bks.cpg/sg12_104_cif.got.tgz:207016.got - 2010.06.03 13:09:07.
