data_PCOD9171405
_publ_section_title
;
Structure prediction by ZEFSAII (Michael W. Deem and Ramdas Pophale) SiO2 
 PCOD9171405
Probable space group: C 2/M
;
_chemical_formula_sum "Si O2"
_cell_formula_units_Z 56
_cell_length_a 27.670362
_cell_length_b 7.778652
_cell_length_c 15.119936
_cell_angle_alpha 90.000000
_cell_angle_beta 102.113345
_cell_angle_gamma 90.000000
_cell_volume 3181.925638
_symmetry_space_group_name_H-M "C 2/M"
_symmetry_group_IT_number 12
_symmetry_cell_setting 'monoclinic'
loop_
_space_group_symop_operation_xyz
x,y,z
-x,y,-z
-x,-y,-z
x,-y,z
1/2+x,1/2+y,z
1/2-x,1/2+y,-z
1/2-x,1/2-y,-z
1/2+x,1/2-y,z
loop_
_atom_site_type_symbol
_atom_site_label
_atom_site_fract_x
_atom_site_fract_y
_atom_site_fract_z
Si Si1 0.945171 0.706193 0.461761
Si Si2 0.640691 0.292008 0.435538
Si Si3 0.680355 0.696661 0.274466
Si Si4 0.130312 0.709977 0.711219
Si Si5 0.323233 0.199219 0.097988
Si Si6 0.285477 0.201378 0.900558
Si Si7 0.783199 0.202541 0.390937
O O1 0.948669 0.500000 0.455775
O O2 0.907709 0.744098 0.527800
O O3 0.918192 0.766494 0.361357
O O4 0.000000 0.775178 0.500000
O O5 0.643501 0.500000 0.434845
O O6 0.644243 0.229534 0.336073
O O7 0.688404 0.232496 0.510791
O O8 0.666565 0.500000 0.251696
O O9 0.687438 0.782647 0.182376
O O10 0.733829 0.703229 0.342726
O O11 0.131783 0.500000 0.711605
O O12 0.139282 0.771964 0.814712
O O13 0.176334 0.773903 0.670576
O O14 0.268189 0.210061 0.119356
O O15 0.336997 0.000000 0.091999
O O16 0.316199 0.271346 0.996501
O O17 0.275320 0.000000 0.913193
O O18 0.772039 0.000000 0.395672
#
# Coordination Sequence:
#
# PCOD9171405 Si02
#       7
#     8   8   8   8   8   8   8
#     4   9  18  32  50  72  93 112 140 181 227 272
#     4   9  20  33  45  63  88 118 151 183 219 266
#     4  11  20  30  42  60  89 124 154 181 219 263
#     4   9  16  28  46  65  89 120 147 176 220 270
#     4   9  17  29  43  61  87 120 154 185 221 259
#     4  10  19  28  41  62  88 119 155 192 218 249
#     4  10  18  28  42  63  88 116 152 187 214 253
#
# _framework density 17.599405999999998
#
# number of rings (size 3 to 8) (size 9 to 14) (size 15 to 20)
#    0.000    2.429    1.429    1.714    0.000    2.571 
#    0.000    0.000    0.000    0.000    0.000    1.000 
#    0.000    8.000    0.000    0.000    0.000    0.000 
#
# Total GULP energy -156054.442489 kJ/mol
# GULP energy per Si atom -5573.372946 kJ/mol
# Density = 1.755935 g / cm^3
# Si number density = 17.599406 Si / 1000 Ang^3
#
#
#
# Elastic Constant Matrix: (Units=GPa)
#
#
# Indices 1 2 3 4 5 6 
#
# 1 65.6295 -4.1240 55.1323 0.0000 11.8136 0.0000
# 2 -4.1240 29.8326 -0.6549 0.0000 1.5887 0.0000
# 3 55.1323 -0.6549 152.0850 0.0000 -1.4509 0.0000
# 4 0.0000 0.0000 0.0000 12.1064 0.0000 -4.9654
# 5 11.8136 1.5887 -1.4509 0.0000 17.5542 0.0000
# 6 0.0000 0.0000 0.0000 -4.9654 0.0000 11.8302
#
#
#
# Elastic Compliance Matrix: (Units=1/GPa)
#
#
# Indices 1 2 3 4 5 6 
#
# 1 0.027685 0.004663 -0.010206 0.000000 -0.019897 0.000000
# 2 0.004663 0.034470 -0.001603 0.000000 -0.006390 0.000000
# 3 -0.010206 -0.001603 0.010343 0.000000 0.007868 0.000000
# 4 0.000000 0.000000 0.000000 0.099777 0.000000 0.041878
# 5 -0.019897 -0.006390 0.007868 0.000000 0.071585 0.000000
# 6 0.000000 0.000000 0.000000 0.041878 0.000000 0.102106
#
#
# Mechanical properties :
#
#
# Convention : Reuss Voigt Hill
#
# Bulk Modulus (GPa) = 17.18031 38.69488 27.93760
# Shear Modulus (GPa) = 13.16967 21.44443 17.30705
#
# Velocity S-wave (km/s) = 2.73848 3.49445 3.13930
# Velocity P-wave (km/s) = 4.44771 6.18998 5.38971
#
# Compressibility (1/GPa) = 0.05820615
#
# Stress axis : x y z
#
# Youngs Moduli (GPa) = 36.12068 29.01076 96.68253
#
# Poissons Ratio (x) = -0.13527 0.98672
# Poissons Ratio (y) = -0.16842 0.15496
# Poissons Ratio (z) = 0.36864 0.04650
#
# Static dielectric constant tensor:
#      x y z
#    x 1.572400 0.000000 0.004400 
#    y 0.000000 1.639030 0.000000 
#    z 0.004400 0.000000 1.664720 
# 
# From -- ./inp_files/247900.got.cif
#   From: 2010.05.17/outbox.cif.g08.bks.cpg/sg12_124_cif.got.tgz:247900.got - 2010.06.03 13:09:07.
