data_PCOD9171969
_publ_section_title
;
Structure prediction by ZEFSAII (Michael W. Deem and Ramdas Pophale) SiO2 
 PCOD9171969
Probable space group: C 2/M
;
_chemical_formula_sum "Si O2"
_cell_formula_units_Z 56
_cell_length_a 32.889207
_cell_length_b 8.940488
_cell_length_c 16.484988
_cell_angle_alpha 90.000000
_cell_angle_beta 129.769903
_cell_angle_gamma 90.000000
_cell_volume 3725.758939
_symmetry_space_group_name_H-M "C 2/M"
_symmetry_group_IT_number 12
_symmetry_cell_setting 'monoclinic'
loop_
_space_group_symop_operation_xyz
x,y,z
-x,y,-z
-x,-y,-z
x,-y,z
1/2+x,1/2+y,z
1/2-x,1/2+y,-z
1/2-x,1/2-y,-z
1/2+x,1/2-y,z
loop_
_atom_site_type_symbol
_atom_site_label
_atom_site_fract_x
_atom_site_fract_y
_atom_site_fract_z
Si Si1 0.692205 0.178980 0.838235
Si Si2 0.397120 0.678688 0.983527
Si Si3 0.058859 0.672339 0.114562
Si Si4 0.510992 0.320897 0.204148
Si Si5 0.303733 0.178463 0.967053
Si Si6 0.920705 0.320013 0.379839
Si Si7 0.514695 0.319879 0.397395
O O1 0.744770 0.261492 0.875540
O O2 0.639209 0.215314 0.721530
O O3 0.700766 0.000000 0.844922
O O4 0.684363 0.217420 0.923387
O O5 0.515387 0.500000 0.200289
O O6 0.451059 0.720267 0.100983
O O7 0.404673 0.738929 0.901918
O O8 0.347153 0.748590 0.964739
O O9 0.075105 0.500000 0.140319
O O10 0.051111 0.743794 0.192925
O O11 0.000000 0.678074 0.000000
O O12 0.606718 0.500000 0.021833
O O13 0.519841 0.283095 0.309229
O O14 0.305468 0.000000 0.961506
O O15 0.927114 0.500000 0.389518
O O16 0.939058 0.249397 0.488301
O O17 0.960960 0.250235 0.365364
O O18 0.513230 0.500000 0.404564
#
# Coordination Sequence:
#
# PCOD9171969 Si02
#       7
#     8   8   8   8   8   8   8
#     4   9  19  33  46  63  89 119 149 184 223 262
#     4  10  18  29  45  64  91 122 149 179 218 264
#     4   9  17  28  43  64  89 116 147 183 220 259
#     4   9  18  30  44  64  90 121 151 180 218 263
#     4  10  19  30  46  67  89 115 150 186 220 261
#     4  10  19  31  46  64  89 119 151 185 221 261
#     4  10  19  30  45  66  91 118 151 185 219 261
#
# _framework density 15.030495
#
# number of rings (size 3 to 8) (size 9 to 14) (size 15 to 20)
#    0.000    2.429    0.000    3.857    0.000    5.143 
#    0.000    0.000    0.000    0.000    0.000    1.000 
#    0.000    0.000    0.000    0.000    0.000    0.000 
#
# Total GULP energy -156138.100166 kJ/mol
# GULP energy per Si atom -5576.360720 kJ/mol
# Density = 1.499628 g / cm^3
# Si number density = 15.030495 Si / 1000 Ang^3
#
#
#
# Elastic Constant Matrix: (Units=GPa)
#
#
# Indices 1 2 3 4 5 6 
#
# 1 137.2063 64.2472 70.7159 0.0000 -9.4373 0.0000
# 2 64.2472 63.3176 50.1337 0.0000 -4.3201 0.0000
# 3 70.7159 50.1337 102.2999 0.0000 -7.8181 0.0000
# 4 0.0000 0.0000 0.0000 20.8413 0.0000 -1.7853
# 5 -9.4373 -4.3201 -7.8181 0.0000 25.7554 0.0000
# 6 0.0000 0.0000 0.0000 -1.7853 0.0000 30.2742
#
#
#
# Elastic Compliance Matrix: (Units=1/GPa)
#
#
# Indices 1 2 3 4 5 6 
#
# 1 0.015339 -0.011686 -0.004706 0.000000 0.002232 0.000000
# 2 -0.011686 0.034717 -0.009027 0.000000 -0.001199 0.000000
# 3 -0.004706 -0.009027 0.017613 0.000000 0.002108 0.000000
# 4 0.000000 0.000000 0.000000 0.048225 0.000000 0.002844
# 5 0.002232 -0.001199 0.002108 0.000000 0.040083 0.000000
# 6 0.000000 0.000000 0.000000 0.002844 0.000000 0.033199
#
#
# Mechanical properties :
#
#
# Convention : Reuss Voigt Hill
#
# Bulk Modulus (GPa) = 59.41377 74.77971 67.09674
# Shear Modulus (GPa) = 20.35623 23.22267 21.78945
#
# Velocity S-wave (km/s) = 3.68411 3.93496 3.81160
# Velocity P-wave (km/s) = 7.59681 8.39674 8.00677
#
# Compressibility (1/GPa) = 0.01683112
#
# Stress axis : x y z
#
# Youngs Moduli (GPa) = 65.19196 28.80457 56.77621
#
# Poissons Ratio (x) = 0.33662 0.26718
# Poissons Ratio (y) = 0.76185 0.51251
# Poissons Ratio (z) = 0.30678 0.26001
#
# Static dielectric constant tensor:
#      x y z
#    x 1.472880 0.000000 -0.006070 
#    y 0.000000 1.503670 0.000000 
#    z -0.006070 0.000000 1.489620 
# 
# From -- ./inp_files/244282.got.cif
#   From: 2010.05.17/outbox.cif.g08.bks.cpg/sg12_123_cif.got.tgz:244282.got - 2010.06.03 13:09:07.
