data_PCOD9171043
_publ_section_title
;
Structure prediction by ZEFSAII (Michael W. Deem and Ramdas Pophale) SiO2 
 PCOD9171043
Probable space group: C 2/M
;
_chemical_formula_sum "Si O2"
_cell_formula_units_Z 58
_cell_length_a 29.512288
_cell_length_b 7.353632
_cell_length_c 25.537706
_cell_angle_alpha 90.000000
_cell_angle_beta 33.889929
_cell_angle_gamma 90.000000
_cell_volume 3090.358076
_symmetry_space_group_name_H-M "C 2/M"
_symmetry_group_IT_number 12
_symmetry_cell_setting 'monoclinic'
loop_
_space_group_symop_operation_xyz
x,y,z
-x,y,-z
-x,-y,-z
x,-y,z
1/2+x,1/2+y,z
1/2-x,1/2+y,-z
1/2-x,1/2-y,-z
1/2+x,1/2-y,z
loop_
_atom_site_type_symbol
_atom_site_label
_atom_site_fract_x
_atom_site_fract_y
_atom_site_fract_z
Si Si1 0.843663 0.721086 0.283004
Si Si2 0.751149 0.204183 0.784103
Si Si3 0.845626 0.283037 0.397601
Si Si4 0.554552 0.219776 0.598470
Si Si5 0.085957 0.722146 0.894512
Si Si6 0.325692 0.205885 0.603223
Si Si7 0.000000 0.500000 0.500000
Si Si8 0.583995 0.284958 0.337823
O O1 0.837191 0.500000 0.288873
O O2 0.867452 0.781119 0.318244
O O3 0.899230 0.773467 0.180303
O O4 0.754459 0.796931 0.355650
O O5 0.663865 0.287660 0.853487
O O6 0.797203 0.201503 0.683520
O O7 0.821719 0.278227 0.753426
O O8 0.733688 0.000000 0.818809
O O9 0.855757 0.500000 0.387265
O O10 0.750000 0.250000 0.500000
O O11 0.902507 0.213585 0.389907
O O12 0.605927 0.288081 0.498998
O O13 0.462641 0.266096 0.672629
O O14 0.562930 0.000000 0.589990
O O15 0.088181 0.500000 0.893456
O O16 0.000000 0.780062 0.000000
O O17 0.353069 0.000000 0.592055
O O18 0.962614 0.659731 0.575619
O O19 0.583289 0.500000 0.352746
#
# Coordination Sequence:
#
# PCOD9171043 Si02
#       8
#     8   8   8   8   8   8   2   8
#     4   9  17  29  45  68  95 125 162 203 246 298
#     4   9  19  32  46  68  94 123 165 205 251 304
#     4  10  19  31  46  65  94 129 170 212 249 297
#     4  10  20  32  44  63  94 132 176 212 247 291
#     4   8  14  28  51  76 100 123 154 205 264 317
#     4  10  18  26  42  63  89 126 159 196 239 284
#     4  12  22  36  52  70 106 136 186 220 254 298
#     4  11  23  35  49  70  98 138 178 219 259 303
#
# _framework density 18.768051
#
# number of rings (size 3 to 8) (size 9 to 14) (size 15 to 20)
#    0.000    2.345    2.069    2.276    2.897    2.759 
#    0.000    0.000    0.000    6.621    0.000    0.966 
#    0.000    0.000    0.000    0.000    0.000    0.552 
#
# Total GULP energy -161448.915751 kJ/mol
# GULP energy per Si atom -5567.203991 kJ/mol
# Density = 1.872533 g / cm^3
# Si number density = 18.768051 Si / 1000 Ang^3
#
#
#
# Elastic Constant Matrix: (Units=GPa)
#
#
# Indices 1 2 3 4 5 6 
#
# 1 151.7738 0.6860 66.5832 0.0042 -28.7809 0.0039
# 2 0.6860 89.0854 0.6074 0.0241 0.1258 0.0281
# 3 66.5832 0.6074 99.7822 0.0398 -14.9825 0.0053
# 4 0.0042 0.0241 0.0398 46.8208 -0.0106 -16.7400
# 5 -28.7809 0.1258 -14.9825 -0.0106 17.8265 0.0012
# 6 0.0039 0.0281 0.0053 -16.7400 0.0012 19.5097
#
#
#
# Elastic Compliance Matrix: (Units=1/GPa)
#
#
# Indices 1 2 3 4 5 6 
#
# 1 0.011808 -0.000072 -0.005741 0.000009 0.014239 0.000007
# 2 -0.000072 0.011226 -0.000057 -0.000017 -0.000243 -0.000030
# 3 -0.005741 -0.000057 0.014261 -0.000017 0.002718 -0.000018
# 4 0.000009 -0.000017 -0.000017 0.030810 0.000017 0.026436
# 5 0.014239 -0.000243 0.002718 0.000017 0.081372 0.000007
# 6 0.000007 -0.000030 -0.000018 0.026436 0.000007 0.073940
#
#
# Mechanical properties :
#
#
# Convention : Reuss Voigt Hill
#
# Bulk Modulus (GPa) = 39.12923 52.93272 46.03097
# Shear Modulus (GPa) = 20.51926 35.01570 27.76748
#
# Velocity S-wave (km/s) = 3.31011 4.32407 3.85061
# Velocity P-wave (km/s) = 5.95846 7.29349 6.65951
#
# Compressibility (1/GPa) = 0.02555634
#
# Stress axis : x y z
#
# Youngs Moduli (GPa) = 84.69080 89.07507 70.12174
#
# Poissons Ratio (x) = 0.00640 0.40254
# Poissons Ratio (y) = 0.00609 0.00399
# Poissons Ratio (z) = 0.48618 0.00506
#
# Static dielectric constant tensor:
#      x y z
#    x 1.900520 -0.000940 -0.140020 
#    y -0.000940 0.831640 0.000570 
#    z -0.140020 0.000570 1.675690 
# 
# From -- ./inp_files/370417.got.cif
#   From: 2010.05.17/outbox.cif.g08.bks.cpg/sg12_186_cif.got.tgz:370417.got - 2010.06.03 13:09:07.
