data_PCOD9171022
_publ_section_title
;
Structure prediction by ZEFSAII (Michael W. Deem and Ramdas Pophale) SiO2 
 PCOD9171022
Probable space group: C 2/M
;
_chemical_formula_sum "Si O2"
_cell_formula_units_Z 48
_cell_length_a 32.266936
_cell_length_b 7.472410
_cell_length_c 10.594545
_cell_angle_alpha 90.000000
_cell_angle_beta 78.892405
_cell_angle_gamma 90.000000
_cell_volume 2506.617020
_symmetry_space_group_name_H-M "C 2/M"
_symmetry_group_IT_number 12
_symmetry_cell_setting 'monoclinic'
loop_
_space_group_symop_operation_xyz
x,y,z
-x,y,-z
-x,-y,-z
x,-y,z
1/2+x,1/2+y,z
1/2-x,1/2+y,-z
1/2-x,1/2-y,-z
1/2+x,1/2-y,z
loop_
_atom_site_type_symbol
_atom_site_label
_atom_site_fract_x
_atom_site_fract_y
_atom_site_fract_z
Si Si1 0.972318 0.714714 0.134177
Si Si2 0.383421 0.712470 0.073161
Si Si3 0.292760 0.294481 0.143913
Si Si4 0.296902 0.780485 0.843922
Si Si5 0.889074 0.707474 0.776041
Si Si6 0.520050 0.219639 0.356133
O O1 0.976402 0.500000 0.131900
O O2 0.923532 0.755292 0.137148
O O3 0.991753 0.778370 0.254135
O O4 0.000000 0.782987 0.000000
O O5 0.378306 0.500000 0.059560
O O6 0.338511 0.784050 0.151863
O O7 0.392228 0.785667 0.927192
O O8 0.292159 0.500000 0.187795
O O9 0.246054 0.220079 0.200058
O O10 0.294542 0.286566 0.989694
O O11 0.342702 0.720131 0.768223
O O12 0.296473 0.000000 0.849227
O O13 0.888168 0.500000 0.739173
O O14 0.931937 0.783577 0.693389
O O15 0.500000 0.274539 0.500000
O O16 0.520810 0.000000 0.353839
#
# Coordination Sequence:
#
# PCOD9171022 Si02
#       6
#     8   8   8   8   8   8
#     4  10  18  30  46  63  83 109 142 175 209 248
#     4  10  18  26  40  62  88 113 139 170 207 249
#     4   8  14  23  33  53  83 109 132 164 204 242
#     4   8  13  21  36  55  78 107 136 166 201 244
#     4   9  15  26  43  62  83 110 143 173 208 249
#     4   9  17  29  45  64  85 108 137 176 215 247
#
# _framework density 19.149314
#
# number of rings (size 3 to 8) (size 9 to 14) (size 15 to 20)
#    0.000    3.000    1.667    0.500    0.000    1.000 
#    0.000    0.000    0.000    2.000    0.000    1.167 
#    0.000    0.000    0.000    0.000    0.000    0.000 
#
# Total GULP energy -133614.642159 kJ/mol
# GULP energy per Si atom -5567.276757 kJ/mol
# Density = 1.910573 g / cm^3
# Si number density = 19.149314 Si / 1000 Ang^3
#
#
#
# Elastic Constant Matrix: (Units=GPa)
#
#
# Indices 1 2 3 4 5 6 
#
# 1 250.9615 -0.2208 73.2961 0.0000 -12.8479 0.0000
# 2 -0.2208 59.0666 1.9030 0.0000 -0.2130 0.0000
# 3 73.2961 1.9030 69.1958 0.0000 -4.3818 0.0000
# 4 0.0000 0.0000 0.0000 13.3844 0.0000 30.6393
# 5 -12.8479 -0.2130 -4.3818 0.0000 15.5550 0.0000
# 6 0.0000 0.0000 0.0000 30.6393 0.0000 74.5303
#
#
#
# Elastic Compliance Matrix: (Units=1/GPa)
#
#
# Indices 1 2 3 4 5 6 
#
# 1 0.005923 0.000229 -0.006079 0.000000 0.003183 0.000000
# 2 0.000229 0.016954 -0.000695 0.000000 0.000226 0.000000
# 3 -0.006079 -0.000695 0.020966 0.000000 0.000875 0.000000
# 4 0.000000 0.000000 0.000000 1.268048 0.000000 -0.521293
# 5 0.003183 0.000226 0.000875 0.000000 0.067167 0.000000
# 6 0.000000 0.000000 0.000000 -0.521293 0.000000 0.227720
#
#
# Mechanical properties :
#
#
# Convention : Reuss Voigt Hill
#
# Bulk Modulus (GPa) = 32.51631 58.79783 45.65707
# Shear Modulus (GPa) = 3.06726 40.97698 22.02212
#
# Velocity S-wave (km/s) = 1.26698 4.63089 3.39488
# Velocity P-wave (km/s) = 4.37694 7.70487 6.26589
#
# Compressibility (1/GPa) = 0.03075380
#
# Stress axis : x y z
#
# Youngs Moduli (GPa) = 168.82539 58.98272 47.69732
#
# Poissons Ratio (x) = -0.01353 0.28995
# Poissons Ratio (y) = -0.03874 0.03315
# Poissons Ratio (z) = 1.02629 0.04099
#
# Static dielectric constant tensor:
#      x y z
#    x 1.758890 0.000000 -0.017980 
#    y 0.000000 1.770880 0.000000 
#    z -0.017980 0.000000 1.597190 
# 
# From -- ./inp_files/185497.got.cif
#   From: 2010.05.17/outbox.cif.g08.bks.cpg/sg12_93_cif.got.tgz:185497.got - 2010.06.03 13:09:07.
