data_PCOD9171088
_publ_section_title
;
Structure prediction by ZEFSAII (Michael W. Deem and Ramdas Pophale) SiO2 
 PCOD9171088
Probable space group: C 2/M
;
_chemical_formula_sum "Si O2"
_cell_formula_units_Z 64
_cell_length_a 32.849416
_cell_length_b 8.821052
_cell_length_c 16.636143
_cell_angle_alpha 90.000000
_cell_angle_beta 109.528045
_cell_angle_gamma 90.000000
_cell_volume 4543.305029
_symmetry_space_group_name_H-M "C 2/M"
_symmetry_group_IT_number 12
_symmetry_cell_setting 'monoclinic'
loop_
_space_group_symop_operation_xyz
x,y,z
-x,y,-z
-x,-y,-z
x,-y,z
1/2+x,1/2+y,z
1/2-x,1/2+y,-z
1/2-x,1/2-y,-z
1/2+x,1/2-y,z
loop_
_atom_site_type_symbol
_atom_site_label
_atom_site_fract_x
_atom_site_fract_y
_atom_site_fract_z
Si Si1 0.831431 0.683222 0.177502
Si Si2 0.596347 0.320147 0.489531
Si Si3 0.706403 0.182114 0.008648
Si Si4 0.243866 0.317801 0.195518
Si Si5 0.318480 0.181256 0.528790
Si Si6 0.587381 0.183652 0.661370
Si Si7 0.507547 0.825403 0.408350
Si Si8 0.764063 0.181262 0.634426
O O1 0.826853 0.500000 0.181058
O O2 0.790256 0.757989 0.194206
O O3 0.875447 0.725665 0.251372
O O4 0.829532 0.724115 0.081291
O O5 0.599751 0.500000 0.495115
O O6 0.636118 0.250810 0.466968
O O7 0.597349 0.253519 0.580833
O O8 0.550196 0.271337 0.421962
O O9 0.708580 0.226601 0.103624
O O10 0.709165 0.000000 0.009657
O O11 0.750000 0.250000 0.000000
O O12 0.245332 0.500000 0.202433
O O13 0.234259 0.247164 0.275341
O O14 0.282344 0.217919 0.437056
O O15 0.299808 0.248097 0.599130
O O16 0.321657 0.000000 0.536297
O O17 0.538763 0.227932 0.655414
O O18 0.586915 0.000000 0.652156
O O19 0.500000 0.824749 0.500000
O O20 0.515359 0.000000 0.389640
O O21 0.768294 0.000000 0.638631
#
# Coordination Sequence:
#
# PCOD9171088 Si02
#       8
#     8   8   8   8   8   8   8   8
#     4   9  16  27  42  59  80 108 141 173 202 233
#     4  11  20  28  41  60  82 108 137 167 200 240
#     4   8  15  26  39  56  79 106 136 168 199 234
#     4  10  18  27  40  59  83 111 139 166 201 241
#     4  10  20  33  46  59  79 106 135 169 205 237
#     4   9  17  28  42  59  80 108 140 171 203 238
#     4   8  15  28  42  56  77 105 136 168 201 238
#     4  10  20  32  45  61  80 104 136 171 203 235
#
# _framework density 14.086660999999999
#
# number of rings (size 3 to 8) (size 9 to 14) (size 15 to 20)
#    0.000    2.625    0.000    3.750    0.000    7.750 
#    0.000    0.000    0.000    0.000    0.000    0.000 
#    0.000    1.000    0.000   11.750    0.000    2.250 
#
# Total GULP energy -178211.373412 kJ/mol
# GULP energy per Si atom -5569.105419 kJ/mol
# Density = 1.405460 g / cm^3
# Si number density = 14.086661 Si / 1000 Ang^3
#
#
#
# Elastic Constant Matrix: (Units=GPa)
#
#
# Indices 1 2 3 4 5 6 
#
# 1 105.1317 39.3771 60.0393 0.0000 7.2264 0.0000
# 2 39.3771 38.3892 35.4299 0.0000 -0.5729 0.0000
# 3 60.0393 35.4299 121.6722 0.0000 5.0115 0.0000
# 4 0.0000 0.0000 0.0000 16.3894 0.0000 -1.9289
# 5 7.2264 -0.5729 5.0115 0.0000 20.7963 0.0000
# 6 0.0000 0.0000 0.0000 -1.9289 0.0000 19.7098
#
#
#
# Elastic Compliance Matrix: (Units=1/GPa)
#
#
# Indices 1 2 3 4 5 6 
#
# 1 0.017710 -0.014210 -0.004375 0.000000 -0.005491 0.000000
# 2 -0.014210 0.047280 -0.007083 0.000000 0.007947 0.000000
# 3 -0.004375 -0.007083 0.012510 0.000000 -0.001689 0.000000
# 4 0.000000 0.000000 0.000000 0.061726 0.000000 0.006041
# 5 -0.005491 0.007947 -0.001689 0.000000 0.050620 0.000000
# 6 0.000000 0.000000 0.000000 0.006041 0.000000 0.051327
#
#
# Mechanical properties :
#
#
# Convention : Reuss Voigt Hill
#
# Bulk Modulus (GPa) = 38.22041 59.43175 48.82608
# Shear Modulus (GPa) = 16.59855 20.06890 18.33372
#
# Velocity S-wave (km/s) = 3.43639 3.77858 3.61154
# Velocity P-wave (km/s) = 6.55257 7.83062 7.21993
#
# Compressibility (1/GPa) = 0.02616403
#
# Stress axis : x y z
#
# Youngs Moduli (GPa) = 56.46424 21.15039 79.93740
#
# Poissons Ratio (x) = 0.30055 0.34974
# Poissons Ratio (y) = 0.80237 0.56619
# Poissons Ratio (z) = 0.24704 0.14981
#
# Static dielectric constant tensor:
#      x y z
#    x 1.448720 0.000000 0.028340 
#    y 0.000000 1.469860 0.000000 
#    z 0.028340 0.000000 1.479590 
# 
# From -- ./inp_files/248512.got.cif
#   From: 2010.05.17/outbox.cif.g08.bks.cpg/sg12_125_cif.got.tgz:248512.got - 2010.06.03 13:09:07.
