data_PCOD9171077
_publ_section_title
;
Structure prediction by ZEFSAII (Michael W. Deem and Ramdas Pophale) SiO2 
 PCOD9171077
Probable space group: C 2/M
;
_chemical_formula_sum "Si O2"
_cell_formula_units_Z 56
_cell_length_a 28.163558
_cell_length_b 7.654783
_cell_length_c 16.732246
_cell_angle_alpha 90.000000
_cell_angle_beta 66.289466
_cell_angle_gamma 90.000000
_cell_volume 3302.745112
_symmetry_space_group_name_H-M "C 2/M"
_symmetry_group_IT_number 12
_symmetry_cell_setting 'monoclinic'
loop_
_space_group_symop_operation_xyz
x,y,z
-x,y,-z
-x,-y,-z
x,-y,z
1/2+x,1/2+y,z
1/2-x,1/2+y,-z
1/2-x,1/2-y,-z
1/2+x,1/2-y,z
loop_
_atom_site_type_symbol
_atom_site_label
_atom_site_fract_x
_atom_site_fract_y
_atom_site_fract_z
Si Si1 0.640289 0.204092 0.185897
Si Si2 0.436826 0.787037 0.459111
Si Si3 0.742365 0.705429 0.635116
Si Si4 0.554070 0.213820 0.364263
Si Si5 0.805403 0.709204 0.002940
Si Si6 0.251576 0.703955 0.810806
Si Si7 0.668705 0.788548 0.546003
O O1 0.594046 0.279198 0.270704
O O2 0.693830 0.211873 0.200296
O O3 0.627730 0.000000 0.182879
O O4 0.652996 0.279815 0.089251
O O5 0.429945 0.734352 0.556499
O O6 0.494276 0.732676 0.393158
O O7 0.388651 0.728264 0.438384
O O8 0.436695 0.000000 0.458522
O O9 0.750903 0.500000 0.638882
O O10 0.740649 0.779238 0.724919
O O11 0.691441 0.734676 0.616027
O O12 0.790194 0.774703 0.548951
O O13 0.555214 0.000000 0.363047
O O14 0.813310 0.500000 0.999695
O O15 0.795252 0.770796 0.100457
O O16 0.750000 0.750000 0.000000
O O17 0.258293 0.500000 0.825351
O O18 0.669196 0.000000 0.543827
#
# Coordination Sequence:
#
# PCOD9171077 Si02
#       7
#     8   8   8   8   8   8   8
#     4   9  15  25  41  60  82 107 134 163 194 230
#     4   8  13  22  37  59  84 106 129 157 190 229
#     4  10  19  29  42  60  79 103 135 165 196 235
#     4   8  13  21  37  61  84 105 130 158 188 227
#     4   8  15  25  37  55  79 105 131 160 195 233
#     4  10  18  27  39  57  82 109 134 162 197 235
#     4   9  17  29  43  59  81 106 131 162 197 232
#
# _framework density 16.955593
#
# number of rings (size 3 to 8) (size 9 to 14) (size 15 to 20)
#    0.000    3.143    0.000    2.571    0.000    3.429 
#    0.000    0.000    0.000    0.857    0.000    4.000 
#    0.000    8.000    0.000    0.000    0.000    0.000 
#
# Total GULP energy -155883.321553 kJ/mol
# GULP energy per Si atom -5567.261484 kJ/mol
# Density = 1.691700 g / cm^3
# Si number density = 16.955593 Si / 1000 Ang^3
#
#
#
# Elastic Constant Matrix: (Units=GPa)
#
#
# Indices 1 2 3 4 5 6 
#
# 1 69.7022 -6.8930 44.6001 0.0000 -5.7274 0.0000
# 2 -6.8930 31.1169 -1.0832 0.0000 -3.2459 0.0000
# 3 44.6001 -1.0832 144.9470 0.0000 -11.9008 0.0000
# 4 0.0000 0.0000 0.0000 8.8322 0.0000 2.0771
# 5 -5.7274 -3.2459 -11.9008 0.0000 25.9990 0.0000
# 6 0.0000 0.0000 0.0000 2.0771 0.0000 10.9895
#
#
#
# Elastic Compliance Matrix: (Units=1/GPa)
#
#
# Indices 1 2 3 4 5 6 
#
# 1 0.018421 0.004106 -0.005468 0.000000 0.002068 0.000000
# 2 0.004106 0.033526 -0.000618 0.000000 0.004807 0.000000
# 3 -0.005468 -0.000618 0.008802 0.000000 0.002748 0.000000
# 4 0.000000 0.000000 0.000000 0.118489 0.000000 -0.022395
# 5 0.002068 0.004807 0.002748 0.000000 0.040776 0.000000
# 6 0.000000 0.000000 0.000000 -0.022395 0.000000 0.095229
#
#
# Mechanical properties :
#
#
# Convention : Reuss Voigt Hill
#
# Bulk Modulus (GPa) = 17.60861 35.44600 26.52730
# Shear Modulus (GPa) = 14.78703 23.10696 18.94700
#
# Velocity S-wave (km/s) = 2.95634 3.69561 3.34645
# Velocity P-wave (km/s) = 4.69691 6.25784 5.53270
#
# Compressibility (1/GPa) = 0.05679041
#
# Stress axis : x y z
#
# Youngs Moduli (GPa) = 54.28479 29.82725 113.60439
#
# Poissons Ratio (x) = -0.12247 0.62116
# Poissons Ratio (y) = -0.22290 0.07023
# Poissons Ratio (z) = 0.29682 0.01844
#
# Static dielectric constant tensor:
#      x y z
#    x 1.544220 0.000000 -0.022620 
#    y 0.000000 1.641480 0.000000 
#    z -0.022620 0.000000 1.616490 
# 
# From -- ./inp_files/243065.got.cif
#   From: 2010.05.17/outbox.cif.g08.bks.cpg/sg12_122_cif.got.tgz:243065.got - 2010.06.03 13:09:07.
