data_PCOD9171279
_publ_section_title
;
Structure prediction by ZEFSAII (Michael W. Deem and Ramdas Pophale) SiO2 
 PCOD9171279
Probable space group: C 2/M
;
_chemical_formula_sum "Si O2"
_cell_formula_units_Z 64
_cell_length_a 14.276358
_cell_length_b 18.325955
_cell_length_c 14.732043
_cell_angle_alpha 90.000000
_cell_angle_beta 107.415153
_cell_angle_gamma 90.000000
_cell_volume 3677.636318
_symmetry_space_group_name_H-M "C 2/M"
_symmetry_group_IT_number 12
_symmetry_cell_setting 'monoclinic'
loop_
_space_group_symop_operation_xyz
x,y,z
-x,y,-z
-x,-y,-z
x,-y,z
1/2+x,1/2+y,z
1/2-x,1/2+y,-z
1/2-x,1/2-y,-z
1/2+x,1/2-y,z
loop_
_atom_site_type_symbol
_atom_site_label
_atom_site_fract_x
_atom_site_fract_y
_atom_site_fract_z
Si Si1 0.599587 0.798364 0.422732
Si Si2 0.945037 0.918291 0.710441
Si Si3 0.889395 0.911704 0.997284
Si Si4 0.366874 0.818672 0.367743
Si Si5 0.775145 0.911642 0.788546
Si Si6 0.252133 0.665571 0.321681
Si Si7 0.340459 0.588064 0.189867
Si Si8 0.107468 0.866811 0.487856
O O1 0.482499 0.806659 0.384946
O O2 0.639571 0.837837 0.526196
O O3 0.650409 0.822570 0.344653
O O4 0.624565 0.713724 0.450703
O O5 0.868357 0.883637 0.756553
O O6 0.895636 0.919103 0.598502
O O7 0.054425 0.887770 0.736144
O O8 0.960802 0.000000 0.751292
O O9 0.806722 0.891324 0.899567
O O10 0.895008 0.000000 0.997977
O O11 0.855209 0.891643 0.088642
O O12 0.000000 0.886795 0.000000
O O13 0.319224 0.876569 0.285829
O O14 0.308516 0.743135 0.335338
O O15 0.768886 0.000000 0.780742
O O16 0.258081 0.628362 0.225305
O O17 0.315627 0.617500 0.411344
O O18 0.327744 0.500000 0.193313
O O19 0.000000 0.865878 0.500000
#
# Coordination Sequence:
#
# PCOD9171279 Si02
#       8
#     8   8   8   8   8   8   8   8
#     4  10  19  34  51  70 100 139 173 207 246 296
#     4  10  18  27  44  74 108 130 157 202 254 303
#     4   9  16  31  53  76 104 133 162 201 255 314
#     4  10  19  35  53  74  99 133 177 212 245 295
#     4  10  19  32  53  77  98 130 171 215 255 293
#     4  11  20  32  51  73 103 138 170 204 251 302
#     4  10  19  31  48  75 106 133 163 202 253 309
#     4  11  17  30  48  72  99 135 171 197 242 304
#
# _framework density 17.402481999999999
#
# number of rings (size 3 to 8) (size 9 to 14) (size 15 to 20)
#    0.000    1.875    5.000    3.000    0.000    0.750 
#    0.000    3.125    0.000    0.750    0.000    2.625 
#    0.000    0.000    0.000    0.000    0.000    0.000 
#
# Total GULP energy -178237.555530 kJ/mol
# GULP energy per Si atom -5569.923610 kJ/mol
# Density = 1.736287 g / cm^3
# Si number density = 17.402482 Si / 1000 Ang^3
#
#
#
# Elastic Constant Matrix: (Units=GPa)
#
#
# Indices 1 2 3 4 5 6 
#
# 1 83.7367 17.1148 43.1745 0.0000 -18.8017 0.0000
# 2 17.1148 28.8153 33.5050 0.0000 -2.3418 0.0000
# 3 43.1745 33.5050 117.6259 0.0000 -16.8406 0.0000
# 4 0.0000 0.0000 0.0000 9.9267 0.0000 -3.8389
# 5 -18.8017 -2.3418 -16.8406 0.0000 34.4618 0.0000
# 6 0.0000 0.0000 0.0000 -3.8389 0.0000 14.8025
#
#
#
# Elastic Compliance Matrix: (Units=1/GPa)
#
#
# Indices 1 2 3 4 5 6 
#
# 1 0.016349 -0.004955 -0.003613 0.000000 0.006817 0.000000
# 2 -0.004955 0.053903 -0.014406 0.000000 -0.006080 0.000000
# 3 -0.003613 -0.014406 0.014525 0.000000 0.004148 0.000000
# 4 0.000000 0.000000 0.000000 0.111968 0.000000 0.029038
# 5 0.006817 -0.006080 0.004148 0.000000 0.034351 0.000000
# 6 0.000000 0.000000 0.000000 0.029038 0.000000 0.075087
#
#
# Mechanical properties :
#
#
# Convention : Reuss Voigt Hill
#
# Bulk Modulus (GPa) = 25.75409 46.41847 36.08628
# Shear Modulus (GPa) = 13.69592 20.93044 17.31318
#
# Velocity S-wave (km/s) = 2.80841 3.47180 3.15758
# Velocity P-wave (km/s) = 5.03463 6.54237 5.83738
#
# Compressibility (1/GPa) = 0.03882879
#
# Stress axis : x y z
#
# Youngs Moduli (GPa) = 61.16731 18.55191 68.84661
#
# Poissons Ratio (x) = 0.09192 0.24877
# Poissons Ratio (y) = 0.30306 0.99179
# Poissons Ratio (z) = 0.22103 0.26725
#
# Static dielectric constant tensor:
#      x y z
#    x 1.622930 0.000000 -0.006080 
#    y 0.000000 1.613040 0.000000 
#    z -0.006080 0.000000 1.629750 
# 
# From -- ./inp_files/215957.got.cif
#   From: 2010.05.17/outbox.cif.g08.bks.cpg/sg12_108_cif.got.tgz:215957.got - 2010.06.03 13:09:07.
