data_PCOD9171955
_publ_section_title
;
Structure prediction by ZEFSAII (Michael W. Deem and Ramdas Pophale) SiO2 
 PCOD9171955
Probable space group: C 2/M
;
_chemical_formula_sum "Si O2"
_cell_formula_units_Z 64
_cell_length_a 33.763794
_cell_length_b 9.025086
_cell_length_c 14.301321
_cell_angle_alpha 90.000000
_cell_angle_beta 96.309669
_cell_angle_gamma 90.000000
_cell_volume 4331.516498
_symmetry_space_group_name_H-M "C 2/M"
_symmetry_group_IT_number 12
_symmetry_cell_setting 'monoclinic'
loop_
_space_group_symop_operation_xyz
x,y,z
-x,y,-z
-x,-y,-z
x,-y,z
1/2+x,1/2+y,z
1/2-x,1/2+y,-z
1/2-x,1/2-y,-z
1/2+x,1/2-y,z
loop_
_atom_site_type_symbol
_atom_site_label
_atom_site_fract_x
_atom_site_fract_y
_atom_site_fract_z
Si Si1 0.515553 0.177659 0.786290
Si Si2 0.636143 0.323212 0.317142
Si Si3 0.381609 0.179705 0.487058
Si Si4 0.545591 0.670375 0.973812
Si Si5 0.203974 0.670000 0.586552
Si Si6 0.073734 0.676595 0.162925
Si Si7 0.217389 0.669417 0.364690
Si Si8 0.465807 0.180314 0.419640
O O1 0.542480 0.255845 0.871456
O O2 0.469143 0.206563 0.798801
O O3 0.525522 0.227588 0.684005
O O4 0.521068 0.000000 0.794279
O O5 0.634323 0.500000 0.319801
O O6 0.621675 0.254944 0.412516
O O7 0.607848 0.257920 0.229860
O O8 0.681637 0.268543 0.316216
O O9 0.341918 0.219090 0.417965
O O10 0.422325 0.221353 0.446334
O O11 0.380738 0.000000 0.499808
O O12 0.558771 0.500000 0.973003
O O13 0.500000 0.671727 0.000000
O O14 0.570127 0.762325 0.056669
O O15 0.207785 0.500000 0.619089
O O16 0.211504 0.670876 0.476136
O O17 0.238471 0.767956 0.640711
O O18 0.079824 0.500000 0.165174
O O19 0.213242 0.500000 0.332571
O O20 0.500000 0.231355 0.500000
O O21 0.467190 0.000000 0.419422
#
# Coordination Sequence:
#
# PCOD9171955 Si02
#       8
#     8   8   8   8   8   8   8   8
#     4   9  17  29  46  64  82 110 147 182 213 246
#     4  11  20  28  40  60  87 114 140 172 212 256
#     4   9  17  29  43  59  82 114 149 181 211 245
#     4   9  17  29  44  62  84 108 136 173 217 259
#     4   8  14  24  38  56  78 105 138 174 210 246
#     4  10  18  29  45  63  84 110 142 176 211 254
#     4   9  16  26  40  57  78 106 138 170 207 251
#     4   9  16  27  44  64  85 112 149 186 212 238
#
# _framework density 14.775426
#
# number of rings (size 3 to 8) (size 9 to 14) (size 15 to 20)
#    0.000    2.750    0.000    3.750    0.000    7.000 
#    0.000    0.625    0.000    1.500    0.000    0.000 
#    0.000    1.000    0.000    2.750    0.000    4.250 
#
# Total GULP energy -178264.569959 kJ/mol
# GULP energy per Si atom -5570.767811 kJ/mol
# Density = 1.474180 g / cm^3
# Si number density = 14.775426 Si / 1000 Ang^3
#
#
#
# Elastic Constant Matrix: (Units=GPa)
#
#
# Indices 1 2 3 4 5 6 
#
# 1 102.5033 44.0875 55.2395 0.0000 14.1077 0.0000
# 2 44.0875 67.9484 43.7728 0.0000 16.4140 0.0000
# 3 55.2395 43.7728 101.4213 0.0000 11.9290 0.0000
# 4 0.0000 0.0000 0.0000 16.8939 0.0000 7.8986
# 5 14.1077 16.4140 11.9290 0.0000 16.7015 0.0000
# 6 0.0000 0.0000 0.0000 7.8986 0.0000 18.2813
#
#
#
# Elastic Compliance Matrix: (Units=1/GPa)
#
#
# Indices 1 2 3 4 5 6 
#
# 1 0.015780 -0.005669 -0.005716 0.000000 -0.003676 0.000000
# 2 -0.005669 0.026570 -0.006410 0.000000 -0.016746 0.000000
# 3 -0.005716 -0.006410 0.015754 0.000000 -0.000124 0.000000
# 4 0.000000 0.000000 0.000000 0.074177 0.000000 -0.032049
# 5 -0.003676 -0.016746 -0.000124 0.000000 0.079526 0.000000
# 6 0.000000 0.000000 0.000000 -0.032049 0.000000 0.068547
#
#
# Mechanical properties :
#
#
# Convention : Reuss Voigt Hill
#
# Bulk Modulus (GPa) = 44.41542 62.00806 53.21174
# Shear Modulus (GPa) = 15.45840 18.96023 17.20932
#
# Velocity S-wave (km/s) = 3.23805 3.58610 3.41651
# Velocity P-wave (km/s) = 6.64120 7.69448 7.18716
#
# Compressibility (1/GPa) = 0.02251471
#
# Stress axis : x y z
#
# Youngs Moduli (GPa) = 63.37112 37.63669 63.47472
#
# Poissons Ratio (x) = 0.21335 0.36281
# Poissons Ratio (y) = 0.35922 0.40690
# Poissons Ratio (z) = 0.36222 0.24126
#
# Static dielectric constant tensor:
#      x y z
#    x 1.493710 0.000000 0.007590 
#    y 0.000000 1.497200 0.000000 
#    z 0.007590 0.000000 1.466840 
# 
# From -- ./inp_files/248489.got.cif
#   From: 2010.05.17/outbox.cif.g08.bks.cpg/sg12_125_cif.got.tgz:248489.got - 2010.06.03 13:09:07.
