data_PCOD9171922
_publ_section_title
;
Structure prediction by ZEFSAII (Michael W. Deem and Ramdas Pophale) SiO2 
 PCOD9171922
Probable space group: C 2/M
;
_chemical_formula_sum "Si O2"
_cell_formula_units_Z 64
_cell_length_a 26.574672
_cell_length_b 7.600161
_cell_length_c 17.851605
_cell_angle_alpha 90.000000
_cell_angle_beta 90.593978
_cell_angle_gamma 90.000000
_cell_volume 3605.326795
_symmetry_space_group_name_H-M "C 2/M"
_symmetry_group_IT_number 12
_symmetry_cell_setting 'monoclinic'
loop_
_space_group_symop_operation_xyz
x,y,z
-x,y,-z
-x,-y,-z
x,-y,z
1/2+x,1/2+y,z
1/2-x,1/2+y,-z
1/2-x,1/2-y,-z
1/2+x,1/2-y,z
loop_
_atom_site_type_symbol
_atom_site_label
_atom_site_fract_x
_atom_site_fract_y
_atom_site_fract_z
Si Si1 0.057136 0.788917 0.083780
Si Si2 0.809742 0.716084 0.660354
Si Si3 0.654665 0.789878 0.180231
Si Si4 0.693890 0.707083 0.666460
Si Si5 0.190351 0.708359 0.502069
Si Si6 0.943814 0.215149 0.086951
Si Si7 0.749571 0.710996 0.912140
Si Si8 0.349176 0.284298 0.179994
O O1 0.101560 0.743117 0.140559
O O2 0.001005 0.727808 0.104493
O O3 0.054747 0.000000 0.080423
O O4 0.068091 0.729375 0.998726
O O5 0.809481 0.500000 0.658416
O O6 0.839479 0.774331 0.734386
O O7 0.751441 0.775581 0.668248
O O8 0.829191 0.774449 0.578794
O O9 0.700670 0.721160 0.129654
O O10 0.661050 0.000000 0.184064
O O11 0.699414 0.500000 0.680273
O O12 0.672196 0.726732 0.582530
O O13 0.661336 0.775441 0.735192
O O14 0.184052 0.500000 0.503385
O O15 0.250000 0.750000 0.500000
O O16 0.901018 0.275385 0.143242
O O17 0.943428 0.000000 0.087745
O O18 0.749725 0.500000 0.904501
O O19 0.698616 0.772030 0.870785
O O20 0.750000 0.750000 0.000000
O O21 0.350482 0.500000 0.179061
#
# Coordination Sequence:
#
# PCOD9171922 Si02
#       8
#     8   8   8   8   8   8   8   8
#     4   9  17  30  46  65  85 109 146 191 223 247
#     4   8  14  26  41  58  83 114 142 165 199 256
#     4  10  18  29  44  63  87 116 144 172 209 258
#     4   9  15  26  43  62  85 112 144 176 208 255
#     4   9  16  26  42  61  84 114 144 173 209 251
#     4   8  15  28  46  64  84 111 147 185 221 256
#     4  10  19  29  43  62  87 116 146 175 209 258
#     4   9  15  26  45  64  83 116 150 174 209 265
#
# _framework density 17.751512000000002
#
# number of rings (size 3 to 8) (size 9 to 14) (size 15 to 20)
#    0.000    3.000    1.250    2.625    0.000    1.500 
#    0.000    5.000    0.000    2.250    0.000    0.875 
#    0.000    7.000    0.000    0.000    0.000    0.000 
#
# Total GULP energy -178277.673337 kJ/mol
# GULP energy per Si atom -5571.177292 kJ/mol
# Density = 1.771111 g / cm^3
# Si number density = 17.751512 Si / 1000 Ang^3
#
#
#
# Elastic Constant Matrix: (Units=GPa)
#
#
# Indices 1 2 3 4 5 6 
#
# 1 105.5120 1.3451 94.7212 0.0000 -4.8274 0.0000
# 2 1.3451 30.9554 -1.9991 0.0000 -3.7615 0.0000
# 3 94.7212 -1.9991 190.7036 0.0000 -8.4992 0.0000
# 4 0.0000 0.0000 0.0000 17.8225 0.0000 4.4786
# 5 -4.8274 -3.7615 -8.4992 0.0000 21.1110 0.0000
# 6 0.0000 0.0000 0.0000 4.4786 0.0000 10.8725
#
#
#
# Elastic Compliance Matrix: (Units=1/GPa)
#
#
# Indices 1 2 3 4 5 6 
#
# 1 0.017158 -0.001264 -0.008523 0.000000 0.000267 0.000000
# 2 -0.001264 0.033185 0.001249 0.000000 0.006126 0.000000
# 3 -0.008523 0.001249 0.009585 0.000000 0.002132 0.000000
# 4 0.000000 0.000000 0.000000 0.062588 0.000000 -0.025781
# 5 0.000267 0.006126 0.002132 0.000000 0.049380 0.000000
# 6 0.000000 0.000000 0.000000 -0.025781 0.000000 0.102595
#
#
# Mechanical properties :
#
#
# Convention : Reuss Voigt Hill
#
# Bulk Modulus (GPa) = 23.33690 57.25615 40.29652
# Shear Modulus (GPa) = 16.34785 25.50145 20.92465
#
# Velocity S-wave (km/s) = 3.03797 3.79433 3.43702
# Velocity P-wave (km/s) = 5.04784 7.17776 6.20487
#
# Compressibility (1/GPa) = 0.04285060
#
# Stress axis : x y z
#
# Youngs Moduli (GPa) = 58.28300 30.13451 104.32522
#
# Poissons Ratio (x) = 0.03808 0.88921
# Poissons Ratio (y) = 0.07364 -0.13025
# Poissons Ratio (z) = 0.49677 -0.03762
#
# Static dielectric constant tensor:
#      x y z
#    x 1.582010 0.000000 -0.006070 
#    y 0.000000 1.681390 0.000000 
#    z -0.006070 0.000000 1.638840 
# 
# From -- ./inp_files/291586.got.cif
#   From: 2010.05.17/outbox.cif.g08.bks.cpg/sg12_146_cif.got.tgz:291586.got - 2010.06.03 13:09:07.
