data_PCOD9171383
_publ_section_title
;
Structure prediction by ZEFSAII (Michael W. Deem and Ramdas Pophale) SiO2 
 PCOD9171383
Probable space group: C 2/M
;
_chemical_formula_sum "Si O2"
_cell_formula_units_Z 64
_cell_length_a 24.401789
_cell_length_b 8.982584
_cell_length_c 24.390907
_cell_angle_alpha 90.000000
_cell_angle_beta 129.014711
_cell_angle_gamma 90.000000
_cell_volume 4153.968307
_symmetry_space_group_name_H-M "C 2/M"
_symmetry_group_IT_number 12
_symmetry_cell_setting 'monoclinic'
loop_
_space_group_symop_operation_xyz
x,y,z
-x,y,-z
-x,-y,-z
x,-y,z
1/2+x,1/2+y,z
1/2-x,1/2+y,-z
1/2-x,1/2-y,-z
1/2+x,1/2-y,z
loop_
_atom_site_type_symbol
_atom_site_label
_atom_site_fract_x
_atom_site_fract_y
_atom_site_fract_z
Si Si1 0.524292 0.175990 0.952932
Si Si2 0.669503 0.676070 0.010133
Si Si3 0.204029 0.822116 0.519788
Si Si4 0.540309 0.179529 0.765105
Si Si5 0.583413 0.827542 0.387097
Si Si6 0.317820 0.676008 0.113367
Si Si7 0.448250 0.677176 0.804997
Si Si8 0.173825 0.327060 0.330468
O O1 0.601533 0.244292 0.992105
O O2 0.472159 0.258238 0.878115
O O3 0.525373 0.000000 0.940910
O O4 0.500000 0.195846 0.000000
O O5 0.668651 0.500000 0.020992
O O6 0.667532 0.694554 0.942717
O O7 0.742082 0.749920 0.075950
O O8 0.250000 0.750000 0.500000
O O9 0.125217 0.765300 0.458940
O O10 0.246813 0.783054 0.602148
O O11 0.206959 0.000000 0.516535
O O12 0.493944 0.219367 0.682189
O O13 0.618807 0.243253 0.815271
O O14 0.499761 0.249769 0.791781
O O15 0.539612 0.000000 0.769796
O O16 0.629265 0.820030 0.359478
O O17 0.581953 0.000000 0.402875
O O18 0.316491 0.500000 0.124004
O O19 0.455977 0.500000 0.808171
O O20 0.369323 0.726663 0.738723
O O21 0.172691 0.500000 0.312160
#
# Coordination Sequence:
#
# PCOD9171383 Si02
#       8
#     8   8   8   8   8   8   8   8
#     4  11  23  37  52  67  87 117 148 183 227 271
#     4  10  20  33  49  69  90 114 144 182 225 266
#     4   9  15  22  33  49  71 102 138 174 210 248
#     4  10  18  28  42  60  86 117 146 181 220 260
#     4   8  15  24  34  51  76 107 140 173 211 251
#     4  10  19  30  47  69  91 116 146 183 224 265
#     4  11  20  29  43  63  83 108 144 184 223 262
#     4   8  15  26  37  51  74 105 139 176 215 254
#
# _framework density 15.406954000000001
#
# number of rings (size 3 to 8) (size 9 to 14) (size 15 to 20)
#    0.000    2.375    1.250    4.500    0.000    7.500 
#    0.000    0.000    0.000    0.000    0.000    0.000 
#    0.000    0.000    0.000    1.125    0.000   21.125 
#
# Total GULP energy -178287.370325 kJ/mol
# GULP energy per Si atom -5571.480323 kJ/mol
# Density = 1.537189 g / cm^3
# Si number density = 15.406954 Si / 1000 Ang^3
#
#
#
# Elastic Constant Matrix: (Units=GPa)
#
#
# Indices 1 2 3 4 5 6 
#
# 1 31.4152 37.2489 38.2799 0.0000 8.2568 0.0000
# 2 37.2489 97.2079 74.4830 0.0000 15.7517 0.0000
# 3 38.2799 74.4830 149.1341 0.0000 36.9115 0.0000
# 4 0.0000 0.0000 0.0000 29.8934 0.0000 7.5321
# 5 8.2568 15.7517 36.9115 0.0000 17.1345 0.0000
# 6 0.0000 0.0000 0.0000 7.5321 0.0000 14.6497
#
#
#
# Elastic Compliance Matrix: (Units=1/GPa)
#
#
# Indices 1 2 3 4 5 6 
#
# 1 0.062148 -0.018633 -0.007441 0.000000 0.003210 0.000000
# 2 -0.018633 0.022505 -0.007623 0.000000 0.004713 0.000000
# 3 -0.007441 -0.007623 0.020994 0.000000 -0.034633 0.000000
# 4 0.000000 0.000000 0.000000 0.038431 0.000000 -0.019759
# 5 0.003210 0.004713 -0.034633 0.000000 0.127090 0.000000
# 6 0.000000 0.000000 0.000000 -0.019759 0.000000 0.078420
#
#
# Mechanical properties :
#
#
# Convention : Reuss Voigt Hill
#
# Bulk Modulus (GPa) = 26.14194 64.19786 45.16990
# Shear Modulus (GPa) = 11.63512 20.85188 16.24350
#
# Velocity S-wave (km/s) = 2.75105 3.68286 3.25052
# Velocity P-wave (km/s) = 5.20533 7.73584 6.59313
#
# Compressibility (1/GPa) = 0.03825271
#
# Stress axis : x y z
#
# Youngs Moduli (GPa) = 16.09061 44.43493 47.63156
#
# Poissons Ratio (x) = 0.82797 0.35441
# Poissons Ratio (y) = 0.29982 0.36311
# Poissons Ratio (z) = 0.11972 0.33874
#
# Static dielectric constant tensor:
#      x y z
#    x 1.478080 0.000000 0.030550 
#    y 0.000000 1.510850 0.000000 
#    z 0.030550 0.000000 1.555260 
# 
# From -- ./inp_files/367057.got.cif
#   From: 2010.05.17/outbox.cif.g08.bks.cpg/sg12_184_cif.got.tgz:367057.got - 2010.06.03 13:09:07.
