data_PCOD9171558
_publ_section_title
;
Structure prediction by ZEFSAII (Michael W. Deem and Ramdas Pophale) SiO2 
 PCOD9171558
Probable space group: C 2/M
;
_chemical_formula_sum "Si O2"
_cell_formula_units_Z 48
_cell_length_a 9.812854
_cell_length_b 13.596365
_cell_length_c 15.945066
_cell_angle_alpha 90.000000
_cell_angle_beta 51.354499
_cell_angle_gamma 90.000000
_cell_volume 1661.534199
_symmetry_space_group_name_H-M "C 2/M"
_symmetry_group_IT_number 12
_symmetry_cell_setting 'monoclinic'
loop_
_space_group_symop_operation_xyz
x,y,z
-x,y,-z
-x,-y,-z
x,-y,z
1/2+x,1/2+y,z
1/2-x,1/2+y,-z
1/2-x,1/2-y,-z
1/2+x,1/2-y,z
loop_
_atom_site_type_symbol
_atom_site_label
_atom_site_fract_x
_atom_site_fract_y
_atom_site_fract_z
Si Si1 0.263756 0.116336 0.283524
Si Si2 0.751356 0.319241 0.096982
Si Si3 0.495834 0.882304 0.400446
Si Si4 0.624109 0.384377 0.751072
Si Si5 0.152898 0.613515 0.113736
Si Si6 0.884378 0.117344 0.448070
O O1 0.260323 0.136702 0.185501
O O2 0.465186 0.136438 0.228686
O O3 0.080397 0.155168 0.392865
O O4 0.248815 0.000000 0.300413
O O5 0.547842 0.333757 0.148795
O O6 0.781575 0.202379 0.087213
O O7 0.858971 0.373061 0.982966
O O8 0.500000 0.871537 0.500000
O O9 0.684584 0.847382 0.295614
O O10 0.304292 0.844379 0.447548
O O11 0.496219 0.000000 0.385183
O O12 0.610689 0.500000 0.775249
O O13 0.622137 0.374951 0.650745
O O14 0.199952 0.500000 0.113460
O O15 0.880859 0.000000 0.467176
#
# Coordination Sequence:
#
# PCOD9171558 Si02
#       6
#     8   8   8   8   8   8
#     4   9  16  28  47  67  86 110 140 172 207 249
#     4  10  18  28  45  63  84 110 142 176 207 246
#     4   7   9  14  27  51  82 107 126 156 202 247
#     4   8  12  19  34  57  83 108 133 165 206 247
#     4  10  20  31  44  63  86 112 141 174 211 248
#     4   7  10  17  32  56  82 105 129 161 202 244
#
# _framework density 28.888961999999999
#
# number of rings (size 3 to 8) (size 9 to 14) (size 15 to 20)
#    0.000    3.500    0.000    5.000    0.000    1.333 
#    0.000    0.000    0.000   11.000    0.000    0.000 
#    0.000   16.667    0.000    0.000    0.000    0.000 
#
# Total GULP energy -134370.787574 kJ/mol
# GULP energy per Si atom -5598.782816 kJ/mol
# Density = 2.882321 g / cm^3
# Si number density = 28.888962 Si / 1000 Ang^3
#
#
#
# Elastic Constant Matrix: (Units=GPa)
#
#
# Indices 1 2 3 4 5 6 
#
# 1 127.3233 9.0031 50.5756 0.0000 -24.3584 0.0000
# 2 9.0031 130.7317 55.8852 0.0000 -12.9118 0.0000
# 3 50.5756 55.8852 231.3487 0.0000 -12.5548 0.0000
# 4 0.0000 0.0000 0.0000 -32.3334 0.0000 20.0942
# 5 -24.3584 -12.9118 -12.5548 0.0000 73.6968 0.0000
# 6 0.0000 0.0000 0.0000 20.0942 0.0000 8.8208
#
#
#
# Elastic Compliance Matrix: (Units=1/GPa)
#
#
# Indices 1 2 3 4 5 6 
#
# 1 0.009129 0.000484 -0.001962 0.000000 0.002768 0.000000
# 2 0.000484 0.008654 -0.002125 0.000000 0.001314 0.000000
# 3 -0.001962 -0.002125 0.005258 0.000000 -0.000125 0.000000
# 4 0.000000 0.000000 0.000000 -0.012803 0.000000 0.029165
# 5 0.002768 0.001314 -0.000125 0.000000 0.014693 0.000000
# 6 0.000000 0.000000 0.000000 0.029165 0.000000 0.046929
#
#
# Mechanical properties :
#
#
# Convention : Reuss Voigt Hill
#
# Bulk Modulus (GPa) = 63.15713 80.03684 71.59699
# Shear Modulus (GPa) = 59.28009 34.96616 47.12312
#
# Velocity S-wave (km/s) = 4.53481 3.48280 4.04317
# Velocity P-wave (km/s) = 7.02345 6.62860 6.82888
#
# Compressibility (1/GPa) = 0.01583352
#
# Stress axis : x y z
#
# Youngs Moduli (GPa) = 109.54372 115.55233 190.18788
#
# Poissons Ratio (x) = -0.05587 0.37320
# Poissons Ratio (y) = -0.05297 0.40413
# Poissons Ratio (z) = 0.21495 0.24554
#
# Static dielectric constant tensor:
#      x y z
#    x 2.380170 0.000000 -0.056200 
#    y 0.000000 2.124340 0.000000 
#    z -0.056200 0.000000 2.190250 
# 
# From -- ./inp_files/222566.got.cif
#   From: 2010.05.17/outbox.cif.g08.bks.cpg/sg12_112_cif.got.tgz:222566.got - 2010.06.03 13:09:07.
