data_PCOD9171729
_publ_section_title
;
Structure prediction by ZEFSAII (Michael W. Deem and Ramdas Pophale) SiO2 
 PCOD9171729
Probable space group: C 2/M
;
_chemical_formula_sum "Si O2"
_cell_formula_units_Z 64
_cell_length_a 31.212049
_cell_length_b 13.869445
_cell_length_c 9.890185
_cell_angle_alpha 90.000000
_cell_angle_beta 101.121920
_cell_angle_gamma 90.000000
_cell_volume 4200.990503
_symmetry_space_group_name_H-M "C 2/M"
_symmetry_group_IT_number 12
_symmetry_cell_setting 'monoclinic'
loop_
_space_group_symop_operation_xyz
x,y,z
-x,y,-z
-x,-y,-z
x,-y,z
1/2+x,1/2+y,z
1/2-x,1/2+y,-z
1/2-x,1/2-y,-z
1/2+x,1/2-y,z
loop_
_atom_site_type_symbol
_atom_site_label
_atom_site_fract_x
_atom_site_fract_y
_atom_site_fract_z
Si Si1 0.148903 0.611927 0.612746
Si Si2 0.586043 0.884688 0.825973
Si Si3 0.104958 0.613178 0.296244
Si Si4 0.201120 0.112668 0.116023
Si Si5 0.852314 0.292921 0.923189
Si Si6 0.240428 0.613217 0.117802
Si Si7 0.991900 0.616547 0.839966
Si Si8 0.238172 0.728703 0.648877
O O1 0.163704 0.500000 0.636801
O O2 0.116205 0.633752 0.715378
O O3 0.121306 0.618872 0.458674
O O4 0.190507 0.681087 0.631964
O O5 0.535182 0.857478 0.782091
O O6 0.587685 0.000000 0.855381
O O7 0.607689 0.828287 0.962570
O O8 0.107656 0.500000 0.255869
O O9 0.136799 0.674536 0.221552
O O10 0.055071 0.646978 0.244824
O O11 0.159121 0.180753 0.074634
O O12 0.227985 0.154565 0.259731
O O13 0.191969 0.000000 0.125103
O O14 0.230707 0.126624 0.999385
O O15 0.808437 0.349061 0.941364
O O16 0.239381 0.500000 0.149777
O O17 0.257976 0.676497 0.253770
O O18 0.990179 0.500000 0.840062
O O19 0.000000 0.647454 0.000000
O O20 0.250000 0.750000 0.500000
#
# Coordination Sequence:
#
# PCOD9171729 Si02
#       8
#     8   8   8   8   8   8   8   8
#     4  10  20  31  44  66  95 127 160 192 228 272
#     4  10  18  28  47  71  95 124 155 189 230 279
#     4  10  19  30  45  67  96 123 152 189 228 279
#     4  10  21  35  49  66  93 126 160 201 241 275
#     4  11  18  29  49  69  88 119 158 194 229 274
#     4  10  20  33  49  69  93 124 162 199 236 280
#     4   9  16  28  44  67  96 122 150 186 230 278
#     4  11  21  33  49  69  97 129 160 199 239 281
#
# _framework density 15.234502000000001
#
# number of rings (size 3 to 8) (size 9 to 14) (size 15 to 20)
#    0.000    1.875    1.250    6.000    0.000    4.500 
#    0.000    2.500    0.000    0.000    0.000    1.750 
#    0.000    0.000    0.000    8.000    0.000    0.375 
#
# Total GULP energy -178482.659126 kJ/mol
# GULP energy per Si atom -5577.583098 kJ/mol
# Density = 1.519983 g / cm^3
# Si number density = 15.234502 Si / 1000 Ang^3
#
#
#
# Elastic Constant Matrix: (Units=GPa)
#
#
# Indices 1 2 3 4 5 6 
#
# 1 63.7668 27.7257 -2.7770 0.0000 -2.4113 0.0000
# 2 27.7257 74.9951 23.3726 0.0000 -5.5048 0.0000
# 3 -2.7770 23.3726 41.8254 0.0000 -12.6057 0.0000
# 4 0.0000 0.0000 0.0000 16.1380 0.0000 -2.5296
# 5 -2.4113 -5.5048 -12.6057 0.0000 21.4158 0.0000
# 6 0.0000 0.0000 0.0000 -2.5296 0.0000 14.7852
#
#
#
# Elastic Compliance Matrix: (Units=1/GPa)
#
#
# Indices 1 2 3 4 5 6 
#
# 1 0.020474 -0.009793 0.008228 0.000000 0.004631 0.000000
# 2 -0.009793 0.020866 -0.013404 0.000000 -0.003629 0.000000
# 3 0.008228 -0.013404 0.037912 0.000000 0.019797 0.000000
# 4 0.000000 0.000000 0.000000 0.063673 0.000000 0.010894
# 5 0.004631 -0.003629 0.019797 0.000000 0.057936 0.000000
# 6 0.000000 0.000000 0.000000 0.010894 0.000000 0.069499
#
#
# Mechanical properties :
#
#
# Convention : Reuss Voigt Hill
#
# Bulk Modulus (GPa) = 20.27901 30.80333 25.54117
# Shear Modulus (GPa) = 15.78599 19.28555 17.53577
#
# Velocity S-wave (km/s) = 3.22250 3.56183 3.39640
# Velocity P-wave (km/s) = 5.21403 6.09744 5.67296
#
# Compressibility (1/GPa) = 0.04931207
#
# Stress axis : x y z
#
# Youngs Moduli (GPa) = 48.84301 47.92493 26.37676
#
# Poissons Ratio (x) = 0.46935 -0.21702
# Poissons Ratio (y) = 0.47834 0.35356
# Poissons Ratio (z) = -0.40187 0.64240
#
# Static dielectric constant tensor:
#      x y z
#    x 1.508700 0.000000 -0.007500 
#    y 0.000000 1.494520 0.000000 
#    z -0.007500 0.000000 1.514780 
# 
# From -- ./inp_files/111253.got.cif
#   From: 2010.05.17/outbox.cif.g08.bks.cpg/sg12_56_cif.got.tgz:111253.got - 2010.06.03 13:09:07.
