data_PCOD9171425
_publ_section_title
;
Structure prediction by ZEFSAII (Michael W. Deem and Ramdas Pophale) SiO2 
 PCOD9171425
Probable space group: C 2/M
;
_chemical_formula_sum "Si O2"
_cell_formula_units_Z 64
_cell_length_a 32.907174
_cell_length_b 8.939415
_cell_length_c 16.492197
_cell_angle_alpha 90.000000
_cell_angle_beta 110.183772
_cell_angle_gamma 90.000000
_cell_volume 4553.595891
_symmetry_space_group_name_H-M "C 2/M"
_symmetry_group_IT_number 12
_symmetry_cell_setting 'monoclinic'
loop_
_space_group_symop_operation_xyz
x,y,z
-x,y,-z
-x,-y,-z
x,-y,z
1/2+x,1/2+y,z
1/2-x,1/2+y,-z
1/2-x,1/2-y,-z
1/2+x,1/2-y,z
loop_
_atom_site_type_symbol
_atom_site_label
_atom_site_fract_x
_atom_site_fract_y
_atom_site_fract_z
Si Si1 0.833448 0.820507 0.176805
Si Si2 0.592559 0.321649 0.486047
Si Si3 0.704930 0.179697 0.999745
Si Si4 0.239695 0.321541 0.191835
Si Si5 0.315570 0.320400 0.519013
Si Si6 0.591214 0.180491 0.663713
Si Si7 0.505073 0.827808 0.405420
Si Si8 0.759814 0.178620 0.634755
O O1 0.788026 0.784651 0.191669
O O2 0.872627 0.750115 0.253864
O O3 0.836743 0.000000 0.175080
O O4 0.830030 0.751477 0.084260
O O5 0.591833 0.500000 0.497653
O O6 0.634573 0.281875 0.461976
O O7 0.597158 0.243104 0.576810
O O8 0.547233 0.269134 0.416320
O O9 0.705831 0.213630 0.096285
O O10 0.705744 0.000000 0.991027
O O11 0.750000 0.250000 0.000000
O O12 0.238948 0.500000 0.204216
O O13 0.231346 0.239989 0.270055
O O14 0.311299 0.500000 0.507947
O O15 0.284961 0.245328 0.430727
O O16 0.296205 0.278142 0.593306
O O17 0.542190 0.221078 0.657596
O O18 0.593821 0.000000 0.663653
O O19 0.500000 0.825461 0.500000
O O20 0.512725 0.000000 0.387032
O O21 0.756871 0.000000 0.634608
#
# Coordination Sequence:
#
# PCOD9171425 Si02
#       8
#     8   8   8   8   8   8   8   8
#     4  10  19  29  42  61  84 109 138 170 201 238
#     4  10  18  28  43  59  79 108 139 171 205 241
#     4   9  17  29  43  59  81 108 136 167 203 240
#     4   9  18  30  42  58  82 109 135 167 204 236
#     4   9  19  32  41  56  83 108 134 172 210 237
#     4  10  19  29  41  59  84 110 136 168 203 240
#     4   8  16  29  41  56  80 106 133 167 202 238
#     4  10  19  29  43  60  78 106 141 172 202 238
#
# _framework density 14.054826
#
# number of rings (size 3 to 8) (size 9 to 14) (size 15 to 20)
#    0.000    2.625    0.000    4.125    0.000   10.250 
#    0.000    0.000    0.000    0.000    0.000    0.000 
#    0.000    1.000    0.000   11.250    0.000    5.000 
#
# Total GULP energy -178250.623891 kJ/mol
# GULP energy per Si atom -5570.331997 kJ/mol
# Density = 1.402284 g / cm^3
# Si number density = 14.054826 Si / 1000 Ang^3
#
#
#
# Elastic Constant Matrix: (Units=GPa)
#
#
# Indices 1 2 3 4 5 6 
#
# 1 84.9509 35.7948 37.6990 0.0000 9.4154 0.0000
# 2 35.7948 41.4177 34.9475 0.0000 2.7876 0.0000
# 3 37.6990 34.9475 89.1877 0.0000 7.4065 0.0000
# 4 0.0000 0.0000 0.0000 25.1843 0.0000 3.0807
# 5 9.4154 2.7876 7.4065 0.0000 20.2468 0.0000
# 6 0.0000 0.0000 0.0000 3.0807 0.0000 21.0162
#
#
#
# Elastic Compliance Matrix: (Units=1/GPa)
#
#
# Indices 1 2 3 4 5 6 
#
# 1 0.019605 -0.014893 -0.001923 0.000000 -0.006363 0.000000
# 2 -0.014893 0.047384 -0.012691 0.000000 0.005044 0.000000
# 3 -0.001923 -0.012691 0.017304 0.000000 -0.003689 0.000000
# 4 0.000000 0.000000 0.000000 0.040432 0.000000 -0.005927
# 5 -0.006363 0.005044 -0.003689 0.000000 0.053005 0.000000
# 6 0.000000 0.000000 0.000000 -0.005927 0.000000 0.048451
#
#
# Mechanical properties :
#
#
# Convention : Reuss Voigt Hill
#
# Bulk Modulus (GPa) = 39.55650 48.04878 43.80264
# Shear Modulus (GPa) = 17.02869 20.43045 18.72957
#
# Velocity S-wave (km/s) = 3.48457 3.81678 3.65445
# Velocity P-wave (km/s) = 6.66297 7.32698 7.00285
#
# Compressibility (1/GPa) = 0.02528029
#
# Stress axis : x y z
#
# Youngs Moduli (GPa) = 51.00631 21.10410 57.78925
#
# Poissons Ratio (x) = 0.31430 0.11113
# Poissons Ratio (y) = 0.75963 0.73340
# Poissons Ratio (z) = 0.09808 0.26783
#
# Static dielectric constant tensor:
#      x y z
#    x 1.468160 0.000000 0.011040 
#    y 0.000000 1.470530 0.000000 
#    z 0.011040 0.000000 1.462310 
# 
# From -- ./inp_files/248510.got.cif
#   From: 2010.05.17/outbox.cif.g08.bks.cpg/sg12_125_cif.got.tgz:248510.got - 2010.06.03 13:09:07.
