data_PCOD9171073
_publ_section_title
;
Structure prediction by ZEFSAII (Michael W. Deem and Ramdas Pophale) SiO2 
 PCOD9171073
Probable space group: C 2/M
;
_chemical_formula_sum "Si O2"
_cell_formula_units_Z 48
_cell_length_a 28.211513
_cell_length_b 7.398729
_cell_length_c 27.249071
_cell_angle_alpha 90.000000
_cell_angle_beta 26.816519
_cell_angle_gamma 90.000000
_cell_volume 2565.911010
_symmetry_space_group_name_H-M "C 2/M"
_symmetry_group_IT_number 12
_symmetry_cell_setting 'monoclinic'
loop_
_space_group_symop_operation_xyz
x,y,z
-x,y,-z
-x,-y,-z
x,-y,z
1/2+x,1/2+y,z
1/2-x,1/2+y,-z
1/2-x,1/2-y,-z
1/2+x,1/2-y,z
loop_
_atom_site_type_symbol
_atom_site_label
_atom_site_fract_x
_atom_site_fract_y
_atom_site_fract_z
Si Si1 0.884537 0.290890 0.100744
Si Si2 0.831086 0.220606 0.659074
Si Si3 0.931300 0.787679 0.743268
Si Si4 0.487761 0.279437 0.432132
Si Si5 0.128030 0.784190 0.099360
Si Si6 0.811022 0.217587 0.059885
O O1 0.892957 0.500000 0.108915
O O2 0.785951 0.213450 0.221944
O O3 0.851312 0.285565 0.074564
O O4 0.000000 0.208844 0.000000
O O5 0.886173 0.275387 0.557379
O O6 0.910515 0.274192 0.629528
O O7 0.829506 0.000000 0.661374
O O8 0.935435 0.711903 0.794893
O O9 0.809772 0.772759 0.838044
O O10 0.999789 0.714002 0.635001
O O11 0.956046 0.000000 0.724298
O O12 0.488551 0.500000 0.430415
O O13 0.111952 0.000000 0.113003
O O14 0.250000 0.750000 0.000000
O O15 0.120193 0.719008 0.050601
O O16 0.813004 0.000000 0.059047
#
# Coordination Sequence:
#
# PCOD9171073 Si02
#       6
#     8   8   8   8   8   8
#     4  10  19  30  44  59  76 103 139 171 195 227
#     4   8  13  22  36  59  81  97 125 163 201 230
#     4   9  14  24  42  61  80 105 134 159 191 235
#     4   8  12  19  38  61  80 100 122 158 200 233
#     4   8  15  24  36  56  80 104 130 158 190 233
#     4  10  18  27  38  56  84 110 130 160 199 235
#
# _framework density 18.706804999999999
#
# number of rings (size 3 to 8) (size 9 to 14) (size 15 to 20)
#    0.000    3.167    1.667    1.500    0.000    1.000 
#    0.000    0.000    0.000    2.000    0.000    1.167 
#    0.000    0.000    0.000    0.000    0.000    0.000 
#
# Total GULP energy -133627.808882 kJ/mol
# GULP energy per Si atom -5567.825370 kJ/mol
# Density = 1.866423 g / cm^3
# Si number density = 18.706805 Si / 1000 Ang^3
#
#
#
# Elastic Constant Matrix: (Units=GPa)
#
#
# Indices 1 2 3 4 5 6 
#
# 1 42.5239 -8.4849 61.8151 0.0001 25.0033 -0.0164
# 2 -8.4849 66.3524 4.5971 -0.0507 1.3365 0.0409
# 3 61.8151 4.5971 170.5346 -0.0250 35.8006 0.0256
# 4 0.0001 -0.0507 -0.0250 -0.8281 0.0231 4.2966
# 5 25.0033 1.3365 35.8006 0.0231 40.6301 -0.0185
# 6 -0.0164 0.0409 0.0256 4.2966 -0.0185 0.3632
#
#
#
# Elastic Compliance Matrix: (Units=1/GPa)
#
#
# Indices 1 2 3 4 5 6 
#
# 1 0.070662 0.010975 -0.020496 0.000161 -0.025786 0.000178
# 2 0.010975 0.016805 -0.003555 -0.000130 -0.004174 0.000175
# 3 -0.020496 -0.003555 0.013149 -0.000118 0.001144 0.000006
# 4 0.000161 -0.000130 -0.000118 -0.019355 0.000125 0.229011
# 5 -0.025786 -0.004174 0.001144 0.000125 0.039610 -0.000231
# 6 0.000178 0.000175 0.000006 0.229011 -0.000231 0.044143
#
#
# Mechanical properties :
#
#
# Convention : Reuss Voigt Hill
#
# Bulk Modulus (GPa) = 13.42925 43.91838 28.67382
# Shear Modulus (GPa) = 23.14969 22.79861 22.97415
#
# Velocity S-wave (km/s) = 3.52163 3.49482 3.50825
# Velocity P-wave (km/s) = 4.87137 6.30977 5.63664
#
# Compressibility (1/GPa) = 0.07446432
#
# Stress axis : x y z
#
# Youngs Moduli (GPa) = 14.15189 59.50701 76.05196
#
# Poissons Ratio (x) = -0.65312 1.55876
# Poissons Ratio (y) = -0.15532 0.27037
# Poissons Ratio (z) = 0.29006 0.21155
#
# Static dielectric constant tensor:
#      x y z
#    x 1.636370 0.000000 0.061880 
#    y 0.000000 1.695930 0.000020 
#    z 0.061880 0.000020 1.681980 
# 
# From -- ./inp_files/242609.got.cif
#   From: 2010.05.17/outbox.cif.g08.bks.cpg/sg12_122_cif.got.tgz:242609.got - 2010.06.03 13:09:07.
