data_PCOD9171229
_publ_section_title
;
Structure prediction by ZEFSAII (Michael W. Deem and Ramdas Pophale) SiO2 
 PCOD9171229
Probable space group: C 2/M
;
_chemical_formula_sum "Si O2"
_cell_formula_units_Z 56
_cell_length_a 22.114253
_cell_length_b 13.572867
_cell_length_c 11.385581
_cell_angle_alpha 90.000000
_cell_angle_beta 99.407596
_cell_angle_gamma 90.000000
_cell_volume 3371.462905
_symmetry_space_group_name_H-M "C 2/M"
_symmetry_group_IT_number 12
_symmetry_cell_setting 'monoclinic'
loop_
_space_group_symop_operation_xyz
x,y,z
-x,y,-z
-x,-y,-z
x,-y,z
1/2+x,1/2+y,z
1/2-x,1/2+y,-z
1/2-x,1/2-y,-z
1/2+x,1/2-y,z
loop_
_atom_site_type_symbol
_atom_site_label
_atom_site_fract_x
_atom_site_fract_y
_atom_site_fract_z
Si Si1 0.681122 0.708774 0.389577
Si Si2 0.364149 0.616131 0.980037
Si Si3 0.040262 0.114306 0.630147
Si Si4 0.738920 0.384069 0.630352
Si Si5 0.570325 0.385603 0.233662
Si Si6 0.258588 0.114970 0.210125
Si Si7 0.346714 0.708175 0.222486
O O1 0.693897 0.669598 0.523204
O O2 0.699096 0.821983 0.371848
O O3 0.614173 0.681868 0.325472
O O4 0.728401 0.646621 0.323913
O O5 0.369521 0.500000 0.008879
O O6 0.415524 0.639208 0.897395
O O7 0.297349 0.633080 0.899069
O O8 0.367260 0.676196 0.099942
O O9 0.096181 0.186965 0.673529
O O10 0.000000 0.133674 0.500000
O O11 0.996292 0.119001 0.730588
O O12 0.062600 0.000000 0.626424
O O13 0.743887 0.500000 0.612400
O O14 0.709103 0.360437 0.747166
O O15 0.591331 0.500000 0.253310
O O16 0.317187 0.183761 0.210196
O O17 0.273136 0.000000 0.212792
#
# Coordination Sequence:
#
# PCOD9171229 Si02
#       7
#     8   8   8   8   8   8   8
#     4   9  17  29  46  65  88 121 155 188 229 277
#     4   9  17  30  48  71  95 119 151 189 233 283
#     4  10  20  32  47  69  96 125 156 191 231 274
#     4  10  18  27  43  68  94 118 148 190 237 277
#     4   9  17  30  47  64  89 124 156 187 225 272
#     4   9  18  32  50  70  93 122 155 191 232 281
#     4  11  20  30  47  71  98 124 153 191 234 278
#
# _framework density 16.610001
#
# number of rings (size 3 to 8) (size 9 to 14) (size 15 to 20)
#    0.000    2.429    0.000    4.714    0.000    1.714 
#    0.000    2.143    0.000    1.286    0.000    1.000 
#    0.000    0.000    0.000    0.000    0.000    0.000 
#
# Total GULP energy -156038.925963 kJ/mol
# GULP energy per Si atom -5572.818784 kJ/mol
# Density = 1.657220 g / cm^3
# Si number density = 16.610001 Si / 1000 Ang^3
#
#
#
# Elastic Constant Matrix: (Units=GPa)
#
#
# Indices 1 2 3 4 5 6 
#
# 1 51.7799 37.0801 21.3451 0.0000 -6.3624 0.0000
# 2 37.0801 82.8626 17.9755 0.0000 1.0739 0.0000
# 3 21.3451 17.9755 64.8447 0.0000 -7.1548 0.0000
# 4 0.0000 0.0000 0.0000 14.0370 0.0000 -4.4899
# 5 -6.3624 1.0739 -7.1548 0.0000 15.1787 0.0000
# 6 0.0000 0.0000 0.0000 -4.4899 0.0000 5.5907
#
#
#
# Elastic Compliance Matrix: (Units=1/GPa)
#
#
# Indices 1 2 3 4 5 6 
#
# 1 0.032931 -0.013651 -0.005724 0.000000 0.012071 0.000000
# 2 -0.013651 0.018607 -0.001520 0.000000 -0.007755 0.000000
# 3 -0.005724 -0.001520 0.018433 0.000000 0.006397 0.000000
# 4 0.000000 0.000000 0.000000 0.095866 0.000000 0.076990
# 5 0.012071 -0.007755 0.006397 0.000000 0.074506 0.000000
# 6 0.000000 0.000000 0.000000 0.076990 0.000000 0.240701
#
#
# Mechanical properties :
#
#
# Convention : Reuss Voigt Hill
#
# Bulk Modulus (GPa) = 35.48518 39.14316 37.31417
# Shear Modulus (GPa) = 9.39449 15.16704 12.28077
#
# Velocity S-wave (km/s) = 2.38080 3.02508 2.72207
# Velocity P-wave (km/s) = 5.38217 5.98487 5.69150
#
# Compressibility (1/GPa) = 0.02818078
#
# Stress axis : x y z
#
# Youngs Moduli (GPa) = 30.36672 53.74300 54.25101
#
# Poissons Ratio (x) = 0.73364 0.31052
# Poissons Ratio (y) = 0.41453 0.08247
# Poissons Ratio (z) = 0.17381 0.08170
#
# Static dielectric constant tensor:
#      x y z
#    x 1.581590 0.000000 -0.002360 
#    y 0.000000 1.537830 0.000000 
#    z -0.002360 0.000000 1.609840 
# 
# From -- ./inp_files/164930.got.cif
#   From: 2010.05.17/outbox.cif.g08.bks.cpg/sg12_83_cif.got.tgz:164930.got - 2010.06.03 13:09:07.
