data_PCOD9171724
_publ_section_title
;
Structure prediction by ZEFSAII (Michael W. Deem and Ramdas Pophale) SiO2 
 PCOD9171724
Probable space group: C 2/M
;
_chemical_formula_sum "Si O2"
_cell_formula_units_Z 64
_cell_length_a 32.237934
_cell_length_b 7.532564
_cell_length_c 16.064599
_cell_angle_alpha 90.000000
_cell_angle_beta 123.760762
_cell_angle_gamma 90.000000
_cell_volume 3243.185470
_symmetry_space_group_name_H-M "C 2/M"
_symmetry_group_IT_number 12
_symmetry_cell_setting 'monoclinic'
loop_
_space_group_symop_operation_xyz
x,y,z
-x,y,-z
-x,-y,-z
x,-y,z
1/2+x,1/2+y,z
1/2-x,1/2+y,-z
1/2-x,1/2-y,-z
1/2+x,1/2-y,z
loop_
_atom_site_type_symbol
_atom_site_label
_atom_site_fract_x
_atom_site_fract_y
_atom_site_fract_z
Si Si1 0.442177 0.704618 0.792225
Si Si2 0.316868 0.205989 0.394473
Si Si3 0.662129 0.284648 0.394670
Si Si4 0.708513 0.285086 0.272329
Si Si5 0.050402 0.297784 0.862827
Si Si6 0.024752 0.716952 0.655035
Si Si7 0.075819 0.283247 0.539080
Si Si8 0.396596 0.790858 0.917404
O O1 0.450435 0.500000 0.778756
O O2 0.394862 0.773021 0.686937
O O3 0.493736 0.800912 0.833363
O O4 0.424675 0.711801 0.868630
O O5 0.318793 0.214720 0.496778
O O6 0.263223 0.281848 0.308855
O O7 0.369066 0.283531 0.420646
O O8 0.316887 0.000000 0.368402
O O9 0.662456 0.500000 0.397404
O O10 0.694172 0.227640 0.350313
O O11 0.709902 0.500000 0.275577
O O12 0.662217 0.232956 0.163071
O O13 0.068590 0.500000 0.871986
O O14 0.046580 0.217581 0.766502
O O15 0.083678 0.216387 0.973234
O O16 0.023877 0.500000 0.657210
O O17 0.056898 0.766132 0.609970
O O18 0.967663 0.773274 0.573430
O O19 0.076618 0.500000 0.536656
O O20 0.408280 0.000000 0.928527
#
# Coordination Sequence:
#
# PCOD9171724 Si02
#       8
#     8   8   8   8   8   8   8   8
#     4  10  20  32  46  67  96 126 152 181 222 271
#     4  10  18  28  47  71  90 115 155 194 227 267
#     4   9  18  30  42  62  93 123 149 179 222 274
#     4   9  19  33  45  62  91 123 155 191 228 268
#     4  10  19  30  47  70  92 117 153 193 227 263
#     4   8  14  26  44  68  97 119 139 178 228 272
#     4   8  14  25  44  70  94 116 143 178 225 275
#     4  10  20  32  46  65  89 120 158 193 225 264
#
# _framework density 19.733684
#
# number of rings (size 3 to 8) (size 9 to 14) (size 15 to 20)
#    0.000    2.750    0.000    3.750    0.000    6.500 
#    0.000    0.000    0.000    1.500    0.000    3.500 
#    0.000    0.000    0.000    0.000    0.000    0.125 
#
# Total GULP energy -178565.346276 kJ/mol
# GULP energy per Si atom -5580.167071 kJ/mol
# Density = 1.968877 g / cm^3
# Si number density = 19.733684 Si / 1000 Ang^3
#
#
#
# Elastic Constant Matrix: (Units=GPa)
#
#
# Indices 1 2 3 4 5 6 
#
# 1 75.2517 -6.0961 25.2142 0.0000 20.8175 0.0000
# 2 -6.0961 50.6632 -13.4206 0.0000 0.6588 0.0000
# 3 25.2142 -13.4206 94.0423 0.0000 -1.6204 0.0000
# 4 0.0000 0.0000 0.0000 2.3032 0.0000 9.3833
# 5 20.8175 0.6588 -1.6204 0.0000 17.1129 0.0000
# 6 0.0000 0.0000 0.0000 9.3833 0.0000 -3.3588
#
#
#
# Elastic Compliance Matrix: (Units=1/GPa)
#
#
# Indices 1 2 3 4 5 6 
#
# 1 0.023885 0.001485 -0.006705 0.000000 -0.029747 0.000000
# 2 0.001485 0.020610 0.002502 0.000000 -0.002363 0.000000
# 3 -0.006705 0.002502 0.012948 0.000000 0.009286 0.000000
# 4 0.000000 0.000000 0.000000 0.035067 0.000000 0.097965
# 5 -0.029747 -0.002363 0.009286 0.000000 0.095593 0.000000
# 6 0.000000 0.000000 0.000000 0.097965 0.000000 -0.024046
#
#
# Mechanical properties :
#
#
# Convention : Reuss Voigt Hill
#
# Bulk Modulus (GPa) = 19.22747 25.70580 22.46663
# Shear Modulus (GPa) = 26.76253 17.49543 22.12898
#
# Velocity S-wave (km/s) = 3.68664 2.98077 3.35234
# Velocity P-wave (km/s) = 5.28075 4.99012 5.13749
#
# Compressibility (1/GPa) = 0.05200892
#
# Stress axis : x y z
#
# Youngs Moduli (GPa) = 41.86774 48.51900 77.23073
#
# Poissons Ratio (x) = -0.07204 0.51780
# Poissons Ratio (y) = -0.06217 -0.19327
# Poissons Ratio (z) = 0.28070 -0.12142
#
# Static dielectric constant tensor:
#      x y z
#    x 1.684180 0.000000 0.013320 
#    y 0.000000 1.754980 0.000000 
#    z 0.013320 0.000000 1.699690 
# 
# From -- ./inp_files/249042.got.cif
#   From: 2010.05.17/outbox.cif.g08.bks.cpg/sg12_125_cif.got.tgz:249042.got - 2010.06.03 13:09:07.
