data_PCOD9171353
_publ_section_title
;
Structure prediction by ZEFSAII (Michael W. Deem and Ramdas Pophale) SiO2 
 PCOD9171353
Probable space group: C 2/M
;
_chemical_formula_sum "Si O2"
_cell_formula_units_Z 60
_cell_length_a 23.996975
_cell_length_b 7.406393
_cell_length_c 28.260842
_cell_angle_alpha 90.000000
_cell_angle_beta 153.980875
_cell_angle_gamma 90.000000
_cell_volume 2203.369873
_symmetry_space_group_name_H-M "C 2/M"
_symmetry_group_IT_number 12
_symmetry_cell_setting 'monoclinic'
loop_
_space_group_symop_operation_xyz
x,y,z
-x,y,-z
-x,-y,-z
x,-y,z
1/2+x,1/2+y,z
1/2-x,1/2+y,-z
1/2-x,1/2-y,-z
1/2+x,1/2-y,z
loop_
_atom_site_type_symbol
_atom_site_label
_atom_site_fract_x
_atom_site_fract_y
_atom_site_fract_z
Si Si1 0.894178 0.799254 0.059087
Si Si2 0.642700 0.000000 0.894588
Si Si3 0.145335 0.787054 0.074483
Si Si4 0.156426 0.216286 0.384301
Si Si5 0.060790 0.216467 0.720663
Si Si6 0.816484 0.207301 0.793704
Si Si7 0.753455 0.717161 0.357826
Si Si8 0.528924 0.712384 0.593613
O O1 0.921202 0.658327 0.120409
O O2 0.917988 0.730417 0.023500
O O3 0.952147 0.000000 0.111632
O O4 0.742362 0.845339 0.947361
O O5 0.294770 0.765286 0.177840
O O6 0.128777 0.712632 0.115340
O O7 0.121662 0.000000 0.059709
O O8 0.250000 0.250000 0.500000
O O9 0.019407 0.292948 0.296742
O O10 0.206173 0.287162 0.372427
O O11 0.146259 0.000000 0.371557
O O12 0.993323 0.270501 0.620057
O O13 0.056904 0.000000 0.721962
O O14 0.823107 0.286413 0.746097
O O15 0.662954 0.200415 0.683934
O O16 0.859293 0.000000 0.824698
O O17 0.745572 0.500000 0.351733
O O18 0.903223 0.758993 0.467528
O O19 0.556322 0.500000 0.615492
#
# Coordination Sequence:
#
# PCOD9171353 Si02
#       8
#     8   4   8   8   8   8   8   8
#     4   8  14  25  40  64  89 119 145 164 196 240
#     4   8  14  24  42  64  92 116 142 168 194 234
#     4   9  17  28  43  59  84 113 137 162 198 251
#     4  10  19  31  44  57  73  98 138 185 226 259
#     4   9  18  29  39  57  78 101 137 174 215 258
#     4   9  18  30  40  56  78 105 137 166 204 254
#     4  10  19  29  43  56  71 101 136 178 218 252
#     4  10  18  28  41  56  76  98 129 174 217 254
#
# _framework density 27.231013999999998
#
# number of rings (size 3 to 8) (size 9 to 14) (size 15 to 20)
#    0.400    2.400    1.333    0.800    0.933    3.200 
#    0.000    0.000    0.000    0.000    0.000    0.000 
#    0.000    0.000    0.000    7.200    0.000    1.067 
#
# Total GULP energy -167245.326860 kJ/mol
# GULP energy per Si atom -5574.844229 kJ/mol
# Density = 2.716904 g / cm^3
# Si number density = 27.231014 Si / 1000 Ang^3
#
#
#
# Elastic Constant Matrix: (Units=GPa)
#
#
# Indices 1 2 3 4 5 6 
#
# 1 200.0580 21.4834 56.5504 0.0022 -27.5510 0.0009
# 2 21.4834 103.9926 -3.8200 0.0041 -10.3528 0.0042
# 3 56.5504 -3.8200 146.6862 0.0005 -15.2022 0.0000
# 4 0.0022 0.0041 0.0005 -26.3925 0.0003 -7.0296
# 5 -27.5510 -10.3528 -15.2022 0.0003 56.8750 0.0009
# 6 0.0009 0.0042 0.0000 -7.0296 0.0009 11.1665
#
#
#
# Elastic Compliance Matrix: (Units=1/GPa)
#
#
# Indices 1 2 3 4 5 6 
#
# 1 0.006013 -0.001107 -0.002125 0.000000 0.002143 0.000000
# 2 -0.001107 0.010027 0.000845 0.000002 0.001515 -0.000002
# 3 -0.002125 0.000845 0.007783 0.000000 0.001205 0.000000
# 4 0.000000 0.000002 0.000000 -0.032449 0.000001 -0.020427
# 5 0.002143 0.001515 0.001205 0.000001 0.019218 -0.000002
# 6 0.000000 -0.000002 0.000000 -0.020427 -0.000002 0.076694
#
#
# Mechanical properties :
#
#
# Convention : Reuss Voigt Hill
#
# Bulk Modulus (GPa) = 52.49575 66.57381 59.53478
# Shear Modulus (GPa) = 50.80756 33.43134 42.11945
#
# Velocity S-wave (km/s) = 4.32417 3.50765 3.93714
# Velocity P-wave (km/s) = 6.65215 6.39575 6.52521
#
# Compressibility (1/GPa) = 0.01904916
#
# Stress axis : x y z
#
# Youngs Moduli (GPa) = 166.29939 99.73497 128.47961
#
# Poissons Ratio (x) = 0.11040 0.27301
# Poissons Ratio (y) = 0.18408 -0.10854
# Poissons Ratio (z) = 0.35337 -0.08426
#
# Static dielectric constant tensor:
#      x y z
#    x 2.207010 0.000000 -0.007860 
#    y 0.000000 1.892130 0.000000 
#    z -0.007860 0.000000 2.179260 
# 
# From -- ./inp_files/367192.got.cif
#   From: 2010.05.17/outbox.cif.g08.bks.cpg/sg12_184_cif.got.tgz:367192.got - 2010.06.03 13:09:07.
