data_PCOD9171691
_publ_section_title
;
Structure prediction by ZEFSAII (Michael W. Deem and Ramdas Pophale) SiO2 
 PCOD9171691
Probable space group: C 2/M
;
_chemical_formula_sum "Si O2"
_cell_formula_units_Z 52
_cell_length_a 25.314617
_cell_length_b 11.256869
_cell_length_c 18.730011
_cell_angle_alpha 90.000000
_cell_angle_beta 152.838165
_cell_angle_gamma 90.000000
_cell_volume 2436.536417
_symmetry_space_group_name_H-M "C 2/M"
_symmetry_group_IT_number 12
_symmetry_cell_setting 'monoclinic'
loop_
_space_group_symop_operation_xyz
x,y,z
-x,y,-z
-x,-y,-z
x,-y,z
1/2+x,1/2+y,z
1/2-x,1/2+y,-z
1/2-x,1/2-y,-z
1/2+x,1/2-y,z
loop_
_atom_site_type_symbol
_atom_site_label
_atom_site_fract_x
_atom_site_fract_y
_atom_site_fract_z
Si Si1 0.147728 0.138766 0.785506
Si Si2 0.512127 0.270394 0.287477
Si Si3 0.309575 0.864775 0.767893
Si Si4 0.157273 0.371848 0.569744
Si Si5 0.253576 0.627634 0.460557
Si Si6 0.909117 0.363913 0.039465
Si Si7 0.500000 0.796320 0.500000
O O1 0.101436 0.187574 0.806003
O O2 0.280963 0.149438 0.921480
O O3 0.074640 0.211845 0.640429
O O4 0.118834 0.000000 0.748151
O O5 0.571474 0.161087 0.401536
O O6 0.614593 0.367316 0.411324
O O7 0.483940 0.229176 0.173879
O O8 0.234231 0.744761 0.677058
O O9 0.333823 0.870011 0.712074
O O10 0.396852 0.849013 0.939107
O O11 0.259905 0.000000 0.722733
O O12 0.215058 0.500000 0.628288
O O13 0.079958 0.374484 0.546801
O O14 0.238232 0.500000 0.479234
O O15 0.250000 0.750000 0.500000
O O16 0.945081 0.500000 0.096476
#
# Coordination Sequence:
#
# PCOD9171691 Si02
#       7
#     8   8   8   8   8   8   4
#     4  10  19  31  53  82 116 158 199 234 276 332
#     4  10  21  35  55  82 119 152 193 235 289 341
#     4   9  19  37  59  84 111 143 189 238 279 334
#     4  10  19  31  48  75 109 147 187 229 278 331
#     4  10  22  41  65  89 113 145 193 247 296 345
#     4  10  19  34  56  84 119 156 192 229 279 343
#     4  10  18  28  46  72 109 148 195 238 273 320
#
# _framework density 21.341768999999999
#
# number of rings (size 3 to 8) (size 9 to 14) (size 15 to 20)
#    0.000    2.154    1.538    1.846    0.000    6.769 
#    0.000    2.308    0.000    3.692    0.000    0.000 
#    0.000    0.000    0.000    0.000    0.000    0.000 
#
# Total GULP energy -144833.376376 kJ/mol
# GULP energy per Si atom -5570.514476 kJ/mol
# Density = 2.129319 g / cm^3
# Si number density = 21.341769 Si / 1000 Ang^3
#
#
#
# Elastic Constant Matrix: (Units=GPa)
#
#
# Indices 1 2 3 4 5 6 
#
# 1 84.2520 27.9869 28.4607 0.0000 -17.7271 0.0000
# 2 27.9869 164.2931 50.4672 0.0000 -15.7725 0.0000
# 3 28.4607 50.4672 89.5828 0.0000 -22.6096 0.0000
# 4 0.0000 0.0000 0.0000 159.4950 0.0000 -40.5350
# 5 -17.7271 -15.7725 -22.6096 0.0000 37.2297 0.0000
# 6 0.0000 0.0000 0.0000 -40.5350 0.0000 34.9955
#
#
#
# Elastic Compliance Matrix: (Units=1/GPa)
#
#
# Indices 1 2 3 4 5 6 
#
# 1 0.014124 -0.001140 -0.002681 0.000000 0.004615 0.000000
# 2 -0.001140 0.007468 -0.003760 0.000000 0.000338 0.000000
# 3 -0.002681 -0.003760 0.015836 0.000000 0.006748 0.000000
# 4 0.000000 0.000000 0.000000 0.008885 0.000000 0.010292
# 5 0.004615 0.000338 0.006748 0.000000 0.033299 0.000000
# 6 0.000000 0.000000 0.000000 0.010292 0.000000 0.040496
#
#
# Mechanical properties :
#
#
# Convention : Reuss Voigt Hill
#
# Bulk Modulus (GPa) = 44.90787 61.32861 53.11824
# Shear Modulus (GPa) = 35.04068 61.75823 48.39945
#
# Velocity S-wave (km/s) = 4.05641 5.38522 4.76734
# Velocity P-wave (km/s) = 6.55951 8.21378 7.43281
#
# Compressibility (1/GPa) = 0.02226781
#
# Stress axis : x y z
#
# Youngs Moduli (GPa) = 70.80061 133.90072 63.14825
#
# Poissons Ratio (x) = 0.15259 0.16928
# Poissons Ratio (y) = 0.08068 0.23743
# Poissons Ratio (z) = 0.18979 0.50346
#
# Static dielectric constant tensor:
#      x y z
#    x 1.874500 0.000000 0.029190 
#    y 0.000000 1.765070 0.000000 
#    z 0.029190 0.000000 1.764720 
# 
# From -- ./inp_files/293152.got.cif
#   From: 2010.05.17/outbox.cif.g08.bks.cpg/sg12_147_cif.got.tgz:293152.got - 2010.06.03 13:09:07.
