data_PCOD9171681
_publ_section_title
;
Structure prediction by ZEFSAII (Michael W. Deem and Ramdas Pophale) SiO2 
 PCOD9171681
Probable space group: C 2/M
;
_chemical_formula_sum "Si O2"
_cell_formula_units_Z 48
_cell_length_a 12.255542
_cell_length_b 22.410626
_cell_length_c 12.782820
_cell_angle_alpha 90.000000
_cell_angle_beta 33.316748
_cell_angle_gamma 90.000000
_cell_volume 1928.398462
_symmetry_space_group_name_H-M "C 2/M"
_symmetry_group_IT_number 12
_symmetry_cell_setting 'monoclinic'
loop_
_space_group_symop_operation_xyz
x,y,z
-x,y,-z
-x,-y,-z
x,-y,z
1/2+x,1/2+y,z
1/2-x,1/2+y,-z
1/2-x,1/2-y,-z
1/2+x,1/2-y,z
loop_
_atom_site_type_symbol
_atom_site_label
_atom_site_fract_x
_atom_site_fract_y
_atom_site_fract_z
Si Si1 0.215485 0.905803 0.296084
Si Si2 0.689963 0.435884 0.091757
Si Si3 0.243480 0.803176 0.587585
Si Si4 0.859998 0.832592 0.008000
Si Si5 0.239972 0.729435 0.794440
Si Si6 0.213980 0.431027 0.527485
O O1 0.288447 0.930637 0.127131
O O2 0.185022 0.836299 0.288373
O O3 0.324985 0.917135 0.317949
O O4 0.000000 0.930963 0.500000
O O5 0.731211 0.500000 0.013223
O O6 0.745043 0.388770 0.958640
O O7 0.452570 0.433013 0.309711
O O8 0.250000 0.750000 0.500000
O O9 0.297514 0.770025 0.650651
O O10 0.341882 0.867824 0.485464
O O11 0.011937 0.816308 0.794533
O O12 0.721007 0.776363 0.143928
O O13 0.000000 0.845850 0.000000
O O14 0.000000 0.720793 0.000000
O O15 0.147010 0.500000 0.556832
#
# Coordination Sequence:
#
# PCOD9171681 Si02
#       6
#     8   8   8   8   8   8
#     4  10  18  28  46  71  96 121 157 194 237 286
#     4   9  17  28  43  65  94 124 152 191 239 286
#     4   9  14  26  47  66  87 122 157 190 226 276
#     4   8  17  29  43  67  93 120 155 193 240 279
#     4   9  18  31  46  69  96 124 155 196 242 271
#     4   9  16  26  43  69  95 119 151 197 240 275
#
# _framework density 24.891120999999998
#
# number of rings (size 3 to 8) (size 9 to 14) (size 15 to 20)
#    0.000    3.333    1.667    0.500    0.000    3.000 
#    0.000    2.500    0.000    2.500    0.000    0.000 
#    0.000    1.333    0.000    0.000    0.000    0.000 
#
# Total GULP energy -133661.090721 kJ/mol
# GULP energy per Si atom -5569.212113 kJ/mol
# Density = 2.483447 g / cm^3
# Si number density = 24.891121 Si / 1000 Ang^3
#
#
#
# Elastic Constant Matrix: (Units=GPa)
#
#
# Indices 1 2 3 4 5 6 
#
# 1 48.3695 27.0638 26.1832 -0.0082 -3.7091 -0.0103
# 2 27.0638 232.0387 61.4820 -0.0028 25.5667 -0.0056
# 3 26.1832 61.4820 119.4003 -0.0042 15.9064 -0.0112
# 4 -0.0082 -0.0028 -0.0042 -15.8649 0.0054 -4.0022
# 5 -3.7091 25.5667 15.9064 0.0054 30.3741 0.0103
# 6 -0.0103 -0.0056 -0.0112 -4.0022 0.0103 16.4563
#
#
#
# Elastic Compliance Matrix: (Units=1/GPa)
#
#
# Indices 1 2 3 4 5 6 
#
# 1 0.025585 -0.002429 -0.005427 -0.000010 0.008011 0.000004
# 2 -0.002429 0.005502 -0.001767 -0.000001 -0.004002 0.000001
# 3 -0.005427 -0.001767 0.011143 -0.000003 -0.005010 0.000006
# 4 -0.000010 -0.000001 -0.000003 -0.059389 0.000017 -0.014443
# 5 0.008011 -0.004002 -0.005010 0.000017 0.039894 -0.000021
# 6 0.000004 0.000001 0.000006 -0.014443 -0.000021 0.057255
#
#
# Mechanical properties :
#
#
# Convention : Reuss Voigt Hill
#
# Bulk Modulus (GPa) = 43.50921 69.91852 56.71387
# Shear Modulus (GPa) = 46.77365 25.19837 35.98601
#
# Velocity S-wave (km/s) = 4.33960 3.18519 3.80641
# Velocity P-wave (km/s) = 6.52895 6.45585 6.49250
#
# Compressibility (1/GPa) = 0.02298364
#
# Stress axis : x y z
#
# Youngs Moduli (GPa) = 39.08511 181.74543 89.74360
#
# Poissons Ratio (x) = 0.44142 0.48705
# Poissons Ratio (y) = 0.09493 0.15861
# Poissons Ratio (z) = 0.21212 0.32122
#
# Static dielectric constant tensor:
#      x y z
#    x 4.843210 -0.000630 0.442410 
#    y -0.000630 2.247630 -0.000070 
#    z 0.442410 -0.000070 2.123340 
# 
# From -- ./inp_files/234913.got.cif
#   From: 2010.05.17/outbox.cif.g08.bks.cpg/sg12_118_cif.got.tgz:234913.got - 2010.06.03 13:09:07.
