data_PCOD9171207
_publ_section_title
;
Structure prediction by ZEFSAII (Michael W. Deem and Ramdas Pophale) SiO2 
 PCOD9171207
Probable space group: C 2/M
;
_chemical_formula_sum "Si O2"
_cell_formula_units_Z 64
_cell_length_a 24.607776
_cell_length_b 9.638679
_cell_length_c 19.069920
_cell_angle_alpha 90.000000
_cell_angle_beta 78.199526
_cell_angle_gamma 90.000000
_cell_volume 4427.533568
_symmetry_space_group_name_H-M "C 2/M"
_symmetry_group_IT_number 12
_symmetry_cell_setting 'monoclinic'
loop_
_space_group_symop_operation_xyz
x,y,z
-x,y,-z
-x,-y,-z
x,-y,z
1/2+x,1/2+y,z
1/2-x,1/2+y,-z
1/2-x,1/2-y,-z
1/2+x,1/2-y,z
loop_
_atom_site_type_symbol
_atom_site_label
_atom_site_fract_x
_atom_site_fract_y
_atom_site_fract_z
Si Si1 0.043672 0.165306 0.549569
Si Si2 0.015524 0.659514 0.151720
Si Si3 0.061155 0.840595 0.020783
Si Si4 0.959754 0.334370 0.308488
Si Si5 0.393840 0.841080 0.109947
Si Si6 0.738006 0.663037 0.613003
Si Si7 0.828999 0.161964 0.515294
Si Si8 0.160129 0.665359 0.731378
O O1 0.031761 0.249894 0.623137
O O2 0.106255 0.196563 0.507735
O O3 0.000000 0.196851 0.500000
O O4 0.041455 0.000000 0.564753
O O5 0.035248 0.500000 0.144817
O O6 0.053629 0.758852 0.095469
O O7 0.002785 0.701919 0.234908
O O8 0.954758 0.659223 0.130617
O O9 0.076847 0.000000 0.026745
O O10 0.101590 0.760808 0.956737
O O11 0.000000 0.838870 0.000000
O O12 0.963716 0.500000 0.319010
O O13 0.897723 0.307624 0.294750
O O14 0.351946 0.803594 0.183727
O O15 0.383424 0.000000 0.090494
O O16 0.745545 0.500000 0.625254
O O17 0.794676 0.738912 0.575655
O O18 0.698250 0.675610 0.554836
O O19 0.707575 0.743365 0.683651
O O20 0.822887 0.000000 0.537598
O O21 0.171233 0.500000 0.722163
#
# Coordination Sequence:
#
# PCOD9171207 Si02
#       8
#     8   8   8   8   8   8   8   8
#     4  10  20  33  47  62  82 108 137 171 213 256
#     4   8  14  24  36  49  68  98 132 165 198 235
#     4   9  15  21  30  48  71  97 130 166 199 230
#     4   9  17  28  42  59  78 102 137 174 207 245
#     4   8  14  23  34  48  70 102 134 160 193 237
#     4  10  18  27  43  63  81 105 135 171 210 245
#     4   9  18  31  43  59  81 106 134 167 208 251
#     4   9  16  26  40  58  80 107 136 169 206 244
#
# _framework density 14.455002
#
# number of rings (size 3 to 8) (size 9 to 14) (size 15 to 20)
#    0.000    3.000    1.250    2.250    0.000    3.750 
#    0.000    2.500    0.000    0.000    0.000    0.000 
#    0.000    0.000    0.000    1.125    0.000   13.625 
#
# Total GULP energy -178164.599584 kJ/mol
# GULP energy per Si atom -5567.643737 kJ/mol
# Density = 1.442210 g / cm^3
# Si number density = 14.455002 Si / 1000 Ang^3
#
#
#
# Elastic Constant Matrix: (Units=GPa)
#
#
# Indices 1 2 3 4 5 6 
#
# 1 41.2894 35.2715 43.8803 0.0000 -6.0584 0.0000
# 2 35.2715 92.7415 94.9424 0.0000 -23.7161 0.0000
# 3 43.8803 94.9424 136.8460 0.0000 -29.9112 0.0000
# 4 0.0000 0.0000 0.0000 26.8717 0.0000 -4.7977
# 5 -6.0584 -23.7161 -29.9112 0.0000 16.5551 0.0000
# 6 0.0000 0.0000 0.0000 -4.7977 0.0000 11.8574
#
#
#
# Elastic Compliance Matrix: (Units=1/GPa)
#
#
# Indices 1 2 3 4 5 6 
#
# 1 0.040574 -0.009167 -0.010371 0.000000 -0.017022 0.000000
# 2 -0.009167 0.040541 -0.021859 0.000000 0.015229 0.000000
# 3 -0.010371 -0.021859 0.029953 0.000000 0.019010 0.000000
# 4 0.000000 0.000000 0.000000 0.040112 0.000000 0.016230
# 5 -0.017022 0.015229 0.019010 0.000000 0.110338 0.000000
# 6 0.000000 0.000000 0.000000 0.016230 0.000000 0.090903
#
#
# Mechanical properties :
#
#
# Convention : Reuss Voigt Hill
#
# Bulk Modulus (GPa) = 35.36682 68.78503 52.07593
# Shear Modulus (GPa) = 11.24508 17.50901 14.37704
#
# Velocity S-wave (km/s) = 2.79218 3.48412 3.15716
# Velocity P-wave (km/s) = 5.90889 7.99214 7.02813
#
# Compressibility (1/GPa) = 0.02827509
#
# Stress axis : x y z
#
# Youngs Moduli (GPa) = 24.64608 24.66646 33.38513
#
# Poissons Ratio (x) = 0.22612 0.34623
# Poissons Ratio (y) = 0.22593 0.72976
# Poissons Ratio (z) = 0.25560 0.53918
#
# Static dielectric constant tensor:
#      x y z
#    x 1.445640 0.000000 -0.014780 
#    y 0.000000 1.478830 0.000000 
#    z -0.014780 0.000000 1.474860 
# 
# From -- ./inp_files/287512.got.cif
#   From: 2010.05.17/outbox.cif.g08.bks.cpg/sg12_144_cif.got.tgz:287512.got - 2010.06.03 13:09:07.
