data_PCOD9171961
_publ_section_title
;
Structure prediction by ZEFSAII (Michael W. Deem and Ramdas Pophale) SiO2 
 PCOD9171961
Probable space group: C 2/M
;
_chemical_formula_sum "Si O2"
_cell_formula_units_Z 64
_cell_length_a 18.688714
_cell_length_b 27.212338
_cell_length_c 21.175341
_cell_angle_alpha 90.000000
_cell_angle_beta 159.345682
_cell_angle_gamma 90.000000
_cell_volume 3798.540247
_symmetry_space_group_name_H-M "C 2/M"
_symmetry_group_IT_number 12
_symmetry_cell_setting 'monoclinic'
loop_
_space_group_symop_operation_xyz
x,y,z
-x,y,-z
-x,-y,-z
x,-y,z
1/2+x,1/2+y,z
1/2-x,1/2+y,-z
1/2-x,1/2-y,-z
1/2+x,1/2-y,z
loop_
_atom_site_type_symbol
_atom_site_label
_atom_site_fract_x
_atom_site_fract_y
_atom_site_fract_z
Si Si1 0.797916 0.927206 0.201872
Si Si2 0.227573 0.183121 0.662234
Si Si3 0.545803 0.737723 0.966603
Si Si4 0.141645 0.424668 0.207075
Si Si5 0.844169 0.175794 0.177207
Si Si6 0.751647 0.052883 0.441756
Si Si7 0.222080 0.696366 0.944982
Si Si8 0.286731 0.836396 0.564079
O O1 0.774971 0.939632 0.256802
O O2 0.819589 0.869000 0.205476
O O3 0.006520 0.948046 0.348580
O O4 0.587561 0.941374 0.995296
O O5 0.343570 0.134738 0.783041
O O6 0.228909 0.176328 0.588443
O O7 0.000000 0.183595 0.500000
O O8 0.353130 0.231210 0.783770
O O9 0.609160 0.695181 0.970044
O O10 0.732929 0.777093 0.115819
O O11 0.500000 0.722396 0.000000
O O12 0.214829 0.441276 0.335941
O O13 0.084619 0.181153 0.361218
O O14 0.743107 0.163313 0.025426
O O15 0.682687 0.104532 0.415218
O O16 0.665000 0.000000 0.390562
O O17 0.002820 0.689017 0.732698
O O18 0.250000 0.750000 0.000000
#
# Coordination Sequence:
#
# PCOD9171961 Si02
#       8
#     8   8   8   8   8   8   8   8
#     4  10  18  29  46  63  85 125 165 197 241 281
#     4  11  18  29  46  70  96 125 170 203 235 282
#     4  11  20  32  47  71 101 127 158 206 245 282
#     4  10  18  29  45  63  88 124 164 204 241 276
#     4  10  18  32  51  65  94 128 166 204 233 279
#     4  10  21  33  45  66  94 121 161 210 247 282
#     4  10  20  35  49  72  99 124 166 203 239 294
#     4  10  19  34  52  69  89 134 169 199 244 287
#
# _framework density 16.848576999999999
#
# number of rings (size 3 to 8) (size 9 to 14) (size 15 to 20)
#    0.000    1.750    3.750    4.875    0.000    3.500 
#    2.250    1.250    0.000    0.000    0.000    0.000 
#    0.000    0.500    0.000    4.500    0.000    0.000 
#
# Total GULP energy -178364.283310 kJ/mol
# GULP energy per Si atom -5573.883853 kJ/mol
# Density = 1.681023 g / cm^3
# Si number density = 16.848577 Si / 1000 Ang^3
#
#
#
# Elastic Constant Matrix: (Units=GPa)
#
#
# Indices 1 2 3 4 5 6 
#
# 1 62.9985 4.9528 3.6493 -0.0252 7.5127 0.0204
# 2 4.9528 42.1937 11.6230 -0.0416 11.0527 0.0310
# 3 3.6493 11.6230 87.2675 0.0614 10.6114 0.0579
# 4 -0.0252 -0.0416 0.0614 56.7901 -0.0433 -30.4106
# 5 7.5127 11.0527 10.6114 -0.0433 17.5674 0.0051
# 6 0.0204 0.0310 0.0579 -30.4106 0.0051 16.1085
#
#
#
# Elastic Compliance Matrix: (Units=1/GPa)
#
#
# Indices 1 2 3 4 5 6 
#
# 1 0.016729 -0.000135 0.000190 0.000796 -0.007183 0.001483
# 2 -0.000135 0.028623 -0.001755 0.001211 -0.016888 0.002243
# 3 0.000190 -0.001755 0.012468 0.003736 -0.006501 0.007014
# 4 0.000796 0.001211 0.003736 -1.609553 -0.006438 -3.038621
# 5 -0.007183 -0.016888 -0.006501 -0.006438 0.074535 -0.012112
# 6 0.001483 0.002243 0.007014 -3.038621 -0.012112 -5.674433
#
#
# Mechanical properties :
#
#
# Convention : Reuss Voigt Hill
#
# Bulk Modulus (GPa) = 18.37546 25.87888 22.12717
# Shear Modulus (GPa) = -0.70125 29.57550 14.43712
#
# Velocity S-wave (km/s) = -0.64584 4.19426 2.93042
# Velocity P-wave (km/s) = 3.22083 6.23288 4.96098
#
# Compressibility (1/GPa) = 0.05442040
#
# Stress axis : x y z
#
# Youngs Moduli (GPa) = 59.77502 34.93691 80.20479
#
# Poissons Ratio (x) = 0.00471 -0.01526
# Poissons Ratio (y) = 0.00806 0.14079
# Poissons Ratio (z) = -0.01137 0.06133
#
# Static dielectric constant tensor:
#      x y z
#    x 1.583350 0.000000 -0.016650 
#    y 0.000000 1.640160 0.000000 
#    z -0.016650 0.000000 1.635830 
# 
# From -- ./inp_files/318646.got.cif
#   From: 2010.05.17/outbox.cif.g08.bks.cpg/sg12_160_cif.got.tgz:318646.got - 2010.06.03 13:09:07.
