data_PCOD9171892
_publ_section_title
;
Structure prediction by ZEFSAII (Michael W. Deem and Ramdas Pophale) SiO2 
 PCOD9171892
Probable space group: C 2/M
;
_chemical_formula_sum "Si O2"
_cell_formula_units_Z 56
_cell_length_a 29.812822
_cell_length_b 9.044875
_cell_length_c 13.780606
_cell_angle_alpha 90.000000
_cell_angle_beta 76.446037
_cell_angle_gamma 90.000000
_cell_volume 3612.493584
_symmetry_space_group_name_H-M "C 2/M"
_symmetry_group_IT_number 12
_symmetry_cell_setting 'monoclinic'
loop_
_space_group_symop_operation_xyz
x,y,z
-x,y,-z
-x,-y,-z
x,-y,z
1/2+x,1/2+y,z
1/2-x,1/2+y,-z
1/2-x,1/2-y,-z
1/2+x,1/2-y,z
loop_
_atom_site_type_symbol
_atom_site_label
_atom_site_fract_x
_atom_site_fract_y
_atom_site_fract_z
Si Si1 0.699148 0.171816 0.922539
Si Si2 0.444162 0.321960 0.136440
Si Si3 0.636540 0.821868 0.136386
Si Si4 0.781936 0.322716 0.779119
Si Si5 0.549931 0.677392 0.093380
Si Si6 0.354600 0.172278 0.254472
Si Si7 0.268783 0.677915 0.392714
O O1 0.745080 0.261749 0.875313
O O2 0.668080 0.181162 0.841425
O O3 0.711288 0.000000 0.932472
O O4 0.668470 0.222454 0.028292
O O5 0.439150 0.500000 0.145102
O O6 0.496540 0.283244 0.139279
O O7 0.404924 0.243114 0.218381
O O8 0.439547 0.281394 0.024427
O O9 0.666675 0.778025 0.214915
O O10 0.586954 0.750605 0.145022
O O11 0.631942 0.000000 0.136825
O O12 0.780101 0.500000 0.784080
O O13 0.764052 0.278095 0.681887
O O14 0.553483 0.500000 0.097109
O O15 0.319530 0.260938 0.340904
O O16 0.356616 0.000000 0.281114
O O17 0.269373 0.500000 0.398881
O O18 0.250000 0.750000 0.500000
#
# Coordination Sequence:
#
# PCOD9171892 Si02
#       7
#     8   8   8   8   8   8   8
#     4   9  17  27  40  62  92 122 154 187 218 260
#     4   9  17  30  44  63  92 126 163 197 227 263
#     4  10  18  29  42  63  93 124 156 190 225 264
#     4   9  19  31  45  64  89 120 153 187 228 276
#     4   9  18  29  43  63  91 128 165 196 225 261
#     4  10  18  29  47  71  95 122 155 192 232 274
#     4  10  20  35  52  71  93 119 151 192 237 281
#
# _framework density 15.501757
#
# number of rings (size 3 to 8) (size 9 to 14) (size 15 to 20)
#    0.000    2.571    1.429    2.143    0.000    2.857 
#    0.000    1.429    0.000    0.000    0.000    1.000 
#    0.000    8.000    0.000    0.000    0.000    0.000 
#
# Total GULP energy -156058.566888 kJ/mol
# GULP energy per Si atom -5573.520246 kJ/mol
# Density = 1.546647 g / cm^3
# Si number density = 15.501757 Si / 1000 Ang^3
#
#
#
# Elastic Constant Matrix: (Units=GPa)
#
#
# Indices 1 2 3 4 5 6 
#
# 1 138.4955 44.4081 47.0008 0.0000 -12.2032 0.0000
# 2 44.4081 34.5507 33.4602 0.0000 -7.2106 0.0000
# 3 47.0008 33.4602 75.1130 0.0000 -13.1821 0.0000
# 4 0.0000 0.0000 0.0000 20.2262 0.0000 -5.7553
# 5 -12.2032 -7.2106 -13.1821 0.0000 15.5162 0.0000
# 6 0.0000 0.0000 0.0000 -5.7553 0.0000 28.3022
#
#
#
# Elastic Compliance Matrix: (Units=1/GPa)
#
#
# Indices 1 2 3 4 5 6 
#
# 1 0.012404 -0.014667 -0.000837 0.000000 0.002228 0.000000
# 2 -0.014667 0.068600 -0.020932 0.000000 0.002561 0.000000
# 3 -0.000837 -0.020932 0.025078 0.000000 0.010920 0.000000
# 4 0.000000 0.000000 0.000000 0.052477 0.000000 0.010671
# 5 0.002228 0.002561 0.010920 0.000000 0.076669 0.000000
# 6 0.000000 0.000000 0.000000 0.010671 0.000000 0.037503
#
#
# Mechanical properties :
#
#
# Convention : Reuss Voigt Hill
#
# Bulk Modulus (GPa) = 30.11113 55.32191 42.71652
# Shear Modulus (GPa) = 14.01848 21.02826 17.52337
#
# Velocity S-wave (km/s) = 3.01045 3.68708 3.36581
# Velocity P-wave (km/s) = 5.61696 7.34105 6.53610
#
# Compressibility (1/GPa) = 0.03321031
#
# Stress axis : x y z
#
# Youngs Moduli (GPa) = 80.62097 14.57720 39.87632
#
# Poissons Ratio (x) = 0.21381 0.03336
# Poissons Ratio (y) = 1.18249 0.83468
# Poissons Ratio (z) = 0.06745 0.30513
#
# Static dielectric constant tensor:
#      x y z
#    x 1.531380 0.000000 0.015200 
#    y 0.000000 1.518500 0.000000 
#    z 0.015200 0.000000 1.494280 
# 
# From -- ./inp_files/243003.got.cif
#   From: 2010.05.17/outbox.cif.g08.bks.cpg/sg12_122_cif.got.tgz:243003.got - 2010.06.03 13:09:07.
