data_PCOD9171213
_publ_section_title
;
Structure prediction by ZEFSAII (Michael W. Deem and Ramdas Pophale) SiO2 
 PCOD9171213
Probable space group: C 2/M
;
_chemical_formula_sum "Si O2"
_cell_formula_units_Z 48
_cell_length_a 16.025791
_cell_length_b 26.239907
_cell_length_c 16.546338
_cell_angle_alpha 90.000000
_cell_angle_beta 26.694947
_cell_angle_gamma 90.000000
_cell_volume 3125.807857
_symmetry_space_group_name_H-M "C 2/M"
_symmetry_group_IT_number 12
_symmetry_cell_setting 'monoclinic'
loop_
_space_group_symop_operation_xyz
x,y,z
-x,y,-z
-x,-y,-z
x,-y,z
1/2+x,1/2+y,z
1/2-x,1/2+y,-z
1/2-x,1/2-y,-z
1/2+x,1/2-y,z
loop_
_atom_site_type_symbol
_atom_site_label
_atom_site_fract_x
_atom_site_fract_y
_atom_site_fract_z
Si Si1 0.085864 0.556065 0.836707
Si Si2 0.800510 0.191296 0.972129
Si Si3 0.504165 0.665384 0.633936
Si Si4 0.000000 0.250224 0.500000
Si Si5 0.412496 0.736636 0.163257
Si Si6 0.000000 0.917041 0.500000
Si Si7 0.572754 0.841434 0.745032
O O1 0.021183 0.500000 0.863045
O O2 0.309023 0.554457 0.650674
O O3 0.048079 0.605832 0.815091
O O4 0.000000 0.563703 0.000000
O O5 0.877506 0.168490 0.821891
O O6 0.964222 0.195524 0.895321
O O7 0.750000 0.250000 0.000000
O O8 0.603051 0.165371 0.161639
O O9 0.475775 0.714401 0.600443
O O10 0.463926 0.618732 0.609006
O O11 0.721191 0.660993 0.470597
O O12 0.195707 0.277825 0.343782
O O13 0.424622 0.792066 0.197205
O O14 0.500000 0.743243 0.000000
#
# Coordination Sequence:
#
# PCOD9171213 Si02
#       7
#     8   8   8   4   8   4   8
#     4  10  18  27  43  65  87 114 146 179 212 246
#     4  10  19  28  42  60  82 111 146 178 207 250
#     4   9  17  28  42  59  78 113 146 172 206 238
#     4   9  16  26  39  54  77 102 139 176 199 235
#     4  10  19  28  41  59  81 113 142 172 210 246
#     4   9  17  30  45  60  88 118 148 178 204 247
#     4   9  18  30  43  58  84 115 144 175 205 249
#
# _framework density 15.356031
#
# number of rings (size 3 to 8) (size 9 to 14) (size 15 to 20)
#    0.000    2.500    0.000    4.750    0.000    7.333 
#    0.000    0.000    0.000    0.000    0.000    0.000 
#    0.000    0.667    0.000    6.750    0.000    0.000 
#
# Total GULP energy -133621.062856 kJ/mol
# GULP energy per Si atom -5567.544286 kJ/mol
# Density = 1.532108 g / cm^3
# Si number density = 15.356031 Si / 1000 Ang^3
#
#
#
# Elastic Constant Matrix: (Units=GPa)
#
#
# Indices 1 2 3 4 5 6 
#
# 1 53.1776 13.7277 21.8862 -0.0160 -30.0977 0.0035
# 2 13.7277 48.1081 9.1596 -0.0111 -12.6959 0.0065
# 3 21.8862 9.1596 44.2168 -0.0607 -16.9684 -0.0010
# 4 -0.0160 -0.0111 -0.0607 18.5476 0.0227 4.7475
# 5 -30.0977 -12.6959 -16.9684 0.0227 32.9974 0.0065
# 6 0.0035 0.0065 -0.0010 4.7475 0.0065 11.8431
#
#
#
# Elastic Compliance Matrix: (Units=1/GPa)
#
#
# Indices 1 2 3 4 5 6 
#
# 1 0.040812 -0.001586 -0.007252 -0.000025 0.032886 -0.000020
# 2 -0.001586 0.023302 -0.001441 0.000004 0.006778 -0.000018
# 3 -0.007252 -0.001441 0.029593 0.000089 0.008048 -0.000034
# 4 -0.000025 0.000004 0.000089 0.060080 -0.000012 -0.024084
# 5 0.032886 0.006778 0.008048 -0.000012 0.067048 -0.000045
# 6 -0.000020 -0.000018 -0.000034 -0.024084 -0.000045 0.094092
#
#
# Mechanical properties :
#
#
# Convention : Reuss Voigt Hill
#
# Bulk Modulus (GPa) = 13.67090 26.11661 19.89375
# Shear Modulus (GPa) = 13.89396 19.39289 16.64343
#
# Velocity S-wave (km/s) = 3.01123 3.55756 3.29574
# Velocity P-wave (km/s) = 4.58388 5.82403 5.24077
#
# Compressibility (1/GPa) = 0.07314808
#
# Stress axis : x y z
#
# Youngs Moduli (GPa) = 24.50255 42.91442 33.79215
#
# Poissons Ratio (x) = 0.06808 0.24507
# Poissons Ratio (y) = 0.03887 0.04869
# Poissons Ratio (z) = 0.17770 0.06184
#
# Static dielectric constant tensor:
#      x y z
#    x 1.536570 -0.000020 -0.042760 
#    y -0.000020 1.501970 0.000030 
#    z -0.042760 0.000030 1.528070 
# 
# From -- ./inp_files/218904.got.cif
#   From: 2010.05.17/outbox.cif.g08.bks.cpg/sg12_110_cif.got.tgz:218904.got - 2010.06.03 13:09:07.
