data_PCOD9171981
_publ_section_title
;
Structure prediction by ZEFSAII (Michael W. Deem and Ramdas Pophale) SiO2 
 PCOD9171981
Probable space group: C 2/M
;
_chemical_formula_sum "Si O2"
_cell_formula_units_Z 64
_cell_length_a 25.833933
_cell_length_b 8.865854
_cell_length_c 18.177493
_cell_angle_alpha 90.000000
_cell_angle_beta 103.066671
_cell_angle_gamma 90.000000
_cell_volume 4055.571312
_symmetry_space_group_name_H-M "C 2/M"
_symmetry_group_IT_number 12
_symmetry_cell_setting 'monoclinic'
loop_
_space_group_symop_operation_xyz
x,y,z
-x,y,-z
-x,-y,-z
x,-y,z
1/2+x,1/2+y,z
1/2-x,1/2+y,-z
1/2-x,1/2-y,-z
1/2+x,1/2-y,z
loop_
_atom_site_type_symbol
_atom_site_label
_atom_site_fract_x
_atom_site_fract_y
_atom_site_fract_z
Si Si1 0.238949 0.317674 0.576760
Si Si2 0.546275 0.817718 0.685778
Si Si3 0.428784 0.182087 0.593139
Si Si4 0.847817 0.181960 0.685514
Si Si5 0.062211 0.674299 0.996285
Si Si6 0.912293 0.181226 0.846584
Si Si7 0.467171 0.320065 0.161051
Si Si8 0.620307 0.816433 0.577702
O O1 0.238170 0.500000 0.570273
O O2 0.250000 0.250000 0.500000
O O3 0.287782 0.275438 0.645490
O O4 0.181295 0.268414 0.587322
O O5 0.488490 0.774940 0.634595
O O6 0.551362 0.750504 0.768480
O O7 0.591143 0.766980 0.642558
O O8 0.547631 0.000000 0.690973
O O9 0.387200 0.250088 0.637352
O O10 0.412547 0.228983 0.505552
O O11 0.425376 0.000000 0.595210
O O12 0.868642 0.228006 0.772636
O O13 0.851818 0.000000 0.683280
O O14 0.076296 0.500000 0.991209
O O15 0.092871 0.746222 0.074870
O O16 0.064890 0.760532 0.919948
O O17 0.000000 0.682586 0.000000
O O18 0.970594 0.221914 0.832555
O O19 0.911478 0.000000 0.854187
O O20 0.464434 0.500000 0.163348
O O21 0.619955 0.000000 0.578705
#
# Coordination Sequence:
#
# PCOD9171981 Si02
#       8
#     8   8   8   8   8   8   8   8
#     4  10  19  32  50  68  90 121 159 199 239 276
#     4  10  19  30  46  67  93 124 161 197 230 273
#     4  10  18  29  47  67  90 123 160 196 233 274
#     4  10  19  30  46  69  95 124 155 191 234 279
#     4   9  17  28  44  67  93 120 153 187 221 270
#     4   9  17  29  43  63  94 125 151 182 227 280
#     4  10  18  29  45  65  94 127 153 181 229 282
#     4   9  18  32  47  66  91 123 161 200 237 274
#
# _framework density 15.780761999999999
#
# number of rings (size 3 to 8) (size 9 to 14) (size 15 to 20)
#    0.000    2.375    2.500    1.125    0.000    4.000 
#    0.000    1.250    0.000    1.500    0.000    0.875 
#    0.000    0.000    0.000    0.000    0.000    0.000 
#
# Total GULP energy -178401.923594 kJ/mol
# GULP energy per Si atom -5575.060112 kJ/mol
# Density = 1.574484 g / cm^3
# Si number density = 15.780762 Si / 1000 Ang^3
#
#
#
# Elastic Constant Matrix: (Units=GPa)
#
#
# Indices 1 2 3 4 5 6 
#
# 1 90.9145 22.2929 73.1245 0.0000 -11.9054 0.0000
# 2 22.2929 13.4940 37.4820 0.0000 -2.2107 0.0000
# 3 73.1245 37.4820 173.9662 0.0000 -3.2298 0.0000
# 4 0.0000 0.0000 0.0000 25.4460 0.0000 -2.6771
# 5 -11.9054 -2.2107 -3.2298 0.0000 15.7857 0.0000
# 6 0.0000 0.0000 0.0000 -2.6771 0.0000 12.2391
#
#
#
# Elastic Compliance Matrix: (Units=1/GPa)
#
#
# Indices 1 2 3 4 5 6 
#
# 1 0.021133 -0.022132 -0.003891 0.000000 0.012043 0.000000
# 2 -0.022132 0.212845 -0.036451 0.000000 0.005658 0.000000
# 3 -0.003891 -0.036451 0.015145 0.000000 -0.004940 0.000000
# 4 0.000000 0.000000 0.000000 0.040225 0.000000 0.008798
# 5 0.012043 0.005658 -0.004940 0.000000 0.072213 0.000000
# 6 0.000000 0.000000 0.000000 0.008798 0.000000 0.083630
#
#
# Mechanical properties :
#
#
# Convention : Reuss Voigt Hill
#
# Bulk Modulus (GPa) = 8.05306 60.46372 34.25839
# Shear Modulus (GPa) = 8.17621 20.39251 14.28436
#
# Velocity S-wave (km/s) = 2.27868 3.59867 3.01188
# Velocity P-wave (km/s) = 3.46949 7.46092 5.81819
#
# Compressibility (1/GPa) = 0.12417637
#
# Stress axis : x y z
#
# Youngs Moduli (GPa) = 47.31991 4.69824 66.02622
#
# Poissons Ratio (x) = 0.10398 0.25690
# Poissons Ratio (y) = 1.04729 2.40670
# Poissons Ratio (z) = 0.18411 0.17125
#
# Static dielectric constant tensor:
#      x y z
#    x 1.510170 0.000000 0.014340 
#    y 0.000000 1.532460 0.000000 
#    z 0.014340 0.000000 1.522830 
# 
# From -- ./inp_files/244196.got.cif
#   From: 2010.05.17/outbox.cif.g08.bks.cpg/sg12_123_cif.got.tgz:244196.got - 2010.06.03 13:09:07.
