data_PCOD9171571
_publ_section_title
;
Structure prediction by ZEFSAII (Michael W. Deem and Ramdas Pophale) SiO2 
 PCOD9171571
Probable space group: C 2/M
;
_chemical_formula_sum "Si O2"
_cell_formula_units_Z 56
_cell_length_a 27.914789
_cell_length_b 8.986332
_cell_length_c 16.587861
_cell_angle_alpha 90.000000
_cell_angle_beta 115.702949
_cell_angle_gamma 90.000000
_cell_volume 3749.370455
_symmetry_space_group_name_H-M "C 2/M"
_symmetry_group_IT_number 12
_symmetry_cell_setting 'monoclinic'
loop_
_space_group_symop_operation_xyz
x,y,z
-x,y,-z
-x,-y,-z
x,-y,z
1/2+x,1/2+y,z
1/2-x,1/2+y,-z
1/2-x,1/2-y,-z
1/2+x,1/2-y,z
loop_
_atom_site_type_symbol
_atom_site_label
_atom_site_fract_x
_atom_site_fract_y
_atom_site_fract_z
Si Si1 0.897937 0.822665 0.308783
Si Si2 0.014564 0.178720 0.320993
Si Si3 0.691137 0.177511 0.048512
Si Si4 0.586200 0.319947 0.040227
Si Si5 0.515381 0.680547 0.138422
Si Si6 0.804335 0.677593 0.138019
Si Si7 0.440351 0.828612 0.493986
O O1 0.849913 0.746296 0.226745
O O2 0.904810 0.760324 0.404166
O O3 0.953664 0.790409 0.303355
O O4 0.978526 0.000000 0.670004
O O5 0.022556 0.230991 0.235168
O O6 0.053094 0.254476 0.414001
O O7 0.891099 0.000000 0.305059
O O8 0.746955 0.251079 0.113816
O O9 0.693888 0.000000 0.060187
O O10 0.641716 0.245140 0.060332
O O11 0.683637 0.210133 0.947514
O O12 0.591316 0.500000 0.041870
O O13 0.541424 0.276491 0.941406
O O14 0.560999 0.276740 0.108165
O O15 0.515008 0.500000 0.139597
O O16 0.802050 0.500000 0.146018
O O17 0.500000 0.825210 0.500000
O O18 0.423647 0.000000 0.487290
#
# Coordination Sequence:
#
# PCOD9171571 Si02
#       7
#     8   8   8   8   8   8   8
#     4  10  18  28  45  67  90 116 146 182 221 260
#     4   9  16  27  43  64  90 119 150 182 217 257
#     4  10  20  32  45  64  90 117 147 184 221 256
#     4   9  16  29  47  65  88 119 152 183 217 257
#     4   8  15  27  45  67  89 117 152 184 215 257
#     4  10  20  32  46  64  87 117 150 181 217 262
#     4   9  17  28  41  60  88 119 148 179 217 261
#
# _framework density 14.935840000000001
#
# number of rings (size 3 to 8) (size 9 to 14) (size 15 to 20)
#    0.000    2.714    0.000    3.429    0.000    5.143 
#    0.000    2.857    0.000    0.000    0.000    1.000 
#    0.000    0.000    0.000    0.000    0.000    0.000 
#
# Total GULP energy -156063.822432 kJ/mol
# GULP energy per Si atom -5573.707944 kJ/mol
# Density = 1.490185 g / cm^3
# Si number density = 14.935840 Si / 1000 Ang^3
#
#
#
# Elastic Constant Matrix: (Units=GPa)
#
#
# Indices 1 2 3 4 5 6 
#
# 1 85.6104 42.3537 56.0286 0.0000 1.2466 0.0000
# 2 42.3537 50.2136 54.2495 0.0000 5.1211 0.0000
# 3 56.0286 54.2495 136.5159 0.0000 -1.8280 0.0000
# 4 0.0000 0.0000 0.0000 25.7321 0.0000 4.6060
# 5 1.2466 5.1211 -1.8280 0.0000 23.8351 0.0000
# 6 0.0000 0.0000 0.0000 4.6060 0.0000 21.0230
#
#
#
# Elastic Compliance Matrix: (Units=1/GPa)
#
#
# Indices 1 2 3 4 5 6 
#
# 1 0.020688 -0.014896 -0.002546 0.000000 0.001923 0.000000
# 2 -0.014896 0.047463 -0.012887 0.000000 -0.010407 0.000000
# 3 -0.002546 -0.012887 0.013544 0.000000 0.003941 0.000000
# 4 0.000000 0.000000 0.000000 0.040448 0.000000 -0.008862
# 5 0.001923 -0.010407 0.003941 0.000000 0.044393 0.000000
# 6 0.000000 0.000000 0.000000 -0.008862 0.000000 0.049509
#
#
# Mechanical properties :
#
#
# Convention : Reuss Voigt Hill
#
# Bulk Modulus (GPa) = 47.53234 64.17817 55.85525
# Shear Modulus (GPa) = 17.62332 22.09856 19.86094
#
# Velocity S-wave (km/s) = 3.43874 3.85069 3.65053
# Velocity P-wave (km/s) = 6.90363 7.92672 7.43280
#
# Compressibility (1/GPa) = 0.02103831
#
# Stress axis : x y z
#
# Youngs Moduli (GPa) = 48.33669 21.06886 73.83393
#
# Poissons Ratio (x) = 0.31384 0.18796
# Poissons Ratio (y) = 0.72001 0.95151
# Poissons Ratio (z) = 0.12305 0.27152
#
# Static dielectric constant tensor:
#      x y z
#    x 1.471330 0.000000 -0.013360 
#    y 0.000000 1.497490 0.000000 
#    z -0.013360 0.000000 1.487590 
# 
# From -- ./inp_files/243697.got.cif
#   From: 2010.05.17/outbox.cif.g08.bks.cpg/sg12_122_cif.got.tgz:243697.got - 2010.06.03 13:09:07.
