data_PCOD9171233
_publ_section_title
;
Structure prediction by ZEFSAII (Michael W. Deem and Ramdas Pophale) SiO2 
 PCOD9171233
Probable space group: C 2/M
;
_chemical_formula_sum "Si O2"
_cell_formula_units_Z 64
_cell_length_a 13.483057
_cell_length_b 20.506936
_cell_length_c 14.644472
_cell_angle_alpha 90.000000
_cell_angle_beta 49.339953
_cell_angle_gamma 90.000000
_cell_volume 3071.633034
_symmetry_space_group_name_H-M "C 2/M"
_symmetry_group_IT_number 12
_symmetry_cell_setting 'monoclinic'
loop_
_space_group_symop_operation_xyz
x,y,z
-x,y,-z
-x,-y,-z
x,-y,z
1/2+x,1/2+y,z
1/2-x,1/2+y,-z
1/2-x,1/2-y,-z
1/2+x,1/2-y,z
loop_
_atom_site_type_symbol
_atom_site_label
_atom_site_fract_x
_atom_site_fract_y
_atom_site_fract_z
Si Si1 0.972692 0.795896 0.717915
Si Si2 0.324853 0.286201 0.537211
Si Si3 0.748235 0.573685 0.990031
Si Si4 0.710466 0.865357 0.852964
Si Si5 0.637424 0.380106 0.878854
Si Si6 0.550008 0.571001 0.752085
Si Si7 0.616754 0.756894 0.799022
Si Si8 0.658447 0.426803 0.399719
O O1 0.026636 0.777243 0.586029
O O2 0.048683 0.864615 0.691814
O O3 0.015006 0.750697 0.776753
O O4 0.821044 0.811592 0.811949
O O5 0.250000 0.250000 0.500000
O O6 0.259012 0.255228 0.665424
O O7 0.296657 0.363355 0.570159
O O8 0.788498 0.500000 0.946242
O O9 0.826219 0.601425 0.029950
O O10 0.598239 0.572178 0.118582
O O11 0.740208 0.611695 0.898836
O O12 0.605475 0.824066 0.859911
O O13 0.785376 0.913214 0.736446
O O14 0.651085 0.417909 0.774772
O O15 0.611423 0.305694 0.866534
O O16 0.500000 0.406955 0.000000
O O17 0.569483 0.500000 0.696888
O O18 0.500000 0.424741 0.500000
O O19 0.698774 0.500000 0.403213
#
# Coordination Sequence:
#
# PCOD9171233 Si02
#       8
#     8   8   8   8   8   8   8   8
#     4   9  16  28  42  62  90 122 152 181 222 270
#     4   9  17  30  44  61  94 131 162 190 219 277
#     4   9  16  25  40  60  85 116 144 173 221 284
#     4  10  18  29  44  64  94 123 151 184 225 283
#     4   9  16  28  42  60  88 118 148 187 229 270
#     4   8  14  23  39  62  88 117 145 169 210 280
#     4   9  19  29  42  61  86 121 154 193 223 265
#     4  10  18  27  43  69 100 129 153 184 235 295
#
# _framework density 20.835820999999999
#
# number of rings (size 3 to 8) (size 9 to 14) (size 15 to 20)
#    0.000    2.875    1.250    1.500    0.000    3.000 
#    0.000    0.000    0.000    0.000    0.000    0.000 
#    0.000   78.000    0.000   25.250    0.000    0.000 
#
# Total GULP energy -178165.675840 kJ/mol
# GULP energy per Si atom -5567.677370 kJ/mol
# Density = 2.078840 g / cm^3
# Si number density = 20.835821 Si / 1000 Ang^3
#
#
#
# Elastic Constant Matrix: (Units=GPa)
#
#
# Indices 1 2 3 4 5 6 
#
# 1 35.3999 34.9660 25.4407 0.0000 18.1332 0.0000
# 2 34.9660 63.3332 11.2399 0.0000 14.6997 0.0000
# 3 25.4407 11.2399 62.5675 0.0000 22.7209 0.0000
# 4 0.0000 0.0000 0.0000 8.7194 0.0000 2.3913
# 5 18.1332 14.6997 22.7209 0.0000 30.7016 0.0000
# 6 0.0000 0.0000 0.0000 2.3913 0.0000 22.7148
#
#
#
# Elastic Compliance Matrix: (Units=1/GPa)
#
#
# Indices 1 2 3 4 5 6 
#
# 1 0.106981 -0.049771 -0.027715 0.000000 -0.018845 0.000000
# 2 -0.049771 0.040920 0.012754 0.000000 0.000366 0.000000
# 3 -0.027715 0.012754 0.029038 0.000000 -0.011227 0.000000
# 4 0.000000 0.000000 0.000000 0.118097 0.000000 -0.012433
# 5 -0.018845 0.000366 -0.011227 0.000000 0.051835 0.000000
# 6 0.000000 0.000000 0.000000 -0.012433 0.000000 0.045333
#
#
# Mechanical properties :
#
#
# Convention : Reuss Voigt Hill
#
# Bulk Modulus (GPa) = 21.06452 33.84377 27.45415
# Shear Modulus (GPa) = 9.30244 18.40410 13.85327
#
# Velocity S-wave (km/s) = 2.11526 2.97525 2.58132
# Velocity P-wave (km/s) = 4.01217 5.29916 4.69993
#
# Compressibility (1/GPa) = 0.04747319
#
# Stress axis : x y z
#
# Youngs Moduli (GPa) = 9.34744 24.43813 34.43789
#
# Poissons Ratio (x) = 1.21632 0.95446
# Poissons Ratio (y) = 0.46523 -0.43921
# Poissons Ratio (z) = 0.25907 -0.31168
#
# Static dielectric constant tensor:
#      x y z
#    x 1.802640 0.000000 0.019570 
#    y 0.000000 1.781310 0.000000 
#    z 0.019570 0.000000 1.814600 
# 
# From -- ./inp_files/217203.got.cif
#   From: 2010.05.17/outbox.cif.g08.bks.cpg/sg12_109_cif.got.tgz:217203.got - 2010.06.03 13:09:07.
