data_PCOD9171180
_publ_section_title
;
Structure prediction by ZEFSAII (Michael W. Deem and Ramdas Pophale) SiO2 
 PCOD9171180
Probable space group: C 2/M
;
_chemical_formula_sum "Si O2"
_cell_formula_units_Z 64
_cell_length_a 25.127973
_cell_length_b 7.395632
_cell_length_c 16.092560
_cell_angle_alpha 90.000000
_cell_angle_beta 92.166910
_cell_angle_gamma 90.000000
_cell_volume 2988.458438
_symmetry_space_group_name_H-M "C 2/M"
_symmetry_group_IT_number 12
_symmetry_cell_setting 'monoclinic'
loop_
_space_group_symop_operation_xyz
x,y,z
-x,y,-z
-x,-y,-z
x,-y,z
1/2+x,1/2+y,z
1/2-x,1/2+y,-z
1/2-x,1/2-y,-z
1/2+x,1/2-y,z
loop_
_atom_site_type_symbol
_atom_site_label
_atom_site_fract_x
_atom_site_fract_y
_atom_site_fract_z
Si Si1 0.954612 0.221440 0.188677
Si Si2 0.255096 0.205544 0.780175
Si Si3 0.143233 0.711304 0.301870
Si Si4 0.339627 0.721188 0.125220
Si Si5 0.827774 0.220417 0.939559
Si Si6 0.078977 0.217418 0.454027
Si Si7 0.431013 0.707017 0.853008
Si Si8 0.536461 0.720169 0.621656
O O1 0.900718 0.275105 0.139903
O O2 0.951566 0.278859 0.284710
O O3 0.010271 0.286303 0.153010
O O4 0.956558 0.000000 0.188673
O O5 0.298736 0.286351 0.719864
O O6 0.198317 0.285791 0.802352
O O7 0.286520 0.206318 0.869972
O O8 0.244965 0.000000 0.751346
O O9 0.144031 0.500000 0.279628
O O10 0.126343 0.727880 0.396097
O O11 0.097883 0.792970 0.239142
O O12 0.338060 0.500000 0.126604
O O13 0.318781 0.776388 0.033464
O O14 0.886460 0.281332 0.912455
O O15 0.825868 0.000000 0.934221
O O16 0.075702 0.277730 0.549531
O O17 0.023187 0.275662 0.408510
O O18 0.078648 0.000000 0.454579
O O19 0.438727 0.500000 0.880153
O O20 0.536673 0.500000 0.622156
#
# Coordination Sequence:
#
# PCOD9171180 Si02
#       8
#     8   8   8   8   8   8   8   8
#     4   9  15  25  44  66  89 115 141 173 214 261
#     4   9  18  31  45  62  86 117 149 181 213 249
#     4  10  18  27  42  64  89 115 144 177 216 254
#     4   9  17  28  43  65  89 113 146 183 215 251
#     4   9  17  28  45  69  89 108 141 186 224 251
#     4   9  15  26  45  67  89 110 139 177 214 254
#     4   9  16  27  44  65  89 114 140 174 220 261
#     4   8  14  24  42  67  90 112 137 171 213 258
#
# _framework density 21.415724000000001
#
# number of rings (size 3 to 8) (size 9 to 14) (size 15 to 20)
#    0.000    3.000    1.250    1.500    0.000    1.000 
#    0.000    3.750    0.000    2.250    0.000    3.500 
#    0.000    0.000    0.000    0.000    0.000    0.375 
#
# Total GULP energy -178454.841160 kJ/mol
# GULP energy per Si atom -5576.713786 kJ/mol
# Density = 2.136698 g / cm^3
# Si number density = 21.415724 Si / 1000 Ang^3
#
#
#
# Elastic Constant Matrix: (Units=GPa)
#
#
# Indices 1 2 3 4 5 6 
#
# 1 95.0557 -3.5217 4.2068 0.0000 -37.1191 0.0000
# 2 -3.5217 75.1052 -5.5446 0.0000 -0.8278 0.0000
# 3 4.2068 -5.5446 42.5778 0.0000 -28.2743 0.0000
# 4 0.0000 0.0000 0.0000 -1.4168 0.0000 -1.3962
# 5 -37.1191 -0.8278 -28.2743 0.0000 36.6420 0.0000
# 6 0.0000 0.0000 0.0000 -1.3962 0.0000 2.3905
#
#
#
# Elastic Compliance Matrix: (Units=1/GPa)
#
#
# Indices 1 2 3 4 5 6 
#
# 1 0.037255 0.005920 0.045614 0.000000 0.073071 0.000000
# 2 0.005920 0.014593 0.011314 0.000000 0.015057 0.000000
# 3 0.045614 0.011314 0.105228 0.000000 0.127661 0.000000
# 4 0.000000 0.000000 0.000000 -0.447970 0.000000 -0.261648
# 5 0.073071 0.015057 0.127661 0.000000 0.200162 0.000000
# 6 0.000000 0.000000 0.000000 -0.261648 0.000000 0.265496
#
#
# Mechanical properties :
#
#
# Convention : Reuss Voigt Hill
#
# Bulk Modulus (GPa) = 3.53642 22.55775 13.04708
# Shear Modulus (GPa) = 34.88527 22.02969 28.45748
#
# Velocity S-wave (km/s) = 4.04041 3.21077 3.64924
# Velocity P-wave (km/s) = 4.83957 4.92965 4.88482
#
# Compressibility (1/GPa) = 0.28277219
#
# Stress axis : x y z
#
# Youngs Moduli (GPa) = 26.84211 68.52380 9.50316
#
# Poissons Ratio (x) = -0.40564 -0.43347
# Poissons Ratio (y) = -0.15890 -0.10752
# Poissons Ratio (z) = -1.22437 -0.77530
#
# Static dielectric constant tensor:
#      x y z
#    x 1.790520 0.000000 -0.046310 
#    y 0.000000 1.835800 0.000000 
#    z -0.046310 0.000000 1.746690 
# 
# From -- ./inp_files/287628.got.cif
#   From: 2010.05.17/outbox.cif.g08.bks.cpg/sg12_144_cif.got.tgz:287628.got - 2010.06.03 13:09:07.
