data_PCOD9171008
_publ_section_title
;
Structure prediction by ZEFSAII (Michael W. Deem and Ramdas Pophale) SiO2 
 PCOD9171008
Probable space group: C 2/M
;
_chemical_formula_sum "Si O2"
_cell_formula_units_Z 64
_cell_length_a 25.662329
_cell_length_b 7.812534
_cell_length_c 17.226687
_cell_angle_alpha 90.000000
_cell_angle_beta 69.983453
_cell_angle_gamma 90.000000
_cell_volume 3245.113544
_symmetry_space_group_name_H-M "C 2/M"
_symmetry_group_IT_number 12
_symmetry_cell_setting 'monoclinic'
loop_
_space_group_symop_operation_xyz
x,y,z
-x,y,-z
-x,-y,-z
x,-y,z
1/2+x,1/2+y,z
1/2-x,1/2+y,-z
1/2-x,1/2-y,-z
1/2+x,1/2-y,z
loop_
_atom_site_type_symbol
_atom_site_label
_atom_site_fract_x
_atom_site_fract_y
_atom_site_fract_z
Si Si1 0.053098 0.710111 0.640103
Si Si2 0.235456 0.307094 0.744441
Si Si3 0.852287 0.799014 0.728070
Si Si4 0.096686 0.305154 0.460585
Si Si5 0.945829 0.705291 0.791810
Si Si6 0.223652 0.694413 0.433914
Si Si7 0.992974 0.291110 0.091118
Si Si8 0.617138 0.209051 0.758398
O O1 0.054549 0.500000 0.636025
O O2 0.059238 0.773142 0.548273
O O3 0.100798 0.761208 0.678407
O O4 0.995388 0.763438 0.709178
O O5 0.227747 0.500000 0.780123
O O6 0.289969 0.221564 0.755321
O O7 0.255695 0.314027 0.645068
O O8 0.174534 0.227022 0.766306
O O9 0.889423 0.759988 0.632615
O O10 0.887384 0.751928 0.785161
O O11 0.843357 0.000000 0.731131
O O12 0.077511 0.500000 0.458310
O O13 0.157323 0.303017 0.469900
O O14 0.949608 0.500000 0.790796
O O15 0.960295 0.765488 0.871079
O O16 0.240094 0.500000 0.406189
O O17 0.250000 0.750000 0.500000
O O18 0.994291 0.500000 0.088008
O O19 0.934567 0.245070 0.160572
O O20 0.000000 0.228926 0.000000
O O21 0.620617 0.000000 0.754007
#
# Coordination Sequence:
#
# PCOD9171008 Si02
#       8
#     8   8   8   8   8   8   8   8
#     4   8  14  25  43  65  84 108 147 190 226 263
#     4   9  17  29  44  61  84 118 155 187 219 259
#     4  10  20  31  42  60  88 121 156 187 215 253
#     4   9  17  29  43  58  80 114 156 194 224 255
#     4   9  17  30  48  67  88 115 144 176 220 270
#     4  10  18  26  39  59  84 116 152 192 233 268
#     4   8  14  26  49  80 100 107 131 182 232 268
#     4   8  13  24  44  68  92 115 142 182 230 271
#
# _framework density 19.721958999999998
#
# number of rings (size 3 to 8) (size 9 to 14) (size 15 to 20)
#    0.000    3.125    0.000    3.000    0.000    3.500 
#    0.000    3.125    0.000    5.625    0.000    0.000 
#    0.000    0.000    0.000    0.000    0.000    0.375 
#
# Total GULP energy -178167.675410 kJ/mol
# GULP energy per Si atom -5567.739857 kJ/mol
# Density = 1.967707 g / cm^3
# Si number density = 19.721959 Si / 1000 Ang^3
#
#
#
# Elastic Constant Matrix: (Units=GPa)
#
#
# Indices 1 2 3 4 5 6 
#
# 1 118.5545 -1.1444 38.3393 0.0000 30.1320 0.0000
# 2 -1.1444 29.3907 -2.7725 0.0000 1.5104 0.0000
# 3 38.3393 -2.7725 63.8094 0.0000 17.9817 0.0000
# 4 0.0000 0.0000 0.0000 -1.9083 0.0000 0.7372
# 5 30.1320 1.5104 17.9817 0.0000 22.8796 0.0000
# 6 0.0000 0.0000 0.0000 0.7372 0.0000 9.4769
#
#
#
# Elastic Compliance Matrix: (Units=1/GPa)
#
#
# Indices 1 2 3 4 5 6 
#
# 1 0.013439 0.000911 -0.003893 0.000000 -0.014699 0.000000
# 2 0.000911 0.034574 0.002487 0.000000 -0.005437 0.000000
# 3 -0.003893 0.002487 0.021477 0.000000 -0.011917 0.000000
# 4 0.000000 0.000000 0.000000 -0.508735 0.000000 0.039575
# 5 -0.014699 -0.005437 -0.011917 0.000000 0.072790 0.000000
# 6 0.000000 0.000000 0.000000 0.039575 0.000000 0.102441
#
#
# Mechanical properties :
#
#
# Convention : Reuss Voigt Hill
#
# Bulk Modulus (GPa) = 14.59844 31.17772 22.88808
# Shear Modulus (GPa) = -20.81664 17.91179 -1.45242
#
# Velocity S-wave (km/s) = -3.25238 3.01693 -0.85910
# Velocity P-wave (km/s) = 2.58568 5.28950 3.26290
#
# Compressibility (1/GPa) = 0.06850047
#
# Stress axis : x y z
#
# Youngs Moduli (GPa) = 74.41297 28.92362 46.56201
#
# Poissons Ratio (x) = -0.02636 0.18124
# Poissons Ratio (y) = -0.06782 -0.11579
# Poissons Ratio (z) = 0.28966 -0.07193
#
# Static dielectric constant tensor:
#      x y z
#    x 1.768520 0.000000 0.010240 
#    y 0.000000 1.771100 0.000000 
#    z 0.010240 0.000000 1.675350 
# 
# From -- ./inp_files/243963.got.cif
#   From: 2010.05.17/outbox.cif.g08.bks.cpg/sg12_122_cif.got.tgz:243963.got - 2010.06.03 13:09:07.
