data_PCOD9171266
_publ_section_title
;
Structure prediction by ZEFSAII (Michael W. Deem and Ramdas Pophale) SiO2 
 PCOD9171266
Probable space group: C 2/M
;
_chemical_formula_sum "Si O2"
_cell_formula_units_Z 56
_cell_length_a 14.489114
_cell_length_b 11.633881
_cell_length_c 18.589337
_cell_angle_alpha 90.000000
_cell_angle_beta 48.270267
_cell_angle_gamma 90.000000
_cell_volume 2338.512193
_symmetry_space_group_name_H-M "C 2/M"
_symmetry_group_IT_number 12
_symmetry_cell_setting 'monoclinic'
loop_
_space_group_symop_operation_xyz
x,y,z
-x,y,-z
-x,-y,-z
x,-y,z
1/2+x,1/2+y,z
1/2-x,1/2+y,-z
1/2-x,1/2-y,-z
1/2+x,1/2-y,z
loop_
_atom_site_type_symbol
_atom_site_label
_atom_site_fract_x
_atom_site_fract_y
_atom_site_fract_z
Si Si1 0.932517 0.125674 0.611482
Si Si2 0.106972 0.372464 0.886652
Si Si3 0.102536 0.124513 0.085050
Si Si4 0.845611 0.125001 0.285939
Si Si5 0.090926 0.375885 0.328195
Si Si6 0.272851 0.803757 0.873498
Si Si7 0.646636 0.125629 0.709944
O O1 0.966241 0.248782 0.629609
O O2 0.786552 0.123645 0.668641
O O3 0.000000 0.125690 0.500000
O O4 0.959766 0.000000 0.632939
O O5 0.155878 0.500000 0.875190
O O6 0.210210 0.280473 0.848733
O O7 0.065153 0.372184 0.825572
O O8 0.000000 0.352461 0.000000
O O9 0.155682 0.224032 0.107335
O O10 0.954597 0.125635 0.169070
O O11 0.143635 0.000000 0.092204
O O12 0.163550 0.136758 0.975122
O O13 0.713006 0.124806 0.315833
O O14 0.863011 0.246503 0.318582
O O15 0.857729 0.000000 0.317253
O O16 0.027604 0.500000 0.377151
O O17 0.134910 0.377276 0.222326
O O18 0.628891 0.000000 0.683270
#
# Coordination Sequence:
#
# PCOD9171266 Si02
#       7
#     8   8   8   8   8   8   8
#     4   9  17  30  50  77 107 135 164 206 261 313
#     4  10  18  27  44  69  96 128 167 207 248 293
#     4  10  22  34  46  67 100 141 178 214 254 299
#     4   9  17  32  49  70  98 130 169 207 251 300
#     4  10  20  33  53  77 102 132 169 214 260 308
#     4  11  20  32  48  67  98 136 175 215 254 299
#     4   9  16  29  47  72 100 126 163 205 246 295
#
# _framework density 23.946850000000001
#
# number of rings (size 3 to 8) (size 9 to 14) (size 15 to 20)
#    0.000    2.286    2.857    1.714    0.000    0.857 
#    0.000    5.714    0.000    0.000    0.000    4.000 
#    0.000    2.286    0.000    0.000    0.000    0.000 
#
# Total GULP energy -156051.988916 kJ/mol
# GULP energy per Si atom -5573.285318 kJ/mol
# Density = 2.389235 g / cm^3
# Si number density = 23.946850 Si / 1000 Ang^3
#
#
#
# Elastic Constant Matrix: (Units=GPa)
#
#
# Indices 1 2 3 4 5 6 
#
# 1 55.8229 22.5429 3.7322 0.0000 2.1286 0.0000
# 2 22.5429 264.7195 24.6719 0.0000 6.9588 0.0000
# 3 3.7322 24.6719 27.7852 0.0000 4.2700 0.0000
# 4 0.0000 0.0000 0.0000 -1.7344 0.0000 7.0048
# 5 2.1286 6.9588 4.2700 0.0000 5.2040 0.0000
# 6 0.0000 0.0000 0.0000 7.0048 0.0000 -1.0326
#
#
#
# Elastic Compliance Matrix: (Units=1/GPa)
#
#
# Indices 1 2 3 4 5 6 
#
# 1 0.018719 -0.001412 -0.000428 0.000000 -0.005417 0.000000
# 2 -0.001412 0.004263 -0.003213 0.000000 -0.002486 0.000000
# 3 -0.000428 -0.003213 0.043728 0.000000 -0.031407 0.000000
# 4 0.000000 0.000000 0.000000 0.021841 0.000000 0.148166
# 5 -0.005417 -0.002486 -0.031407 0.000000 0.223468 0.000000
# 6 0.000000 0.000000 0.000000 0.148166 0.000000 0.036686
#
#
# Mechanical properties :
#
#
# Convention : Reuss Voigt Hill
#
# Bulk Modulus (GPa) = 17.66695 50.02461 33.84578
# Shear Modulus (GPa) = 13.23877 20.31279 16.77578
#
# Velocity S-wave (km/s) = 2.35381 2.91562 2.64965
# Velocity P-wave (km/s) = 3.84458 5.68064 4.85028
#
# Compressibility (1/GPa) = 0.05660287
#
# Stress axis : x y z
#
# Youngs Moduli (GPa) = 53.42132 234.59641 22.86868
#
# Poissons Ratio (x) = 0.33119 0.00979
# Poissons Ratio (y) = 0.07542 0.07349
# Poissons Ratio (z) = 0.02288 0.75384
#
# Static dielectric constant tensor:
#      x y z
#    x 1.883160 0.000000 -0.036470 
#    y 0.000000 2.030180 0.000000 
#    z -0.036470 0.000000 1.970300 
# 
# From -- ./inp_files/343003.got.cif
#   From: 2010.05.17/outbox.cif.g08.bks.cpg/sg12_172_cif.got.tgz:343003.got - 2010.06.03 13:09:07.
