data_PCOD9171889
_publ_section_title
;
Structure prediction by ZEFSAII (Michael W. Deem and Ramdas Pophale) SiO2 
 PCOD9171889
Probable space group: C 2/M
;
_chemical_formula_sum "Si O2"
_cell_formula_units_Z 56
_cell_length_a 5.620545
_cell_length_b 26.840862
_cell_length_c 18.820819
_cell_angle_alpha 90.000000
_cell_angle_beta 63.226423
_cell_angle_gamma 90.000000
_cell_volume 2534.921420
_symmetry_space_group_name_H-M "C 2/M"
_symmetry_group_IT_number 12
_symmetry_cell_setting 'monoclinic'
loop_
_space_group_symop_operation_xyz
x,y,z
-x,y,-z
-x,-y,-z
x,-y,z
1/2+x,1/2+y,z
1/2-x,1/2+y,-z
1/2-x,1/2-y,-z
1/2+x,1/2-y,z
loop_
_atom_site_type_symbol
_atom_site_label
_atom_site_fract_x
_atom_site_fract_y
_atom_site_fract_z
Si Si1 0.793915 0.556633 0.471248
Si Si2 0.322935 0.372124 0.724218
Si Si3 0.368207 0.907175 0.695257
Si Si4 0.721342 0.694094 0.910358
Si Si5 0.441011 0.440575 0.120057
Si Si6 0.805114 0.192433 0.854906
Si Si7 0.056226 0.560593 0.880669
O O1 0.500000 0.579643 0.500000
O O2 0.743709 0.500000 0.503742
O O3 0.000000 0.579809 0.500000
O O4 0.950437 0.556256 0.375688
O O5 0.631254 0.387690 0.675537
O O6 0.341749 0.322118 0.768299
O O7 0.198438 0.414993 0.792722
O O8 0.096897 0.369326 0.694208
O O9 0.212908 0.929750 0.784497
O O10 0.805085 0.749404 0.873167
O O11 0.554471 0.670445 0.866882
O O12 0.998268 0.674317 0.906189
O O13 0.500000 0.699472 0.000000
O O14 0.455005 0.500000 0.110523
O O15 0.745422 0.424296 0.083641
O O16 0.248056 0.422784 0.083798
O O17 0.061105 0.500000 0.875667
#
# Coordination Sequence:
#
# PCOD9171889 Si02
#       7
#     8   8   8   8   8   8   8
#     4  10  20  32  46  64  86 122 175 221 251 289
#     4  10  19  28  43  66  93 125 155 192 241 286
#     4  10  18  29  41  58  87 121 153 195 245 288
#     4  10  19  33  53  74 101 134 157 181 226 279
#     4   8  13  21  34  49  67  99 140 174 212 261
#     4  10  18  30  47  72 101 127 159 192 221 279
#     4   8  14  23  34  51  77 109 143 175 212 260
#
# _framework density 22.091415000000001
#
# number of rings (size 3 to 8) (size 9 to 14) (size 15 to 20)
#    0.000    2.571    0.000    4.286    0.000    1.143 
#    0.000    4.286    0.000    0.000    0.000    0.000 
#    0.000    6.286    0.000  180.000    0.000    0.000 
#
# Total GULP energy -155886.468013 kJ/mol
# GULP energy per Si atom -5567.373858 kJ/mol
# Density = 2.204113 g / cm^3
# Si number density = 22.091415 Si / 1000 Ang^3
#
#
#
# Elastic Constant Matrix: (Units=GPa)
#
#
# Indices 1 2 3 4 5 6 
#
# 1 277.9344 17.3922 30.1401 0.0000 1.2255 0.0000
# 2 17.3922 40.2230 8.6296 0.0000 -2.1681 0.0000
# 3 30.1401 8.6296 48.4729 0.0000 -9.5647 0.0000
# 4 0.0000 0.0000 0.0000 21.9233 0.0000 0.9656
# 5 1.2255 -2.1681 -9.5647 0.0000 31.6209 0.0000
# 6 0.0000 0.0000 0.0000 0.9656 0.0000 26.6140
#
#
#
# Elastic Compliance Matrix: (Units=1/GPa)
#
#
# Indices 1 2 3 4 5 6 
#
# 1 0.003942 -0.001237 -0.002423 0.000000 -0.000970 0.000000
# 2 -0.001237 0.026242 -0.003763 0.000000 0.000709 0.000000
# 3 -0.002423 -0.003763 0.024219 0.000000 0.007162 0.000000
# 4 0.000000 0.000000 0.000000 0.045687 0.000000 -0.001658
# 5 -0.000970 0.000709 0.007162 0.000000 0.033877 0.000000
# 6 0.000000 0.000000 0.000000 -0.001658 0.000000 0.037634
#
#
# Mechanical properties :
#
#
# Convention : Reuss Voigt Hill
#
# Bulk Modulus (GPa) = 25.27875 53.21710 39.24793
# Shear Modulus (GPa) = 25.04597 36.72952 30.88775
#
# Velocity S-wave (km/s) = 3.37076 4.08194 3.74328
# Velocity P-wave (km/s) = 5.15917 6.80868 6.04049
#
# Compressibility (1/GPa) = 0.03955891
#
# Stress axis : x y z
#
# Youngs Moduli (GPa) = 253.65376 38.10715 41.28912
#
# Poissons Ratio (x) = 0.04715 0.10003
# Poissons Ratio (y) = 0.31383 0.15535
# Poissons Ratio (z) = 0.61449 0.14338
#
# Static dielectric constant tensor:
#      x y z
#    x 1.979400 0.000000 0.049200 
#    y 0.000000 2.285460 0.000000 
#    z 0.049200 0.000000 1.817550 
# 
# From -- ./inp_files/253865.got.cif
#   From: 2010.05.17/outbox.cif.g08.bks.cpg/sg12_127_cif.got.tgz:253865.got - 2010.06.03 13:09:07.
