data_PCOD9171609
_publ_section_title
;
Structure prediction by ZEFSAII (Michael W. Deem and Ramdas Pophale) SiO2 
 PCOD9171609
Probable space group: C 2/M
;
_chemical_formula_sum "Si O2"
_cell_formula_units_Z 56
_cell_length_a 14.121727
_cell_length_b 18.956468
_cell_length_c 13.675248
_cell_angle_alpha 90.000000
_cell_angle_beta 112.360761
_cell_angle_gamma 90.000000
_cell_volume 3385.567333
_symmetry_space_group_name_H-M "C 2/M"
_symmetry_group_IT_number 12
_symmetry_cell_setting 'monoclinic'
loop_
_space_group_symop_operation_xyz
x,y,z
-x,y,-z
-x,-y,-z
x,-y,z
1/2+x,1/2+y,z
1/2-x,1/2+y,-z
1/2-x,1/2-y,-z
1/2+x,1/2-y,z
loop_
_atom_site_type_symbol
_atom_site_label
_atom_site_fract_x
_atom_site_fract_y
_atom_site_fract_z
Si Si1 0.029539 0.418885 0.126026
Si Si2 0.979658 0.915716 0.377673
Si Si3 0.761551 0.915041 0.201648
Si Si4 0.329668 0.705098 0.900589
Si Si5 0.380271 0.417584 0.057423
Si Si6 0.898049 0.287592 0.114889
Si Si7 0.452396 0.666639 0.769682
O O1 0.022613 0.500000 0.159987
O O2 0.147039 0.391423 0.182535
O O3 0.950604 0.363608 0.140042
O O4 0.000000 0.421707 0.000000
O O5 0.861569 0.895493 0.304278
O O6 0.000000 0.906507 0.500000
O O7 0.054493 0.868111 0.339877
O O8 0.990501 0.000000 0.359087
O O9 0.792960 0.897220 0.102780
O O10 0.755885 0.000000 0.202821
O O11 0.211141 0.714776 0.876232
O O12 0.361139 0.698354 0.799933
O O13 0.361741 0.629937 0.957561
O O14 0.385783 0.760748 0.996469
O O15 0.376091 0.500000 0.037517
O O16 0.487334 0.395089 0.147651
O O17 0.968146 0.231021 0.197065
#
# Coordination Sequence:
#
# PCOD9171609 Si02
#       7
#     8   8   8   8   8   8   8
#     4  10  18  28  45  69  97 131 169 201 231 277
#     4   9  18  34  55  77  98 121 159 211 256 292
#     4   8  15  27  45  70  96 124 159 200 244 281
#     4  10  20  30  43  66  96 135 169 192 231 288
#     4   9  16  26  41  65  96 126 157 192 230 283
#     4  10  20  32  44  64  99 135 166 197 235 286
#     4  10  19  30  46  67  93 124 157 196 247 296
#
# _framework density 16.540803
#
# number of rings (size 3 to 8) (size 9 to 14) (size 15 to 20)
#    0.000    2.571    0.000    4.714    0.000    8.000 
#    0.000    0.000    0.000    3.429    0.000    0.000 
#    0.000    5.143    0.000    0.000    0.000    0.000 
#
# Total GULP energy -155955.037685 kJ/mol
# GULP energy per Si atom -5569.822774 kJ/mol
# Density = 1.650316 g / cm^3
# Si number density = 16.540803 Si / 1000 Ang^3
#
#
#
# Elastic Constant Matrix: (Units=GPa)
#
#
# Indices 1 2 3 4 5 6 
#
# 1 108.6706 29.7065 29.7688 0.0000 -10.1169 0.0000
# 2 29.7065 79.5050 21.6591 0.0000 -10.2362 0.0000
# 3 29.7688 21.6591 54.4175 0.0000 -12.4441 0.0000
# 4 0.0000 0.0000 0.0000 13.3389 0.0000 -2.9660
# 5 -10.1169 -10.2362 -12.4441 0.0000 16.7462 0.0000
# 6 0.0000 0.0000 0.0000 -2.9660 0.0000 25.5010
#
#
#
# Elastic Compliance Matrix: (Units=1/GPa)
#
#
# Indices 1 2 3 4 5 6 
#
# 1 0.011416 -0.002751 -0.004768 0.000000 0.001672 0.000000
# 2 -0.002751 0.015182 -0.003368 0.000000 0.005115 0.000000
# 3 -0.004768 -0.003368 0.025535 0.000000 0.014036 0.000000
# 4 0.000000 0.000000 0.000000 0.076959 0.000000 0.008951
# 5 0.001672 0.005115 0.014036 0.000000 0.074282 0.000000
# 6 0.000000 0.000000 0.000000 0.008951 0.000000 0.040255
#
#
# Mechanical properties :
#
#
# Convention : Reuss Voigt Hill
#
# Bulk Modulus (GPa) = 32.93911 44.98464 38.96187
# Shear Modulus (GPa) = 18.14736 21.88113 20.01424
#
# Velocity S-wave (km/s) = 3.31588 3.64106 3.48227
# Velocity P-wave (km/s) = 5.88364 6.70310 6.30669
#
# Compressibility (1/GPa) = 0.03035905
#
# Stress axis : x y z
#
# Youngs Moduli (GPa) = 87.59698 65.86784 39.16251
#
# Poissons Ratio (x) = 0.18123 0.18671
# Poissons Ratio (y) = 0.24101 0.13189
# Poissons Ratio (z) = 0.41762 0.22183
#
# Static dielectric constant tensor:
#      x y z
#    x 1.621620 0.000000 -0.005390 
#    y 0.000000 1.592910 0.000000 
#    z -0.005390 0.000000 1.546730 
# 
# From -- ./inp_files/207323.got.cif
#   From: 2010.05.17/outbox.cif.g08.bks.cpg/sg12_104_cif.got.tgz:207323.got - 2010.06.03 13:09:07.
