data_PCOD9171564
_publ_section_title
;
Structure prediction by ZEFSAII (Michael W. Deem and Ramdas Pophale) SiO2 
 PCOD9171564
Probable space group: C 2/M
;
_chemical_formula_sum "Si O2"
_cell_formula_units_Z 56
_cell_length_a 28.835442
_cell_length_b 8.858577
_cell_length_c 14.271520
_cell_angle_alpha 90.000000
_cell_angle_beta 82.479988
_cell_angle_gamma 90.000000
_cell_volume 3614.176659
_symmetry_space_group_name_H-M "C 2/M"
_symmetry_group_IT_number 12
_symmetry_cell_setting 'monoclinic'
loop_
_space_group_symop_operation_xyz
x,y,z
-x,y,-z
-x,-y,-z
x,-y,z
1/2+x,1/2+y,z
1/2-x,1/2+y,-z
1/2-x,1/2-y,-z
1/2+x,1/2-y,z
loop_
_atom_site_type_symbol
_atom_site_label
_atom_site_fract_x
_atom_site_fract_y
_atom_site_fract_z
Si Si1 0.959076 0.316013 0.581004
Si Si2 0.836702 0.681089 0.322375
Si Si3 0.414846 0.681274 0.172412
Si Si4 0.488158 0.180391 0.781451
Si Si5 0.447961 0.673691 0.968003
Si Si6 0.642260 0.818065 0.465964
Si Si7 0.736411 0.319367 0.403022
O O1 0.959066 0.500000 0.579297
O O2 0.970516 0.270329 0.684008
O O3 0.908069 0.268618 0.558743
O O4 0.000000 0.265565 0.500000
O O5 0.842260 0.500000 0.312183
O O6 0.869918 0.762446 0.240174
O O7 0.851949 0.721217 0.425203
O O8 0.781484 0.717481 0.327434
O O9 0.418233 0.500000 0.172877
O O10 0.461372 0.748268 0.208566
O O11 0.415809 0.728054 0.062363
O O12 0.452771 0.230341 0.872921
O O13 0.493139 0.000000 0.780456
O O14 0.436616 0.500000 0.947695
O O15 0.500000 0.674044 0.000000
O O16 0.685411 0.747496 0.397179
O O17 0.645584 0.000000 0.459500
O O18 0.733882 0.500000 0.410987
O O19 0.750000 0.250000 0.500000
#
# Coordination Sequence:
#
# PCOD9171564 Si02
#       7
#     8   8   8   8   8   8   8
#     4   9  17  29  44  63  89 119 148 176 207 246
#     4   9  17  28  44  65  87 112 142 177 215 254
#     4  10  19  29  43  63  88 116 142 175 221 263
#     4  10  18  28  45  65  85 115 151 180 208 248
#     4   8  16  30  43  58  84 114 141 174 219 263
#     4   9  17  30  46  63  87 119 149 177 211 252
#     4   9  17  29  44  63  87 114 144 178 217 258
#
# _framework density 15.494540000000001
#
# number of rings (size 3 to 8) (size 9 to 14) (size 15 to 20)
#    0.000    2.857    0.000    3.857    0.000    8.286 
#    0.000    1.429    0.000    3.000    0.000    1.000 
#    0.000    0.000    0.000    0.000    0.000    0.000 
#
# Total GULP energy -155919.870396 kJ/mol
# GULP energy per Si atom -5568.566800 kJ/mol
# Density = 1.545927 g / cm^3
# Si number density = 15.494540 Si / 1000 Ang^3
#
#
#
# Elastic Constant Matrix: (Units=GPa)
#
#
# Indices 1 2 3 4 5 6 
#
# 1 114.6118 30.5239 67.4722 0.0000 -21.3420 0.0000
# 2 30.5239 28.9519 36.8535 0.0000 -10.1034 0.0000
# 3 67.4722 36.8535 123.4327 0.0000 -20.8928 0.0000
# 4 0.0000 0.0000 0.0000 19.4789 0.0000 -10.8161
# 5 -21.3420 -10.1034 -20.8928 0.0000 25.0465 0.0000
# 6 0.0000 0.0000 0.0000 -10.8161 0.0000 18.3570
#
#
#
# Elastic Compliance Matrix: (Units=1/GPa)
#
#
# Indices 1 2 3 4 5 6 
#
# 1 0.014520 -0.007234 -0.004864 0.000000 0.005397 0.000000
# 2 -0.007234 0.061562 -0.013119 0.000000 0.007726 0.000000
# 3 -0.004864 -0.013119 0.015230 0.000000 0.003268 0.000000
# 4 0.000000 0.000000 0.000000 0.076301 0.000000 0.044957
# 5 0.005397 0.007726 0.003268 0.000000 0.050368 0.000000
# 6 0.000000 0.000000 0.000000 0.044957 0.000000 0.080964
#
#
# Mechanical properties :
#
#
# Convention : Reuss Voigt Hill
#
# Bulk Modulus (GPa) = 24.46192 59.63285 42.04738
# Shear Modulus (GPa) = 13.77398 21.38627 17.58012
#
# Velocity S-wave (km/s) = 2.98477 3.71920 3.37204
# Velocity P-wave (km/s) = 5.26310 7.55070 6.50820
#
# Compressibility (1/GPa) = 0.04087987
#
# Stress axis : x y z
#
# Youngs Moduli (GPa) = 68.87089 16.24387 65.65868
#
# Poissons Ratio (x) = 0.11750 0.31934
# Poissons Ratio (y) = 0.49819 0.86135
# Poissons Ratio (z) = 0.33497 0.21310
#
# Static dielectric constant tensor:
#      x y z
#    x 1.524110 0.000000 -0.016440 
#    y 0.000000 1.522970 0.000000 
#    z -0.016440 0.000000 1.523100 
# 
# From -- ./inp_files/186440.got.cif
#   From: 2010.05.17/outbox.cif.g08.bks.cpg/sg12_94_cif.got.tgz:186440.got - 2010.06.03 13:09:07.
