data_PCOD9171890
_publ_section_title
;
Structure prediction by ZEFSAII (Michael W. Deem and Ramdas Pophale) SiO2 
 PCOD9171890
Probable space group: C 2/M
;
_chemical_formula_sum "Si O2"
_cell_formula_units_Z 64
_cell_length_a 14.667007
_cell_length_b 14.608411
_cell_length_c 15.281394
_cell_angle_alpha 90.000000
_cell_angle_beta 87.049357
_cell_angle_gamma 90.000000
_cell_volume 3269.876146
_symmetry_space_group_name_H-M "C 2/M"
_symmetry_group_IT_number 12
_symmetry_cell_setting 'monoclinic'
loop_
_space_group_symop_operation_xyz
x,y,z
-x,y,-z
-x,-y,-z
x,-y,z
1/2+x,1/2+y,z
1/2-x,1/2+y,-z
1/2-x,1/2-y,-z
1/2+x,1/2-y,z
loop_
_atom_site_type_symbol
_atom_site_label
_atom_site_fract_x
_atom_site_fract_y
_atom_site_fract_z
Si Si1 0.715304 0.102574 0.339199
Si Si2 0.602610 0.387526 0.737908
Si Si3 0.018477 0.387230 0.398234
Si Si4 0.947842 0.892710 0.622583
Si Si5 0.286973 0.650112 0.518516
Si Si6 0.159528 0.606999 0.688852
Si Si7 0.686245 0.608236 0.202273
Si Si8 0.026523 0.887984 0.095844
O O1 0.793617 0.145748 0.275694
O O2 0.616690 0.146743 0.359260
O O3 0.763387 0.096863 0.431615
O O4 0.697820 0.000000 0.306796
O O5 0.604113 0.500000 0.735881
O O6 0.543622 0.358660 0.655923
O O7 0.549033 0.361172 0.828163
O O8 0.020553 0.500000 0.399100
O O9 0.000000 0.360876 0.500000
O O10 0.937270 0.355825 0.338776
O O11 0.891188 0.850541 0.545769
O O12 0.882027 0.886537 0.711089
O O13 0.957384 0.000000 0.600768
O O14 0.250000 0.750000 0.500000
O O15 0.225754 0.612082 0.601041
O O16 0.143908 0.500000 0.708416
O O17 0.217272 0.645713 0.767516
O O18 0.700585 0.500000 0.184630
O O19 0.625809 0.644871 0.125146
O O20 0.028878 0.000000 0.096562
O O21 0.000000 0.858651 0.000000
#
# Coordination Sequence:
#
# PCOD9171890 Si02
#       8
#     8   8   8   8   8   8   8   8
#     4  10  18  29  42  55  76 106 145 182 208 239
#     4   8  15  26  41  61  82 109 140 166 197 250
#     4   9  15  24  41  58  66  90 141 191 218 223
#     4   8  14  27  42  54  75 107 141 169 199 242
#     4  11  20  27  37  57  80 107 141 175 211 245
#     4   9  15  27  43  56  75 104 142 181 206 233
#     4   7  11  19  35  56  75  99 128 158 192 235
#     4   8  12  20  36  61  90 110 125 155 203 253
#
# _framework density 19.572606
#
# number of rings (size 3 to 8) (size 9 to 14) (size 15 to 20)
#    0.000    3.250    1.250    3.375    0.000    0.500 
#    0.000    4.375    0.000    0.000    0.000    0.875 
#    0.000   16.000    0.000    0.000    0.000    0.000 
#
# Total GULP energy -178284.668839 kJ/mol
# GULP energy per Si atom -5571.395901 kJ/mol
# Density = 1.952806 g / cm^3
# Si number density = 19.572606 Si / 1000 Ang^3
#
#
#
# Elastic Constant Matrix: (Units=GPa)
#
#
# Indices 1 2 3 4 5 6 
#
# 1 184.9086 5.9938 72.7135 0.0000 22.2640 0.0000
# 2 5.9938 53.5547 1.5329 0.0000 4.6989 0.0000
# 3 72.7135 1.5329 103.1187 0.0000 28.0148 0.0000
# 4 0.0000 0.0000 0.0000 -7.0266 0.0000 0.6495
# 5 22.2640 4.6989 28.0148 0.0000 27.6965 0.0000
# 6 0.0000 0.0000 0.0000 0.6495 0.0000 -1.2848
#
#
#
# Elastic Compliance Matrix: (Units=1/GPa)
#
#
# Indices 1 2 3 4 5 6 
#
# 1 0.007521 -0.000626 -0.005075 0.000000 -0.000806 0.000000
# 2 -0.000626 0.019057 0.001241 0.000000 -0.003985 0.000000
# 3 -0.005075 0.001241 0.016832 0.000000 -0.013156 0.000000
# 4 0.000000 0.000000 0.000000 -0.149294 0.000000 -0.075476
# 5 -0.000806 -0.003985 -0.013156 0.000000 0.050737 0.000000
# 6 0.000000 0.000000 0.000000 -0.075476 0.000000 -0.816492
#
#
# Mechanical properties :
#
#
# Convention : Reuss Voigt Hill
#
# Bulk Modulus (GPa) = 28.99456 55.78469 42.38963
# Shear Modulus (GPa) = -5.87391 21.29983 7.71296
#
# Velocity S-wave (km/s) = -1.73424 3.30244 1.98727
# Velocity P-wave (km/s) = 3.29179 6.56542 5.19329
#
# Compressibility (1/GPa) = 0.03448923
#
# Stress axis : x y z
#
# Youngs Moduli (GPa) = 132.95740 52.47506 59.41032
#
# Poissons Ratio (x) = 0.03284 0.30152
# Poissons Ratio (y) = 0.08320 -0.07370
# Poissons Ratio (z) = 0.67478 -0.06510
#
# Static dielectric constant tensor:
#      x y z
#    x 1.759840 0.000000 0.010290 
#    y 0.000000 1.700960 0.000000 
#    z 0.010290 0.000000 2.243690 
# 
# From -- ./inp_files/215940.got.cif
#   From: 2010.05.17/outbox.cif.g08.bks.cpg/sg12_108_cif.got.tgz:215940.got - 2010.06.03 13:09:07.
