data_PCOD9171228
_publ_section_title
;
Structure prediction by ZEFSAII (Michael W. Deem and Ramdas Pophale) SiO2 
 PCOD9171228
Probable space group: C 2/M
;
_chemical_formula_sum "Si O2"
_cell_formula_units_Z 40
_cell_length_a 15.919058
_cell_length_b 7.420892
_cell_length_c 13.663288
_cell_angle_alpha 90.000000
_cell_angle_beta 61.815691
_cell_angle_gamma 90.000000
_cell_volume 1422.715038
_symmetry_space_group_name_H-M "C 2/M"
_symmetry_group_IT_number 12
_symmetry_cell_setting 'monoclinic'
loop_
_space_group_symop_operation_xyz
x,y,z
-x,y,-z
-x,-y,-z
x,-y,z
1/2+x,1/2+y,z
1/2-x,1/2+y,-z
1/2-x,1/2-y,-z
1/2+x,1/2-y,z
loop_
_atom_site_type_symbol
_atom_site_label
_atom_site_fract_x
_atom_site_fract_y
_atom_site_fract_z
Si Si1 0.899640 0.779955 0.669852
Si Si2 0.763369 0.293791 0.117990
Si Si3 0.879423 0.780872 0.466378
Si Si4 0.450057 0.217061 0.924610
Si Si5 0.141805 0.208389 0.730343
O O1 0.837485 0.710218 0.794898
O O2 0.853908 0.724679 0.590473
O O3 0.009215 0.727682 0.604919
O O4 0.897164 0.000000 0.674412
O O5 0.749660 0.500000 0.098575
O O6 0.816454 0.298153 0.195650
O O7 0.841328 0.217166 0.999787
O O8 0.832574 0.715281 0.391027
O O9 0.876141 0.000000 0.465544
O O10 0.525836 0.284987 0.804123
O O11 0.448408 0.000000 0.920198
O O12 0.500000 0.268243 0.000000
O O13 0.168173 0.000000 0.721024
#
# Coordination Sequence:
#
# PCOD9171228 Si02
#       5
#     8   8   8   8   8
#     4   8  14  28  47  63  84 115 148 179 210 250
#     4   9  17  29  47  67  85 112 149 181 209 249
#     4   8  15  27  44  66  88 112 144 179 214 254
#     4   8  15  28  43  61  86 116 148 175 205 252
#     4  10  18  27  43  68  93 113 138 177 221 258
#
# _framework density 28.115255999999999
#
# number of rings (size 3 to 8) (size 9 to 14) (size 15 to 20)
#    0.000    3.400    0.000    3.000    0.000    4.400 
#    0.000    1.000    0.000    3.600    0.000    7.000 
#    0.000    0.000    0.000    0.000    0.000    0.000 
#
# Total GULP energy -111886.653150 kJ/mol
# GULP energy per Si atom -5594.332658 kJ/mol
# Density = 2.805126 g / cm^3
# Si number density = 28.115256 Si / 1000 Ang^3
#
#
#
# Elastic Constant Matrix: (Units=GPa)
#
#
# Indices 1 2 3 4 5 6 
#
# 1 89.1835 23.5962 19.5731 0.0000 2.3594 0.0000
# 2 23.5962 121.0494 15.9823 0.0000 3.4167 0.0000
# 3 19.5731 15.9823 208.0614 0.0000 8.1534 0.0000
# 4 0.0000 0.0000 0.0000 14.7698 0.0000 -2.1140
# 5 2.3594 3.4167 8.1534 0.0000 70.6372 0.0000
# 6 0.0000 0.0000 0.0000 -2.1140 0.0000 24.7180
#
#
#
# Elastic Compliance Matrix: (Units=1/GPa)
#
#
# Indices 1 2 3 4 5 6 
#
# 1 0.012012 -0.002210 -0.000953 0.000000 -0.000184 0.000000
# 2 -0.002210 0.008760 -0.000453 0.000000 -0.000298 0.000000
# 3 -0.000953 -0.000453 0.004951 0.000000 -0.000518 0.000000
# 4 0.000000 0.000000 0.000000 0.068545 0.000000 0.005862
# 5 -0.000184 -0.000298 -0.000518 0.000000 0.014237 0.000000
# 6 0.000000 0.000000 0.000000 0.005862 0.000000 0.040958
#
#
# Mechanical properties :
#
#
# Convention : Reuss Voigt Hill
#
# Bulk Modulus (GPa) = 54.08463 59.62193 56.85328
# Shear Modulus (GPa) = 30.70139 45.96784 38.33461
#
# Velocity S-wave (km/s) = 3.30810 4.04787 3.69654
# Velocity P-wave (km/s) = 5.81979 6.56501 6.20360
#
# Compressibility (1/GPa) = 0.01848954
#
# Stress axis : x y z
#
# Youngs Moduli (GPa) = 83.25219 114.15243 201.97806
#
# Poissons Ratio (x) = 0.25232 0.19248
# Poissons Ratio (y) = 0.18402 0.09156
# Poissons Ratio (z) = 0.07934 0.05175
#
# Static dielectric constant tensor:
#      x y z
#    x 2.344250 0.000000 -0.035210 
#    y 0.000000 1.993380 0.000000 
#    z -0.035210 0.000000 2.197640 
# 
# From -- ./inp_files/221237.got.cif
#   From: 2010.05.17/outbox.cif.g08.bks.cpg/sg12_111_cif.got.tgz:221237.got - 2010.06.03 13:09:07.
