data_PCOD9171359
_publ_section_title
;
Structure prediction by ZEFSAII (Michael W. Deem and Ramdas Pophale) SiO2 
 PCOD9171359
Probable space group: C 2/M
;
_chemical_formula_sum "Si O2"
_cell_formula_units_Z 64
_cell_length_a 28.640555
_cell_length_b 7.649646
_cell_length_c 25.120696
_cell_angle_alpha 90.000000
_cell_angle_beta 136.250904
_cell_angle_gamma 90.000000
_cell_volume 3805.814894
_symmetry_space_group_name_H-M "C 2/M"
_symmetry_group_IT_number 12
_symmetry_cell_setting 'monoclinic'
loop_
_space_group_symop_operation_xyz
x,y,z
-x,y,-z
-x,-y,-z
x,-y,z
1/2+x,1/2+y,z
1/2-x,1/2+y,-z
1/2-x,1/2-y,-z
1/2+x,1/2-y,z
loop_
_atom_site_type_symbol
_atom_site_label
_atom_site_fract_x
_atom_site_fract_y
_atom_site_fract_z
Si Si1 0.195597 0.290061 0.501374
Si Si2 0.990268 0.203735 0.071840
Si Si3 0.315276 0.209933 0.019232
Si Si4 0.963868 0.712816 0.169353
Si Si5 0.362954 0.294514 0.827645
Si Si6 0.159867 0.698577 0.076246
Si Si7 0.303636 0.288799 0.668814
Si Si8 0.087970 0.709581 0.334549
O O1 0.189407 0.500000 0.501183
O O2 0.250000 0.250000 0.500000
O O3 0.232674 0.224481 0.585197
O O4 0.125542 0.222299 0.418560
O O5 0.994635 0.219982 0.139176
O O6 0.060302 0.276252 0.106745
O O7 0.981562 0.000000 0.049328
O O8 0.921148 0.296346 0.999052
O O9 0.385628 0.269434 0.104184
O O10 0.320820 0.000000 0.019163
O O11 0.250000 0.250000 0.000000
O O12 0.312221 0.279131 0.955829
O O13 0.965211 0.500000 0.169002
O O14 0.013475 0.772502 0.257211
O O15 0.372764 0.500000 0.825155
O O16 0.327730 0.277626 0.855606
O O17 0.323531 0.223323 0.743811
O O18 0.183564 0.500000 0.098777
O O19 0.299383 0.500000 0.667314
O O20 0.362560 0.245142 0.674946
O O21 0.083942 0.500000 0.336636
#
# Coordination Sequence:
#
# PCOD9171359 Si02
#       8
#     8   8   8   8   8   8   8   8
#     4   8  14  23  36  53  76 109 143 171 199 228
#     4  10  18  28  41  58  82 111 142 170 199 235
#     4   9  19  34  48  62  79 101 128 165 211 254
#     4   9  17  28  42  62  86 108 137 172 205 243
#     4  10  19  28  39  58  84 113 143 171 197 232
#     4  10  21  33  44  60  80 103 134 170 207 244
#     4   9  16  26  37  54  83 114 143 173 199 226
#     4   9  15  24  39  58  80 109 143 172 199 236
#
# _framework density 16.816372999999999
#
# number of rings (size 3 to 8) (size 9 to 14) (size 15 to 20)
#    0.000    2.750    1.250    1.875    0.000    5.500 
#    0.000    0.000    0.000    0.000    0.000    0.000 
#    0.000    1.000    0.000   12.500    0.000    2.000 
#
# Total GULP energy -178155.874692 kJ/mol
# GULP energy per Si atom -5567.371084 kJ/mol
# Density = 1.677810 g / cm^3
# Si number density = 16.816373 Si / 1000 Ang^3
#
#
#
# Elastic Constant Matrix: (Units=GPa)
#
#
# Indices 1 2 3 4 5 6 
#
# 1 82.5321 -2.1243 50.4253 0.0000 -2.1260 0.0000
# 2 -2.1243 30.4770 -5.5182 0.0001 0.5519 -0.0004
# 3 50.4253 -5.5182 84.3218 0.0000 -8.5249 0.0000
# 4 0.0000 0.0001 0.0000 9.6763 0.0000 -3.3262
# 5 -2.1260 0.5519 -8.5249 0.0000 15.8957 0.0000
# 6 0.0000 -0.0004 0.0000 -3.3262 0.0000 13.3431
#
#
#
# Elastic Compliance Matrix: (Units=1/GPa)
#
#
# Indices 1 2 3 4 5 6 
#
# 1 0.019326 -0.000755 -0.011993 0.000000 -0.003821 0.000000
# 2 -0.000755 0.033235 0.002643 0.000000 0.000163 0.000001
# 3 -0.011993 0.002643 0.020124 0.000000 0.009097 0.000000
# 4 0.000000 0.000000 0.000000 0.113031 0.000000 0.028177
# 5 -0.003821 0.000163 0.009097 0.000000 0.067272 0.000000
# 6 0.000000 0.000001 0.000000 0.028177 0.000000 0.081969
#
#
# Mechanical properties :
#
#
# Convention : Reuss Voigt Hill
#
# Bulk Modulus (GPa) = 19.05696 31.43296 25.24496
# Shear Modulus (GPa) = 13.41711 18.08621 15.75166
#
# Velocity S-wave (km/s) = 2.82771 3.28306 3.06385
# Velocity P-wave (km/s) = 4.69236 5.75359 5.24986
#
# Compressibility (1/GPa) = 0.05247428
#
# Stress axis : x y z
#
# Youngs Moduli (GPa) = 51.74368 30.08912 49.69232
#
# Poissons Ratio (x) = 0.02272 0.59595
# Poissons Ratio (y) = 0.03908 -0.13134
# Poissons Ratio (z) = 0.62056 -0.07953
#
# Static dielectric constant tensor:
#      x y z
#    x 1.533690 0.000000 -0.005090 
#    y 0.000000 1.579570 0.000000 
#    z -0.005090 0.000000 1.646700 
# 
# From -- ./inp_files/350961.got.cif
#   From: 2010.05.17/outbox.cif.g08.bks.cpg/sg12_176_cif.got.tgz:350961.got - 2010.06.03 13:09:07.
