data_PCOD9171856
_publ_section_title
;
Structure prediction by ZEFSAII (Michael W. Deem and Ramdas Pophale) SiO2 
 PCOD9171856
Probable space group: C 2/M
;
_chemical_formula_sum "Si O2"
_cell_formula_units_Z 40
_cell_length_a 18.180431
_cell_length_b 13.808374
_cell_length_c 16.968505
_cell_angle_alpha 90.000000
_cell_angle_beta 156.764594
_cell_angle_gamma 90.000000
_cell_volume 1680.537120
_symmetry_space_group_name_H-M "C 2/M"
_symmetry_group_IT_number 12
_symmetry_cell_setting 'monoclinic'
loop_
_space_group_symop_operation_xyz
x,y,z
-x,y,-z
-x,-y,-z
x,-y,z
1/2+x,1/2+y,z
1/2-x,1/2+y,-z
1/2-x,1/2-y,-z
1/2+x,1/2-y,z
loop_
_atom_site_type_symbol
_atom_site_label
_atom_site_fract_x
_atom_site_fract_y
_atom_site_fract_z
Si Si1 0.965469 0.607761 0.058727
Si Si2 0.055078 0.109227 0.723005
Si Si3 0.482642 0.000000 0.387423
Si Si4 0.460652 0.500000 0.052362
Si Si5 0.512408 0.207104 0.606043
Si Si6 0.925798 0.194557 0.086101
O O1 0.045074 0.500000 0.155325
O O2 0.019316 0.701270 0.164021
O O3 0.744220 0.598858 0.858576
O O4 0.000000 0.627391 0.000000
O O5 0.934782 0.191351 0.561196
O O6 0.105271 0.160353 0.855242
O O7 0.981977 0.000000 0.662870
O O8 0.500000 0.000000 0.500000
O O9 0.262106 0.000000 0.150510
O O10 0.560386 0.102920 0.435502
O O11 0.500000 0.500000 0.000000
O O12 0.530909 0.602301 0.153322
O O13 0.500000 0.208016 0.500000
O O14 0.729240 0.203537 0.846454
#
# Coordination Sequence:
#
# PCOD9171856 Si02
#       6
#     8   8   4   4   8   8
#     4   9  17  28  44  68  96 128 162 200 249 300
#     4  10  19  32  49  72 103 130 163 209 258 300
#     4   8  16  30  46  70 102 130 163 208 257 302
#     4  10  18  28  50  78 100 130 171 218 259 294
#     4   9  17  29  47  71  98 128 168 204 245 301
#     4  10  18  32  47  72 106 128 161 211 260 304
#
# _framework density 23.801914
#
# number of rings (size 3 to 8) (size 9 to 14) (size 15 to 20)
#    0.000    2.600    1.000    3.000    0.000    0.400 
#    1.800    0.000    0.000    0.000    0.000   74.200 
#    0.000    0.000    0.000    0.000    0.000    0.000 
#
# Total GULP energy -111450.426483 kJ/mol
# GULP energy per Si atom -5572.521324 kJ/mol
# Density = 2.374774 g / cm^3
# Si number density = 23.801914 Si / 1000 Ang^3
#
#
#
# Elastic Constant Matrix: (Units=GPa)
#
#
# Indices 1 2 3 4 5 6 
#
# 1 108.3830 44.0974 28.5435 -0.0002 -13.5532 0.0003
# 2 44.0974 315.2412 21.8687 -0.0004 -17.5275 -0.0002
# 3 28.5435 21.8687 78.4119 -0.0009 12.7427 0.0001
# 4 -0.0002 -0.0004 -0.0009 -3.2499 -0.0007 -24.4021
# 5 -13.5532 -17.5275 12.7427 -0.0007 35.7440 0.0001
# 6 0.0003 -0.0002 0.0001 -24.4021 0.0001 47.4366
#
#
#
# Elastic Compliance Matrix: (Units=1/GPa)
#
#
# Indices 1 2 3 4 5 6 
#
# 1 0.011615 -0.000971 -0.004878 0.000000 0.005667 0.000000
# 2 -0.000971 0.003460 -0.000878 0.000000 0.001642 0.000000
# 3 -0.004878 -0.000878 0.016076 0.000000 -0.008011 0.000000
# 4 0.000000 0.000000 0.000000 -0.063280 -0.000001 -0.032552
# 5 0.005667 0.001642 -0.008011 -0.000001 0.033786 -0.000001
# 6 0.000000 0.000000 0.000000 -0.032552 -0.000001 0.004335
#
#
# Mechanical properties :
#
#
# Convention : Reuss Voigt Hill
#
# Bulk Modulus (GPa) = 56.51094 76.78392 66.64743
# Shear Modulus (GPa) = 197.26601 43.15458 120.21030
#
# Velocity S-wave (km/s) = 9.11362 4.26264 7.11436
# Velocity P-wave (km/s) = 11.59905 7.52040 9.77482
#
# Compressibility (1/GPa) = 0.01769569
#
# Stress axis : x y z
#
# Youngs Moduli (GPa) = 86.09507 288.99731 62.20544
#
# Poissons Ratio (x) = 0.28070 0.30345
# Poissons Ratio (y) = 0.08362 0.05463
# Poissons Ratio (z) = 0.41999 0.25381
#
# Static dielectric constant tensor:
#      x y z
#    x 1.919750 0.000000 0.004590 
#    y 0.000000 2.054030 0.000000 
#    z 0.004590 0.000000 1.862510 
# 
# From -- ./inp_files/155123.got.cif
#   From: 2010.05.17/outbox.cif.g08.bks.cpg/sg12_78_cif.got.tgz:155123.got - 2010.06.03 13:09:07.
