data_PCOD9171493
_publ_section_title
;
Structure prediction by ZEFSAII (Michael W. Deem and Ramdas Pophale) SiO2 
 PCOD9171493
Probable space group: C 2/M
;
_chemical_formula_sum "Si O2"
_cell_formula_units_Z 64
_cell_length_a 32.404354
_cell_length_b 7.451605
_cell_length_c 16.090396
_cell_angle_alpha 90.000000
_cell_angle_beta 56.443315
_cell_angle_gamma 90.000000
_cell_volume 3237.738885
_symmetry_space_group_name_H-M "C 2/M"
_symmetry_group_IT_number 12
_symmetry_cell_setting 'monoclinic'
loop_
_space_group_symop_operation_xyz
x,y,z
-x,y,-z
-x,-y,-z
x,-y,z
1/2+x,1/2+y,z
1/2-x,1/2+y,-z
1/2-x,1/2-y,-z
1/2+x,1/2-y,z
loop_
_atom_site_type_symbol
_atom_site_label
_atom_site_fract_x
_atom_site_fract_y
_atom_site_fract_z
Si Si1 0.888783 0.209659 0.085031
Si Si2 0.939481 0.706875 0.194223
Si Si3 0.544686 0.782909 0.139535
Si Si4 0.026702 0.718542 0.344610
Si Si5 0.834945 0.718186 0.377886
Si Si6 0.319775 0.219997 0.583566
Si Si7 0.714429 0.293037 0.738496
Si Si8 0.424897 0.781313 0.537348
O O1 0.926511 0.288733 0.111085
O O2 0.833680 0.285984 0.161724
O O3 0.886307 0.000000 0.109235
O O4 0.910398 0.228778 0.969572
O O5 0.941897 0.500000 0.218786
O O6 0.890855 0.780902 0.294325
O O7 0.992837 0.783299 0.157316
O O8 0.545634 0.722482 0.233911
O O9 0.544710 0.000000 0.138917
O O10 0.026878 0.500000 0.344207
O O11 0.059251 0.774626 0.387580
O O12 0.969913 0.772707 0.426421
O O13 0.834249 0.500000 0.374307
O O14 0.819928 0.773104 0.486650
O O15 0.800172 0.786042 0.342755
O O16 0.269485 0.283871 0.683468
O O17 0.371049 0.278206 0.568178
O O18 0.319215 0.000000 0.585033
O O19 0.718026 0.500000 0.761569
O O20 0.424405 0.000000 0.537151
#
# Coordination Sequence:
#
# PCOD9171493 Si02
#       8
#     8   8   8   8   8   8   8   8
#     4  10  20  31  41  56  82 115 148 178 204 234
#     4   9  17  28  42  62  87 111 135 168 209 250
#     4  10  18  28  44  64  85 109 138 171 208 249
#     4   8  14  24  40  66  94 110 125 162 213 255
#     4   9  16  26  42  64  87 110 137 168 205 249
#     4   9  15  24  41  62  83 110 141 169 202 248
#     4   9  18  30  41  57  84 115 145 175 204 236
#     4   8  13  23  41  66  92 110 127 161 210 256
#
# _framework density 19.766881000000001
#
# number of rings (size 3 to 8) (size 9 to 14) (size 15 to 20)
#    0.000    3.000    0.000    2.625    0.000    5.500 
#    0.000    0.000    0.000    0.750    0.000    4.375 
#    0.000    0.000    0.000    0.000    0.000    0.375 
#
# Total GULP energy -178509.667432 kJ/mol
# GULP energy per Si atom -5578.427107 kJ/mol
# Density = 1.972189 g / cm^3
# Si number density = 19.766881 Si / 1000 Ang^3
#
#
#
# Elastic Constant Matrix: (Units=GPa)
#
#
# Indices 1 2 3 4 5 6 
#
# 1 94.9328 -9.3877 65.1242 0.0000 -26.4354 0.0000
# 2 -9.3877 58.3257 -7.6856 -0.0007 -3.9576 0.0002
# 3 65.1242 -7.6856 139.8859 0.0000 -8.4222 0.0000
# 4 0.0000 -0.0007 0.0000 -16.8889 0.0000 -7.0838
# 5 -26.4354 -3.9576 -8.4222 0.0000 17.8811 0.0000
# 6 0.0000 0.0002 0.0000 -7.0838 0.0000 1.8280
#
#
#
# Elastic Compliance Matrix: (Units=1/GPa)
#
#
# Indices 1 2 3 4 5 6 
#
# 1 0.030217 0.006140 -0.011279 0.000000 0.040719 0.000000
# 2 0.006140 0.018860 -0.001054 0.000000 0.012755 -0.000002
# 3 -0.011279 -0.001054 0.011654 0.000000 -0.011418 0.000000
# 4 0.000000 0.000000 0.000000 -0.022553 0.000000 -0.087397
# 5 0.040719 0.012755 -0.011418 0.000000 0.113569 -0.000001
# 6 0.000000 -0.000002 0.000000 -0.087397 -0.000001 0.208368
#
#
# Mechanical properties :
#
#
# Convention : Reuss Voigt Hill
#
# Bulk Modulus (GPa) = 20.68446 43.24959 31.96702
# Shear Modulus (GPa) = 12.86616 16.90362 14.88489
#
# Velocity S-wave (km/s) = 2.55403 2.92746 2.74710
# Velocity P-wave (km/s) = 4.37999 5.77530 5.12535
#
# Compressibility (1/GPa) = 0.04834548
#
# Stress axis : x y z
#
# Youngs Moduli (GPa) = 33.09394 53.02240 85.80701
#
# Poissons Ratio (x) = -0.32557 0.96778
# Poissons Ratio (y) = -0.20321 0.09048
# Poissons Ratio (z) = 0.37325 0.05591
#
# Static dielectric constant tensor:
#      x y z
#    x 1.684030 0.000000 -0.028770 
#    y 0.000000 1.787160 0.000000 
#    z -0.028770 0.000000 1.688550 
# 
# From -- ./inp_files/248959.got.cif
#   From: 2010.05.17/outbox.cif.g08.bks.cpg/sg12_125_cif.got.tgz:248959.got - 2010.06.03 13:09:07.
