data_PCOD9171804
_publ_section_title
;
Structure prediction by ZEFSAII (Michael W. Deem and Ramdas Pophale) SiO2 
 PCOD9171804
Probable space group: C 2/M
;
_chemical_formula_sum "Si O2"
_cell_formula_units_Z 44
_cell_length_a 29.711000
_cell_length_b 9.702592
_cell_length_c 12.755211
_cell_angle_alpha 90.000000
_cell_angle_beta 43.427829
_cell_angle_gamma 90.000000
_cell_volume 2527.712609
_symmetry_space_group_name_H-M "C 2/M"
_symmetry_group_IT_number 12
_symmetry_cell_setting 'monoclinic'
loop_
_space_group_symop_operation_xyz
x,y,z
-x,y,-z
-x,-y,-z
x,-y,z
1/2+x,1/2+y,z
1/2-x,1/2+y,-z
1/2-x,1/2-y,-z
1/2+x,1/2-y,z
loop_
_atom_site_type_symbol
_atom_site_label
_atom_site_fract_x
_atom_site_fract_y
_atom_site_fract_z
Si Si1 0.500000 0.747783 0.500000
Si Si2 0.835498 0.166471 0.079352
Si Si3 0.691144 0.834505 0.307535
Si Si4 0.858133 0.157972 0.799984
Si Si5 0.447617 0.157461 0.369289
Si Si6 0.472674 0.333997 0.931347
O O1 0.435320 0.664106 0.641938
O O2 0.521185 0.832169 0.567046
O O3 0.761787 0.208697 0.232369
O O4 0.836204 0.000000 0.082040
O O5 0.848217 0.204255 0.936410
O O6 0.897222 0.211993 0.043525
O O7 0.678263 0.756353 0.220256
O O8 0.628821 0.805077 0.486295
O O9 0.691339 0.000000 0.289226
O O10 0.835209 0.000000 0.829055
O O11 0.484578 0.259939 0.229600
O O12 0.452835 0.000000 0.323553
O O13 0.475951 0.500000 0.911321
O O14 0.500000 0.301962 0.000000
#
# Coordination Sequence:
#
# PCOD9171804 Si02
#       6
#     4   8   8   8   8   8
#     4  10  18  30  50  80 110 140 172 208 264 314
#     4   9  17  33  52  73 101 138 177 212 259 309
#     4   9  19  33  50  73 107 141 170 207 259 321
#     4  10  18  28  48  76 107 139 173 212 256 309
#     4  10  20  34  53  78 107 139 174 214 261 313
#     4  10  21  38  59  79 101 136 182 224 260 303
#
# _framework density 17.407041
#
# number of rings (size 3 to 8) (size 9 to 14) (size 15 to 20)
#    0.000    2.364    1.818    1.091    0.000    4.000 
#    0.000    1.818    0.000    0.000    0.000    0.000 
#    0.000    0.000    0.000    0.000    0.000    0.000 
#
# Total GULP energy -122611.774842 kJ/mol
# GULP energy per Si atom -5573.262493 kJ/mol
# Density = 1.736742 g / cm^3
# Si number density = 17.407041 Si / 1000 Ang^3
#
#
#
# Elastic Constant Matrix: (Units=GPa)
#
#
# Indices 1 2 3 4 5 6 
#
# 1 136.6641 28.9768 73.3813 0.0000 -27.1178 0.0000
# 2 28.9768 28.0060 21.8532 0.0000 -1.9189 0.0000
# 3 73.3813 21.8532 81.3990 0.0000 -17.6325 0.0000
# 4 0.0000 0.0000 0.0000 15.1308 0.0000 -4.2340
# 5 -27.1178 -1.9189 -17.6325 0.0000 26.8526 0.0000
# 6 0.0000 0.0000 0.0000 -4.2340 0.0000 14.1851
#
#
#
# Elastic Compliance Matrix: (Units=1/GPa)
#
#
# Indices 1 2 3 4 5 6 
#
# 1 0.016711 -0.008164 -0.010893 0.000000 0.009140 0.000000
# 2 -0.008164 0.049870 -0.008211 0.000000 -0.010072 0.000000
# 3 -0.010893 -0.008211 0.025415 0.000000 0.005101 0.000000
# 4 0.000000 0.000000 0.000000 0.072113 0.000000 0.021525
# 5 0.009140 -0.010072 0.005101 0.000000 0.049100 0.000000
# 6 0.000000 0.000000 0.000000 0.021525 0.000000 0.076921
#
#
# Mechanical properties :
#
#
# Convention : Reuss Voigt Hill
#
# Bulk Modulus (GPa) = 26.69517 54.94353 40.81935
# Shear Modulus (GPa) = 13.99961 19.35756 16.67859
#
# Velocity S-wave (km/s) = 2.83901 3.33836 3.09876
# Velocity P-wave (km/s) = 5.11036 6.81851 6.02527
#
# Compressibility (1/GPa) = 0.03745996
#
# Stress axis : x y z
#
# Youngs Moduli (GPa) = 59.84143 20.05205 39.34723
#
# Poissons Ratio (x) = 0.16370 0.42862
# Poissons Ratio (y) = 0.48853 0.32307
# Poissons Ratio (z) = 0.65187 0.16464
#
# Static dielectric constant tensor:
#      x y z
#    x 1.600680 0.000000 -0.036560 
#    y 0.000000 1.581050 0.000000 
#    z -0.036560 0.000000 1.588830 
# 
# From -- ./inp_files/163223.got.cif
#   From: 2010.05.17/outbox.cif.g08.bks.cpg/sg12_82_cif.got.tgz:163223.got - 2010.06.03 13:09:07.
