data_PCOD9171740
_publ_section_title
;
Structure prediction by ZEFSAII (Michael W. Deem and Ramdas Pophale) SiO2 
 PCOD9171740
Probable space group: C 2/M
;
_chemical_formula_sum "Si O2"
_cell_formula_units_Z 40
_cell_length_a 8.743948
_cell_length_b 20.475805
_cell_length_c 12.171042
_cell_angle_alpha 90.000000
_cell_angle_beta 96.020711
_cell_angle_gamma 90.000000
_cell_volume 2167.075951
_symmetry_space_group_name_H-M "C 2/M"
_symmetry_group_IT_number 12
_symmetry_cell_setting 'monoclinic'
loop_
_space_group_symop_operation_xyz
x,y,z
-x,y,-z
-x,-y,-z
x,-y,z
1/2+x,1/2+y,z
1/2-x,1/2+y,-z
1/2-x,1/2-y,-z
1/2+x,1/2-y,z
loop_
_atom_site_type_symbol
_atom_site_label
_atom_site_fract_x
_atom_site_fract_y
_atom_site_fract_z
Si Si1 0.534861 0.424974 0.808674
Si Si2 0.648177 0.683381 0.077568
Si Si3 0.618054 0.216183 0.261635
Si Si4 0.860182 0.618004 0.923089
Si Si5 0.925555 0.820620 0.375648
O O1 0.490993 0.500000 0.793368
O O2 0.417331 0.384467 0.876488
O O3 0.708182 0.420587 0.872027
O O4 0.539369 0.383938 0.696218
O O5 0.687788 0.731537 0.179567
O O6 0.500000 0.709941 0.000000
O O7 0.784084 0.669122 0.003601
O O8 0.575453 0.155877 0.179184
O O9 0.743432 0.190412 0.357126
O O10 0.493707 0.257670 0.317471
O O11 0.000000 0.585276 0.000000
O O12 0.000000 0.825862 0.500000
#
# Coordination Sequence:
#
# PCOD9171740 Si02
#       5
#     8   8   8   8   8
#     4   9  20  35  48  67  95 129 167 196 224 274
#     4   9  17  29  48  70  97 130 155 184 228 284
#     4  10  18  30  47  72 100 121 154 193 236 289
#     4  10  18  28  47  73 100 126 150 187 236 284
#     4  10  20  33  51  71  93 124 159 203 245 274
#
# _framework density 18.458053
#
# number of rings (size 3 to 8) (size 9 to 14) (size 15 to 20)
#    0.000    2.400    0.000    4.200    0.000    4.400 
#    0.000    0.000    0.000    0.000    0.000    0.000 
#    0.000   19.200    0.000    0.000    0.000    0.000 
#
# Total GULP energy -111497.902950 kJ/mol
# GULP energy per Si atom -5574.895148 kJ/mol
# Density = 1.841604 g / cm^3
# Si number density = 18.458053 Si / 1000 Ang^3
#
#
#
# Elastic Constant Matrix: (Units=GPa)
#
#
# Indices 1 2 3 4 5 6 
#
# 1 46.0944 11.6172 36.6545 0.0000 14.6651 0.0000
# 2 11.6172 83.1110 20.4292 0.0000 8.7622 0.0000
# 3 36.6545 20.4292 101.3504 0.0000 29.3906 0.0000
# 4 0.0000 0.0000 0.0000 2.2147 0.0000 0.8515
# 5 14.6651 8.7622 29.3906 0.0000 29.7202 0.0000
# 6 0.0000 0.0000 0.0000 0.8515 0.0000 13.5863
#
#
#
# Elastic Compliance Matrix: (Units=1/GPa)
#
#
# Indices 1 2 3 4 5 6 
#
# 1 0.031351 -0.001471 -0.009368 0.000000 -0.005772 0.000000
# 2 -0.001471 0.012790 -0.001631 0.000000 -0.001432 0.000000
# 3 -0.009368 -0.001631 0.016970 0.000000 -0.011679 0.000000
# 4 0.000000 0.000000 0.000000 0.462671 0.000000 -0.028998
# 5 -0.005772 -0.001432 -0.011679 0.000000 0.048467 0.000000
# 6 0.000000 0.000000 0.000000 -0.028998 0.000000 0.075421
#
#
# Mechanical properties :
#
#
# Convention : Reuss Voigt Hill
#
# Bulk Modulus (GPa) = 27.64613 40.88418 34.26515
# Shear Modulus (GPa) = 7.30282 19.89458 13.59870
#
# Velocity S-wave (km/s) = 1.99124 3.28659 2.71723
# Velocity P-wave (km/s) = 4.50522 6.04980 5.33372
#
# Compressibility (1/GPa) = 0.03617143
#
# Stress axis : x y z
#
# Youngs Moduli (GPa) = 31.89652 78.18893 58.92650
#
# Poissons Ratio (x) = 0.11501 0.55204
# Poissons Ratio (y) = 0.04692 0.09609
# Poissons Ratio (z) = 0.29882 0.12750
#
# Static dielectric constant tensor:
#      x y z
#    x 1.643570 0.000000 0.012560 
#    y 0.000000 1.634620 0.000000 
#    z 0.012560 0.000000 1.634370 
# 
# From -- ./inp_files/120029.got.cif
#   From: 2010.05.17/outbox.cif.g08.bks.cpg/sg12_61_cif.got.tgz:120029.got - 2010.06.03 13:09:07.
