data_PCOD9171275
_publ_section_title
;
Structure prediction by ZEFSAII (Michael W. Deem and Ramdas Pophale) SiO2 
 PCOD9171275
Probable space group: C 2/M
;
_chemical_formula_sum "Si O2"
_cell_formula_units_Z 64
_cell_length_a 23.614686
_cell_length_b 7.438255
_cell_length_c 17.447126
_cell_angle_alpha 90.000000
_cell_angle_beta 72.780442
_cell_angle_gamma 90.000000
_cell_volume 2927.259057
_symmetry_space_group_name_H-M "C 2/M"
_symmetry_group_IT_number 12
_symmetry_cell_setting 'monoclinic'
loop_
_space_group_symop_operation_xyz
x,y,z
-x,y,-z
-x,-y,-z
x,-y,z
1/2+x,1/2+y,z
1/2-x,1/2+y,-z
1/2-x,1/2-y,-z
1/2+x,1/2-y,z
loop_
_atom_site_type_symbol
_atom_site_label
_atom_site_fract_x
_atom_site_fract_y
_atom_site_fract_z
Si Si1 0.959898 0.781243 0.765476
Si Si2 0.308240 0.705296 0.373137
Si Si3 0.126809 0.216242 0.328316
Si Si4 0.356031 0.719011 0.923508
Si Si5 0.179172 0.289511 0.463270
Si Si6 0.230756 0.217623 0.172604
Si Si7 0.586620 0.278414 0.773895
Si Si8 0.636418 0.706982 0.907825
O O1 0.929997 0.722163 0.697674
O O2 0.913610 0.731237 0.850839
O O3 0.025647 0.720657 0.759113
O O4 0.961047 0.000000 0.763523
O O5 0.299192 0.500000 0.351318
O O6 0.242414 0.785870 0.407303
O O7 0.334065 0.705824 0.449161
O O8 0.356367 0.784885 0.296903
O O9 0.132498 0.269509 0.414028
O O10 0.185470 0.275510 0.257549
O O11 0.126984 0.000000 0.325695
O O12 0.353473 0.500000 0.926294
O O13 0.299133 0.774774 0.896080
O O14 0.359994 0.786902 0.008536
O O15 0.187905 0.500000 0.475465
O O16 0.296950 0.287645 0.152137
O O17 0.233274 0.000000 0.173051
O O18 0.587010 0.500000 0.773286
O O19 0.594075 0.218414 0.858787
O O20 0.618133 0.500000 0.925791
#
# Coordination Sequence:
#
# PCOD9171275 Si02
#       8
#     8   8   8   8   8   8   8   8
#     4   8  15  29  47  67  92 122 156 192 228 266
#     4   9  18  32  48  69  97 123 148 182 225 274
#     4   9  17  30  49  69  90 121 158 190 222 268
#     4   8  15  27  43  66  95 123 153 191 230 268
#     4  10  19  31  50  74  97 119 145 182 229 277
#     4   9  17  29  44  65  95 127 155 184 224 275
#     4   9  17  29  46  68  93 120 153 194 232 265
#     4  10  18  27  44  71  97 120 151 193 235 269
#
# _framework density 21.863454999999998
#
# number of rings (size 3 to 8) (size 9 to 14) (size 15 to 20)
#    0.000    3.000    0.000    3.000    0.000    2.500 
#    0.000    3.750    0.000    6.000    0.000    0.875 
#    0.000    0.000    0.000    0.000    0.000    0.000 
#
# Total GULP energy -178601.420764 kJ/mol
# GULP energy per Si atom -5581.294399 kJ/mol
# Density = 2.181369 g / cm^3
# Si number density = 21.863455 Si / 1000 Ang^3
#
#
#
# Elastic Constant Matrix: (Units=GPa)
#
#
# Indices 1 2 3 4 5 6 
#
# 1 70.9535 -2.3156 37.9222 0.0000 26.6036 0.0000
# 2 -2.3156 69.6227 -5.7913 0.0000 0.3989 0.0000
# 3 37.9222 -5.7913 83.1696 0.0000 38.0719 0.0000
# 4 0.0000 0.0000 0.0000 2.5538 0.0000 -3.6334
# 5 26.6036 0.3989 38.0719 0.0000 30.8213 0.0000
# 6 0.0000 0.0000 0.0000 -3.6334 0.0000 0.1639
#
#
#
# Elastic Compliance Matrix: (Units=1/GPa)
#
#
# Indices 1 2 3 4 5 6 
#
# 1 0.021170 0.000550 -0.002868 0.000000 -0.014737 0.000000
# 2 0.000550 0.014608 0.002463 0.000000 -0.003706 0.000000
# 3 -0.002868 0.002463 0.028499 0.000000 -0.032759 0.000000
# 4 0.000000 0.000000 0.000000 -0.012824 0.000000 -0.284238
# 5 -0.014737 -0.003706 -0.032759 0.000000 0.085680 0.000000
# 6 0.000000 0.000000 0.000000 -0.284238 0.000000 -0.199780
#
#
# Mechanical properties :
#
#
# Convention : Reuss Voigt Hill
#
# Bulk Modulus (GPa) = 15.48808 31.48625 23.48716
# Shear Modulus (GPa) = -120.73074 19.63650 -50.54712
#
# Velocity S-wave (km/s) = -7.43910 3.00015 -4.81349
# Velocity P-wave (km/s) = 8.16625 5.14138 4.48630
#
# Compressibility (1/GPa) = 0.06456579
#
# Stress axis : x y z
#
# Youngs Moduli (GPa) = 47.23568 68.45787 35.08899
#
# Poissons Ratio (x) = -0.03765 0.10065
# Poissons Ratio (y) = -0.02598 -0.08642
# Poissons Ratio (z) = 0.13549 -0.16860
#
# Static dielectric constant tensor:
#      x y z
#    x 1.776420 0.000000 0.024430 
#    y 0.000000 1.852840 0.000000 
#    z 0.024430 0.000000 1.791520 
# 
# From -- ./inp_files/287589.got.cif
#   From: 2010.05.17/outbox.cif.g08.bks.cpg/sg12_144_cif.got.tgz:287589.got - 2010.06.03 13:09:07.
