data_PCOD9171678
_publ_section_title
;
Structure prediction by ZEFSAII (Michael W. Deem and Ramdas Pophale) SiO2 
 PCOD9171678
Probable space group: C 2/M
;
_chemical_formula_sum "Si O2"
_cell_formula_units_Z 64
_cell_length_a 28.472328
_cell_length_b 10.492963
_cell_length_c 24.883013
_cell_angle_alpha 90.000000
_cell_angle_beta 28.303379
_cell_angle_gamma 90.000000
_cell_volume 3524.770168
_symmetry_space_group_name_H-M "C 2/M"
_symmetry_group_IT_number 12
_symmetry_cell_setting 'monoclinic'
loop_
_space_group_symop_operation_xyz
x,y,z
-x,y,-z
-x,-y,-z
x,-y,z
1/2+x,1/2+y,z
1/2-x,1/2+y,-z
1/2-x,1/2-y,-z
1/2+x,1/2-y,z
loop_
_atom_site_type_symbol
_atom_site_label
_atom_site_fract_x
_atom_site_fract_y
_atom_site_fract_z
Si Si1 0.291458 0.745748 0.550350
Si Si2 0.512923 0.151228 0.221996
Si Si3 0.603055 0.850670 0.363775
Si Si4 0.649832 0.633824 0.616115
Si Si5 0.378855 0.849219 0.200642
Si Si6 0.994783 0.349046 0.648242
Si Si7 0.271269 0.848102 0.200656
Si Si8 0.410390 0.153585 0.967010
O O1 0.309787 0.641891 0.485228
O O2 0.240120 0.856166 0.566637
O O3 0.212878 0.707777 0.674130
O O4 0.398581 0.782486 0.464701
O O5 0.419016 0.242769 0.306951
O O6 0.544128 0.176286 0.252105
O O7 0.588661 0.180770 0.097488
O O8 0.487514 0.000000 0.243481
O O9 0.500000 0.841944 0.500000
O O10 0.577495 0.817267 0.327609
O O11 0.681980 0.747146 0.304065
O O12 0.635700 0.000000 0.334523
O O13 0.595694 0.500000 0.678585
O O14 0.355846 0.833980 0.160951
O O15 0.484931 0.799030 0.113849
O O16 0.378849 0.000000 0.211918
O O17 0.012805 0.500000 0.626130
O O18 0.243999 0.000000 0.227198
O O19 0.318983 0.806350 0.095854
O O20 0.411359 0.000000 0.971586
#
# Coordination Sequence:
#
# PCOD9171678 Si02
#       8
#     8   8   8   8   8   8   8   8
#     4  10  18  28  46  71 106 140 168 205 252 305
#     4   9  17  32  53  74 102 138 175 207 245 306
#     4  10  21  39  59  76 101 137 174 212 259 310
#     4  10  19  28  43  73 109 138 166 205 253 302
#     4  10  18  30  51  78 104 136 174 209 250 307
#     4   9  18  32  51  74  98 136 183 215 246 302
#     4  10  21  36  57  81 103 129 172 222 259 296
#     4   9  17  32  54  78 104 136 170 207 253 308
#
# _framework density 18.157212999999999
#
# number of rings (size 3 to 8) (size 9 to 14) (size 15 to 20)
#    0.000    2.375    1.250    1.875    0.000    4.750 
#    0.000    5.000    0.000    0.750    0.000    0.000 
#    0.000    0.000    0.000    0.000    0.000    0.000 
#
# Total GULP energy -178203.529559 kJ/mol
# GULP energy per Si atom -5568.860299 kJ/mol
# Density = 1.811589 g / cm^3
# Si number density = 18.157213 Si / 1000 Ang^3
#
#
#
# Elastic Constant Matrix: (Units=GPa)
#
#
# Indices 1 2 3 4 5 6 
#
# 1 54.8015 19.7380 5.8492 -0.0003 3.0302 -0.0001
# 2 19.7380 47.7333 13.4233 -0.0005 2.6205 -0.0006
# 3 5.8492 13.4233 63.4602 -0.0003 17.1033 -0.0003
# 4 -0.0003 -0.0005 -0.0003 16.6592 0.0003 -9.9845
# 5 3.0302 2.6205 17.1033 0.0003 21.8381 0.0001
# 6 -0.0001 -0.0006 -0.0003 -9.9845 0.0001 -31.2168
#
#
#
# Elastic Compliance Matrix: (Units=1/GPa)
#
#
# Indices 1 2 3 4 5 6 
#
# 1 0.021535 -0.008926 0.000532 0.000000 -0.002334 0.000000
# 2 -0.008926 0.026003 -0.005286 0.000000 0.002258 0.000000
# 3 0.000532 -0.005286 0.021138 0.000000 -0.015994 0.000000
# 4 0.000000 0.000000 0.000000 0.050371 -0.000001 -0.016111
# 5 -0.002334 0.002258 -0.015994 -0.000001 0.058371 0.000001
# 6 0.000000 0.000000 0.000000 -0.016111 0.000001 -0.026881
#
#
# Mechanical properties :
#
#
# Convention : Reuss Voigt Hill
#
# Bulk Modulus (GPa) = 24.20413 27.11289 25.65851
# Shear Modulus (GPa) = 26.08657 9.92172 18.00415
#
# Velocity S-wave (km/s) = 3.79450 2.34013 3.15234
# Velocity P-wave (km/s) = 5.70587 4.71872 5.23561
#
# Compressibility (1/GPa) = 0.04131527
#
# Stress axis : x y z
#
# Youngs Moduli (GPa) = 46.43613 38.45644 47.30892
#
# Poissons Ratio (x) = 0.34328 -0.02518
# Poissons Ratio (y) = 0.41451 0.25009
# Poissons Ratio (z) = -0.02471 0.20329
#
# Static dielectric constant tensor:
#      x y z
#    x 1.656040 0.000000 0.033400 
#    y 0.000000 1.629540 0.000000 
#    z 0.033400 0.000000 1.631580 
# 
# From -- ./inp_files/351766.got.cif
#   From: 2010.05.17/outbox.cif.g08.bks.cpg/sg12_176_cif.got.tgz:351766.got - 2010.06.03 13:09:07.
