data_PCOD9171211
_publ_section_title
;
Structure prediction by ZEFSAII (Michael W. Deem and Ramdas Pophale) SiO2 
 PCOD9171211
Probable space group: C 2/M
;
_chemical_formula_sum "Si O2"
_cell_formula_units_Z 56
_cell_length_a 15.633826
_cell_length_b 13.876613
_cell_length_c 31.201943
_cell_angle_alpha 90.000000
_cell_angle_beta 152.872117
_cell_angle_gamma 90.000000
_cell_volume 3086.557352
_symmetry_space_group_name_H-M "C 2/M"
_symmetry_group_IT_number 12
_symmetry_cell_setting 'monoclinic'
loop_
_space_group_symop_operation_xyz
x,y,z
-x,y,-z
-x,-y,-z
x,-y,z
1/2+x,1/2+y,z
1/2-x,1/2+y,-z
1/2-x,1/2-y,-z
1/2+x,1/2-y,z
loop_
_atom_site_type_symbol
_atom_site_label
_atom_site_fract_x
_atom_site_fract_y
_atom_site_fract_z
Si Si1 0.570742 0.888447 0.268951
Si Si2 0.339283 0.216498 0.098886
Si Si3 0.578692 0.612605 0.642536
Si Si4 0.433019 0.104132 0.018642
Si Si5 0.315708 0.777480 0.812300
Si Si6 0.665511 0.617115 0.542026
Si Si7 0.978112 0.112195 0.939132
O O1 0.418770 0.820486 0.179538
O O2 0.749548 0.888162 0.315806
O O3 0.644403 0.856500 0.348461
O O4 0.505360 0.000000 0.241474
O O5 0.222660 0.314004 0.048200
O O6 0.516215 0.229780 0.147349
O O7 0.187474 0.137643 0.015399
O O8 0.560293 0.500000 0.648302
O O9 0.635837 0.686009 0.705638
O O10 0.395855 0.642766 0.533334
O O11 0.363233 0.000000 0.001558
O O12 0.500000 0.100358 0.000000
O O13 0.613068 0.135852 0.126080
O O14 0.333901 0.681505 0.849518
O O15 0.500000 0.651269 0.500000
O O16 0.661934 0.500000 0.541426
O O17 0.934016 0.000000 0.914739
O O18 0.000000 0.134567 0.000000
#
# Coordination Sequence:
#
# PCOD9171211 Si02
#       7
#     8   8   8   8   8   8   8
#     4   8  13  21  35  58  86 111 133 161 202 247
#     4  10  18  27  43  65  85 105 132 170 211 245
#     4   8  13  21  35  58  86 111 133 161 202 247
#     4  10  20  32  43  56  79 112 144 170 199 241
#     4  10  18  27  43  65  85 105 132 170 211 245
#     4   7  10  18  32  52  82 113 133 155 195 246
#     4  10  20  32  43  56  79 112 144 170 199 241
#
# _framework density 18.143190000000001
#
# number of rings (size 3 to 8) (size 9 to 14) (size 15 to 20)
#    0.000    3.000    0.000    6.000    0.000    3.429 
#    0.000    0.000    0.000    0.000    0.000    5.000 
#    0.000   10.286    0.000    0.000    0.000    0.000 
#
# Total GULP energy -155902.995703 kJ/mol
# GULP energy per Si atom -5567.964132 kJ/mol
# Density = 1.810190 g / cm^3
# Si number density = 18.143190 Si / 1000 Ang^3
#
#
#
# Elastic Constant Matrix: (Units=GPa)
#
#
# Indices 1 2 3 4 5 6 
#
# 1 43.3836 23.1426 21.5100 -0.0002 -18.8456 -0.0001
# 2 23.1426 90.0048 48.7894 0.0000 -30.7500 -0.0001
# 3 21.5100 48.7894 123.9331 -0.0001 -51.0737 -0.0002
# 4 -0.0002 0.0000 -0.0001 7.3204 -0.0002 -17.7567
# 5 -18.8456 -30.7500 -51.0737 -0.0002 33.7125 -0.0001
# 6 -0.0001 -0.0001 -0.0002 -17.7567 -0.0001 12.8481
#
#
#
# Elastic Compliance Matrix: (Units=1/GPa)
#
#
# Indices 1 2 3 4 5 6 
#
# 1 0.032108 -0.003263 0.005010 -0.000001 0.022562 -0.000001
# 2 -0.003263 0.016499 -0.001274 0.000000 0.011294 0.000000
# 3 0.005010 -0.001274 0.022297 -0.000001 0.035417 -0.000001
# 4 -0.000001 0.000000 -0.000001 -0.058072 -0.000003 -0.080258
# 5 0.022562 0.011294 0.035417 -0.000003 0.106233 -0.000003
# 6 -0.000001 0.000000 -0.000001 -0.080258 -0.000003 -0.033087
#
#
# Mechanical properties :
#
#
# Convention : Reuss Voigt Hill
#
# Bulk Modulus (GPa) = 13.91830 49.35616 31.63723
# Shear Modulus (GPa) = 45.87925 21.70151 33.79038
#
# Velocity S-wave (km/s) = 5.03410 3.46226 4.32027
# Velocity P-wave (km/s) = 6.44031 6.57615 6.50858
#
# Compressibility (1/GPa) = 0.07184788
#
# Stress axis : x y z
#
# Youngs Moduli (GPa) = 31.14516 60.60927 44.84970
#
# Poissons Ratio (x) = 0.19778 -0.22469
# Poissons Ratio (y) = 0.10163 0.05716
# Poissons Ratio (z) = -0.15603 0.07725
#
# Static dielectric constant tensor:
#      x y z
#    x 1.663620 0.000000 -0.018350 
#    y 0.000000 1.627310 0.000000 
#    z -0.018350 0.000000 1.662890 
# 
# From -- ./inp_files/251151.got.cif
#   From: 2010.05.17/outbox.cif.g08.bks.cpg/sg12_126_cif.got.tgz:251151.got - 2010.06.03 13:09:07.
