data_PCOD9171168
_publ_section_title
;
Structure prediction by ZEFSAII (Michael W. Deem and Ramdas Pophale) SiO2 
 PCOD9171168
Probable space group: C 2/M
;
_chemical_formula_sum "Si O2"
_cell_formula_units_Z 64
_cell_length_a 31.573803
_cell_length_b 13.617766
_cell_length_c 10.323442
_cell_angle_alpha 90.000000
_cell_angle_beta 90.000010
_cell_angle_gamma 90.000000
_cell_volume 4438.715240
_symmetry_space_group_name_H-M "C 2/M"
_symmetry_group_IT_number 12
_symmetry_cell_setting 'monoclinic'
loop_
_space_group_symop_operation_xyz
x,y,z
-x,y,-z
-x,-y,-z
x,-y,z
1/2+x,1/2+y,z
1/2-x,1/2+y,-z
1/2-x,1/2-y,-z
1/2+x,1/2-y,z
loop_
_atom_site_type_symbol
_atom_site_label
_atom_site_fract_x
_atom_site_fract_y
_atom_site_fract_z
Si Si1 0.900217 0.381013 0.524582
Si Si2 0.061801 0.619323 0.750001
Si Si3 0.260134 0.610990 0.600627
Si Si4 0.307772 0.189778 0.599503
Si Si5 0.307772 0.189778 0.900497
Si Si6 0.535197 0.881095 0.250004
Si Si7 0.239866 0.110990 0.100627
Si Si8 0.099782 0.618987 0.024587
O O1 0.895408 0.500000 0.529955
O O2 0.913990 0.352198 0.380332
O O3 0.856125 0.333603 0.566626
O O4 0.937641 0.353710 0.623973
O O5 0.060308 0.500000 0.750002
O O6 0.013095 0.654337 0.749998
O O7 0.086009 0.647802 0.880338
O O8 0.276005 0.500000 0.583551
O O9 0.295095 0.695761 0.583716
O O10 0.222800 0.632087 0.498972
O O11 0.244512 0.619651 0.750000
O O12 0.299753 0.163098 0.750000
O O13 0.295095 0.304239 0.916284
O O14 0.356125 0.166396 0.933373
O O15 0.277200 0.132087 0.998972
O O16 0.562360 0.853710 0.123981
O O17 0.533041 0.000000 0.250004
O O18 0.223995 0.000000 0.083551
O O19 0.104591 0.500000 0.029959
#
# Coordination Sequence:
#
# PCOD9171168 Si02
#       8
#     8   8   8   8   8   8   8   8
#     4  10  18  27  42  63  87 116 147 177 209 253
#     4   9  18  28  40  59  87 119 145 173 212 256
#     4   9  19  33  48  64  87 116 146 182 220 257
#     4  10  19  31  46  66  89 115 148 181 215 257
#     4  10  19  31  46  66  89 115 148 181 215 257
#     4   9  16  28  42  59  85 115 145 177 214 254
#     4   9  19  33  48  64  87 116 146 182 220 257
#     4  10  18  27  42  63  87 116 147 177 209 253
#
# _framework density 14.418585999999999
#
# number of rings (size 3 to 8) (size 9 to 14) (size 15 to 20)
#    0.000    2.500    1.250    1.500    1.750    4.500 
#    0.000    0.000    0.000    0.000    0.000    0.000 
#    0.000    6.000    0.000    0.000    0.000    0.000 
#
# Total GULP energy -178266.588076 kJ/mol
# GULP energy per Si atom -5570.830877 kJ/mol
# Density = 1.438577 g / cm^3
# Si number density = 14.418586 Si / 1000 Ang^3
#
#
#
# Elastic Constant Matrix: (Units=GPa)
#
#
# Indices 1 2 3 4 5 6 
#
# 1 77.6121 25.2991 42.8095 0.0000 1.1104 0.0000
# 2 25.2991 50.5034 32.0926 0.0000 0.5727 0.0000
# 3 42.8095 32.0926 110.2731 0.0000 1.6432 0.0000
# 4 0.0000 0.0000 0.0000 14.9756 0.0000 -0.0159
# 5 1.1104 0.5727 1.6432 0.0000 24.0321 0.0000
# 6 0.0000 0.0000 0.0000 -0.0159 0.0000 15.1636
#
#
#
# Elastic Compliance Matrix: (Units=1/GPa)
#
#
# Indices 1 2 3 4 5 6 
#
# 1 0.017550 -0.005474 -0.005215 0.000000 -0.000324 0.000000
# 2 -0.005474 0.026001 -0.005442 0.000000 0.000005 0.000000
# 3 -0.005215 -0.005442 0.012684 0.000000 -0.000497 0.000000
# 4 0.000000 0.000000 0.000000 0.066775 0.000000 0.000070
# 5 -0.000324 0.000005 -0.000497 0.000000 0.041660 0.000000
# 6 0.000000 0.000000 0.000000 0.000070 0.000000 0.065947
#
#
# Mechanical properties :
#
#
# Convention : Reuss Voigt Hill
#
# Bulk Modulus (GPa) = 41.71384 48.75456 45.23420
# Shear Modulus (GPa) = 18.45897 20.04676 19.25286
#
# Velocity S-wave (km/s) = 3.58190 3.73277 3.65811
# Velocity P-wave (km/s) = 6.78970 7.24329 7.02016
#
# Compressibility (1/GPa) = 0.02397286
#
# Stress axis : x y z
#
# Youngs Moduli (GPa) = 56.97940 38.46036 78.83787
#
# Poissons Ratio (x) = 0.21052 0.41117
# Poissons Ratio (y) = 0.31189 0.42904
# Poissons Ratio (z) = 0.29717 0.20930
#
# Static dielectric constant tensor:
#      x y z
#    x 1.452270 0.000000 0.003670 
#    y 0.000000 1.460760 0.000000 
#    z 0.003670 0.000000 1.495770 
# 
# From -- ./inp_files/111175.got.cif
#   From: 2010.05.17/outbox.cif.g08.bks.cpg/sg12_56_cif.got.tgz:111175.got - 2010.06.03 13:09:07.
