data_PCOD9171919
_publ_section_title
;
Structure prediction by ZEFSAII (Michael W. Deem and Ramdas Pophale) SiO2 
 PCOD9171919
Probable space group: C 2/M
;
_chemical_formula_sum "Si O2"
_cell_formula_units_Z 56
_cell_length_a 33.569554
_cell_length_b 9.086617
_cell_length_c 12.363819
_cell_angle_alpha 90.000000
_cell_angle_beta 104.487563
_cell_angle_gamma 90.000000
_cell_volume 3651.458704
_symmetry_space_group_name_H-M "C 2/M"
_symmetry_group_IT_number 12
_symmetry_cell_setting 'monoclinic'
loop_
_space_group_symop_operation_xyz
x,y,z
-x,y,-z
-x,-y,-z
x,-y,z
1/2+x,1/2+y,z
1/2-x,1/2+y,-z
1/2-x,1/2-y,-z
1/2+x,1/2-y,z
loop_
_atom_site_type_symbol
_atom_site_label
_atom_site_fract_x
_atom_site_fract_y
_atom_site_fract_z
Si Si1 0.304040 0.330287 0.941335
Si Si2 0.561763 0.177221 0.539390
Si Si3 0.114926 0.324558 0.940259
Si Si4 0.003577 0.176443 0.342569
Si Si5 0.724372 0.330613 0.825362
Si Si6 0.356645 0.175077 0.285259
Si Si7 0.027928 0.823989 0.917655
O O1 0.309869 0.500000 0.915516
O O2 0.267073 0.257054 0.849474
O O3 0.346740 0.242787 0.968298
O O4 0.289475 0.326166 0.057446
O O5 0.533044 0.248290 0.613207
O O6 0.544760 0.250255 0.418506
O O7 0.608840 0.209463 0.602336
O O8 0.556256 0.000000 0.534736
O O9 0.114291 0.500000 0.950678
O O10 0.123571 0.290076 0.819109
O O11 0.071705 0.255822 0.944589
O O12 0.995301 0.204887 0.211234
O O13 0.003674 0.000000 0.360683
O O14 0.730283 0.500000 0.799596
O O15 0.686426 0.258734 0.736038
O O16 0.348869 0.000000 0.280790
O O17 0.034942 0.000000 0.928849
O O18 0.000000 0.779468 0.000000
#
# Coordination Sequence:
#
# PCOD9171919 Si02
#       7
#     8   8   8   8   8   8   8
#     4   9  16  26  39  56  82 115 146 177 216 261
#     4  10  18  29  45  64  89 117 146 181 223 268
#     4  10  18  29  44  62  84 112 150 187 221 263
#     4  10  19  30  45  64  85 112 149 187 224 265
#     4   9  16  24  37  58  83 113 146 179 212 252
#     4   9  17  27  40  60  87 117 145 176 216 264
#     4  10  21  35  48  63  87 118 152 190 230 269
#
# _framework density 15.336337
#
# number of rings (size 3 to 8) (size 9 to 14) (size 15 to 20)
#    0.000    2.429    1.429    3.000    0.000    6.000 
#    0.000    0.000    0.000    0.000    0.000    0.000 
#    0.000    1.143    0.000    3.429    0.000    5.286 
#
# Total GULP energy -156045.058764 kJ/mol
# GULP energy per Si atom -5573.037813 kJ/mol
# Density = 1.530143 g / cm^3
# Si number density = 15.336337 Si / 1000 Ang^3
#
#
#
# Elastic Constant Matrix: (Units=GPa)
#
#
# Indices 1 2 3 4 5 6 
#
# 1 106.8132 63.6679 63.1640 0.0000 35.9380 0.0000
# 2 63.6679 77.5936 46.0920 0.0000 22.0117 0.0000
# 3 63.1640 46.0920 69.3131 0.0000 22.5500 0.0000
# 4 0.0000 0.0000 0.0000 12.9583 0.0000 9.7698
# 5 35.9380 22.0117 22.5500 0.0000 31.8628 0.0000
# 6 0.0000 0.0000 0.0000 9.7698 0.0000 28.4112
#
#
#
# Elastic Compliance Matrix: (Units=1/GPa)
#
#
# Indices 1 2 3 4 5 6 
#
# 1 0.030334 -0.011653 -0.014787 0.000000 -0.015699 0.000000
# 2 -0.011653 0.026731 -0.007047 0.000000 -0.000335 0.000000
# 3 -0.014787 -0.007047 0.033229 0.000000 -0.001971 0.000000
# 4 0.000000 0.000000 0.000000 0.104180 0.000000 -0.035825
# 5 -0.015699 -0.000335 -0.001971 0.000000 0.050718 0.000000
# 6 0.000000 0.000000 0.000000 -0.035825 0.000000 0.047516
#
#
# Mechanical properties :
#
#
# Convention : Reuss Voigt Hill
#
# Bulk Modulus (GPa) = 42.87997 66.61862 54.74929
# Shear Modulus (GPa) = 13.60708 20.03286 16.81997
#
# Velocity S-wave (km/s) = 2.98190 3.61811 3.31530
# Velocity P-wave (km/s) = 6.31475 7.80942 7.10151
#
# Compressibility (1/GPa) = 0.02332091
#
# Stress axis : x y z
#
# Youngs Moduli (GPa) = 32.96602 37.41032 30.09386
#
# Poissons Ratio (x) = 0.43595 0.44498
# Poissons Ratio (y) = 0.38416 0.21207
# Poissons Ratio (z) = 0.48745 0.26363
#
# Static dielectric constant tensor:
#      x y z
#    x 1.490560 0.000000 0.025150 
#    y 0.000000 1.512860 0.000000 
#    z 0.025150 0.000000 1.503610 
# 
# From -- ./inp_files/247897.got.cif
#   From: 2010.05.17/outbox.cif.g08.bks.cpg/sg12_124_cif.got.tgz:247897.got - 2010.06.03 13:09:07.
