data_PCOD9171026
_publ_section_title
;
Structure prediction by ZEFSAII (Michael W. Deem and Ramdas Pophale) SiO2 
 PCOD9171026
Probable space group: C 2/M
;
_chemical_formula_sum "Si O2"
_cell_formula_units_Z 56
_cell_length_a 17.230245
_cell_length_b 23.553363
_cell_length_c 8.228392
_cell_angle_alpha 90.000000
_cell_angle_beta 91.017776
_cell_angle_gamma 90.000000
_cell_volume 3338.803257
_symmetry_space_group_name_H-M "C 2/M"
_symmetry_group_IT_number 12
_symmetry_cell_setting 'monoclinic'
loop_
_space_group_symop_operation_xyz
x,y,z
-x,y,-z
-x,-y,-z
x,-y,z
1/2+x,1/2+y,z
1/2-x,1/2+y,-z
1/2-x,1/2-y,-z
1/2+x,1/2-y,z
loop_
_atom_site_type_symbol
_atom_site_label
_atom_site_fract_x
_atom_site_fract_y
_atom_site_fract_z
Si Si1 0.043441 0.225046 0.747852
Si Si2 0.477058 0.065880 0.687412
Si Si3 0.591234 0.153962 0.858678
Si Si4 0.811218 0.179109 0.121201
Si Si5 0.745572 0.805569 0.773176
Si Si6 0.616223 0.262459 0.393840
Si Si7 0.844187 0.642835 0.771921
O O1 0.049246 0.285514 0.837703
O O2 0.098112 0.178656 0.834505
O O3 0.083371 0.236011 0.573601
O O4 0.953476 0.212030 0.717529
O O5 0.500000 0.072887 0.500000
O O6 0.533908 0.104818 0.798703
O O7 0.390113 0.089500 0.704574
O O8 0.483320 0.000000 0.732466
O O9 0.668907 0.156980 0.749955
O O10 0.623292 0.150057 0.042711
O O11 0.785351 0.243373 0.171892
O O12 0.748968 0.140628 0.214200
O O13 0.794401 0.173027 0.929913
O O14 0.803738 0.796286 0.627061
O O15 0.632080 0.198723 0.330138
#
# Coordination Sequence:
#
# PCOD9171026 Si02
#       7
#     8   8   8   8   8   8   8
#     4  10  18  26  40  64  91 118 147 177 213 258
#     4  11  23  35  47  65  87 113 149 189 226 265
#     4  10  19  31  46  61  82 114 149 184 221 259
#     4   8  16  28  41  60  83 111 147 179 212 258
#     4   8  16  28  41  60  83 111 147 179 212 258
#     4  10  18  26  40  64  91 118 147 177 213 258
#     4  10  19  31  46  61  82 114 149 184 221 259
#
# _framework density 16.772478
#
# number of rings (size 3 to 8) (size 9 to 14) (size 15 to 20)
#    0.000    2.429    1.429    3.857    0.000    9.143 
#    0.000    0.000    0.000    0.000    0.000    0.000 
#    0.000    1.143    0.000   12.571    0.000    9.143 
#
# Total GULP energy -156113.384354 kJ/mol
# GULP energy per Si atom -5575.478013 kJ/mol
# Density = 1.673430 g / cm^3
# Si number density = 16.772478 Si / 1000 Ang^3
#
#
#
# Elastic Constant Matrix: (Units=GPa)
#
#
# Indices 1 2 3 4 5 6 
#
# 1 71.0471 26.2829 11.6664 0.0000 0.2040 0.0000
# 2 26.2829 45.6621 10.5302 0.0000 -2.9685 0.0000
# 3 11.6664 10.5302 29.4170 0.0000 -3.0329 0.0000
# 4 0.0000 0.0000 0.0000 6.8007 0.0000 -0.0323
# 5 0.2040 -2.9685 -3.0329 0.0000 31.0766 0.0000
# 6 0.0000 0.0000 0.0000 -0.0323 0.0000 15.9759
#
#
#
# Elastic Compliance Matrix: (Units=1/GPa)
#
#
# Indices 1 2 3 4 5 6 
#
# 1 0.018326 -0.009735 -0.003931 0.000000 -0.001434 0.000000
# 2 -0.009735 0.029108 -0.006329 0.000000 0.002227 0.000000
# 3 -0.003931 -0.006329 0.038143 0.000000 0.003144 0.000000
# 4 0.000000 0.000000 0.000000 0.147045 0.000000 0.000297
# 5 -0.001434 0.002227 0.003144 0.000000 0.032707 0.000000
# 6 0.000000 0.000000 0.000000 0.000297 0.000000 0.062595
#
#
# Mechanical properties :
#
#
# Convention : Reuss Voigt Hill
#
# Bulk Modulus (GPa) = 21.93646 27.00948 24.47297
# Shear Modulus (GPa) = 13.05110 17.28043 15.16576
#
# Velocity S-wave (km/s) = 2.79252 3.21329 3.01026
# Velocity P-wave (km/s) = 4.84817 5.46858 5.16769
#
# Compressibility (1/GPa) = 0.04558620
#
# Stress axis : x y z
#
# Youngs Moduli (GPa) = 54.56679 34.35502 26.21743
#
# Poissons Ratio (x) = 0.33445 0.10306
# Poissons Ratio (y) = 0.53122 0.16593
# Poissons Ratio (z) = 0.21450 0.21743
#
# Static dielectric constant tensor:
#      x y z
#    x 1.630520 0.000000 0.001610 
#    y 0.000000 1.519910 0.000000 
#    z 0.001610 0.000000 1.630120 
# 
# From -- ./inp_files/76869.got.cif
#   From: 2010.05.17/outbox.cif.g08.bks.cpg/sg12_39_cif.got.tgz:76869.got - 2010.06.03 13:09:07.
