data_PCOD9171461
_publ_section_title
;
Structure prediction by ZEFSAII (Michael W. Deem and Ramdas Pophale) SiO2 
 PCOD9171461
Probable space group: C 2/M
;
_chemical_formula_sum "Si O2"
_cell_formula_units_Z 64
_cell_length_a 29.035382
_cell_length_b 7.906729
_cell_length_c 15.247882
_cell_angle_alpha 90.000000
_cell_angle_beta 93.135027
_cell_angle_gamma 90.000000
_cell_volume 3495.292125
_symmetry_space_group_name_H-M "C 2/M"
_symmetry_group_IT_number 12
_symmetry_cell_setting 'monoclinic'
loop_
_space_group_symop_operation_xyz
x,y,z
-x,y,-z
-x,-y,-z
x,-y,z
1/2+x,1/2+y,z
1/2-x,1/2+y,-z
1/2-x,1/2-y,-z
1/2+x,1/2-y,z
loop_
_atom_site_type_symbol
_atom_site_label
_atom_site_fract_x
_atom_site_fract_y
_atom_site_fract_z
Si Si1 0.897425 0.306045 0.340364
Si Si2 0.238413 0.701979 0.097523
Si Si3 0.910743 0.699595 0.670561
Si Si4 0.502670 0.303274 0.599836
Si Si5 0.846956 0.196727 0.505409
Si Si6 0.193451 0.703096 0.739648
Si Si7 0.341542 0.198495 0.796072
Si Si8 0.725980 0.293806 0.370664
O O1 0.908193 0.500000 0.319069
O O2 0.945636 0.214394 0.359320
O O3 0.869667 0.299131 0.429361
O O4 0.858928 0.232937 0.270201
O O5 0.236344 0.500000 0.102946
O O6 0.277754 0.757871 0.170322
O O7 0.188879 0.771296 0.127390
O O8 0.250000 0.750000 0.000000
O O9 0.899657 0.500000 0.662221
O O10 0.883254 0.791465 0.589636
O O11 0.889932 0.762492 0.761361
O O12 0.964574 0.721614 0.658354
O O13 0.500000 0.231587 0.500000
O O14 0.490211 0.500000 0.592312
O O15 0.798552 0.260795 0.541659
O O16 0.842804 0.000000 0.479478
O O17 0.190478 0.500000 0.732065
O O18 0.223983 0.762004 0.658861
O O19 0.307391 0.224713 0.709600
O O20 0.348124 0.000000 0.815557
O O21 0.724336 0.500000 0.369781
#
# Coordination Sequence:
#
# PCOD9171461 Si02
#       8
#     8   8   8   8   8   8   8   8
#     4  11  22  33  47  66  92 128 169 210 248 288
#     4  10  19  33  55  81 107 132 158 190 235 290
#     4  10  18  30  49  69  93 125 165 210 250 285
#     4  11  22  34  48  67  93 127 170 216 256 293
#     4  10  18  28  43  65  92 126 165 203 244 285
#     4   9  19  35  50  69  97 128 163 201 241 288
#     4   8  16  29  46  72 100 125 156 196 238 284
#     4   8  15  28  45  63  90 126 161 197 236 281
#
# _framework density 18.310344000000001
#
# number of rings (size 3 to 8) (size 9 to 14) (size 15 to 20)
#    0.000    2.375    1.250    1.875    0.000    3.500 
#    0.000    0.000    0.000    0.000    0.000    0.875 
#    0.000    7.000    0.000    0.000    0.000    0.000 
#
# Total GULP energy -178336.451105 kJ/mol
# GULP energy per Si atom -5573.014097 kJ/mol
# Density = 1.826867 g / cm^3
# Si number density = 18.310344 Si / 1000 Ang^3
#
#
#
# Elastic Constant Matrix: (Units=GPa)
#
#
# Indices 1 2 3 4 5 6 
#
# 1 140.3062 2.1537 46.4719 0.0000 -11.9501 0.0000
# 2 2.1537 34.2815 -2.6711 0.0000 -1.0394 0.0000
# 3 46.4719 -2.6711 77.6722 0.0000 -17.6726 0.0000
# 4 0.0000 0.0000 0.0000 14.3355 0.0000 -2.4681
# 5 -11.9501 -1.0394 -17.6726 0.0000 24.0062 0.0000
# 6 0.0000 0.0000 0.0000 -2.4681 0.0000 16.3721
#
#
#
# Elastic Compliance Matrix: (Units=1/GPa)
#
#
# Indices 1 2 3 4 5 6 
#
# 1 0.008927 -0.000954 -0.005252 0.000000 0.000536 0.000000
# 2 -0.000954 0.029467 0.002122 0.000000 0.002363 0.000000
# 3 -0.005252 0.002122 0.018638 0.000000 0.011198 0.000000
# 4 0.000000 0.000000 0.000000 0.071616 0.000000 0.010796
# 5 0.000536 0.002363 0.011198 0.000000 0.050269 0.000000
# 6 0.000000 0.000000 0.000000 0.010796 0.000000 0.062707
#
#
# Mechanical properties :
#
#
# Convention : Reuss Voigt Hill
#
# Bulk Modulus (GPa) = 20.46503 38.24099 29.35301
# Shear Modulus (GPa) = 18.79138 24.69646 21.74392
#
# Velocity S-wave (km/s) = 3.20702 3.67655 3.44978
# Velocity P-wave (km/s) = 4.99143 6.24123 5.65098
#
# Compressibility (1/GPa) = 0.04886385
#
# Stress axis : x y z
#
# Youngs Moduli (GPa) = 112.01813 33.93612 53.65459
#
# Poissons Ratio (x) = 0.03237 0.28179
# Poissons Ratio (y) = 0.10684 -0.11384
# Poissons Ratio (z) = 0.58832 -0.07200
#
# Static dielectric constant tensor:
#      x y z
#    x 1.689150 0.000000 -0.020500 
#    y 0.000000 1.653230 0.000000 
#    z -0.020500 0.000000 1.667140 
# 
# From -- ./inp_files/244060.got.cif
#   From: 2010.05.17/outbox.cif.g08.bks.cpg/sg12_123_cif.got.tgz:244060.got - 2010.06.03 13:09:07.
