data_PCOD9171987
_publ_section_title
;
Structure prediction by ZEFSAII (Michael W. Deem and Ramdas Pophale) SiO2 
 PCOD9171987
Probable space group: C 2/M
;
_chemical_formula_sum "Si O2"
_cell_formula_units_Z 56
_cell_length_a 29.912375
_cell_length_b 9.000181
_cell_length_c 17.721797
_cell_angle_alpha 90.000000
_cell_angle_beta 131.138473
_cell_angle_gamma 90.000000
_cell_volume 3593.148126
_symmetry_space_group_name_H-M "C 2/M"
_symmetry_group_IT_number 12
_symmetry_cell_setting 'monoclinic'
loop_
_space_group_symop_operation_xyz
x,y,z
-x,y,-z
-x,-y,-z
x,-y,z
1/2+x,1/2+y,z
1/2-x,1/2+y,-z
1/2-x,1/2-y,-z
1/2+x,1/2-y,z
loop_
_atom_site_type_symbol
_atom_site_label
_atom_site_fract_x
_atom_site_fract_y
_atom_site_fract_z
Si Si1 0.234402 0.323070 0.862309
Si Si2 0.785105 0.821692 0.607937
Si Si3 0.045641 0.178644 0.870423
Si Si4 0.842420 0.178218 0.096297
Si Si5 0.578391 0.678279 0.218189
Si Si6 0.268827 0.172906 0.748130
Si Si7 0.910706 0.327723 0.927928
O O1 0.229961 0.500000 0.849375
O O2 0.182720 0.260039 0.858406
O O3 0.236542 0.246233 0.783481
O O4 0.295687 0.291110 0.976365
O O5 0.750000 0.750000 0.500000
O O6 0.855359 0.781104 0.682034
O O7 0.761261 0.759145 0.661115
O O8 0.780469 0.000000 0.601281
O O9 0.092335 0.226522 0.858437
O O10 0.976103 0.217896 0.787309
O O11 0.049941 0.000000 0.878435
O O12 0.067653 0.242909 0.974339
O O13 0.841582 0.000000 0.107885
O O14 0.577874 0.500000 0.206879
O O15 0.567228 0.754095 0.124987
O O16 0.339189 0.180618 0.844493
O O17 0.252689 0.000000 0.721713
O O18 0.928047 0.500000 0.950780
#
# Coordination Sequence:
#
# PCOD9171987 Si02
#       7
#     8   8   8   8   8   8   8
#     4  10  18  29  45  66  92 125 163 199 233 269
#     4  10  20  35  53  73  95 119 152 194 240 284
#     4  10  18  30  45  63  90 127 163 190 223 268
#     4   9  18  29  43  63  92 128 163 197 229 266
#     4   9  19  32  47  65  89 122 157 190 226 277
#     4  10  19  31  48  69  95 126 159 194 234 278
#     4  10  19  28  41  64  94 125 157 192 227 267
#
# _framework density 15.58522
#
# number of rings (size 3 to 8) (size 9 to 14) (size 15 to 20)
#    0.000    2.286    1.429    2.143    0.000    5.143 
#    0.000    0.000    0.000    0.000    0.000    1.000 
#    0.000    8.000    0.000    0.000    0.000    0.000 
#
# Total GULP energy -156138.090179 kJ/mol
# GULP energy per Si atom -5576.360364 kJ/mol
# Density = 1.554975 g / cm^3
# Si number density = 15.585220 Si / 1000 Ang^3
#
#
#
# Elastic Constant Matrix: (Units=GPa)
#
#
# Indices 1 2 3 4 5 6 
#
# 1 145.7751 49.7326 52.1985 0.0000 -15.4662 0.0000
# 2 49.7326 44.0985 38.3132 0.0000 -8.9449 0.0000
# 3 52.1985 38.3132 75.8736 0.0000 -14.3969 0.0000
# 4 0.0000 0.0000 0.0000 22.9462 0.0000 -5.7110
# 5 -15.4662 -8.9449 -14.3969 0.0000 14.4882 0.0000
# 6 0.0000 0.0000 0.0000 -5.7110 0.0000 21.6695
#
#
#
# Elastic Compliance Matrix: (Units=1/GPa)
#
#
# Indices 1 2 3 4 5 6 
#
# 1 0.011570 -0.010659 -0.001827 0.000000 0.003955 0.000000
# 2 -0.010659 0.050613 -0.017813 0.000000 0.002169 0.000000
# 3 -0.001827 -0.017813 0.025849 0.000000 0.012738 0.000000
# 4 0.000000 0.000000 0.000000 0.046639 0.000000 0.012292
# 5 0.003955 0.002169 0.012738 0.000000 0.087240 0.000000
# 6 0.000000 0.000000 0.000000 0.012292 0.000000 0.049387
#
#
# Mechanical properties :
#
#
# Convention : Reuss Voigt Hill
#
# Bulk Modulus (GPa) = 36.45142 60.69286 48.57214
# Shear Modulus (GPa) = 14.66095 20.18764 17.42430
#
# Velocity S-wave (km/s) = 3.07040 3.60294 3.34728
# Velocity P-wave (km/s) = 6.00076 7.50569 6.79501
#
# Compressibility (1/GPa) = 0.02743378
#
# Stress axis : x y z
#
# Youngs Moduli (GPa) = 86.43027 19.75773 38.68634
#
# Poissons Ratio (x) = 0.21059 0.07069
# Poissons Ratio (y) = 0.92122 0.68914
# Poissons Ratio (z) = 0.15793 0.35195
#
# Static dielectric constant tensor:
#      x y z
#    x 1.547220 0.000000 0.020930 
#    y 0.000000 1.517510 0.000000 
#    z 0.020930 0.000000 1.481520 
# 
# From -- ./inp_files/244299.got.cif
#   From: 2010.05.17/outbox.cif.g08.bks.cpg/sg12_123_cif.got.tgz:244299.got - 2010.06.03 13:09:07.
