data_PCOD9171286
_publ_section_title
;
Structure prediction by ZEFSAII (Michael W. Deem and Ramdas Pophale) SiO2 
 PCOD9171286
Probable space group: C 2/M
;
_chemical_formula_sum "Si O2"
_cell_formula_units_Z 56
_cell_length_a 20.486900
_cell_length_b 9.219104
_cell_length_c 19.622316
_cell_angle_alpha 90.000000
_cell_angle_beta 111.927005
_cell_angle_gamma 90.000000
_cell_volume 3437.986939
_symmetry_space_group_name_H-M "C 2/M"
_symmetry_group_IT_number 12
_symmetry_cell_setting 'monoclinic'
loop_
_space_group_symop_operation_xyz
x,y,z
-x,y,-z
-x,-y,-z
x,-y,z
1/2+x,1/2+y,z
1/2-x,1/2+y,-z
1/2-x,1/2-y,-z
1/2+x,1/2-y,z
loop_
_atom_site_type_symbol
_atom_site_label
_atom_site_fract_x
_atom_site_fract_y
_atom_site_fract_z
Si Si1 0.726745 0.168076 0.648962
Si Si2 0.611959 0.667658 0.345068
Si Si3 0.934638 0.327358 0.800486
Si Si4 0.801920 0.827035 0.968041
Si Si5 0.702084 0.674211 0.190401
Si Si6 0.050947 0.328835 0.954979
Si Si7 0.318770 0.673860 0.494537
O O1 0.807378 0.175026 0.651860
O O2 0.737034 0.213082 0.731510
O O3 0.678995 0.264923 0.581035
O O4 0.704816 0.000000 0.636126
O O5 0.589903 0.500000 0.330882
O O6 0.567348 0.766098 0.276943
O O7 0.619005 0.707936 0.427486
O O8 0.924305 0.500000 0.796219
O O9 0.869424 0.253684 0.814834
O O10 0.005358 0.295666 0.869980
O O11 0.880233 0.767299 0.010774
O O12 0.799662 0.000000 0.975661
O O13 0.750000 0.750000 0.000000
O O14 0.782042 0.793559 0.881726
O O15 0.691168 0.500000 0.193076
O O16 0.070150 0.500000 0.961412
O O17 0.000000 0.306840 0.000000
O O18 0.309752 0.500000 0.491171
O O19 0.250000 0.750000 0.500000
#
# Coordination Sequence:
#
# PCOD9171286 Si02
#       7
#     8   8   8   8   8   8   8
#     4   8  14  24  37  54  79 112 149 188 226 271
#     4   8  15  25  35  52  85 120 149 187 230 276
#     4  10  18  27  45  69  91 120 157 198 237 277
#     4  11  23  37  54  73  97 130 165 203 247 295
#     4   9  18  31  45  64  91 122 156 194 239 287
#     4  10  20  35  52  73 101 127 159 205 248 288
#     4   9  15  22  32  50  78 114 150 183 225 272
#
# _framework density 16.288602000000001
#
# number of rings (size 3 to 8) (size 9 to 14) (size 15 to 20)
#    0.000    2.714    1.429    3.000    0.000    7.714 
#    0.000    0.000    0.000    0.000    0.000    0.000 
#    0.000    1.143    0.000   12.857    0.000    8.429 
#
# Total GULP energy -155910.369282 kJ/mol
# GULP energy per Si atom -5568.227474 kJ/mol
# Density = 1.625153 g / cm^3
# Si number density = 16.288602 Si / 1000 Ang^3
#
#
#
# Elastic Constant Matrix: (Units=GPa)
#
#
# Indices 1 2 3 4 5 6 
#
# 1 28.9020 25.7759 40.6171 0.0000 -3.3489 0.0000
# 2 25.7759 57.3480 75.6264 0.0000 3.1751 0.0000
# 3 40.6171 75.6264 186.2871 0.0000 12.3843 0.0000
# 4 0.0000 0.0000 0.0000 31.7350 0.0000 3.8647
# 5 -3.3489 3.1751 12.3843 0.0000 10.4640 0.0000
# 6 0.0000 0.0000 0.0000 3.8647 0.0000 15.8116
#
#
#
# Elastic Compliance Matrix: (Units=1/GPa)
#
#
# Indices 1 2 3 4 5 6 
#
# 1 0.072781 -0.022491 -0.009487 0.000000 0.041346 0.000000
# 2 -0.022491 0.044987 -0.012996 0.000000 -0.005468 0.000000
# 3 -0.009487 -0.012996 0.013733 0.000000 -0.015346 0.000000
# 4 0.000000 0.000000 0.000000 0.032478 0.000000 -0.007938
# 5 0.041346 -0.005468 -0.015346 0.000000 0.128619 0.000000
# 6 0.000000 0.000000 0.000000 -0.007938 0.000000 0.065185
#
#
# Mechanical properties :
#
#
# Convention : Reuss Voigt Hill
#
# Bulk Modulus (GPa) = 24.06553 61.84176 42.95365
# Shear Modulus (GPa) = 10.83230 20.30330 15.56780
#
# Velocity S-wave (km/s) = 2.58160 3.53437 3.09487
# Velocity P-wave (km/s) = 4.86752 7.39624 6.26088
#
# Compressibility (1/GPa) = 0.04155320
#
# Stress axis : x y z
#
# Youngs Moduli (GPa) = 13.73980 22.22846 72.81915
#
# Poissons Ratio (x) = 0.49994 0.69082
# Poissons Ratio (y) = 0.30902 0.94636
# Poissons Ratio (z) = 0.13035 0.28888
#
# Static dielectric constant tensor:
#      x y z
#    x 1.500860 0.000000 -0.000730 
#    y 0.000000 1.541130 0.000000 
#    z -0.000730 0.000000 1.616110 
# 
# From -- ./inp_files/280386.got.cif
#   From: 2010.05.17/outbox.cif.g08.bks.cpg/sg12_141_cif.got.tgz:280386.got - 2010.06.03 13:09:07.
