data_PCOD9171970
_publ_section_title
;
Structure prediction by ZEFSAII (Michael W. Deem and Ramdas Pophale) SiO2 
 PCOD9171970
Probable space group: C 2/M
;
_chemical_formula_sum "Si O2"
_cell_formula_units_Z 56
_cell_length_a 19.939346
_cell_length_b 7.485632
_cell_length_c 22.227300
_cell_angle_alpha 90.000000
_cell_angle_beta 121.482341
_cell_angle_gamma 90.000000
_cell_volume 2829.266629
_symmetry_space_group_name_H-M "C 2/M"
_symmetry_group_IT_number 12
_symmetry_cell_setting 'monoclinic'
loop_
_space_group_symop_operation_xyz
x,y,z
-x,y,-z
-x,-y,-z
x,-y,z
1/2+x,1/2+y,z
1/2-x,1/2+y,-z
1/2-x,1/2-y,-z
1/2+x,1/2-y,z
loop_
_atom_site_type_symbol
_atom_site_label
_atom_site_fract_x
_atom_site_fract_y
_atom_site_fract_z
Si Si1 0.450257 0.289701 0.200684
Si Si2 0.502714 0.280239 0.355160
Si Si3 0.165887 0.785632 0.491869
Si Si4 0.123249 0.718124 0.054926
Si Si5 0.414060 0.707168 0.427625
Si Si6 0.994842 0.714901 0.899721
Si Si7 0.218197 0.214007 0.918357
O O1 0.438712 0.500000 0.205828
O O2 0.482501 0.218721 0.278610
O O3 0.506306 0.271748 0.169421
O O4 0.366757 0.212841 0.139022
O O5 0.502830 0.500000 0.357106
O O6 0.590260 0.224932 0.417272
O O7 0.436551 0.219025 0.372450
O O8 0.250000 0.750000 0.500000
O O9 0.147451 0.718556 0.551715
O O10 0.159900 0.000000 0.492926
O O11 0.122408 0.500000 0.053931
O O12 0.212222 0.778605 0.092195
O O13 0.076865 0.775672 0.092270
O O14 0.073108 0.774643 0.972654
O O15 0.500000 0.709686 0.500000
O O16 0.391630 0.500000 0.407582
O O17 0.995634 0.500000 0.900901
O O18 0.213593 0.000000 0.911479
O O19 0.250000 0.250000 0.000000
#
# Coordination Sequence:
#
# PCOD9171970 Si02
#       7
#     8   8   8   8   8   8   8
#     4  10  19  29  45  69  92 115 147 189 233 268
#     4   8  15  29  46  65  92 123 149 179 223 268
#     4   9  16  28  49  73  94 117 148 184 219 260
#     4   8  15  28  45  62  82 114 152 184 223 272
#     4   7  11  23  45  67  85 114 154 181 202 250
#     4   9  16  29  47  62  84 120 151 179 222 275
#     4  10  18  29  45  65  86 110 148 191 223 259
#
# _framework density 19.793116000000001
#
# number of rings (size 3 to 8) (size 9 to 14) (size 15 to 20)
#    0.000    3.286    1.429    2.571    0.000    0.000 
#    0.000    4.286    0.000    8.143    0.000    0.000 
#    0.000    0.000    0.000    0.000    0.000    0.000 
#
# Total GULP energy -155904.491870 kJ/mol
# GULP energy per Si atom -5568.017567 kJ/mol
# Density = 1.974807 g / cm^3
# Si number density = 19.793116 Si / 1000 Ang^3
#
#
#
# Elastic Constant Matrix: (Units=GPa)
#
#
# Indices 1 2 3 4 5 6 
#
# 1 157.6688 0.9952 79.3638 0.0000 -24.4060 0.0000
# 2 0.9952 53.8290 3.9830 0.0000 1.8340 0.0000
# 3 79.3638 3.9830 134.8999 0.0000 -33.8050 0.0000
# 4 0.0000 0.0000 0.0000 -2.9951 0.0000 4.7556
# 5 -24.4060 1.8340 -33.8050 0.0000 28.7596 0.0000
# 6 0.0000 0.0000 0.0000 4.7556 0.0000 8.8215
#
#
#
# Elastic Compliance Matrix: (Units=1/GPa)
#
#
# Indices 1 2 3 4 5 6 
#
# 1 0.009094 0.000122 -0.004851 0.000000 0.002008 0.000000
# 2 0.000122 0.018758 -0.001275 0.000000 -0.002591 0.000000
# 3 -0.004851 -0.001275 0.013173 0.000000 0.011449 0.000000
# 4 0.000000 0.000000 0.000000 -0.179894 0.000000 0.096979
# 5 0.002008 -0.002591 0.011449 0.000000 0.050098 0.000000
# 6 0.000000 0.000000 0.000000 0.096979 0.000000 0.061079
#
#
# Mechanical properties :
#
#
# Convention : Reuss Voigt Hill
#
# Bulk Modulus (GPa) = 34.46092 57.23131 45.84611
# Shear Modulus (GPa) = -831.69123 24.38757 -403.65183
#
# Velocity S-wave (km/s) = -20.52083 3.51397 -14.29609
# Velocity P-wave (km/s) = 23.32432 6.74103 15.78896
#
# Compressibility (1/GPa) = 0.02901838
#
# Stress axis : x y z
#
# Youngs Moduli (GPa) = 109.96199 53.31137 75.91065
#
# Poissons Ratio (x) = -0.00652 0.36821
# Poissons Ratio (y) = -0.01346 0.09680
# Poissons Ratio (z) = 0.53338 0.06798
#
# Static dielectric constant tensor:
#      x y z
#    x 1.731290 0.000000 -0.022790 
#    y 0.000000 1.782710 0.000000 
#    z -0.022790 0.000000 1.688940 
# 
# From -- ./inp_files/319310.got.cif
#   From: 2010.05.17/outbox.cif.g08.bks.cpg/sg12_160_cif.got.tgz:319310.got - 2010.06.03 13:09:07.
