data_PCOD9171535
_publ_section_title
;
Structure prediction by ZEFSAII (Michael W. Deem and Ramdas Pophale) SiO2 
 PCOD9171535
Probable space group: C 2/M
;
_chemical_formula_sum "Si O2"
_cell_formula_units_Z 64
_cell_length_a 26.006064
_cell_length_b 21.687349
_cell_length_c 11.450159
_cell_angle_alpha 90.000000
_cell_angle_beta 31.738460
_cell_angle_gamma 90.000000
_cell_volume 3397.140928
_symmetry_space_group_name_H-M "C 2/M"
_symmetry_group_IT_number 12
_symmetry_cell_setting 'monoclinic'
loop_
_space_group_symop_operation_xyz
x,y,z
-x,y,-z
-x,-y,-z
x,-y,z
1/2+x,1/2+y,z
1/2-x,1/2+y,-z
1/2-x,1/2-y,-z
1/2+x,1/2-y,z
loop_
_atom_site_type_symbol
_atom_site_label
_atom_site_fract_x
_atom_site_fract_y
_atom_site_fract_z
Si Si1 0.697283 0.069325 0.164976
Si Si2 0.954632 0.230695 0.845133
Si Si3 0.912302 0.666593 0.763389
Si Si4 0.518856 0.932826 0.694787
Si Si5 0.149485 0.687869 0.776692
Si Si6 0.170058 0.255641 0.476759
Si Si7 0.297330 0.631740 0.171633
Si Si8 0.828798 0.429211 0.391473
O O1 0.675840 0.126748 0.120884
O O2 0.600402 0.066044 0.434183
O O3 0.782477 0.086800 0.091203
O O4 0.709764 0.000000 0.091215
O O5 0.903237 0.265498 0.835215
O O6 0.071453 0.230902 0.609573
O O7 0.933281 0.274928 0.996657
O O8 0.900869 0.166241 0.973616
O O9 0.000000 0.669992 0.500000
O O10 0.950531 0.623410 0.794972
O O11 0.580653 0.925835 0.692997
O O12 0.469792 0.000000 0.789026
O O13 0.153901 0.716098 0.637542
O O14 0.247593 0.704651 0.658702
O O15 0.145333 0.615308 0.764616
O O16 0.218135 0.312250 0.312953
O O17 0.263590 0.597135 0.355406
O O18 0.813596 0.500000 0.389292
#
# Coordination Sequence:
#
# PCOD9171535 Si02
#       8
#     8   8   8   8   8   8   8   8
#     4   9  16  28  45  63  89 120 149 188 231 273
#     4  11  20  30  48  70  96 125 156 197 234 278
#     4  10  18  28  44  68  96 124 154 190 240 286
#     4   8  14  25  43  65  88 118 151 180 223 283
#     4   9  18  30  47  70  92 125 162 186 230 286
#     4   9  17  31  48  68  98 125 151 192 234 276
#     4   9  18  31  49  72  92 121 159 189 234 286
#     4   9  16  30  49  67  96 128 153 193 234 270
#
# _framework density 18.839372000000001
#
# number of rings (size 3 to 8) (size 9 to 14) (size 15 to 20)
#    0.000    2.750    0.000    5.625    0.000    2.000 
#    0.000    1.250    0.000   12.000    0.000    0.000 
#    0.000    6.000    0.000    0.000    0.000    0.000 
#
# Total GULP energy -178332.534831 kJ/mol
# GULP energy per Si atom -5572.891713 kJ/mol
# Density = 1.879649 g / cm^3
# Si number density = 18.839372 Si / 1000 Ang^3
#
#
#
# Elastic Constant Matrix: (Units=GPa)
#
#
# Indices 1 2 3 4 5 6 
#
# 1 38.4452 16.4731 8.7945 0.0000 -0.8654 0.0000
# 2 16.4731 63.3676 3.7804 0.0000 0.3302 0.0000
# 3 8.7945 3.7804 29.8428 0.0000 -10.6615 0.0000
# 4 0.0000 0.0000 0.0000 19.7169 0.0000 2.8997
# 5 -0.8654 0.3302 -10.6615 0.0000 21.7881 0.0000
# 6 0.0000 0.0000 0.0000 2.8997 0.0000 22.0424
#
#
#
# Elastic Compliance Matrix: (Units=1/GPa)
#
#
# Indices 1 2 3 4 5 6 
#
# 1 0.031340 -0.007567 -0.009442 0.000000 -0.003261 0.000000
# 2 -0.007567 0.017768 -0.000272 0.000000 -0.000703 0.000000
# 3 -0.009442 -0.000272 0.043861 0.000000 0.021092 0.000000
# 4 0.000000 0.000000 0.000000 0.051719 0.000000 -0.006804
# 5 -0.003261 -0.000703 0.021092 0.000000 0.056099 0.000000
# 6 0.000000 0.000000 0.000000 -0.006804 0.000000 0.046262
#
#
# Mechanical properties :
#
#
# Convention : Reuss Voigt Hill
#
# Bulk Modulus (GPa) = 17.12130 21.08353 19.10241
# Shear Modulus (GPa) = 16.60695 19.54999 18.07847
#
# Velocity S-wave (km/s) = 2.97223 3.22486 3.10112
# Velocity P-wave (km/s) = 4.57019 5.00817 4.79419
#
# Compressibility (1/GPa) = 0.05840679
#
# Stress axis : x y z
#
# Youngs Moduli (GPa) = 31.90827 56.28128 22.79930
#
# Poissons Ratio (x) = 0.42587 0.21527
# Poissons Ratio (y) = 0.24144 0.00620
# Poissons Ratio (z) = 0.30128 0.01531
#
# Static dielectric constant tensor:
#      x y z
#    x 1.682470 0.000000 0.020080 
#    y 0.000000 1.688420 0.000000 
#    z 0.020080 0.000000 1.686130 
# 
# From -- ./inp_files/184676.got.cif
#   From: 2010.05.17/outbox.cif.g08.bks.cpg/sg12_93_cif.got.tgz:184676.got - 2010.06.03 13:09:07.
