data_PCOD9171442
_publ_section_title
;
Structure prediction by ZEFSAII (Michael W. Deem and Ramdas Pophale) SiO2 
 PCOD9171442
Probable space group: C 2/M
;
_chemical_formula_sum "Si O2"
_cell_formula_units_Z 64
_cell_length_a 25.548766
_cell_length_b 7.498565
_cell_length_c 15.991929
_cell_angle_alpha 90.000000
_cell_angle_beta 70.612277
_cell_angle_gamma 90.000000
_cell_volume 2889.987248
_symmetry_space_group_name_H-M "C 2/M"
_symmetry_group_IT_number 12
_symmetry_cell_setting 'monoclinic'
loop_
_space_group_symop_operation_xyz
x,y,z
-x,y,-z
-x,-y,-z
x,-y,z
1/2+x,1/2+y,z
1/2-x,1/2+y,-z
1/2-x,1/2-y,-z
1/2+x,1/2-y,z
loop_
_atom_site_type_symbol
_atom_site_label
_atom_site_fract_x
_atom_site_fract_y
_atom_site_fract_z
Si Si1 0.203329 0.199561 0.960590
Si Si2 0.775186 0.203526 0.242800
Si Si3 0.043631 0.283037 0.682100
Si Si4 0.082172 0.301160 0.015212
Si Si5 0.597047 0.208579 0.823458
Si Si6 0.423323 0.216995 0.797674
Si Si7 0.846063 0.280982 0.693000
Si Si8 0.937602 0.282346 0.509488
O O1 0.229090 0.202139 0.855335
O O2 0.148714 0.316386 0.990001
O O3 0.183254 0.000000 0.988514
O O4 0.250000 0.250000 0.000000
O O5 0.836343 0.281744 0.224395
O O6 0.715629 0.281771 0.299286
O O7 0.778248 0.000000 0.272204
O O8 0.047488 0.500000 0.681936
O O9 0.069167 0.215873 0.755264
O O10 0.072100 0.225319 0.581115
O O11 0.978410 0.240526 0.716185
O O12 0.057005 0.500000 0.026305
O O13 0.077655 0.216810 0.924606
O O14 0.066666 0.217217 0.112704
O O15 0.582687 0.000000 0.836219
O O16 0.369973 0.274208 0.771681
O O17 0.419702 0.000000 0.806134
O O18 0.843663 0.500000 0.696268
O O19 0.891231 0.226569 0.600093
O O20 0.937473 0.500000 0.511654
O O21 0.000000 0.227000 0.500000
#
# Coordination Sequence:
#
# PCOD9171442 Si02
#       8
#     8   8   8   8   8   8   8   8
#     4  10  18  28  43  63  89 121 156 192 229 267
#     4   9  18  31  46  64  89 124 158 186 220 265
#     4   9  16  26  42  65  92 120 148 185 232 276
#     4   9  17  28  42  62  90 124 155 183 219 265
#     4   9  18  31  45  64  93 125 155 186 222 264
#     4   9  15  24  41  65  91 116 148 189 230 272
#     4   9  15  24  41  65  91 115 145 188 231 271
#     4   9  14  23  40  65  94 118 140 177 236 285
#
# _framework density 22.145426
#
# number of rings (size 3 to 8) (size 9 to 14) (size 15 to 20)
#    0.000    2.875    1.250    1.125    0.000    3.000 
#    0.000    3.125    0.000    0.750    0.000    3.500 
#    0.000    1.000    0.000    0.000    0.000    0.000 
#
# Total GULP energy -178377.603112 kJ/mol
# GULP energy per Si atom -5574.300097 kJ/mol
# Density = 2.209502 g / cm^3
# Si number density = 22.145426 Si / 1000 Ang^3
#
#
#
# Elastic Constant Matrix: (Units=GPa)
#
#
# Indices 1 2 3 4 5 6 
#
# 1 55.8484 -2.7355 29.8068 0.0000 0.2919 0.0000
# 2 -2.7355 63.0348 4.0029 0.0000 -1.6899 0.0000
# 3 29.8068 4.0029 117.6079 0.0000 4.6886 0.0000
# 4 0.0000 0.0000 0.0000 2.2941 0.0000 10.2445
# 5 0.2919 -1.6899 4.6886 0.0000 36.5237 0.0000
# 6 0.0000 0.0000 0.0000 10.2445 0.0000 27.7550
#
#
#
# Elastic Compliance Matrix: (Units=1/GPa)
#
#
# Indices 1 2 3 4 5 6 
#
# 1 0.020815 0.001258 -0.005341 0.000000 0.000577 0.000000
# 2 0.001258 0.015998 -0.000897 0.000000 0.000845 0.000000
# 3 -0.005341 -0.000897 0.009938 0.000000 -0.001275 0.000000
# 4 0.000000 0.000000 0.000000 -0.672422 0.000000 0.248195
# 5 0.000577 0.000845 -0.001275 0.000000 0.027578 0.000000
# 6 0.000000 0.000000 0.000000 0.248195 0.000000 -0.055580
#
#
# Mechanical properties :
#
#
# Convention : Reuss Voigt Hill
#
# Bulk Modulus (GPa) = 27.18083 33.18215 30.18149
# Shear Modulus (GPa) = -7.91829 27.00902 9.54537
#
# Velocity S-wave (km/s) = -1.89297 3.49610 2.07838
# Velocity P-wave (km/s) = 2.74274 5.59582 4.40658
#
# Compressibility (1/GPa) = 0.03679063
#
# Stress axis : x y z
#
# Youngs Moduli (GPa) = 48.04258 62.50593 100.62527
#
# Poissons Ratio (x) = -0.07863 0.53746
# Poissons Ratio (y) = -0.06044 0.09026
# Poissons Ratio (z) = 0.25661 0.05607
#
# Static dielectric constant tensor:
#      x y z
#    x 1.801580 0.000000 0.001380 
#    y 0.000000 1.860520 0.000000 
#    z 0.001380 0.000000 1.836720 
# 
# From -- ./inp_files/243744.got.cif
#   From: 2010.05.17/outbox.cif.g08.bks.cpg/sg12_122_cif.got.tgz:243744.got - 2010.06.03 13:09:07.
