data_PCOD9171172
_publ_section_title
;
Structure prediction by ZEFSAII (Michael W. Deem and Ramdas Pophale) SiO2 
 PCOD9171172
Probable space group: C 2/M
;
_chemical_formula_sum "Si O2"
_cell_formula_units_Z 64
_cell_length_a 25.890522
_cell_length_b 7.646400
_cell_length_c 18.263240
_cell_angle_alpha 90.000000
_cell_angle_beta 77.656941
_cell_angle_gamma 90.000000
_cell_volume 3531.987654
_symmetry_space_group_name_H-M "C 2/M"
_symmetry_group_IT_number 12
_symmetry_cell_setting 'monoclinic'
loop_
_space_group_symop_operation_xyz
x,y,z
-x,y,-z
-x,-y,-z
x,-y,z
1/2+x,1/2+y,z
1/2-x,1/2+y,-z
1/2-x,1/2-y,-z
1/2+x,1/2-y,z
loop_
_atom_site_type_symbol
_atom_site_label
_atom_site_fract_x
_atom_site_fract_y
_atom_site_fract_z
Si Si1 0.433517 0.207211 0.407051
Si Si2 0.622405 0.287922 0.422987
Si Si3 0.402158 0.203558 0.151365
Si Si4 0.452682 0.702800 0.679804
Si Si5 0.847886 0.285081 0.311800
Si Si6 0.240260 0.790050 0.417820
Si Si7 0.058618 0.288578 0.008771
Si Si8 0.518521 0.706022 0.170428
O O1 0.409147 0.240297 0.493927
O O2 0.490702 0.289739 0.377520
O O3 0.391872 0.268968 0.358111
O O4 0.440378 0.000000 0.395201
O O5 0.623229 0.500000 0.419854
O O6 0.591093 0.221273 0.361381
O O7 0.682665 0.224334 0.411501
O O8 0.365399 0.277934 0.226314
O O9 0.462543 0.211437 0.163364
O O10 0.387767 0.000000 0.148649
O O11 0.403587 0.276314 0.068102
O O12 0.438048 0.500000 0.695746
O O13 0.461475 0.778719 0.758181
O O14 0.848327 0.500000 0.311427
O O15 0.790356 0.226585 0.356002
O O16 0.250000 0.750000 0.500000
O O17 0.239351 0.000000 0.410769
O O18 0.060246 0.500000 0.008376
O O19 0.060444 0.229593 0.091988
O O20 0.000000 0.234385 0.000000
O O21 0.507530 0.500000 0.182210
#
# Coordination Sequence:
#
# PCOD9171172 Si02
#       8
#     8   8   8   8   8   8   8   8
#     4  11  20  31  49  70  92 119 154 194 230 265
#     4  10  21  35  49  64  90 125 157 189 228 273
#     4   9  16  29  45  63  90 119 144 177 224 272
#     4  10  21  34  45  64  94 127 158 185 220 273
#     4   9  17  29  47  69  91 114 147 189 226 264
#     4  10  19  33  51  68  87 116 152 193 234 268
#     4   8  15  26  42  62  87 118 146 173 217 273
#     4  10  18  27  42  63  90 119 149 182 215 258
#
# _framework density 18.12011
#
# number of rings (size 3 to 8) (size 9 to 14) (size 15 to 20)
#    0.000    2.375    2.500    1.875    0.000    4.750 
#    0.000    0.625    0.000    0.000    0.000    0.875 
#    0.000    0.000    0.000    0.000    0.000    0.000 
#
# Total GULP energy -178422.361352 kJ/mol
# GULP energy per Si atom -5575.698792 kJ/mol
# Density = 1.807887 g / cm^3
# Si number density = 18.120110 Si / 1000 Ang^3
#
#
#
# Elastic Constant Matrix: (Units=GPa)
#
#
# Indices 1 2 3 4 5 6 
#
# 1 99.8241 -6.2767 69.4816 0.0000 0.7116 0.0000
# 2 -6.2767 33.3394 -7.8926 0.0000 0.3063 0.0000
# 3 69.4816 -7.8926 129.1074 0.0000 -26.4041 0.0000
# 4 0.0000 0.0000 0.0000 18.3564 0.0000 -0.7632
# 5 0.7116 0.3063 -26.4041 0.0000 21.3595 0.0000
# 6 0.0000 0.0000 0.0000 -0.7632 0.0000 10.3615
#
#
#
# Elastic Compliance Matrix: (Units=1/GPa)
#
#
# Indices 1 2 3 4 5 6 
#
# 1 0.020635 0.000508 -0.015011 0.000000 -0.019251 0.000000
# 2 0.000508 0.030547 0.002009 0.000000 0.002028 0.000000
# 3 -0.015011 0.002009 0.021472 0.000000 0.027014 0.000000
# 4 0.000000 0.000000 0.000000 0.054644 0.000000 0.004025
# 5 -0.019251 0.002028 0.027014 0.000000 0.080824 0.000000
# 6 0.000000 0.000000 0.000000 0.004025 0.000000 0.096808
#
#
# Mechanical properties :
#
#
# Convention : Reuss Voigt Hill
#
# Bulk Modulus (GPa) = 20.97974 41.43283 31.20628
# Shear Modulus (GPa) = 14.45892 23.81272 19.13582
#
# Velocity S-wave (km/s) = 2.82786 3.62907 3.25322
# Velocity P-wave (km/s) = 4.71865 6.36203 5.60095
#
# Compressibility (1/GPa) = 0.04766504
#
# Stress axis : x y z
#
# Youngs Moduli (GPa) = 48.46053 32.73631 46.57302
#
# Poissons Ratio (x) = -0.01663 0.69913
# Poissons Ratio (y) = -0.02462 -0.09355
# Poissons Ratio (z) = 0.72746 -0.06576
#
# Static dielectric constant tensor:
#      x y z
#    x 1.597930 0.000000 -0.005490 
#    y 0.000000 1.698040 0.000000 
#    z -0.005490 0.000000 1.659660 
# 
# From -- ./inp_files/287673.got.cif
#   From: 2010.05.17/outbox.cif.g08.bks.cpg/sg12_144_cif.got.tgz:287673.got - 2010.06.03 13:09:07.
