data_PCOD9171252
_publ_section_title
;
Structure prediction by ZEFSAII (Michael W. Deem and Ramdas Pophale) SiO2 
 PCOD9171252
Probable space group: C 2/M
;
_chemical_formula_sum "Si O2"
_cell_formula_units_Z 48
_cell_length_a 8.024335
_cell_length_b 30.301357
_cell_length_c 7.429098
_cell_angle_alpha 90.000000
_cell_angle_beta 102.455661
_cell_angle_gamma 90.000000
_cell_volume 1763.855897
_symmetry_space_group_name_H-M "C 2/M"
_symmetry_group_IT_number 12
_symmetry_cell_setting 'monoclinic'
loop_
_space_group_symop_operation_xyz
x,y,z
-x,y,-z
-x,-y,-z
x,-y,z
1/2+x,1/2+y,z
1/2-x,1/2+y,-z
1/2-x,1/2-y,-z
1/2+x,1/2-y,z
loop_
_atom_site_type_symbol
_atom_site_label
_atom_site_fract_x
_atom_site_fract_y
_atom_site_fract_z
Si Si1 0.193394 0.410741 0.616094
Si Si2 0.652676 0.260020 0.792517
Si Si3 0.688436 0.500000 0.321722
Si Si4 0.541976 0.657407 0.295148
Si Si5 0.243736 0.404035 0.237069
Si Si6 0.047235 0.683167 0.219141
Si Si7 0.222893 0.000000 0.754638
O O1 0.238048 0.454314 0.737892
O O2 0.276942 0.365729 0.708593
O O3 0.301254 0.414050 0.455237
O O4 0.000000 0.412388 0.500000
O O5 0.493666 0.293626 0.785861
O O6 0.777890 0.290337 0.704994
O O7 0.587131 0.213215 0.705720
O O8 0.750000 0.250000 0.000000
O O9 0.754404 0.500000 0.545489
O O10 0.483243 0.500000 0.266062
O O11 0.500000 0.660886 0.500000
O O12 0.396228 0.623844 0.184241
O O13 0.090507 0.368760 0.229735
O O14 0.208710 0.452964 0.156537
O O15 0.000000 0.689604 0.000000
#
# Coordination Sequence:
#
# PCOD9171252 Si02
#       7
#     8   8   4   8   8   8   4
#     4  10  18  27  43  73 106 132 159 201 250 295
#     4   9  18  33  52  70  92 128 170 210 253 299
#     4   9  15  26  44  68  99 134 167 194 234 298
#     4   9  17  31  48  70  99 132 168 207 250 304
#     4   9  17  30  47  68  97 130 165 198 239 296
#     4   9  18  33  51  70  93 123 164 210 249 294
#     4   9  14  26  49  68  89 134 169 188 234 296
#
# _framework density 27.21311
#
# number of rings (size 3 to 8) (size 9 to 14) (size 15 to 20)
#    0.000    2.833    1.667    0.250    0.000    1.333 
#    0.000    8.750    0.000    0.000    0.000    0.000 
#    0.000    1.333    0.000    0.000    0.000    0.000 
#
# Total GULP energy -133800.973417 kJ/mol
# GULP energy per Si atom -5575.040559 kJ/mol
# Density = 2.715117 g / cm^3
# Si number density = 27.213110 Si / 1000 Ang^3
#
#
#
# Elastic Constant Matrix: (Units=GPa)
#
#
# Indices 1 2 3 4 5 6 
#
# 1 91.8197 76.1816 14.0115 0.0000 25.0395 0.0000
# 2 76.1816 319.7823 30.1639 0.0000 31.9803 0.0000
# 3 14.0115 30.1639 60.3256 0.0000 -5.3469 0.0000
# 4 0.0000 0.0000 0.0000 53.1129 0.0000 33.5365
# 5 25.0395 31.9803 -5.3469 0.0000 25.5666 0.0000
# 6 0.0000 0.0000 0.0000 33.5365 0.0000 43.3538
#
#
#
# Elastic Compliance Matrix: (Units=1/GPa)
#
#
# Indices 1 2 3 4 5 6 
#
# 1 0.017596 -0.002253 -0.004318 0.000000 -0.015319 0.000000
# 2 -0.002253 0.004182 -0.001871 0.000000 -0.003416 0.000000
# 3 -0.004318 -0.001871 0.019458 0.000000 0.010639 0.000000
# 4 0.000000 0.000000 0.000000 0.036804 0.000000 -0.028470
# 5 -0.015319 -0.003416 0.010639 0.000000 0.060614 0.000000
# 6 0.000000 0.000000 0.000000 -0.028470 0.000000 0.045089
#
#
# Mechanical properties :
#
#
# Convention : Reuss Voigt Hill
#
# Bulk Modulus (GPa) = 41.06275 79.18241 60.12258
# Shear Modulus (GPa) = 23.95265 47.84471 35.89868
#
# Velocity S-wave (km/s) = 2.97001 4.19758 3.63598
# Velocity P-wave (km/s) = 5.18492 7.25625 6.30621
#
# Compressibility (1/GPa) = 0.02435297
#
# Stress axis : x y z
#
# Youngs Moduli (GPa) = 56.82974 239.12991 51.39281
#
# Poissons Ratio (x) = 0.53867 0.22194
# Poissons Ratio (y) = 0.12802 0.09613
# Poissons Ratio (z) = 0.24542 0.44730
#
# Static dielectric constant tensor:
#      x y z
#    x 2.220470 0.000000 -0.008860 
#    y 0.000000 2.330390 0.000000 
#    z -0.008860 0.000000 2.118300 
# 
# From -- ./inp_files/124863.got.cif
#   From: 2010.05.17/outbox.cif.g08.bks.cpg/sg12_63_cif.got.tgz:124863.got - 2010.06.03 13:09:07.
