data_PCOD9171159
_publ_section_title
;
Structure prediction by ZEFSAII (Michael W. Deem and Ramdas Pophale) SiO2 
 PCOD9171159
Probable space group: C 2/M
;
_chemical_formula_sum "Si O2"
_cell_formula_units_Z 56
_cell_length_a 25.821704
_cell_length_b 7.302332
_cell_length_c 14.580043
_cell_angle_alpha 90.000000
_cell_angle_beta 76.309265
_cell_angle_gamma 90.000000
_cell_volume 2671.081588
_symmetry_space_group_name_H-M "C 2/M"
_symmetry_group_IT_number 12
_symmetry_cell_setting 'monoclinic'
loop_
_space_group_symop_operation_xyz
x,y,z
-x,y,-z
-x,-y,-z
x,-y,z
1/2+x,1/2+y,z
1/2-x,1/2+y,-z
1/2-x,1/2-y,-z
1/2+x,1/2-y,z
loop_
_atom_site_type_symbol
_atom_site_label
_atom_site_fract_x
_atom_site_fract_y
_atom_site_fract_z
Si Si1 0.618417 0.723167 0.738210
Si Si2 0.936190 0.776619 0.626016
Si Si3 0.057342 0.222817 0.586084
Si Si4 0.163712 0.777477 0.006095
Si Si5 0.277806 0.279915 0.199475
Si Si6 0.661568 0.714251 0.212358
Si Si7 0.557751 0.277634 0.944878
O O1 0.619043 0.500000 0.736845
O O2 0.597201 0.784367 0.648790
O O3 0.676957 0.781730 0.747860
O O4 0.577205 0.777872 0.835734
O O5 0.928689 0.720404 0.523222
O O6 0.888918 0.711240 0.711317
O O7 0.995942 0.723022 0.630359
O O8 0.935399 0.000000 0.626547
O O9 0.057917 0.000000 0.586239
O O10 0.204325 0.714948 0.909807
O O11 0.104857 0.727716 0.994931
O O12 0.167260 0.000000 0.004699
O O13 0.171110 0.709916 0.106145
O O14 0.280228 0.500000 0.197313
O O15 0.217103 0.228693 0.242921
O O16 0.649875 0.500000 0.203958
O O17 0.556125 0.500000 0.944638
O O18 0.500000 0.212741 0.000000
#
# Coordination Sequence:
#
# PCOD9171159 Si02
#       7
#     8   8   8   8   8   8   8
#     4   8  14  23  38  55  76 108 139 165 202 245
#     4   8  15  24  37  60  86 106 130 167 208 250
#     4   8  13  24  39  57  83 110 131 161 212 258
#     4   8  15  25  37  56  84 111 135 165 203 242
#     4   9  17  30  42  58  84 113 142 169 197 241
#     4  10  18  27  42  63  85 109 138 172 205 237
#     4   8  13  19  30  53  82 106 129 163 204 245
#
# _framework density 20.965291000000001
#
# number of rings (size 3 to 8) (size 9 to 14) (size 15 to 20)
#    0.000    3.571    0.000    3.000    2.000    0.000 
#    0.000    0.714    0.000    0.000    0.000    3.000 
#    0.000    3.429    0.000    0.000    0.000    0.000 
#
# Total GULP energy -156192.449813 kJ/mol
# GULP energy per Si atom -5578.301779 kJ/mol
# Density = 2.091757 g / cm^3
# Si number density = 20.965291 Si / 1000 Ang^3
#
#
#
# Elastic Constant Matrix: (Units=GPa)
#
#
# Indices 1 2 3 4 5 6 
#
# 1 103.3374 -2.4414 76.8512 0.0000 4.5208 0.0000
# 2 -2.4414 84.9021 4.5057 0.0000 0.2114 0.0000
# 3 76.8512 4.5057 87.1273 0.0000 13.7313 0.0000
# 4 0.0000 0.0000 0.0000 -17.9964 0.0000 -3.4170
# 5 4.5208 0.2114 13.7313 0.0000 35.3688 0.0000
# 6 0.0000 0.0000 0.0000 -3.4170 0.0000 5.0358
#
#
#
# Elastic Compliance Matrix: (Units=1/GPa)
#
#
# Indices 1 2 3 4 5 6 
#
# 1 0.030020 0.002315 -0.027686 0.000000 0.006898 0.000000
# 2 0.002315 0.011990 -0.002774 0.000000 0.000709 0.000000
# 3 -0.027686 -0.002774 0.037794 0.000000 -0.011117 0.000000
# 4 0.000000 0.000000 0.000000 -0.049225 0.000000 -0.033401
# 5 0.006898 0.000709 -0.011117 0.000000 0.031704 0.000000
# 6 0.000000 0.000000 0.000000 -0.033401 0.000000 0.175915
#
#
# Mechanical properties :
#
#
# Convention : Reuss Voigt Hill
#
# Bulk Modulus (GPa) = 42.52749 48.13309 45.33029
# Shear Modulus (GPa) = 16.53848 17.57840 17.05844
#
# Velocity S-wave (km/s) = 2.81170 2.89875 2.85555
# Velocity P-wave (km/s) = 5.55604 5.84910 5.70445
#
# Compressibility (1/GPa) = 0.02351420
#
# Stress axis : x y z
#
# Youngs Moduli (GPa) = 33.31126 83.40071 26.45944
#
# Poissons Ratio (x) = -0.19310 0.73256
# Poissons Ratio (y) = -0.07713 0.07340
# Poissons Ratio (z) = 0.92226 0.23137
#
# Static dielectric constant tensor:
#      x y z
#    x 1.728210 0.000000 0.008160 
#    y 0.000000 1.865860 0.000000 
#    z 0.008160 0.000000 1.724960 
# 
# From -- ./inp_files/231801.got.cif
#   From: 2010.05.17/outbox.cif.g08.bks.cpg/sg12_116_cif.got.tgz:231801.got - 2010.06.03 13:09:07.
