data_PCOD9171943
_publ_section_title
;
Structure prediction by ZEFSAII (Michael W. Deem and Ramdas Pophale) SiO2 
 PCOD9171943
Probable space group: C 2/M
;
_chemical_formula_sum "Si O2"
_cell_formula_units_Z 48
_cell_length_a 24.054104
_cell_length_b 7.412033
_cell_length_c 27.569903
_cell_angle_alpha 90.000000
_cell_angle_beta 29.095258
_cell_angle_gamma 90.000000
_cell_volume 2390.193425
_symmetry_space_group_name_H-M "C 2/M"
_symmetry_group_IT_number 12
_symmetry_cell_setting 'monoclinic'
loop_
_space_group_symop_operation_xyz
x,y,z
-x,y,-z
-x,-y,-z
x,-y,z
1/2+x,1/2+y,z
1/2-x,1/2+y,-z
1/2-x,1/2-y,-z
1/2+x,1/2-y,z
loop_
_atom_site_type_symbol
_atom_site_label
_atom_site_fract_x
_atom_site_fract_y
_atom_site_fract_z
Si Si1 0.361193 0.712865 0.884253
Si Si2 0.562672 0.279890 0.002004
Si Si3 0.070571 0.717467 0.615964
Si Si4 0.439862 0.280705 0.194048
Si Si5 0.707315 0.284383 0.609427
Si Si6 0.677385 0.798231 0.194248
O O1 0.373412 0.500000 0.864730
O O2 0.462999 0.768479 0.841382
O O3 0.346135 0.809682 0.845164
O O4 0.250000 0.750000 0.000000
O O5 0.568743 0.500000 0.001141
O O6 0.695233 0.216714 0.899238
O O7 0.500000 0.233503 0.000000
O O8 0.486583 0.218846 0.106179
O O9 0.065073 0.500000 0.616563
O O10 0.173713 0.784992 0.503376
O O11 0.111930 0.754959 0.639777
O O12 0.944425 0.785906 0.697218
O O13 0.433645 0.500000 0.195387
O O14 0.328554 0.219779 0.309467
O O15 0.717828 0.500000 0.605047
O O16 0.685090 0.000000 0.210016
#
# Coordination Sequence:
#
# PCOD9171943 Si02
#       6
#     8   8   8   8   8   8
#     4  11  19  28  43  67  94 119 144 175 223 273
#     4   9  17  29  45  63  83 113 153 191 222 258
#     4   9  17  26  40  63  92 119 140 173 215 258
#     4   9  16  26  42  63  87 114 145 176 210 261
#     4   9  16  27  41  61  91 120 143 169 211 266
#     4  10  18  29  44  66  92 115 148 184 220 265
#
# _framework density 20.082056999999999
#
# number of rings (size 3 to 8) (size 9 to 14) (size 15 to 20)
#    0.000    2.500    3.333    0.500    0.000    0.000 
#    0.000    0.000    0.000    1.500    0.000    7.000 
#    0.000    0.000    0.000    9.833    0.000   10.333 
#
# Total GULP energy -133646.944665 kJ/mol
# GULP energy per Si atom -5568.622694 kJ/mol
# Density = 2.003635 g / cm^3
# Si number density = 20.082057 Si / 1000 Ang^3
#
#
#
# Elastic Constant Matrix: (Units=GPa)
#
#
# Indices 1 2 3 4 5 6 
#
# 1 96.2969 7.5943 76.4780 0.0084 4.2096 -0.0206
# 2 7.5943 66.5826 2.1852 -0.0024 -0.0688 0.0049
# 3 76.4780 2.1852 200.7826 0.0033 3.6640 0.0003
# 4 0.0084 -0.0024 0.0033 -12.8584 -0.0039 1.6821
# 5 4.2096 -0.0688 3.6640 -0.0039 13.9078 0.0130
# 6 -0.0206 0.0049 0.0003 1.6821 0.0130 9.6562
#
#
#
# Elastic Compliance Matrix: (Units=1/GPa)
#
#
# Indices 1 2 3 4 5 6 
#
# 1 0.015174 -0.001547 -0.005706 0.000014 -0.003097 0.000035
# 2 -0.001547 0.015182 0.000416 -0.000005 0.000434 -0.000011
# 3 -0.005706 0.000416 0.007152 -0.000003 -0.000155 -0.000012
# 4 0.000014 -0.000005 -0.000003 -0.076037 -0.000037 0.013246
# 5 -0.003097 0.000434 -0.000155 -0.000037 0.072883 -0.000098
# 6 0.000035 -0.000011 -0.000012 0.013246 -0.000098 0.101253
#
#
# Mechanical properties :
#
#
# Convention : Reuss Voigt Hill
#
# Bulk Modulus (GPa) = 41.95632 59.57523 50.76578
# Shear Modulus (GPa) = 31.80141 20.63475 26.21808
#
# Velocity S-wave (km/s) = 3.98373 3.20898 3.61716
# Velocity P-wave (km/s) = 6.48829 6.59245 6.54058
#
# Compressibility (1/GPa) = 0.02383431
#
# Stress axis : x y z
#
# Youngs Moduli (GPa) = 65.90282 65.86681 139.81397
#
# Poissons Ratio (x) = 0.10187 0.79783
# Poissons Ratio (y) = 0.10193 -0.05816
# Poissons Ratio (z) = 0.37607 -0.02740
#
# Static dielectric constant tensor:
#      x y z
#    x 1.647830 0.000000 -0.009050 
#    y 0.000000 1.793600 0.000000 
#    z -0.009050 0.000000 1.813150 
# 
# From -- ./inp_files/367103.got.cif
#   From: 2010.05.17/outbox.cif.g08.bks.cpg/sg12_184_cif.got.tgz:367103.got - 2010.06.03 13:09:07.
