data_PCOD9171110
_publ_section_title
;
Structure prediction by ZEFSAII (Michael W. Deem and Ramdas Pophale) SiO2 
 PCOD9171110
Probable space group: C 2/M
;
_chemical_formula_sum "Si O2"
_cell_formula_units_Z 64
_cell_length_a 25.723108
_cell_length_b 7.667910
_cell_length_c 24.727473
_cell_angle_alpha 90.000000
_cell_angle_beta 133.068461
_cell_angle_gamma 90.000000
_cell_volume 3563.060219
_symmetry_space_group_name_H-M "C 2/M"
_symmetry_group_IT_number 12
_symmetry_cell_setting 'monoclinic'
loop_
_space_group_symop_operation_xyz
x,y,z
-x,y,-z
-x,-y,-z
x,-y,z
1/2+x,1/2+y,z
1/2-x,1/2+y,-z
1/2-x,1/2-y,-z
1/2+x,1/2-y,z
loop_
_atom_site_type_symbol
_atom_site_label
_atom_site_fract_x
_atom_site_fract_y
_atom_site_fract_z
Si Si1 0.475285 0.713199 0.090067
Si Si2 0.846556 0.793579 0.925184
Si Si3 0.723305 0.292429 0.920626
Si Si4 0.804012 0.706013 0.660696
Si Si5 0.863105 0.210763 0.817311
Si Si6 0.923463 0.204883 0.659000
Si Si7 0.063394 0.213990 0.815196
Si Si8 0.310462 0.290892 0.498546
O O1 0.474766 0.500000 0.088848
O O2 0.555201 0.768499 0.133325
O O3 0.453555 0.765665 0.135139
O O4 0.416320 0.776258 0.005660
O O5 0.779034 0.771854 0.915901
O O6 0.837757 0.725754 0.858054
O O7 0.859233 0.000000 0.928474
O O8 0.721331 0.500000 0.914709
O O9 0.642566 0.227186 0.856339
O O10 0.750000 0.250000 0.000000
O O11 0.806844 0.500000 0.651908
O O12 0.817452 0.735058 0.733125
O O13 0.868582 0.783139 0.670697
O O14 0.727908 0.771460 0.583547
O O15 0.863010 0.000000 0.816619
O O16 0.882541 0.279358 0.577360
O O17 0.999286 0.277161 0.731585
O O18 0.934721 0.000000 0.656656
O O19 0.062849 0.000000 0.814219
O O20 0.319406 0.500000 0.500820
O O21 0.250000 0.250000 0.500000
#
# Coordination Sequence:
#
# PCOD9171110 Si02
#       8
#     8   8   8   8   8   8   8   8
#     4   9  15  28  48  69  90 115 152 192 224 257
#     4  10  20  34  50  68  89 117 157 197 227 262
#     4  11  21  34  50  68  91 120 153 190 232 270
#     4  10  18  27  40  65  99 124 143 177 228 274
#     4  10  19  31  49  68  88 122 160 187 217 266
#     4   9  15  28  47  65  87 118 157 188 214 262
#     4   9  16  27  48  70  88 115 154 191 222 260
#     4   8  15  25  40  62  89 120 147 177 219 266
#
# _framework density 17.962088999999999
#
# number of rings (size 3 to 8) (size 9 to 14) (size 15 to 20)
#    0.000    2.500    2.500    1.125    0.000    2.500 
#    0.000    3.125    0.000    1.500    0.000    0.875 
#    0.000    7.000    0.000    0.000    0.000    0.000 
#
# Total GULP energy -178356.831247 kJ/mol
# GULP energy per Si atom -5573.650976 kJ/mol
# Density = 1.792121 g / cm^3
# Si number density = 17.962089 Si / 1000 Ang^3
#
#
#
# Elastic Constant Matrix: (Units=GPa)
#
#
# Indices 1 2 3 4 5 6 
#
# 1 63.8673 -9.0350 69.1406 0.0000 -13.0285 0.0000
# 2 -9.0350 30.2220 -0.0472 0.0001 1.0839 0.0003
# 3 69.1406 -0.0472 207.8923 0.0000 3.9239 0.0000
# 4 0.0000 0.0001 0.0000 10.4488 0.0000 0.0867
# 5 -13.0285 1.0839 3.9239 0.0000 17.7863 0.0000
# 6 0.0000 0.0003 0.0000 0.0867 0.0000 15.0000
#
#
#
# Elastic Compliance Matrix: (Units=1/GPa)
#
#
# Indices 1 2 3 4 5 6 
#
# 1 0.036934 0.009972 -0.012834 0.000000 0.029278 0.000000
# 2 0.009972 0.035854 -0.003419 0.000000 0.005874 -0.000001
# 3 -0.012834 -0.003419 0.009290 0.000000 -0.011242 0.000000
# 4 0.000000 0.000000 0.000000 0.095709 0.000000 -0.000553
# 5 0.029278 0.005874 -0.011242 0.000000 0.079791 0.000000
# 6 0.000000 -0.000001 0.000000 -0.000553 0.000000 0.066670
#
#
# Mechanical properties :
#
#
# Convention : Reuss Voigt Hill
#
# Bulk Modulus (GPa) = 14.38540 46.89982 30.64261
# Shear Modulus (GPa) = 13.88957 24.77523 19.33240
#
# Velocity S-wave (km/s) = 2.78379 3.71793 3.28424
# Velocity P-wave (km/s) = 4.28472 6.67816 5.61055
#
# Compressibility (1/GPa) = 0.06951491
#
# Stress axis : x y z
#
# Youngs Moduli (GPa) = 27.07524 27.89121 107.64424
#
# Poissons Ratio (x) = -0.27812 1.38149
# Poissons Ratio (y) = -0.26998 0.36804
# Poissons Ratio (z) = 0.34748 0.09536
#
# Static dielectric constant tensor:
#      x y z
#    x 1.563000 0.000000 0.011830 
#    y 0.000000 1.655120 0.000000 
#    z 0.011830 0.000000 1.669030 
# 
# From -- ./inp_files/323670.got.cif
#   From: 2010.05.17/outbox.cif.g08.bks.cpg/sg12_162_cif.got.tgz:323670.got - 2010.06.03 13:09:07.
