data_PCOD9171029
_publ_section_title
;
Structure prediction by ZEFSAII (Michael W. Deem and Ramdas Pophale) SiO2 
 PCOD9171029
Probable space group: C 2/M
;
_chemical_formula_sum "Si O2"
_cell_formula_units_Z 56
_cell_length_a 20.365434
_cell_length_b 7.268421
_cell_length_c 22.347389
_cell_angle_alpha 90.000000
_cell_angle_beta 38.206790
_cell_angle_gamma 90.000000
_cell_volume 2045.979628
_symmetry_space_group_name_H-M "C 2/M"
_symmetry_group_IT_number 12
_symmetry_cell_setting 'monoclinic'
loop_
_space_group_symop_operation_xyz
x,y,z
-x,y,-z
-x,-y,-z
x,-y,z
1/2+x,1/2+y,z
1/2-x,1/2+y,-z
1/2-x,1/2-y,-z
1/2+x,1/2-y,z
loop_
_atom_site_type_symbol
_atom_site_label
_atom_site_fract_x
_atom_site_fract_y
_atom_site_fract_z
Si Si1 0.845525 0.208789 0.584279
Si Si2 0.711890 0.777219 0.785458
Si Si3 0.687369 0.722355 0.168993
Si Si4 0.479619 0.288376 0.950116
Si Si5 0.908171 0.223739 0.880525
Si Si6 0.863496 0.778363 0.341003
Si Si7 0.463200 0.275991 0.389414
O O1 0.806535 0.288896 0.674964
O O2 0.738134 0.204105 0.620794
O O3 0.932397 0.290399 0.477363
O O4 0.878449 0.000000 0.574249
O O5 0.725334 0.720342 0.845056
O O6 0.600662 0.711579 0.839182
O O7 0.712528 0.000000 0.783234
O O8 0.690121 0.500000 0.164453
O O9 0.676154 0.788263 0.108777
O O10 0.577501 0.773205 0.281273
O O11 0.449623 0.500000 0.980183
O O12 0.407410 0.207512 0.949322
O O13 0.500000 0.198442 0.000000
O O14 0.023882 0.271081 0.770338
O O15 0.903909 0.000000 0.886038
O O16 0.877893 0.720731 0.399883
O O17 0.855959 0.000000 0.344729
O O18 0.461712 0.500000 0.392857
#
# Coordination Sequence:
#
# PCOD9171029 Si02
#       7
#     8   8   8   8   8   8   8
#     4  10  18  26  40  68 101 125 153 198 242 271
#     4  10  20  32  49  74 101 128 154 193 247 288
#     4   8  15  29  48  69  96 131 167 192 223 279
#     4  10  20  35  56  77  94 118 157 201 241 286
#     4   8  14  28  50  71  90 121 163 197 226 275
#     4   9  15  26  45  65  88 125 166 197 230 273
#     4   8  15  26  42  66  94 126 166 201 223 263
#
# _framework density 27.370750999999998
#
# number of rings (size 3 to 8) (size 9 to 14) (size 15 to 20)
#    0.000    3.000    1.429    2.143    0.000    0.857 
#    0.000    3.571    0.000    5.143    0.000    2.000 
#    0.000    0.000    0.000    0.000    0.000    0.000 
#
# Total GULP energy -156636.424218 kJ/mol
# GULP energy per Si atom -5594.158008 kJ/mol
# Density = 2.730845 g / cm^3
# Si number density = 27.370751 Si / 1000 Ang^3
#
#
#
# Elastic Constant Matrix: (Units=GPa)
#
#
# Indices 1 2 3 4 5 6 
#
# 1 185.6025 7.5035 56.3867 -0.0012 24.7117 -0.0017
# 2 7.5035 137.6343 16.5318 -0.0014 3.8872 -0.0025
# 3 56.3867 16.5318 128.1434 -0.0013 36.7473 -0.0013
# 4 -0.0012 -0.0014 -0.0013 -10.3776 0.0004 -8.1665
# 5 24.7117 3.8872 36.7473 0.0004 65.3348 0.0004
# 6 -0.0017 -0.0025 -0.0013 -8.1665 0.0004 0.1460
#
#
#
# Elastic Compliance Matrix: (Units=1/GPa)
#
#
# Indices 1 2 3 4 5 6 
#
# 1 0.006271 -0.000017 -0.002477 -0.000001 -0.000978 0.000001
# 2 -0.000017 0.007381 -0.000979 -0.000002 0.000118 0.000002
# 3 -0.002477 -0.000979 0.010414 -0.000001 -0.004862 0.000000
# 4 -0.000001 -0.000002 -0.000001 -0.002141 0.000002 -0.119730
# 5 -0.000978 0.000118 -0.004862 0.000002 0.018403 -0.000001
# 6 0.000001 0.000002 0.000000 -0.119730 -0.000001 0.152147
#
#
# Mechanical properties :
#
#
# Convention : Reuss Voigt Hill
#
# Bulk Modulus (GPa) = 58.40505 68.02492 63.21498
# Shear Modulus (GPa) = 24.37507 35.75120 30.06313
#
# Velocity S-wave (km/s) = 2.98745 3.61804 3.31776
# Velocity P-wave (km/s) = 5.76928 6.50851 6.15001
#
# Compressibility (1/GPa) = 0.01712181
#
# Stress axis : x y z
#
# Youngs Moduli (GPa) = 159.45833 135.48743 96.02175
#
# Poissons Ratio (x) = 0.00227 0.23784
# Poissons Ratio (y) = 0.00267 0.09396
# Poissons Ratio (z) = 0.39497 0.13258
#
# Static dielectric constant tensor:
#      x y z
#    x 2.098930 0.000000 0.014380 
#    y 0.000000 2.064330 0.000000 
#    z 0.014380 0.000000 2.183790 
# 
# From -- ./inp_files/319648.got.cif
#   From: 2010.05.17/outbox.cif.g08.bks.cpg/sg12_160_cif.got.tgz:319648.got - 2010.06.03 13:09:07.
