data_PCOD9171663
_publ_section_title
;
Structure prediction by ZEFSAII (Michael W. Deem and Ramdas Pophale) SiO2 
 PCOD9171663
Probable space group: C 2/M
;
_chemical_formula_sum "Si O2"
_cell_formula_units_Z 64
_cell_length_a 28.498911
_cell_length_b 8.954434
_cell_length_c 15.268981
_cell_angle_alpha 90.000000
_cell_angle_beta 92.691137
_cell_angle_gamma 90.000000
_cell_volume 3892.218688
_symmetry_space_group_name_H-M "C 2/M"
_symmetry_group_IT_number 12
_symmetry_cell_setting 'monoclinic'
loop_
_space_group_symop_operation_xyz
x,y,z
-x,y,-z
-x,-y,-z
x,-y,z
1/2+x,1/2+y,z
1/2-x,1/2+y,-z
1/2-x,1/2-y,-z
1/2+x,1/2-y,z
loop_
_atom_site_type_symbol
_atom_site_label
_atom_site_fract_x
_atom_site_fract_y
_atom_site_fract_z
Si Si1 0.693725 0.821012 0.739291
Si Si2 0.342618 0.673323 0.522508
Si Si3 0.337384 0.679215 0.783457
Si Si4 0.921559 0.172626 0.681508
Si Si5 0.392539 0.678907 0.345001
Si Si6 0.771102 0.676031 0.632801
Si Si7 0.508999 0.178026 0.602572
Si Si8 0.739559 0.677761 0.091716
O O1 0.642042 0.751035 0.729434
O O2 0.723983 0.757691 0.660274
O O3 0.722860 0.778568 0.829407
O O4 0.691975 0.000000 0.734046
O O5 0.328057 0.500000 0.514829
O O6 0.382476 0.682411 0.601217
O O7 0.368081 0.717689 0.435759
O O8 0.297897 0.767584 0.548867
O O9 0.329890 0.500000 0.764315
O O10 0.391919 0.708048 0.767004
O O11 0.307635 0.776141 0.712370
O O12 0.312520 0.709947 0.873758
O O13 0.964411 0.275229 0.656982
O O14 0.937422 0.000000 0.686940
O O15 0.393656 0.500000 0.336660
O O16 0.444626 0.744069 0.355488
O O17 0.763524 0.500000 0.629751
O O18 0.500000 0.225201 0.500000
O O19 0.515196 0.000000 0.603049
O O20 0.743067 0.500000 0.082918
O O21 0.750000 0.750000 0.000000
#
# Coordination Sequence:
#
# PCOD9171663 Si02
#       8
#     8   8   8   8   8   8   8   8
#     4  10  21  37  51  68 100 133 160 200 251 296
#     4   9  18  31  46  65  92 128 167 209 253 288
#     4   8  16  31  48  71 102 133 161 199 250 292
#     4   9  16  30  50  68  93 131 172 212 249 289
#     4  11  22  35  51  69  92 128 175 215 249 293
#     4  10  18  28  46  69  93 126 168 205 239 289
#     4  11  22  33  47  70 100 132 170 216 260 295
#     4   9  18  33  55  80 106 132 158 192 240 299
#
# _framework density 16.443064
#
# number of rings (size 3 to 8) (size 9 to 14) (size 15 to 20)
#    0.000    2.375    1.250    3.750    0.000    6.500 
#    0.000    0.000    0.000    0.000    0.000    0.875 
#    0.000    7.000    0.000    0.000    0.000    0.000 
#
# Total GULP energy -178395.660955 kJ/mol
# GULP energy per Si atom -5574.864405 kJ/mol
# Density = 1.640564 g / cm^3
# Si number density = 16.443064 Si / 1000 Ang^3
#
#
#
# Elastic Constant Matrix: (Units=GPa)
#
#
# Indices 1 2 3 4 5 6 
#
# 1 116.5087 48.1323 45.7648 0.0000 -7.1591 0.0000
# 2 48.1323 46.1409 24.8549 0.0000 -2.2826 0.0000
# 3 45.7648 24.8549 71.1374 0.0000 -18.0839 0.0000
# 4 0.0000 0.0000 0.0000 19.8347 0.0000 -4.7217
# 5 -7.1591 -2.2826 -18.0839 0.0000 19.9851 0.0000
# 6 0.0000 0.0000 0.0000 -4.7217 0.0000 28.9897
#
#
#
# Elastic Compliance Matrix: (Units=1/GPa)
#
#
# Indices 1 2 3 4 5 6 
#
# 1 0.016830 -0.014320 -0.006114 0.000000 -0.001139 0.000000
# 2 -0.014320 0.039657 -0.006229 0.000000 -0.006237 0.000000
# 3 -0.006114 -0.006229 0.025234 0.000000 0.019932 0.000000
# 4 0.000000 0.000000 0.000000 0.052450 0.000000 0.008543
# 5 -0.001139 -0.006237 0.019932 0.000000 0.066952 0.000000
# 6 0.000000 0.000000 0.000000 0.008543 0.000000 0.035886
#
#
# Mechanical properties :
#
#
# Convention : Reuss Voigt Hill
#
# Bulk Modulus (GPa) = 35.21588 52.36567 43.79077
# Shear Modulus (GPa) = 16.67772 21.43092 19.05432
#
# Velocity S-wave (km/s) = 3.18822 3.61410 3.40782
# Velocity P-wave (km/s) = 5.91746 7.02363 6.49414
#
# Compressibility (1/GPa) = 0.02839628
#
# Stress axis : x y z
#
# Youngs Moduli (GPa) = 59.41645 25.21595 39.62956
#
# Poissons Ratio (x) = 0.36109 0.24228
# Poissons Ratio (y) = 0.85083 0.24686
# Poissons Ratio (z) = 0.36325 0.15707
#
# Static dielectric constant tensor:
#      x y z
#    x 1.574790 0.000000 0.000220 
#    y 0.000000 1.552130 0.000000 
#    z 0.000220 0.000000 1.565250 
# 
# From -- ./inp_files/244103.got.cif
#   From: 2010.05.17/outbox.cif.g08.bks.cpg/sg12_123_cif.got.tgz:244103.got - 2010.06.03 13:09:07.
