data_PCOD9171178
_publ_section_title
;
Structure prediction by ZEFSAII (Michael W. Deem and Ramdas Pophale) SiO2 
 PCOD9171178
Probable space group: C 2/M
;
_chemical_formula_sum "Si O2"
_cell_formula_units_Z 48
_cell_length_a 34.477312
_cell_length_b 7.417768
_cell_length_c 16.414823
_cell_angle_alpha 90.000000
_cell_angle_beta 34.526980
_cell_angle_gamma 90.000000
_cell_volume 2379.404521
_symmetry_space_group_name_H-M "C 2/M"
_symmetry_group_IT_number 12
_symmetry_cell_setting 'monoclinic'
loop_
_space_group_symop_operation_xyz
x,y,z
-x,y,-z
-x,-y,-z
x,-y,z
1/2+x,1/2+y,z
1/2-x,1/2+y,-z
1/2-x,1/2-y,-z
1/2+x,1/2-y,z
loop_
_atom_site_type_symbol
_atom_site_label
_atom_site_fract_x
_atom_site_fract_y
_atom_site_fract_z
Si Si1 0.950567 0.780167 0.837574
Si Si2 0.319434 0.284259 0.329973
Si Si3 0.340993 0.284323 0.597682
Si Si4 0.186905 0.785661 0.843504
Si Si5 0.974732 0.779791 0.455805
Si Si6 0.585723 0.280142 0.693760
O O1 0.876171 0.716619 0.993827
O O2 0.950568 0.000000 0.836119
O O3 0.976339 0.724256 0.703659
O O4 0.009277 0.726421 0.800758
O O5 0.326618 0.500000 0.311734
O O6 0.250000 0.250000 0.500000
O O7 0.315167 0.212984 0.245510
O O8 0.382289 0.217760 0.276759
O O9 0.346066 0.500000 0.586832
O O10 0.262408 0.240627 0.748576
O O11 0.398056 0.222058 0.563240
O O12 0.365186 0.221897 0.465998
O O13 0.176856 0.000000 0.855140
O O14 0.000000 0.718273 0.500000
O O15 0.974966 0.000000 0.456799
O O16 0.586333 0.500000 0.693930
#
# Coordination Sequence:
#
# PCOD9171178 Si02
#       6
#     8   8   8   8   8   8
#     4   8  15  27  42  63  91 115 142 183 225 257
#     4  10  18  27  42  64  88 116 151 184 215 254
#     4   9  16  28  47  66  87 116 148 181 216 258
#     4  10  19  28  42  67  94 118 142 179 227 263
#     4   8  14  27  49  71  86 109 149 187 215 254
#     4   8  14  26  43  61  82 114 151 182 210 246
#
# _framework density 20.173114000000002
#
# number of rings (size 3 to 8) (size 9 to 14) (size 15 to 20)
#    0.000    3.167    1.667    2.000    0.000    0.667 
#    0.000    4.167    0.000    5.500    0.000    2.333 
#    0.000    0.000    0.000    0.000    0.000    0.000 
#
# Total GULP energy -133848.635527 kJ/mol
# GULP energy per Si atom -5577.026480 kJ/mol
# Density = 2.012720 g / cm^3
# Si number density = 20.173114 Si / 1000 Ang^3
#
#
#
# Elastic Constant Matrix: (Units=GPa)
#
#
# Indices 1 2 3 4 5 6 
#
# 1 185.3199 6.1760 104.8392 -0.0007 -8.3309 -0.0002
# 2 6.1760 64.1388 0.5673 -0.0001 1.9456 -0.0013
# 3 104.8392 0.5673 175.4445 -0.0051 -25.6549 -0.0009
# 4 -0.0007 -0.0001 -0.0051 14.2966 -0.0012 -6.6100
# 5 -8.3309 1.9456 -25.6549 -0.0012 21.7134 0.0000
# 6 -0.0002 -0.0013 -0.0009 -6.6100 0.0000 1.7807
#
#
#
# Elastic Compliance Matrix: (Units=1/GPa)
#
#
# Indices 1 2 3 4 5 6 
#
# 1 0.008365 -0.000661 -0.005462 0.000004 -0.003185 0.000013
# 2 -0.000661 0.015700 0.000122 -0.000008 -0.001516 -0.000017
# 3 -0.005462 0.000122 0.010463 -0.000009 0.010256 -0.000029
# 4 0.000004 -0.000008 -0.000009 -0.097657 -0.000014 -0.362508
# 5 -0.003185 -0.001516 0.010256 -0.000014 0.057086 -0.000047
# 6 0.000013 -0.000017 -0.000029 -0.362508 -0.000047 -0.784065
#
#
# Mechanical properties :
#
#
# Convention : Reuss Voigt Hill
#
# Bulk Modulus (GPa) = 44.39141 72.00757 58.19949
# Shear Modulus (GPa) = -6.48846 28.44618 10.97886
#
# Velocity S-wave (km/s) = -1.79538 3.75921 2.33541
# Velocity P-wave (km/s) = 4.21369 7.39016 6.01538
#
# Compressibility (1/GPa) = 0.02252688
#
# Stress axis : x y z
#
# Youngs Moduli (GPa) = 119.54562 63.69557 95.57364
#
# Poissons Ratio (x) = 0.04207 0.52205
# Poissons Ratio (y) = 0.07897 -0.01169
# Poissons Ratio (z) = 0.65299 -0.00779
#
# Static dielectric constant tensor:
#      x y z
#    x 1.711240 0.000000 -0.014670 
#    y 0.000000 1.793520 0.000000 
#    z -0.014670 0.000000 1.697490 
# 
# From -- ./inp_files/222056.got.cif
#   From: 2010.05.17/outbox.cif.g08.bks.cpg/sg12_112_cif.got.tgz:222056.got - 2010.06.03 13:09:07.
