data_PCOD9171112
_publ_section_title
;
Structure prediction by ZEFSAII (Michael W. Deem and Ramdas Pophale) SiO2 
 PCOD9171112
Probable space group: C 2/M
;
_chemical_formula_sum "Si O2"
_cell_formula_units_Z 48
_cell_length_a 29.968741
_cell_length_b 7.679119
_cell_length_c 12.539803
_cell_angle_alpha 90.000000
_cell_angle_beta 69.913619
_cell_angle_gamma 90.000000
_cell_volume 2710.301187
_symmetry_space_group_name_H-M "C 2/M"
_symmetry_group_IT_number 12
_symmetry_cell_setting 'monoclinic'
loop_
_space_group_symop_operation_xyz
x,y,z
-x,y,-z
-x,-y,-z
x,-y,z
1/2+x,1/2+y,z
1/2-x,1/2+y,-z
1/2-x,1/2-y,-z
1/2+x,1/2-y,z
loop_
_atom_site_type_symbol
_atom_site_label
_atom_site_fract_x
_atom_site_fract_y
_atom_site_fract_z
Si Si1 0.763653 0.790973 0.111041
Si Si2 0.076593 0.699513 0.452706
Si Si3 0.530031 0.713163 0.076603
Si Si4 0.363795 0.709520 0.971647
Si Si5 0.995660 0.201398 0.667859
Si Si6 0.663301 0.210406 0.250697
O O1 0.717845 0.726118 0.213981
O O2 0.764973 0.000000 0.123249
O O3 0.750000 0.750000 0.000000
O O4 0.817694 0.725002 0.075036
O O5 0.084197 0.500000 0.478345
O O6 0.047314 0.787433 0.571571
O O7 0.125935 0.776120 0.368827
O O8 0.041030 0.703162 0.380145
O O9 0.530099 0.500000 0.073707
O O10 0.584841 0.772230 0.032961
O O11 0.507423 0.764342 0.208721
O O12 0.500000 0.773241 0.000000
O O13 0.364052 0.500000 0.980322
O O14 0.355604 0.748912 0.853022
O O15 0.980247 0.000000 0.679099
O O16 0.663572 0.000000 0.258388
#
# Coordination Sequence:
#
# PCOD9171112 Si02
#       6
#     8   8   8   8   8   8
#     4   8  14  23  36  56  79 103 131 159 195 240
#     4  10  18  27  41  59  84 111 132 161 203 246
#     4   9  17  28  42  61  83 107 136 172 208 235
#     4   9  15  25  41  58  79 106 135 167 198 237
#     4  10  18  28  42  59  80 106 138 170 199 238
#     4   9  16  25  38  58  84 109 129 158 200 245
#
# _framework density 17.710208000000002
#
# number of rings (size 3 to 8) (size 9 to 14) (size 15 to 20)
#    0.000    2.833    1.667    2.000    0.000    0.667 
#    0.000    0.000    0.000    4.500    0.000    1.167 
#    0.000    0.000    0.000    0.000    0.000    0.000 
#
# Total GULP energy -133627.644587 kJ/mol
# GULP energy per Si atom -5567.818524 kJ/mol
# Density = 1.766990 g / cm^3
# Si number density = 17.710208 Si / 1000 Ang^3
#
#
#
# Elastic Constant Matrix: (Units=GPa)
#
#
# Indices 1 2 3 4 5 6 
#
# 1 136.3028 1.5825 80.6538 0.0000 -34.4430 0.0000
# 2 1.5825 34.2271 0.3312 0.0000 0.0608 0.0000
# 3 80.6538 0.3312 93.8684 0.0000 -24.8534 0.0000
# 4 0.0000 0.0000 0.0000 36.7919 0.0000 -11.8285
# 5 -34.4430 0.0608 -24.8534 0.0000 36.3273 0.0000
# 6 0.0000 0.0000 0.0000 -11.8285 0.0000 12.5603
#
#
#
# Elastic Compliance Matrix: (Units=1/GPa)
#
#
# Indices 1 2 3 4 5 6 
#
# 1 0.016343 -0.000651 -0.012135 0.000000 0.007194 0.000000
# 2 -0.000651 0.029244 0.000342 0.000000 -0.000432 0.000000
# 3 -0.012135 0.000342 0.022021 0.000000 0.003560 0.000000
# 4 0.000000 0.000000 0.000000 0.038982 0.000000 0.036711
# 5 0.007194 -0.000432 0.003560 0.000000 0.036784 0.000000
# 6 0.000000 0.000000 0.000000 0.036711 0.000000 0.114188
#
#
# Mechanical properties :
#
#
# Convention : Reuss Voigt Hill
#
# Bulk Modulus (GPa) = 23.40856 47.72592 35.56724
# Shear Modulus (GPa) = 16.85259 29.25796 23.05527
#
# Velocity S-wave (km/s) = 3.08811 4.06894 3.61197
# Velocity P-wave (km/s) = 5.09524 7.00584 6.12549
#
# Compressibility (1/GPa) = 0.04271942
#
# Stress axis : x y z
#
# Youngs Moduli (GPa) = 61.19007 34.19485 45.41103
#
# Poissons Ratio (x) = 0.02226 0.55106
# Poissons Ratio (y) = 0.03983 -0.01552
# Poissons Ratio (z) = 0.74253 -0.01168
#
# Static dielectric constant tensor:
#      x y z
#    x 1.640660 0.000000 -0.068530 
#    y 0.000000 1.642770 0.000000 
#    z -0.068530 0.000000 1.596710 
# 
# From -- ./inp_files/179222.got.cif
#   From: 2010.05.17/outbox.cif.g08.bks.cpg/sg12_90_cif.got.tgz:179222.got - 2010.06.03 13:09:07.
