data_PCOD9171249
_publ_section_title
;
Structure prediction by ZEFSAII (Michael W. Deem and Ramdas Pophale) SiO2 
 PCOD9171249
Probable space group: C 2/M
;
_chemical_formula_sum "Si O2"
_cell_formula_units_Z 56
_cell_length_a 10.070951
_cell_length_b 14.778332
_cell_length_c 35.006934
_cell_angle_alpha 90.000000
_cell_angle_beta 150.852915
_cell_angle_gamma 90.000000
_cell_volume 2537.619148
_symmetry_space_group_name_H-M "C 2/M"
_symmetry_group_IT_number 12
_symmetry_cell_setting 'monoclinic'
loop_
_space_group_symop_operation_xyz
x,y,z
-x,y,-z
-x,-y,-z
x,-y,z
1/2+x,1/2+y,z
1/2-x,1/2+y,-z
1/2-x,1/2-y,-z
1/2+x,1/2-y,z
loop_
_atom_site_type_symbol
_atom_site_label
_atom_site_fract_x
_atom_site_fract_y
_atom_site_fract_z
Si Si1 0.193294 0.867006 0.744197
Si Si2 0.818849 0.658436 0.993379
Si Si3 0.206219 0.642899 0.826406
Si Si4 0.336333 0.850002 0.267830
Si Si5 0.719972 0.636122 0.837698
Si Si6 0.304822 0.891160 0.568555
Si Si7 0.906493 0.605301 0.435618
O O1 0.485815 0.893247 0.800725
O O2 0.187412 0.758080 0.741478
O O3 0.183884 0.896815 0.785665
O O4 0.919245 0.893364 0.652892
O O5 0.523708 0.616247 0.909916
O O6 0.750000 0.750000 0.000000
O O7 0.000000 0.674229 0.000000
O O8 0.012711 0.607791 0.072146
O O9 0.086613 0.618600 0.754886
O O10 0.215151 0.753125 0.833140
O O11 0.525458 0.870460 0.350928
O O12 0.041570 0.888826 0.203583
O O13 0.448902 0.854705 0.566117
O O14 0.000000 0.858528 0.500000
O O15 0.296131 0.000000 0.562789
O O16 0.990749 0.500000 0.457759
O O17 0.000000 0.644515 0.500000
#
# Coordination Sequence:
#
# PCOD9171249 Si02
#       7
#     8   8   8   8   8   8   8
#     4  10  20  34  52  80 107 139 176 214 267 311
#     4  10  18  27  43  71 108 146 177 213 263 309
#     4   9  19  28  47  75 107 140 173 213 262 306
#     4  10  18  34  52  78 109 138 172 218 260 309
#     4   9  17  30  48  70 110 141 173 217 254 310
#     4  10  22  39  58  79 103 136 177 217 262 317
#     4  10  22  40  58  77 104 137 176 219 261 315
#
# _framework density 22.067927999999998
#
# number of rings (size 3 to 8) (size 9 to 14) (size 15 to 20)
#    0.000    2.286    2.857    0.000    8.000    0.571 
#    0.000    1.429    0.000    0.000    0.000    6.000 
#    0.000    0.000    0.000    0.000    0.000    0.000 
#
# Total GULP energy -156193.617786 kJ/mol
# GULP energy per Si atom -5578.343492 kJ/mol
# Density = 2.201770 g / cm^3
# Si number density = 22.067928 Si / 1000 Ang^3
#
#
#
# Elastic Constant Matrix: (Units=GPa)
#
#
# Indices 1 2 3 4 5 6 
#
# 1 94.6870 9.4912 28.2215 -0.0002 -7.8883 -0.0001
# 2 9.4912 59.8952 0.6853 0.0001 -0.0054 0.0000
# 3 28.2215 0.6853 132.1643 0.0005 -11.1096 -0.0003
# 4 -0.0002 0.0001 0.0005 31.8676 -0.0001 -9.1638
# 5 -7.8883 -0.0054 -11.1096 -0.0001 41.2811 0.0000
# 6 -0.0001 0.0000 -0.0003 -9.1638 0.0000 -2.7246
#
#
#
# Elastic Compliance Matrix: (Units=1/GPa)
#
#
# Indices 1 2 3 4 5 6 
#
# 1 0.011568 -0.001806 -0.002328 0.000000 0.001584 0.000000
# 2 -0.001806 0.016979 0.000275 0.000000 -0.000269 0.000000
# 3 -0.002328 0.000275 0.008210 0.000000 0.001765 0.000000
# 4 0.000000 0.000000 0.000000 0.015952 0.000000 -0.053651
# 5 0.001584 -0.000269 0.001765 0.000000 0.025002 0.000000
# 6 0.000000 0.000000 0.000000 -0.053651 0.000000 -0.186576
#
#
# Mechanical properties :
#
#
# Convention : Reuss Voigt Hill
#
# Bulk Modulus (GPa) = 34.43606 40.39360 37.41483
# Shear Modulus (GPa) = -54.66383 30.64139 -12.01122
#
# Velocity S-wave (km/s) = -4.98242 3.73030 -2.33552
# Velocity P-wave (km/s) = 4.17862 6.07433 3.11742
#
# Compressibility (1/GPa) = 0.02903933
#
# Stress axis : x y z
#
# Youngs Moduli (GPa) = 86.44637 58.89662 121.79837
#
# Poissons Ratio (x) = 0.10639 0.28350
# Poissons Ratio (y) = 0.15615 -0.03350
# Poissons Ratio (z) = 0.20121 -0.01620
#
# Static dielectric constant tensor:
#      x y z
#    x 1.810000 0.000000 0.014810 
#    y 0.000000 1.871010 0.000000 
#    z 0.014810 0.000000 1.813550 
# 
# From -- ./inp_files/257970.got.cif
#   From: 2010.05.17/outbox.cif.g08.bks.cpg/sg12_129_cif.got.tgz:257970.got - 2010.06.03 13:09:07.
