data_PCOD9171861
_publ_section_title
;
Structure prediction by ZEFSAII (Michael W. Deem and Ramdas Pophale) SiO2 
 PCOD9171861
Probable space group: C 2/M
;
_chemical_formula_sum "Si O2"
_cell_formula_units_Z 48
_cell_length_a 9.184113
_cell_length_b 28.061201
_cell_length_c 9.224993
_cell_angle_alpha 90.000000
_cell_angle_beta 84.922535
_cell_angle_gamma 90.000000
_cell_volume 2368.110554
_symmetry_space_group_name_H-M "C 2/M"
_symmetry_group_IT_number 12
_symmetry_cell_setting 'monoclinic'
loop_
_space_group_symop_operation_xyz
x,y,z
-x,y,-z
-x,-y,-z
x,-y,z
1/2+x,1/2+y,z
1/2-x,1/2+y,-z
1/2-x,1/2-y,-z
1/2+x,1/2-y,z
loop_
_atom_site_type_symbol
_atom_site_label
_atom_site_fract_x
_atom_site_fract_y
_atom_site_fract_z
Si Si1 0.698063 0.192468 0.338138
Si Si2 0.977502 0.397828 0.670868
Si Si3 0.808445 0.056179 0.163940
Si Si4 0.850372 0.554528 0.108608
Si Si5 0.354431 0.301452 0.612812
Si Si6 0.981646 0.145597 0.171483
O O1 0.569820 0.157041 0.302612
O O2 0.670253 0.248352 0.325010
O O3 0.730102 0.185146 0.507553
O O4 0.841167 0.175835 0.238691
O O5 0.837448 0.429032 0.735741
O O6 0.000000 0.406639 0.500000
O O7 0.113499 0.413165 0.757650
O O8 0.937139 0.090738 0.202338
O O9 0.836023 0.000000 0.173015
O O10 0.772057 0.067932 0.998154
O O11 0.824727 0.500000 0.157171
O O12 0.000000 0.554847 0.000000
O O13 0.500000 0.299864 0.500000
O O14 0.385349 0.337023 0.741053
O O15 0.000000 0.153987 0.000000
#
# Coordination Sequence:
#
# PCOD9171861 Si02
#       6
#     8   8   8   8   8   8
#     4   9  19  35  54  74 102 141 171 201 253 316
#     4  10  18  28  50  81 106 129 169 218 256 294
#     4   9  19  36  53  71 102 142 174 204 254 312
#     4   8  15  29  47  67  97 134 165 199 250 306
#     4   9  18  36  57  75 102 138 171 201 252 317
#     4  10  21  35  54  79 103 130 173 222 252 287
#
# _framework density 20.269324000000001
#
# number of rings (size 3 to 8) (size 9 to 14) (size 15 to 20)
#    0.000    2.833    0.000    2.000    0.000    3.667 
#    0.000    4.167    0.000   13.500    0.000    0.000 
#    0.000    0.000    0.000    0.000    0.000    0.000 
#
# Total GULP energy -133960.590351 kJ/mol
# GULP energy per Si atom -5581.691265 kJ/mol
# Density = 2.022319 g / cm^3
# Si number density = 20.269324 Si / 1000 Ang^3
#
#
#
# Elastic Constant Matrix: (Units=GPa)
#
#
# Indices 1 2 3 4 5 6 
#
# 1 37.7647 40.3407 22.3713 0.0000 6.3137 0.0000
# 2 40.3407 125.7673 67.7661 0.0000 27.0201 0.0000
# 3 22.3713 67.7661 104.7299 0.0000 -1.8499 0.0000
# 4 0.0000 0.0000 0.0000 28.0295 0.0000 5.1119
# 5 6.3137 27.0201 -1.8499 0.0000 26.8870 0.0000
# 6 0.0000 0.0000 0.0000 5.1119 0.0000 14.8241
#
#
#
# Elastic Compliance Matrix: (Units=1/GPa)
#
#
# Indices 1 2 3 4 5 6 
#
# 1 0.040755 -0.014671 0.000880 0.000000 0.005234 0.000000
# 2 -0.014671 0.024413 -0.013051 0.000000 -0.021986 0.000000
# 3 0.000880 -0.013051 0.018055 0.000000 0.014151 0.000000
# 4 0.000000 0.000000 0.000000 0.038071 0.000000 -0.013128
# 5 0.005234 -0.021986 0.014151 0.000000 0.059032 0.000000
# 6 0.000000 0.000000 0.000000 -0.013128 0.000000 0.071985
#
#
# Mechanical properties :
#
#
# Convention : Reuss Voigt Hill
#
# Bulk Modulus (GPa) = 33.85383 58.80201 46.32792
# Shear Modulus (GPa) = 15.83071 23.13371 19.48221
#
# Velocity S-wave (km/s) = 2.79770 3.38200 3.10363
# Velocity P-wave (km/s) = 5.21291 6.65762 5.97906
#
# Compressibility (1/GPa) = 0.02953875
#
# Stress axis : x y z
#
# Youngs Moduli (GPa) = 24.53663 40.96236 55.38616
#
# Poissons Ratio (x) = 0.60096 -0.04872
# Poissons Ratio (y) = 0.35998 0.72284
# Poissons Ratio (z) = -0.02158 0.53459
#
# Static dielectric constant tensor:
#      x y z
#    x 1.772100 0.000000 0.001250 
#    y 0.000000 1.703330 0.000000 
#    z 0.001250 0.000000 1.699550 
# 
# From -- ./inp_files/42158.got.cif
#   From: 2010.05.17/outbox.cif.g08.bks.cpg/sg12_22_cif.got.tgz:42158.got - 2010.06.03 13:09:07.
