data_PCOD9171927
_publ_section_title
;
Structure prediction by ZEFSAII (Michael W. Deem and Ramdas Pophale) SiO2 
 PCOD9171927
Probable space group: C 2/M
;
_chemical_formula_sum "Si O2"
_cell_formula_units_Z 56
_cell_length_a 28.046749
_cell_length_b 9.033353
_cell_length_c 14.812715
_cell_angle_alpha 90.000000
_cell_angle_beta 104.450523
_cell_angle_gamma 90.000000
_cell_volume 3634.164521
_symmetry_space_group_name_H-M "C 2/M"
_symmetry_group_IT_number 12
_symmetry_cell_setting 'monoclinic'
loop_
_space_group_symop_operation_xyz
x,y,z
-x,y,-z
-x,-y,-z
x,-y,z
1/2+x,1/2+y,z
1/2-x,1/2+y,-z
1/2-x,1/2-y,-z
1/2+x,1/2-y,z
loop_
_atom_site_type_symbol
_atom_site_label
_atom_site_fract_x
_atom_site_fract_y
_atom_site_fract_z
Si Si1 0.057424 0.178092 0.038966
Si Si2 0.206942 0.175879 0.115904
Si Si3 0.681800 0.177086 0.783234
Si Si4 0.819188 0.823805 0.604798
Si Si5 0.871037 0.323832 0.789795
Si Si6 0.633940 0.325162 0.921747
Si Si7 0.204998 0.677619 0.592912
O O1 0.088840 0.222826 0.964937
O O2 0.063814 0.000000 0.051889
O O3 0.081737 0.256526 0.136685
O O4 0.000000 0.210123 0.000000
O O5 0.263937 0.213586 0.152107
O O6 0.174523 0.270445 0.169415
O O7 0.201239 0.000000 0.135661
O O8 0.182489 0.198501 0.006777
O O9 0.641728 0.246018 0.830604
O O10 0.682906 0.223512 0.678959
O O11 0.677126 0.000000 0.782689
O O12 0.859043 0.745201 0.686862
O O13 0.818242 0.760399 0.503200
O O14 0.763970 0.793608 0.617800
O O15 0.826153 0.000000 0.608796
O O16 0.873718 0.500000 0.786895
O O17 0.628845 0.500000 0.904077
O O18 0.199199 0.500000 0.580023
#
# Coordination Sequence:
#
# PCOD9171927 Si02
#       7
#     8   8   8   8   8   8   8
#     4   9  19  37  56  71  92 123 156 194 241 287
#     4   9  17  31  44  60  91 130 165 193 223 269
#     4  10  18  29  44  63  94 131 160 190 231 274
#     4  10  18  31  47  64  92 128 164 199 233 275
#     4  11  20  29  47  73  98 123 156 198 239 281
#     4   9  18  29  45  68  92 118 156 196 229 278
#     4   9  18  30  44  64  92 127 166 202 230 265
#
# _framework density 15.409319
#
# number of rings (size 3 to 8) (size 9 to 14) (size 15 to 20)
#    0.000    2.429    1.429    3.000    0.000    4.286 
#    0.000    0.000    0.000    0.000    0.000    1.000 
#    0.000    8.000    0.000    0.000    0.000    0.000 
#
# Total GULP energy -156092.506109 kJ/mol
# GULP energy per Si atom -5574.732361 kJ/mol
# Density = 1.537425 g / cm^3
# Si number density = 15.409319 Si / 1000 Ang^3
#
#
#
# Elastic Constant Matrix: (Units=GPa)
#
#
# Indices 1 2 3 4 5 6 
#
# 1 67.1390 33.3603 68.3301 0.0000 -2.9369 0.0000
# 2 33.3603 45.4276 61.2613 0.0000 -1.0014 0.0000
# 3 68.3301 61.2613 125.1929 0.0000 -10.1660 0.0000
# 4 0.0000 0.0000 0.0000 26.6188 0.0000 -5.4561
# 5 -2.9369 -1.0014 -10.1660 0.0000 21.5510 0.0000
# 6 0.0000 0.0000 0.0000 -5.4561 0.0000 18.2120
#
#
#
# Elastic Compliance Matrix: (Units=1/GPa)
#
#
# Indices 1 2 3 4 5 6 
#
# 1 0.033907 0.001331 -0.019525 0.000000 -0.004528 0.000000
# 2 0.001331 0.068132 -0.035140 0.000000 -0.013229 0.000000
# 3 -0.019525 -0.035140 0.036905 0.000000 0.013115 0.000000
# 4 0.000000 0.000000 0.000000 0.040025 0.000000 0.011991
# 5 -0.004528 -0.013229 0.013115 0.000000 0.051356 0.000000
# 6 0.000000 0.000000 0.000000 0.011991 0.000000 0.058501
#
#
# Mechanical properties :
#
#
# Convention : Reuss Voigt Hill
#
# Bulk Modulus (GPa) = 30.98370 62.62923 46.80647
# Shear Modulus (GPa) = 12.30757 18.26354 15.28556
#
# Velocity S-wave (km/s) = 2.82921 3.44645 3.15297
# Velocity P-wave (km/s) = 5.55188 7.52126 6.61032
#
# Compressibility (1/GPa) = 0.03227503
#
# Stress axis : x y z
#
# Youngs Moduli (GPa) = 29.49273 14.67733 27.09663
#
# Poissons Ratio (x) = -0.01954 0.52907
# Poissons Ratio (y) = -0.03926 0.95219
# Poissons Ratio (z) = 0.57585 0.51577
#
# Static dielectric constant tensor:
#      x y z
#    x 1.496890 0.000000 -0.009390 
#    y 0.000000 1.514070 0.000000 
#    z -0.009390 0.000000 1.520230 
# 
# From -- ./inp_files/243013.got.cif
#   From: 2010.05.17/outbox.cif.g08.bks.cpg/sg12_122_cif.got.tgz:243013.got - 2010.06.03 13:09:07.
