data_PCOD9171542
_publ_section_title
;
Structure prediction by ZEFSAII (Michael W. Deem and Ramdas Pophale) SiO2 
 PCOD9171542
Probable space group: C 2/M
;
_chemical_formula_sum "Si O2"
_cell_formula_units_Z 64
_cell_length_a 19.577857
_cell_length_b 8.742731
_cell_length_c 23.636000
_cell_angle_alpha 90.000000
_cell_angle_beta 62.293475
_cell_angle_gamma 90.000000
_cell_volume 3581.761553
_symmetry_space_group_name_H-M "C 2/M"
_symmetry_group_IT_number 12
_symmetry_cell_setting 'monoclinic'
loop_
_space_group_symop_operation_xyz
x,y,z
-x,y,-z
-x,-y,-z
x,-y,z
1/2+x,1/2+y,z
1/2-x,1/2+y,-z
1/2-x,1/2-y,-z
1/2+x,1/2-y,z
loop_
_atom_site_type_symbol
_atom_site_label
_atom_site_fract_x
_atom_site_fract_y
_atom_site_fract_z
Si Si1 0.423375 0.815493 0.229161
Si Si2 0.754467 0.682065 0.321939
Si Si3 0.188086 0.183930 0.156260
Si Si4 0.627291 0.819344 0.295919
Si Si5 0.070031 0.685051 0.108214
Si Si6 0.036045 0.181954 0.664176
Si Si7 0.309245 0.815933 0.023517
Si Si8 0.194607 0.681694 0.568675
O O1 0.333793 0.770992 0.259414
O O2 0.481981 0.773444 0.156419
O O3 0.455817 0.747210 0.275150
O O4 0.423974 0.000000 0.234899
O O5 0.743019 0.500000 0.317466
O O6 0.681861 0.771679 0.326418
O O7 0.770484 0.708104 0.382046
O O8 0.168932 0.258851 0.223134
O O9 0.124113 0.240033 0.135526
O O10 0.184083 0.000000 0.162923
O O11 0.271740 0.228550 0.097846
O O12 0.543815 0.741319 0.330406
O O13 0.617363 0.000000 0.296262
O O14 0.076016 0.500000 0.111391
O O15 0.106818 0.727821 0.033205
O O16 0.110347 0.242361 0.601843
O O17 0.036502 0.000000 0.666283
O O18 0.305444 0.000000 0.023506
O O19 0.250000 0.750000 0.000000
O O20 0.186570 0.500000 0.564510
O O21 0.250000 0.750000 0.500000
#
# Coordination Sequence:
#
# PCOD9171542 Si02
#       8
#     8   8   8   8   8   8   8   8
#     4   9  17  31  52  77 106 137 174 221 272 321
#     4   9  20  37  55  79 110 142 174 214 262 312
#     4  10  18  28  44  69 101 137 175 219 270 324
#     4  12  23  35  52  76 107 142 182 227 271 316
#     4   9  15  26  46  71 100 133 171 219 270 323
#     4  11  21  34  56  83 111 142 179 219 261 312
#     4   8  15  25  39  64  97 131 170 215 266 321
#     4  10  21  40  65  90 117 145 175 210 252 305
#
# _framework density 17.868303000000001
#
# number of rings (size 3 to 8) (size 9 to 14) (size 15 to 20)
#    0.000    2.250    1.250    3.750    0.000    3.000 
#    0.000    0.625    0.000    4.500    0.000    5.250 
#    0.000    0.000    0.000    0.000    0.000    0.000 
#
# Total GULP energy -178415.534625 kJ/mol
# GULP energy per Si atom -5575.485457 kJ/mol
# Density = 1.782763 g / cm^3
# Si number density = 17.868303 Si / 1000 Ang^3
#
#
#
# Elastic Constant Matrix: (Units=GPa)
#
#
# Indices 1 2 3 4 5 6 
#
# 1 84.0362 34.0959 37.9882 0.0000 -24.6318 0.0001
# 2 34.0959 42.4647 31.6591 -0.0001 -9.5429 0.0002
# 3 37.9882 31.6591 109.8541 0.0000 -39.3508 -0.0001
# 4 0.0000 -0.0001 0.0000 26.0283 0.0000 -1.3078
# 5 -24.6318 -9.5429 -39.3508 0.0000 24.3610 0.0000
# 6 0.0001 0.0002 -0.0001 -1.3078 0.0000 23.5612
#
#
#
# Elastic Compliance Matrix: (Units=1/GPa)
#
#
# Indices 1 2 3 4 5 6 
#
# 1 0.024989 -0.018976 0.007631 0.000000 0.030160 0.000000
# 2 -0.018976 0.044689 -0.016420 0.000000 -0.028204 0.000000
# 3 0.007631 -0.016420 0.027662 0.000000 0.045966 0.000000
# 4 0.000000 0.000000 0.000000 0.038527 0.000000 0.002139
# 5 0.030160 -0.028204 0.045966 0.000000 0.134745 0.000000
# 6 0.000000 0.000000 0.000000 0.002139 0.000000 0.042561
#
#
# Mechanical properties :
#
#
# Convention : Reuss Voigt Hill
#
# Bulk Modulus (GPa) = 23.91815 49.31571 36.61693
# Shear Modulus (GPa) = 13.06713 23.63090 18.34901
#
# Velocity S-wave (km/s) = 2.70719 3.64057 3.20801
# Velocity P-wave (km/s) = 4.81526 6.73284 5.85311
#
# Compressibility (1/GPa) = 0.04180926
#
# Stress axis : x y z
#
# Youngs Moduli (GPa) = 40.01718 22.37709 36.15102
#
# Poissons Ratio (x) = 0.42462 -0.27586
# Poissons Ratio (y) = 0.75936 0.59360
# Poissons Ratio (z) = -0.30536 0.36743
#
# Static dielectric constant tensor:
#      x y z
#    x 1.593120 0.000000 -0.032020 
#    y 0.000000 1.602780 0.000000 
#    z -0.032020 0.000000 1.637270 
# 
# From -- ./inp_files/345531.got.cif
#   From: 2010.05.17/outbox.cif.g08.bks.cpg/sg12_173_cif.got.tgz:345531.got - 2010.06.03 13:09:07.
