data_PCOD9171336
_publ_section_title
;
Structure prediction by ZEFSAII (Michael W. Deem and Ramdas Pophale) SiO2 
 PCOD9171336
Probable space group: C 2/M
;
_chemical_formula_sum "Si O2"
_cell_formula_units_Z 58
_cell_length_a 19.936577
_cell_length_b 7.474071
_cell_length_c 19.953465
_cell_angle_alpha 90.000000
_cell_angle_beta 118.694617
_cell_angle_gamma 90.000000
_cell_volume 2608.077194
_symmetry_space_group_name_H-M "C 2/M"
_symmetry_group_IT_number 12
_symmetry_cell_setting 'monoclinic'
loop_
_space_group_symop_operation_xyz
x,y,z
-x,y,-z
-x,-y,-z
x,-y,z
1/2+x,1/2+y,z
1/2-x,1/2+y,-z
1/2-x,1/2-y,-z
1/2+x,1/2-y,z
loop_
_atom_site_type_symbol
_atom_site_label
_atom_site_fract_x
_atom_site_fract_y
_atom_site_fract_z
Si Si1 0.561205 0.202727 0.906100
Si Si2 0.300175 0.293835 0.110904
Si Si3 0.534935 0.796630 0.260878
Si Si4 0.665294 0.215240 0.724463
Si Si5 0.500000 0.500000 0.500000
Si Si6 0.668001 0.709715 0.236277
Si Si7 0.131147 0.717054 0.069354
Si Si8 0.497679 0.215437 0.604354
O O1 0.647196 0.196675 0.917408
O O2 0.513245 0.290737 0.823078
O O3 0.531041 0.000000 0.900457
O O4 0.570839 0.280628 0.984860
O O5 0.294194 0.500000 0.087149
O O6 0.341046 0.284184 0.202820
O O7 0.215585 0.221863 0.085691
O O8 0.619968 0.796915 0.272252
O O9 0.529078 0.730250 0.333552
O O10 0.504132 0.000000 0.251469
O O11 0.745916 0.279741 0.733484
O O12 0.588949 0.259222 0.647857
O O13 0.669441 0.000000 0.731116
O O14 0.464125 0.341181 0.531781
O O15 0.672608 0.500000 0.253113
O O16 0.625066 0.731917 0.144012
O O17 0.130887 0.500000 0.067249
O O18 0.486928 0.000000 0.590159
#
# Coordination Sequence:
#
# PCOD9171336 Si02
#       8
#     8   8   8   8   2   8   8   8
#     4  10  19  32  50  71 107 158 203 246 299 350
#     4  10  18  27  47  78 110 144 195 255 301 341
#     4  10  21  37  58  84 115 157 200 244 295 354
#     4   9  18  36  59  84 114 153 198 241 285 350
#     4  12  26  40  72 106 128 154 182 240 312 358
#     4  10  21  35  56  83 115 158 203 249 296 343
#     4   9  19  33  47  71 110 155 204 252 298 347
#     4  10  22  42  67  98 128 156 195 240 295 365
#
# _framework density 22.238606000000001
#
# number of rings (size 3 to 8) (size 9 to 14) (size 15 to 20)
#    0.000    2.207    1.379    1.448    1.931    2.759 
#    0.000    2.759    0.000    0.828    0.000    0.000 
#    0.000    0.000    0.000    0.000    0.000    0.000 
#
# Total GULP energy -161672.120840 kJ/mol
# GULP energy per Si atom -5574.900719 kJ/mol
# Density = 2.218799 g / cm^3
# Si number density = 22.238606 Si / 1000 Ang^3
#
#
#
# Elastic Constant Matrix: (Units=GPa)
#
#
# Indices 1 2 3 4 5 6 
#
# 1 97.6807 8.8109 36.6149 0.0000 -32.9705 0.0000
# 2 8.8109 82.4568 8.0300 0.0000 -3.4104 0.0000
# 3 36.6149 8.0300 54.7554 0.0000 -22.5424 0.0000
# 4 0.0000 0.0000 0.0000 16.5593 0.0000 -7.4897
# 5 -32.9705 -3.4104 -22.5424 0.0000 22.5214 0.0000
# 6 0.0000 0.0000 0.0000 -7.4897 0.0000 15.3304
#
#
#
# Elastic Compliance Matrix: (Units=1/GPa)
#
#
# Indices 1 2 3 4 5 6 
#
# 1 0.020461 -0.000831 -0.002178 0.000000 0.027649 0.000000
# 2 -0.000831 0.012337 -0.001676 0.000000 -0.001025 0.000000
# 3 -0.002178 -0.001676 0.031548 0.000000 0.028136 0.000000
# 4 0.000000 0.000000 0.000000 0.077518 0.000000 0.037872
# 5 0.027649 -0.001025 0.028136 0.000000 0.112885 0.000000
# 6 0.000000 0.000000 0.000000 0.037872 0.000000 0.083732
#
#
# Mechanical properties :
#
#
# Convention : Reuss Voigt Hill
#
# Bulk Modulus (GPa) = 18.18914 37.97828 28.08371
# Shear Modulus (GPa) = 13.65461 22.97804 18.31633
#
# Velocity S-wave (km/s) = 2.48060 3.21791 2.87300
# Velocity P-wave (km/s) = 4.04986 5.56069 4.86429
#
# Compressibility (1/GPa) = 0.05497786
#
# Stress axis : x y z
#
# Youngs Moduli (GPa) = 48.87351 81.05616 31.69727
#
# Poissons Ratio (x) = 0.06733 0.06903
# Poissons Ratio (y) = 0.04060 0.05312
# Poissons Ratio (z) = 0.10643 0.13584
#
# Static dielectric constant tensor:
#      x y z
#    x 1.848290 0.000000 0.036180 
#    y 0.000000 1.847710 0.000000 
#    z 0.036180 0.000000 1.852360 
# 
# From -- ./inp_files/281574.got.cif
#   From: 2010.05.17/outbox.cif.g08.bks.cpg/sg12_141_cif.got.tgz:281574.got - 2010.06.03 13:09:07.
