data_PCOD9171444
_publ_section_title
;
Structure prediction by ZEFSAII (Michael W. Deem and Ramdas Pophale) SiO2 
 PCOD9171444
Probable space group: C 2/M
;
_chemical_formula_sum "Si O2"
_cell_formula_units_Z 64
_cell_length_a 24.911463
_cell_length_b 7.644016
_cell_length_c 17.174404
_cell_angle_alpha 90.000000
_cell_angle_beta 78.031076
_cell_angle_gamma 90.000000
_cell_volume 3199.314181
_symmetry_space_group_name_H-M "C 2/M"
_symmetry_group_IT_number 12
_symmetry_cell_setting 'monoclinic'
loop_
_space_group_symop_operation_xyz
x,y,z
-x,y,-z
-x,-y,-z
x,-y,z
1/2+x,1/2+y,z
1/2-x,1/2+y,-z
1/2-x,1/2-y,-z
1/2+x,1/2-y,z
loop_
_atom_site_type_symbol
_atom_site_label
_atom_site_fract_x
_atom_site_fract_y
_atom_site_fract_z
Si Si1 0.095623 0.789070 0.990864
Si Si2 0.461639 0.796331 0.840915
Si Si3 0.008842 0.214812 0.408870
Si Si4 0.140984 0.209027 0.811149
Si Si5 0.886532 0.211047 0.719726
Si Si6 0.269588 0.711226 0.777956
Si Si7 0.437403 0.699521 0.291093
Si Si8 0.303906 0.290931 0.936573
O O1 0.045959 0.746551 0.065213
O O2 0.145905 0.720935 0.028727
O O3 0.096637 0.000000 0.986108
O O4 0.110085 0.725148 0.899236
O O5 0.409159 0.758220 0.799999
O O6 0.511627 0.697113 0.784873
O O7 0.473467 0.000000 0.830859
O O8 0.066694 0.271177 0.354080
O O9 0.000000 0.269448 0.500000
O O10 0.961803 0.276615 0.363081
O O11 0.008618 0.000000 0.407235
O O12 0.206571 0.233699 0.787533
O O13 0.111858 0.282543 0.742790
O O14 0.131882 0.000000 0.814269
O O15 0.824671 0.265961 0.714565
O O16 0.886322 0.000000 0.719863
O O17 0.267572 0.500000 0.776901
O O18 0.289716 0.775741 0.856088
O O19 0.421644 0.500000 0.314946
O O20 0.312523 0.500000 0.927303
O O21 0.250000 0.250000 0.000000
#
# Coordination Sequence:
#
# PCOD9171444 Si02
#       8
#     8   8   8   8   8   8   8   8
#     4  10  19  32  46  63  92 129 171 208 247 288
#     4  11  21  31  48  72  96 126 167 211 252 284
#     4   8  14  28  56  85  99 115 152 200 241 285
#     4  10  21  34  49  68  92 133 175 205 238 285
#     4   9  17  32  51  74 104 130 157 197 247 293
#     4  10  19  30  46  68  96 131 162 200 248 286
#     4   9  19  36  53  70  98 129 160 198 245 296
#     4  10  18  28  43  63  90 124 165 208 246 278
#
# _framework density 20.004286
#
# number of rings (size 3 to 8) (size 9 to 14) (size 15 to 20)
#    0.000    2.375    2.500    1.875    0.000    2.500 
#    0.000    2.500    0.000    6.750    0.000    0.000 
#    0.000    0.000    0.000    0.000    0.000    0.000 
#
# Total GULP energy -178191.162424 kJ/mol
# GULP energy per Si atom -5568.473826 kJ/mol
# Density = 1.995876 g / cm^3
# Si number density = 20.004286 Si / 1000 Ang^3
#
#
#
# Elastic Constant Matrix: (Units=GPa)
#
#
# Indices 1 2 3 4 5 6 
#
# 1 76.2194 -1.6578 55.1079 0.0000 17.2434 0.0000
# 2 -1.6578 46.1607 7.4640 0.0000 3.6426 0.0000
# 3 55.1079 7.4640 136.5061 0.0000 10.9194 0.0000
# 4 0.0000 0.0000 0.0000 0.5537 0.0000 -4.9102
# 5 17.2434 3.6426 10.9194 0.0000 21.9071 0.0000
# 6 0.0000 0.0000 0.0000 -4.9102 0.0000 14.1550
#
#
#
# Elastic Compliance Matrix: (Units=1/GPa)
#
#
# Indices 1 2 3 4 5 6 
#
# 1 0.022124 0.003188 -0.007989 0.000000 -0.013962 0.000000
# 2 0.003188 0.022529 -0.002102 0.000000 -0.005208 0.000000
# 3 -0.007989 -0.002102 0.010556 0.000000 0.001377 0.000000
# 4 0.000000 0.000000 0.000000 -0.869909 0.000000 -0.301761
# 5 -0.013962 -0.005208 0.001377 0.000000 0.056817 0.000000
# 6 0.000000 0.000000 0.000000 -0.301761 0.000000 -0.034031
#
#
# Mechanical properties :
#
#
# Convention : Reuss Voigt Hill
#
# Bulk Modulus (GPa) = 24.15317 42.30158 33.22737
# Shear Modulus (GPa) = -6.54188 20.52132 6.98972
#
# Velocity S-wave (km/s) = -1.81034 3.20636 1.87128
# Velocity P-wave (km/s) = 2.78036 5.90761 4.61683
#
# Compressibility (1/GPa) = 0.04140243
#
# Stress axis : x y z
#
# Youngs Moduli (GPa) = 45.19894 44.38753 94.73509
#
# Poissons Ratio (x) = -0.14152 0.75685
# Poissons Ratio (y) = -0.14410 0.19917
# Poissons Ratio (z) = 0.36110 0.09332
#
# Static dielectric constant tensor:
#      x y z
#    x 1.765490 0.000000 -0.016200 
#    y 0.000000 1.737400 0.000000 
#    z -0.016200 0.000000 1.723490 
# 
# From -- ./inp_files/287578.got.cif
#   From: 2010.05.17/outbox.cif.g08.bks.cpg/sg12_144_cif.got.tgz:287578.got - 2010.06.03 13:09:07.
