data_PCOD9171940
_publ_section_title
;
Structure prediction by ZEFSAII (Michael W. Deem and Ramdas Pophale) SiO2 
 PCOD9171940
Probable space group: C 2/M
;
_chemical_formula_sum "Si O2"
_cell_formula_units_Z 64
_cell_length_a 20.754234
_cell_length_b 9.167013
_cell_length_c 20.898488
_cell_angle_alpha 90.000000
_cell_angle_beta 97.939336
_cell_angle_gamma 90.000000
_cell_volume 3937.917142
_symmetry_space_group_name_H-M "C 2/M"
_symmetry_group_IT_number 12
_symmetry_cell_setting 'monoclinic'
loop_
_space_group_symop_operation_xyz
x,y,z
-x,y,-z
-x,-y,-z
x,-y,z
1/2+x,1/2+y,z
1/2-x,1/2+y,-z
1/2-x,1/2-y,-z
1/2+x,1/2-y,z
loop_
_atom_site_type_symbol
_atom_site_label
_atom_site_fract_x
_atom_site_fract_y
_atom_site_fract_z
Si Si1 0.288984 0.327350 0.673682
Si Si2 0.147624 0.167606 0.803666
Si Si3 0.820875 0.831549 0.936134
Si Si4 0.366316 0.827013 0.327605
Si Si5 0.689326 0.175682 0.455986
Si Si6 0.070114 0.322891 0.532486
Si Si7 0.804842 0.331561 0.805952
Si Si8 0.163351 0.668212 0.933473
O O1 0.302197 0.500000 0.671184
O O2 0.210232 0.309761 0.665596
O O3 0.313961 0.241261 0.615405
O O4 0.316249 0.259042 0.742932
O O5 0.120425 0.243418 0.736348
O O6 0.226346 0.169070 0.805598
O O7 0.134212 0.254670 0.866949
O O8 0.127202 0.000000 0.806083
O O9 0.834158 0.744484 0.872748
O O10 0.742093 0.830144 0.934660
O O11 0.840662 0.000000 0.934194
O O12 0.849491 0.754241 0.002784
O O13 0.407758 0.774092 0.393971
O O14 0.376990 0.000000 0.319505
O O15 0.750000 0.250000 0.500000
O O16 0.625531 0.211807 0.488571
O O17 0.697100 0.000000 0.455500
O O18 0.067695 0.500000 0.535596
O O19 0.000000 0.269753 0.500000
O O20 0.824934 0.500000 0.802582
O O21 0.143513 0.500000 0.935396
#
# Coordination Sequence:
#
# PCOD9171940 Si02
#       8
#     8   8   8   8   8   8   8   8
#     4  10  18  29  44  65  88 114 148 189 231 273
#     4   9  16  24  35  53  76 104 139 181 224 266
#     4   9  15  22  32  47  71 105 141 180 221 266
#     4   9  16  28  44  62  83 111 146 184 226 271
#     4  11  20  32  50  72  93 119 152 192 235 278
#     4   9  18  33  51  70  92 120 155 192 232 280
#     4   9  16  25  36  54  78 108 143 182 224 269
#     4   9  15  22  32  47  69 102 142 182 218 262
#
# _framework density 16.252246
#
# number of rings (size 3 to 8) (size 9 to 14) (size 15 to 20)
#    0.000    2.625    1.250    2.250    0.000    6.500 
#    0.000    0.000    0.000    3.375    0.000    0.000 
#    0.000    0.000    0.000    1.125    0.000   23.750 
#
# Total GULP energy -178318.866170 kJ/mol
# GULP energy per Si atom -5572.464568 kJ/mol
# Density = 1.621525 g / cm^3
# Si number density = 16.252246 Si / 1000 Ang^3
#
#
#
# Elastic Constant Matrix: (Units=GPa)
#
#
# Indices 1 2 3 4 5 6 
#
# 1 37.9933 29.2433 39.4603 0.0000 2.9417 0.0000
# 2 29.2433 116.2322 90.5041 0.0000 5.2361 0.0000
# 3 39.4603 90.5041 192.6661 0.0000 10.0973 0.0000
# 4 0.0000 0.0000 0.0000 35.7245 0.0000 -0.4869
# 5 2.9417 5.2361 10.0973 0.0000 7.5485 0.0000
# 6 0.0000 0.0000 0.0000 -0.4869 0.0000 6.6787
#
#
#
# Elastic Compliance Matrix: (Units=1/GPa)
#
#
# Indices 1 2 3 4 5 6 
#
# 1 0.035380 -0.005112 -0.004633 0.000000 -0.004044 0.000000
# 2 -0.005112 0.014310 -0.005656 0.000000 -0.000369 0.000000
# 3 -0.004633 -0.005656 0.009136 0.000000 -0.006493 0.000000
# 4 0.000000 0.000000 0.000000 0.028020 0.000000 0.002043
# 5 -0.004044 -0.000369 -0.006493 0.000000 0.142994 0.000000
# 6 0.000000 0.000000 0.000000 0.002043 0.000000 0.149879
#
#
# Mechanical properties :
#
#
# Convention : Reuss Voigt Hill
#
# Bulk Modulus (GPa) = 35.68216 73.92300 54.80258
# Shear Modulus (GPa) = 11.90868 22.50259 17.20563
#
# Velocity S-wave (km/s) = 2.70985 3.72504 3.25724
# Velocity P-wave (km/s) = 5.63861 8.00529 6.92382
#
# Compressibility (1/GPa) = 0.02802521
#
# Stress axis : x y z
#
# Youngs Moduli (GPa) = 28.26451 69.88099 109.45331
#
# Poissons Ratio (x) = 0.35721 0.50711
# Poissons Ratio (y) = 0.14448 0.61905
# Poissons Ratio (z) = 0.13095 0.39524
#
# Static dielectric constant tensor:
#      x y z
#    x 1.515650 0.000000 0.006510 
#    y 0.000000 1.543930 0.000000 
#    z 0.006510 0.000000 1.545900 
# 
# From -- ./inp_files/319186.got.cif
#   From: 2010.05.17/outbox.cif.g08.bks.cpg/sg12_160_cif.got.tgz:319186.got - 2010.06.03 13:09:07.
