data_PCOD9171310
_publ_section_title
;
Structure prediction by ZEFSAII (Michael W. Deem and Ramdas Pophale) SiO2 
 PCOD9171310
Probable space group: C 2/M
;
_chemical_formula_sum "Si O2"
_cell_formula_units_Z 64
_cell_length_a 20.553009
_cell_length_b 9.150132
_cell_length_c 24.224047
_cell_angle_alpha 90.000000
_cell_angle_beta 58.828852
_cell_angle_gamma 90.000000
_cell_volume 3897.920193
_symmetry_space_group_name_H-M "C 2/M"
_symmetry_group_IT_number 12
_symmetry_cell_setting 'monoclinic'
loop_
_space_group_symop_operation_xyz
x,y,z
-x,y,-z
-x,-y,-z
x,-y,z
1/2+x,1/2+y,z
1/2-x,1/2+y,-z
1/2-x,1/2-y,-z
1/2+x,1/2-y,z
loop_
_atom_site_type_symbol
_atom_site_label
_atom_site_fract_x
_atom_site_fract_y
_atom_site_fract_z
Si Si1 0.652194 0.325486 0.680278
Si Si2 0.217895 0.675586 0.459522
Si Si3 0.986864 0.175159 0.941364
Si Si4 0.566244 0.173828 0.810005
Si Si5 0.671378 0.326416 0.049353
Si Si6 0.041457 0.324207 0.537244
Si Si7 0.428536 0.325857 0.806933
Si Si8 0.493520 0.672639 0.334597
O O1 0.650833 0.500000 0.691176
O O2 0.730050 0.284322 0.615627
O O3 0.635066 0.240961 0.744241
O O4 0.583548 0.295320 0.666755
O O5 0.223675 0.500000 0.462740
O O6 0.250000 0.750000 0.500000
O O7 0.130000 0.715612 0.493252
O O8 0.902361 0.216800 0.955696
O O9 0.049874 0.256291 0.876767
O O10 0.993526 0.000000 0.929723
O O11 0.000000 0.205610 0.000000
O O12 0.492788 0.228902 0.807774
O O13 0.570418 0.000000 0.810696
O O14 0.680548 0.500000 0.038208
O O15 0.646574 0.299676 0.124104
O O16 0.750000 0.250000 0.000000
O O17 0.036179 0.500000 0.542590
O O18 0.007703 0.259059 0.608161
O O19 0.000000 0.274441 0.500000
O O20 0.447427 0.500000 0.805777
O O21 0.436969 0.296463 0.738228
O O22 0.492921 0.500000 0.346626
#
# Coordination Sequence:
#
# PCOD9171310 Si02
#       8
#     8   8   8   8   8   8   8   8
#     4   9  17  30  48  70  96 127 161 199 242 291
#     4  10  19  32  51  73  97 126 161 202 244 288
#     4   9  18  34  54  72  96 135 173 198 231 290
#     4  10  18  27  45  75 103 125 156 204 251 283
#     4   9  17  30  50  75 100 127 159 199 242 283
#     4  10  21  34  48  70 101 130 156 195 249 295
#     4   8  16  31  48  68  97 130 164 198 236 290
#     4   9  16  29  50  72  92 121 165 204 235 281
#
# _framework density 16.419011999999999
#
# number of rings (size 3 to 8) (size 9 to 14) (size 15 to 20)
#    0.000    2.750    1.250    2.625    0.000    5.000 
#    0.000    0.000    2.750    0.000    0.000    0.000 
#    0.000    0.000    0.000    0.000    0.000    0.000 
#
# Total GULP energy -178186.380109 kJ/mol
# GULP energy per Si atom -5568.324378 kJ/mol
# Density = 1.638164 g / cm^3
# Si number density = 16.419012 Si / 1000 Ang^3
#
#
#
# Elastic Constant Matrix: (Units=GPa)
#
#
# Indices 1 2 3 4 5 6 
#
# 1 67.7060 27.6099 66.9304 0.0000 1.3163 0.0003
# 2 27.6099 36.1863 63.5798 0.0001 3.5145 0.0007
# 3 66.9304 63.5798 193.5951 0.0000 0.2236 0.0000
# 4 0.0000 0.0001 0.0000 30.7927 0.0000 -1.1007
# 5 1.3163 3.5145 0.2236 0.0000 24.8790 0.0000
# 6 0.0003 0.0007 0.0000 -1.1007 0.0000 15.4438
#
#
#
# Elastic Compliance Matrix: (Units=1/GPa)
#
#
# Indices 1 2 3 4 5 6 
#
# 1 0.023531 -0.008660 -0.005291 0.000000 0.000026 0.000000
# 2 -0.008660 0.070619 -0.020188 0.000000 -0.009336 -0.000003
# 3 -0.005291 -0.020188 0.013621 0.000000 0.003009 0.000001
# 4 0.000000 0.000000 0.000000 0.032558 0.000000 0.002320
# 5 0.000026 -0.009336 0.003009 0.000000 0.041485 0.000000
# 6 0.000000 -0.000003 0.000001 0.002320 0.000000 0.064916
#
#
# Mechanical properties :
#
#
# Convention : Reuss Voigt Hill
#
# Bulk Modulus (GPa) = 25.32037 68.19196 46.75617
# Shear Modulus (GPa) = 15.23583 23.51425 19.37504
#
# Velocity S-wave (km/s) = 3.04951 3.78846 3.43889
# Velocity P-wave (km/s) = 5.27771 7.79481 6.65632
#
# Compressibility (1/GPa) = 0.03949389
#
# Stress axis : x y z
#
# Youngs Moduli (GPa) = 42.49644 14.16048 73.41445
#
# Poissons Ratio (x) = 0.12263 0.38846
# Poissons Ratio (y) = 0.36801 1.48208
# Poissons Ratio (z) = 0.22486 0.28587
#
# Static dielectric constant tensor:
#      x y z
#    x 1.546580 0.000000 -0.010970 
#    y 0.000000 1.545200 0.000000 
#    z -0.010970 0.000000 1.580180 
# 
# From -- ./inp_files/345555.got.cif
#   From: 2010.05.17/outbox.cif.g08.bks.cpg/sg12_173_cif.got.tgz:345555.got - 2010.06.03 13:09:07.
