data_PCOD9171466
_publ_section_title
;
Structure prediction by ZEFSAII (Michael W. Deem and Ramdas Pophale) SiO2 
 PCOD9171466
Probable space group: C 2/M
;
_chemical_formula_sum "Si O2"
_cell_formula_units_Z 64
_cell_length_a 29.788041
_cell_length_b 7.574339
_cell_length_c 14.646257
_cell_angle_alpha 90.000000
_cell_angle_beta 110.461979
_cell_angle_gamma 90.000000
_cell_volume 3096.054524
_symmetry_space_group_name_H-M "C 2/M"
_symmetry_group_IT_number 12
_symmetry_cell_setting 'monoclinic'
loop_
_space_group_symop_operation_xyz
x,y,z
-x,y,-z
-x,-y,-z
x,-y,z
1/2+x,1/2+y,z
1/2-x,1/2+y,-z
1/2-x,1/2-y,-z
1/2+x,1/2-y,z
loop_
_atom_site_type_symbol
_atom_site_label
_atom_site_fract_x
_atom_site_fract_y
_atom_site_fract_z
Si Si1 0.802352 0.206950 0.426938
Si Si2 0.503998 0.295086 0.899788
Si Si3 0.347107 0.717781 0.276882
Si Si4 0.751729 0.789444 0.108352
Si Si5 0.852760 0.714602 0.960113
Si Si6 0.413715 0.295960 0.171040
Si Si7 0.196324 0.210545 0.365587
Si Si8 0.400278 0.790565 0.812445
O O1 0.837702 0.276279 0.373958
O O2 0.806022 0.281878 0.531777
O O3 0.746319 0.221829 0.358601
O O4 0.813222 0.000000 0.442610
O O5 0.518159 0.500000 0.922157
O O6 0.542819 0.215343 0.857316
O O7 0.450952 0.287623 0.819389
O O8 0.500000 0.217375 0.000000
O O9 0.347910 0.500000 0.276293
O O10 0.299366 0.778811 0.189466
O O11 0.393217 0.777661 0.251618
O O12 0.700175 0.726120 0.106687
O O13 0.752618 0.000000 0.121619
O O14 0.750000 0.750000 0.000000
O O15 0.853048 0.500000 0.966127
O O16 0.889095 0.771666 0.907417
O O17 0.869201 0.787909 0.068711
O O18 0.426514 0.500000 0.198139
O O19 0.147213 0.253490 0.279510
O O20 0.201286 0.000000 0.371978
O O21 0.406516 0.000000 0.819307
#
# Coordination Sequence:
#
# PCOD9171466 Si02
#       8
#     8   8   8   8   8   8   8   8
#     4   9  18  35  57  79 107 138 170 209 255 311
#     4  10  20  34  52  76 105 133 170 220 266 304
#     4   9  17  31  51  72  99 137 174 204 248 305
#     4  10  18  28  43  65  96 130 163 198 235 285
#     4  10  20  31  45  69 100 133 169 208 248 296
#     4  10  19  32  51  72  98 135 170 206 252 301
#     4  10  20  34  55  82 107 133 169 216 263 305
#     4  11  22  35  54  75 101 138 175 214 260 311
#
# _framework density 20.671471
#
# number of rings (size 3 to 8) (size 9 to 14) (size 15 to 20)
#    0.000    2.125    2.500    1.500    0.000    3.750 
#    0.000    2.500    0.000    0.750    0.000    5.250 
#    0.000    0.000    0.000    0.000    0.000    0.000 
#
# Total GULP energy -178536.369422 kJ/mol
# GULP energy per Si atom -5579.261544 kJ/mol
# Density = 2.062442 g / cm^3
# Si number density = 20.671471 Si / 1000 Ang^3
#
#
#
# Elastic Constant Matrix: (Units=GPa)
#
#
# Indices 1 2 3 4 5 6 
#
# 1 136.4009 -1.0694 37.6443 0.0000 -35.7084 0.0000
# 2 -1.0694 53.0217 -4.4794 0.0000 -6.3131 0.0000
# 3 37.6443 -4.4794 68.2078 0.0000 -22.0711 0.0000
# 4 0.0000 0.0000 0.0000 11.9263 0.0000 5.4413
# 5 -35.7084 -6.3131 -22.0711 0.0000 39.9930 0.0000
# 6 0.0000 0.0000 0.0000 5.4413 0.0000 13.2109
#
#
#
# Elastic Compliance Matrix: (Units=1/GPa)
#
#
# Indices 1 2 3 4 5 6 
#
# 1 0.010159 0.000830 -0.003135 0.000000 0.007472 0.000000
# 2 0.000830 0.019717 0.002537 0.000000 0.005253 0.000000
# 3 -0.003135 0.002537 0.019213 0.000000 0.008205 0.000000
# 4 0.000000 0.000000 0.000000 0.103251 0.000000 -0.042527
# 5 0.007472 0.005253 0.008205 0.000000 0.037033 0.000000
# 6 0.000000 0.000000 0.000000 -0.042527 0.000000 0.093211
#
#
# Mechanical properties :
#
#
# Convention : Reuss Voigt Hill
#
# Bulk Modulus (GPa) = 20.18081 35.75794 27.96937
# Shear Modulus (GPa) = 16.74277 28.06171 22.40224
#
# Velocity S-wave (km/s) = 2.84904 3.68844 3.29557
# Velocity P-wave (km/s) = 4.53944 5.95610 5.29536
#
# Compressibility (1/GPa) = 0.04955203
#
# Stress axis : x y z
#
# Youngs Moduli (GPa) = 98.43568 50.71838 52.04932
#
# Poissons Ratio (x) = -0.04208 0.16315
# Poissons Ratio (y) = -0.08167 -0.13204
# Poissons Ratio (z) = 0.30855 -0.12866
#
# Static dielectric constant tensor:
#      x y z
#    x 1.785010 0.000000 -0.036590 
#    y 0.000000 1.588600 0.000000 
#    z -0.036590 0.000000 1.746430 
# 
# From -- ./inp_files/244190.got.cif
#   From: 2010.05.17/outbox.cif.g08.bks.cpg/sg12_123_cif.got.tgz:244190.got - 2010.06.03 13:09:07.
