data_PCOD9171705
_publ_section_title
;
Structure prediction by ZEFSAII (Michael W. Deem and Ramdas Pophale) SiO2 
 PCOD9171705
Probable space group: C 2/M
;
_chemical_formula_sum "Si O2"
_cell_formula_units_Z 40
_cell_length_a 26.150564
_cell_length_b 8.073624
_cell_length_c 12.714495
_cell_angle_alpha 90.000000
_cell_angle_beta 121.924704
_cell_angle_gamma 90.000000
_cell_volume 2278.375445
_symmetry_space_group_name_H-M "C 2/M"
_symmetry_group_IT_number 12
_symmetry_cell_setting 'monoclinic'
loop_
_space_group_symop_operation_xyz
x,y,z
-x,y,-z
-x,-y,-z
x,-y,z
1/2+x,1/2+y,z
1/2-x,1/2+y,-z
1/2-x,1/2-y,-z
1/2+x,1/2-y,z
loop_
_atom_site_type_symbol
_atom_site_label
_atom_site_fract_x
_atom_site_fract_y
_atom_site_fract_z
Si Si1 0.584292 0.194728 0.659539
Si Si2 0.536145 0.693687 0.384255
Si Si3 0.281963 0.800514 0.141668
Si Si4 0.153332 0.799453 0.403630
Si Si5 0.741790 0.300191 0.323066
O O1 0.528285 0.219161 0.677156
O O2 0.566715 0.286353 0.532637
O O3 0.648192 0.252883 0.773683
O O4 0.588952 0.000000 0.638340
O O5 0.525456 0.500000 0.352931
O O6 0.586063 0.758952 0.357028
O O7 0.248459 0.739973 0.211123
O O8 0.282099 0.000000 0.145219
O O9 0.250000 0.750000 0.000000
O O10 0.198803 0.747416 0.546128
O O11 0.184761 0.741621 0.329878
O O12 0.151581 0.000000 0.400982
O O13 0.739156 0.500000 0.317836
#
# Coordination Sequence:
#
# PCOD9171705 Si02
#       5
#     8   8   8   8   8
#     4  10  19  31  46  68  95 127 160 191 233 284
#     4  10  18  28  46  73  99 124 151 192 239 281
#     4  10  21  34  50  69  94 127 163 199 234 277
#     4   9  17  28  47  72  98 123 151 192 238 285
#     4   9  17  31  47  68  96 125 157 192 236 283
#
# _framework density 17.556369
#
# number of rings (size 3 to 8) (size 9 to 14) (size 15 to 20)
#    0.000    2.400    2.000    2.400    0.000    3.200 
#    0.000    0.000    0.000    1.200    0.000    8.400 
#    0.000    0.000    0.000    0.000    0.000    0.000 
#
# Total GULP energy -111481.525704 kJ/mol
# GULP energy per Si atom -5574.076285 kJ/mol
# Density = 1.751641 g / cm^3
# Si number density = 17.556369 Si / 1000 Ang^3
#
#
#
# Elastic Constant Matrix: (Units=GPa)
#
#
# Indices 1 2 3 4 5 6 
#
# 1 157.6666 0.9632 61.9788 0.0000 -15.0688 0.0000
# 2 0.9632 12.3548 0.4455 0.0000 -1.4067 0.0000
# 3 61.9788 0.4455 93.1108 0.0000 -11.0153 0.0000
# 4 0.0000 0.0000 0.0000 19.9904 0.0000 4.1304
# 5 -15.0688 -1.4067 -11.0153 0.0000 22.5781 0.0000
# 6 0.0000 0.0000 0.0000 4.1304 0.0000 17.2445
#
#
#
# Elastic Compliance Matrix: (Units=1/GPa)
#
#
# Indices 1 2 3 4 5 6 
#
# 1 0.008803 -0.000125 -0.005481 0.000000 0.003193 0.000000
# 2 -0.000125 0.081524 0.000302 0.000000 0.005143 0.000000
# 3 -0.005481 0.000302 0.014811 0.000000 0.003587 0.000000
# 4 0.000000 0.000000 0.000000 0.052629 0.000000 -0.012606
# 5 0.003193 0.005143 0.003587 0.000000 0.048492 0.000000
# 6 0.000000 0.000000 0.000000 -0.012606 0.000000 0.061009
#
#
# Mechanical properties :
#
#
# Convention : Reuss Voigt Hill
#
# Bulk Modulus (GPa) = 10.57874 43.32303 26.95088
# Shear Modulus (GPa) = 16.16092 25.27892 20.71992
#
# Velocity S-wave (km/s) = 3.03729 3.79868 3.43912
# Velocity P-wave (km/s) = 4.28239 6.63099 5.58162
#
# Compressibility (1/GPa) = 0.09452926
#
# Stress axis : x y z
#
# Youngs Moduli (GPa) = 113.59490 12.26626 67.51536
#
# Poissons Ratio (x) = 0.00153 0.37008
# Poissons Ratio (y) = 0.01421 -0.02036
# Poissons Ratio (z) = 0.62266 -0.00370
#
# Static dielectric constant tensor:
#      x y z
#    x 1.663000 0.000000 -0.019880 
#    y 0.000000 1.647120 0.000000 
#    z -0.019880 0.000000 1.551200 
# 
# From -- ./inp_files/171586.got.cif
#   From: 2010.05.17/outbox.cif.g08.bks.cpg/sg12_86_cif.got.tgz:171586.got - 2010.06.03 13:09:07.
