data_PCOD9171480
_publ_section_title
;
Structure prediction by ZEFSAII (Michael W. Deem and Ramdas Pophale) SiO2 
 PCOD9171480
Probable space group: C 2/M
;
_chemical_formula_sum "Si O2"
_cell_formula_units_Z 48
_cell_length_a 20.982074
_cell_length_b 9.010379
_cell_length_c 17.290191
_cell_angle_alpha 90.000000
_cell_angle_beta 63.819781
_cell_angle_gamma 90.000000
_cell_volume 2933.475926
_symmetry_space_group_name_H-M "C 2/M"
_symmetry_group_IT_number 12
_symmetry_cell_setting 'monoclinic'
loop_
_space_group_symop_operation_xyz
x,y,z
-x,y,-z
-x,-y,-z
x,-y,z
1/2+x,1/2+y,z
1/2-x,1/2+y,-z
1/2-x,1/2-y,-z
1/2+x,1/2-y,z
loop_
_atom_site_type_symbol
_atom_site_label
_atom_site_fract_x
_atom_site_fract_y
_atom_site_fract_z
Si Si1 0.714775 0.821558 0.442966
Si Si2 0.040888 0.826164 0.096232
Si Si3 0.950451 0.319323 0.456808
Si Si4 0.820769 0.676934 0.270170
Si Si5 0.528448 0.177668 0.727901
Si Si6 0.387466 0.674895 0.093249
O O1 0.750000 0.750000 0.500000
O O2 0.631758 0.780816 0.486255
O O3 0.756729 0.759547 0.346725
O O4 0.720512 0.000000 0.443917
O O5 0.029589 0.743845 0.182822
O O6 0.964474 0.814494 0.093967
O O7 0.053857 0.000000 0.102773
O O8 0.098493 0.772962 0.002223
O O9 0.953579 0.500000 0.453967
O O10 0.974888 0.268921 0.358600
O O11 0.000000 0.266884 0.500000
O O12 0.811028 0.500000 0.277333
O O13 0.892865 0.711894 0.280373
O O14 0.834846 0.733921 0.175783
O O15 0.522004 0.000000 0.732336
O O16 0.368749 0.500000 0.102318
#
# Coordination Sequence:
#
# PCOD9171480 Si02
#       6
#     8   8   8   8   8   8
#     4  11  20  32  50  71  94 124 160 196 238 281
#     4   8  14  24  39  60  89 122 153 185 229 280
#     4   9  18  33  50  68  93 125 162 199 231 275
#     4  10  18  28  43  68  96 122 155 192 235 279
#     4   9  16  27  43  65  90 119 157 192 229 275
#     4   8  14  25  39  60  90 123 154 185 227 279
#
# _framework density 16.362842000000001
#
# number of rings (size 3 to 8) (size 9 to 14) (size 15 to 20)
#    0.000    2.833    1.667    2.000    0.000    1.333 
#    0.000    3.333    0.000    4.500    0.000    1.167 
#    0.000    0.000    0.000    0.000    0.000    0.000 
#
# Total GULP energy -133641.148974 kJ/mol
# GULP energy per Si atom -5568.381207 kJ/mol
# Density = 1.632560 g / cm^3
# Si number density = 16.362842 Si / 1000 Ang^3
#
#
#
# Elastic Constant Matrix: (Units=GPa)
#
#
# Indices 1 2 3 4 5 6 
#
# 1 62.1360 24.0292 56.7854 0.0000 5.2384 0.0000
# 2 24.0292 30.1007 51.3568 0.0000 -0.3873 0.0001
# 3 56.7854 51.3568 196.7218 0.0000 6.9635 0.0000
# 4 0.0000 0.0000 0.0000 33.7847 0.0000 -0.7919
# 5 5.2384 -0.3873 6.9635 0.0000 13.0417 0.0000
# 6 0.0000 0.0001 0.0000 -0.7919 0.0000 8.5938
#
#
#
# Elastic Compliance Matrix: (Units=1/GPa)
#
#
# Indices 1 2 3 4 5 6 
#
# 1 0.025582 -0.015307 -0.003067 0.000000 -0.009093 0.000000
# 2 -0.015307 0.070459 -0.014542 0.000000 0.016005 -0.000001
# 3 -0.003067 -0.014542 0.009924 0.000000 -0.004499 0.000000
# 4 0.000000 0.000000 0.000000 0.029663 0.000000 0.002733
# 5 -0.009093 0.016005 -0.004499 0.000000 0.083207 0.000000
# 6 0.000000 -0.000001 0.000000 0.002733 0.000000 0.116614
#
#
# Mechanical properties :
#
#
# Convention : Reuss Voigt Hill
#
# Bulk Modulus (GPa) = 24.91689 61.47792 43.19741
# Shear Modulus (GPa) = 12.05809 21.53653 16.79731
#
# Velocity S-wave (km/s) = 2.71757 3.63186 3.20746
# Velocity P-wave (km/s) = 5.01076 7.43239 6.33830
#
# Compressibility (1/GPa) = 0.04013341
#
# Stress axis : x y z
#
# Youngs Moduli (GPa) = 39.08935 14.19272 100.76395
#
# Poissons Ratio (x) = 0.21725 0.30900
# Poissons Ratio (y) = 0.59835 1.46532
# Poissons Ratio (z) = 0.11987 0.20639
#
# Static dielectric constant tensor:
#      x y z
#    x 1.527530 0.000000 0.008030 
#    y 0.000000 1.546950 0.000000 
#    z 0.008030 0.000000 1.580620 
# 
# From -- ./inp_files/280077.got.cif
#   From: 2010.05.17/outbox.cif.g08.bks.cpg/sg12_141_cif.got.tgz:280077.got - 2010.06.03 13:09:07.
