data_PCOD9171085
_publ_section_title
;
Structure prediction by ZEFSAII (Michael W. Deem and Ramdas Pophale) SiO2 
 PCOD9171085
Probable space group: C 2/M
;
_chemical_formula_sum "Si O2"
_cell_formula_units_Z 64
_cell_length_a 28.498026
_cell_length_b 18.976165
_cell_length_c 9.083419
_cell_angle_alpha 90.000000
_cell_angle_beta 108.586651
_cell_angle_gamma 90.000000
_cell_volume 4655.955729
_symmetry_space_group_name_H-M "C 2/M"
_symmetry_group_IT_number 12
_symmetry_cell_setting 'monoclinic'
loop_
_space_group_symop_operation_xyz
x,y,z
-x,y,-z
-x,-y,-z
x,-y,z
1/2+x,1/2+y,z
1/2-x,1/2+y,-z
1/2-x,1/2-y,-z
1/2+x,1/2-y,z
loop_
_atom_site_type_symbol
_atom_site_label
_atom_site_fract_x
_atom_site_fract_y
_atom_site_fract_z
Si Si1 0.303845 0.288293 0.723125
Si Si2 0.255584 0.918243 0.327966
Si Si3 0.051681 0.417830 0.624920
Si Si4 0.948319 0.582170 0.021559
Si Si5 0.348086 0.160047 0.274360
Si Si6 0.651914 0.839953 0.078189
Si Si7 0.255584 0.918243 0.683203
Si Si8 0.303845 0.288293 0.384565
O O1 0.290232 0.367230 0.759239
O O2 0.338666 0.239235 0.855359
O O3 0.321173 0.288931 0.571173
O O4 0.250000 0.250000 0.670554
O O5 0.304895 0.888156 0.301258
O O6 0.261312 0.911320 0.511312
O O7 0.248160 0.000000 0.285062
O O8 0.061058 0.500000 0.594969
O O9 0.046825 0.414336 0.796825
O O10 0.098680 0.371003 0.628413
O O11 0.000000 0.396479 0.500000
O O12 0.938942 0.500000 0.972853
O O13 0.901320 0.628997 0.931054
O O14 0.000000 0.603521 0.000000
O O15 0.338666 0.239235 0.321973
O O16 0.343981 0.157407 0.093981
O O17 0.695105 0.888156 0.191469
O O18 0.209768 0.867230 0.678775
O O19 0.248160 0.000000 0.711259
#
# Coordination Sequence:
#
# PCOD9171085 Si02
#       8
#     8   8   8   8   8   8   8   8
#     4   8  15  27  40  55  76 102 132 161 188 225
#     4   9  17  28  41  57  78 105 135 163 190 224
#     4   9  18  30  41  55  76 101 130 163 194 224
#     4   9  18  30  41  55  76 101 130 163 194 224
#     4  10  18  27  40  58  80 104 130 161 196 231
#     4  10  18  27  40  58  80 104 130 161 196 231
#     4   9  17  28  41  57  78 105 135 163 190 224
#     4   8  15  27  40  55  76 102 132 161 188 225
#
# _framework density 13.745836000000001
#
# number of rings (size 3 to 8) (size 9 to 14) (size 15 to 20)
#    0.000    3.000    0.000    3.000    0.000    8.000 
#    0.000    2.500    0.000    0.000    0.000    0.000 
#    0.000    1.000    0.000    2.250    0.000    3.500 
#
# Total GULP energy -178150.769848 kJ/mol
# GULP energy per Si atom -5567.211558 kJ/mol
# Density = 1.371455 g / cm^3
# Si number density = 13.745836 Si / 1000 Ang^3
#
#
#
# Elastic Constant Matrix: (Units=GPa)
#
#
# Indices 1 2 3 4 5 6 
#
# 1 85.2383 59.7197 31.0710 0.0000 4.2248 0.0000
# 2 59.7197 120.0732 38.1949 0.0000 8.2201 0.0000
# 3 31.0710 38.1949 37.3228 0.0000 14.0736 0.0000
# 4 0.0000 0.0000 0.0000 19.8449 0.0000 1.7323
# 5 4.2248 8.2201 14.0736 0.0000 17.7911 0.0000
# 6 0.0000 0.0000 0.0000 1.7323 0.0000 24.3810
#
#
#
# Elastic Compliance Matrix: (Units=1/GPa)
#
#
# Indices 1 2 3 4 5 6 
#
# 1 0.021118 -0.006562 -0.014418 0.000000 0.009423 0.000000
# 2 -0.006562 0.014872 -0.011049 0.000000 0.003427 0.000000
# 3 -0.014418 -0.011049 0.066819 0.000000 -0.044328 0.000000
# 4 0.000000 0.000000 0.000000 0.050705 0.000000 -0.003603
# 5 0.009423 0.003427 -0.044328 0.000000 0.087453 0.000000
# 6 0.000000 0.000000 0.000000 -0.003603 0.000000 0.041272
#
#
# Mechanical properties :
#
#
# Convention : Reuss Voigt Hill
#
# Bulk Modulus (GPa) = 25.80640 55.62284 40.71462
# Shear Modulus (GPa) = 13.91928 19.97997 16.94963
#
# Velocity S-wave (km/s) = 3.18562 3.81665 3.51532
# Velocity P-wave (km/s) = 5.68732 7.74439 6.79416
#
# Compressibility (1/GPa) = 0.03875008
#
# Stress axis : x y z
#
# Youngs Moduli (GPa) = 47.35315 67.24096 14.96579
#
# Poissons Ratio (x) = 0.44122 0.21578
# Poissons Ratio (y) = 0.31072 0.16536
# Poissons Ratio (z) = 0.68276 0.74295
#
# Static dielectric constant tensor:
#      x y z
#    x 1.427140 0.000000 -0.011560 
#    y 0.000000 1.477490 0.000000 
#    z -0.011560 0.000000 1.457420 
# 
# From -- ./inp_files/112328.got.cif
#   From: 2010.05.17/outbox.cif.g08.bks.cpg/sg12_57_cif.got.tgz:112328.got - 2010.06.03 13:09:07.
