data_PCOD9171515
_publ_section_title
;
Structure prediction by ZEFSAII (Michael W. Deem and Ramdas Pophale) SiO2 
 PCOD9171515
Probable space group: C 2/M
;
_chemical_formula_sum "Si O2"
_cell_formula_units_Z 64
_cell_length_a 31.396925
_cell_length_b 23.738590
_cell_length_c 5.085859
_cell_angle_alpha 90.000000
_cell_angle_beta 100.011431
_cell_angle_gamma 90.000000
_cell_volume 3732.867055
_symmetry_space_group_name_H-M "C 2/M"
_symmetry_group_IT_number 12
_symmetry_cell_setting 'monoclinic'
loop_
_space_group_symop_operation_xyz
x,y,z
-x,y,-z
-x,-y,-z
x,-y,z
1/2+x,1/2+y,z
1/2-x,1/2+y,-z
1/2-x,1/2-y,-z
1/2+x,1/2-y,z
loop_
_atom_site_type_symbol
_atom_site_label
_atom_site_fract_x
_atom_site_fract_y
_atom_site_fract_z
Si Si1 0.600926 0.271942 0.034050
Si Si2 0.452900 0.729947 0.528825
Si Si3 0.798428 0.397354 0.852531
Si Si4 0.761691 0.795958 0.235245
Si Si5 0.547823 0.866090 0.478165
Si Si6 0.690945 0.669863 0.208585
Si Si7 0.752650 0.063365 0.687957
Si Si8 0.396066 0.135484 0.961246
O O1 0.562713 0.284682 0.197977
O O2 0.642328 0.307982 0.162369
O O3 0.610173 0.204093 0.057841
O O4 0.583464 0.284861 0.724718
O O5 0.500000 0.707940 0.500000
O O6 0.455741 0.798039 0.528101
O O7 0.780310 0.334591 0.777692
O O8 0.775871 0.434437 0.605926
O O9 0.849821 0.394204 0.889018
O O10 0.778967 0.415209 0.112710
O O11 0.783052 0.790663 0.548187
O O12 0.750000 0.750000 0.000000
O O13 0.796655 0.827871 0.087945
O O14 0.500000 0.887855 0.500000
O O15 0.569465 0.881301 0.225235
O O16 0.582087 0.879509 0.740237
O O17 0.707980 0.607657 0.303539
O O18 0.767176 0.000000 0.758801
#
# Coordination Sequence:
#
# PCOD9171515 Si02
#       8
#     8   8   8   8   8   8   8   8
#     4  10  18  28  44  66  96 126 155 190 222 265
#     4   9  17  28  42  62  92 131 162 183 216 262
#     4  10  20  32  49  71  91 119 156 191 232 279
#     4  10  19  30  44  64  96 127 151 181 225 279
#     4   9  17  28  42  62  93 130 156 178 215 262
#     4  10  20  31  46  68  90 122 161 192 229 275
#     4  10  21  37  52  66  91 121 154 201 243 276
#     4  10  18  28  44  67  96 122 151 188 220 265
#
# _framework density 17.144998999999999
#
# number of rings (size 3 to 8) (size 9 to 14) (size 15 to 20)
#    0.000    2.250    0.000    3.750    0.000    7.000 
#    0.000    0.000    0.000    0.000    0.000    0.000 
#    0.000   38.000    0.000    0.000    0.000    0.000 
#
# Total GULP energy -178145.740831 kJ/mol
# GULP energy per Si atom -5567.054401 kJ/mol
# Density = 1.710598 g / cm^3
# Si number density = 17.144999 Si / 1000 Ang^3
#
#
#
# Elastic Constant Matrix: (Units=GPa)
#
#
# Indices 1 2 3 4 5 6 
#
# 1 -4.0249 -24.7987 -0.9989 0.0000 -1.7339 0.0000
# 2 -24.7987 22.8626 1.6426 0.0000 -0.2279 0.0000
# 3 -0.9989 1.6426 50.7793 0.0000 -11.0487 0.0000
# 4 0.0000 0.0000 0.0000 9.6356 0.0000 4.0746
# 5 -1.7339 -0.2279 -11.0487 0.0000 14.7776 0.0000
# 6 0.0000 0.0000 0.0000 4.0746 0.0000 3.3150
#
#
#
# Elastic Compliance Matrix: (Units=1/GPa)
#
#
# Indices 1 2 3 4 5 6 
#
# 1 -0.032050 -0.034774 -0.000526 0.000000 -0.004690 0.000000
# 2 -0.034774 0.006116 -0.002089 0.000000 -0.005547 0.000000
# 3 -0.000526 -0.002089 0.023563 0.000000 0.017523 0.000000
# 4 0.000000 0.000000 0.000000 0.216107 0.000000 -0.265628
# 5 -0.004690 -0.005547 0.017523 0.000000 0.080135 0.000000
# 6 0.000000 0.000000 0.000000 -0.265628 0.000000 0.628162
#
#
# Mechanical properties :
#
#
# Convention : Reuss Voigt Hill
#
# Bulk Modulus (GPa) = -12.96190 2.36743 -5.29724
# Shear Modulus (GPa) = 5.14884 11.79712 8.47298
#
# Velocity S-wave (km/s) = 1.73483 2.62597 2.22546
# Velocity P-wave (km/s) = 1.88779 3.25240 1.87275
#
# Compressibility (1/GPa) = -0.07714916
#
# Stress axis : x y z
#
# Youngs Moduli (GPa) = -31.20076 163.50961 42.43937
#
# Poissons Ratio (x) = 5.68583 0.02233
# Poissons Ratio (y) = -1.08497 0.08865
# Poissons Ratio (z) = -0.01642 0.34156
#
# Static dielectric constant tensor:
#      x y z
#    x 1.586850 0.000000 -0.007090 
#    y 0.000000 1.621930 0.000000 
#    z -0.007090 0.000000 1.621550 
# 
# From -- ./inp_files/29524.got.cif
#   From: 2010.05.17/outbox.cif.g08.bks.cpg/sg12_15_cif.got.tgz:29524.got - 2010.06.03 13:09:07.
