data_PCOD9171330
_publ_section_title
;
Structure prediction by ZEFSAII (Michael W. Deem and Ramdas Pophale) SiO2 
 PCOD9171330
Probable space group: C 2/M
;
_chemical_formula_sum "Si O2"
_cell_formula_units_Z 36
_cell_length_a 9.136382
_cell_length_b 23.813181
_cell_length_c 11.249551
_cell_angle_alpha 90.000000
_cell_angle_beta 53.435502
_cell_angle_gamma 90.000000
_cell_volume 1965.818379
_symmetry_space_group_name_H-M "C 2/M"
_symmetry_group_IT_number 12
_symmetry_cell_setting 'monoclinic'
loop_
_space_group_symop_operation_xyz
x,y,z
-x,y,-z
-x,-y,-z
x,-y,z
1/2+x,1/2+y,z
1/2-x,1/2+y,-z
1/2-x,1/2-y,-z
1/2+x,1/2-y,z
loop_
_atom_site_type_symbol
_atom_site_label
_atom_site_fract_x
_atom_site_fract_y
_atom_site_fract_z
Si Si1 0.689678 0.438621 0.832790
Si Si2 0.002854 0.834493 0.856650
Si Si3 0.101402 0.714631 0.702501
Si Si4 0.000000 0.251933 0.500000
Si Si5 0.392082 0.117702 0.940804
O O1 0.719304 0.500000 0.763978
O O2 0.649625 0.384702 0.769724
O O3 0.842335 0.423530 0.856301
O O4 0.500000 0.441546 0.000000
O O5 0.048631 0.777520 0.768753
O O6 0.802566 0.857314 0.922952
O O7 0.000000 0.821657 0.000000
O O8 0.028923 0.710721 0.603181
O O9 0.319673 0.714172 0.599481
O O10 0.008253 0.669121 0.831119
O O11 0.500000 0.092776 0.000000
#
# Coordination Sequence:
#
# PCOD9171330 Si02
#       5
#     8   8   8   4   8
#     4   8  16  30  45  67  97 126 153 178 223 284
#     4   9  17  29  49  69  93 125 151 190 230 274
#     4  11  19  32  44  69  97 124 161 185 232 284
#     4  10  22  30  44  62  94 134 154 192 228 268
#     4  10  18  27  47  73  97 121 146 193 238 274
#
# _framework density 18.312984
#
# number of rings (size 3 to 8) (size 9 to 14) (size 15 to 20)
#    0.000    2.889    0.000    5.333    0.000    0.444 
#    0.000    0.000    0.000    0.000    0.000   29.556 
#    0.000    0.000    0.000    0.000    0.000    0.000 
#
# Total GULP energy -100324.413413 kJ/mol
# GULP energy per Si atom -5573.578523 kJ/mol
# Density = 1.827130 g / cm^3
# Si number density = 18.312984 Si / 1000 Ang^3
#
#
#
# Elastic Constant Matrix: (Units=GPa)
#
#
# Indices 1 2 3 4 5 6 
#
# 1 114.8230 -5.1223 21.9704 0.0000 -4.9591 0.0000
# 2 -5.1223 59.7744 16.8165 0.0000 -5.6494 0.0000
# 3 21.9704 16.8165 26.0730 0.0000 0.7033 0.0000
# 4 0.0000 0.0000 0.0000 -2.5395 0.0000 1.8825
# 5 -4.9591 -5.6494 0.7033 0.0000 18.3607 0.0000
# 6 0.0000 0.0000 0.0000 1.8825 0.0000 6.9434
#
#
#
# Elastic Compliance Matrix: (Units=1/GPa)
#
#
# Indices 1 2 3 4 5 6 
#
# 1 0.011751 0.005297 -0.013462 0.000000 0.005319 0.000000
# 2 0.005297 0.023711 -0.020013 0.000000 0.009493 0.000000
# 3 -0.013462 -0.020013 0.062934 0.000000 -0.012204 0.000000
# 4 0.000000 0.000000 0.000000 -0.327879 0.000000 0.088894
# 5 0.005319 0.009493 -0.012204 0.000000 0.059289 0.000000
# 6 0.000000 0.000000 0.000000 0.088894 0.000000 0.119921
#
#
# Mechanical properties :
#
#
# Convention : Reuss Voigt Hill
#
# Bulk Modulus (GPa) = 23.78614 29.77773 26.78193
# Shear Modulus (GPa) = 248.81568 15.68664 132.25116
#
# Velocity S-wave (km/s) = 11.66891 2.92992 8.50729
# Velocity P-wave (km/s) = 13.94877 5.26704 10.54300
#
# Compressibility (1/GPa) = 0.04204129
#
# Stress axis : x y z
#
# Youngs Moduli (GPa) = 85.09986 42.17476 15.88961
#
# Poissons Ratio (x) = -0.22340 0.21390
# Poissons Ratio (y) = -0.45077 0.31799
# Poissons Ratio (z) = 1.14560 0.84402
#
# Static dielectric constant tensor:
#      x y z
#    x 1.667520 0.000000 -0.003560 
#    y 0.000000 1.643080 0.000000 
#    z -0.003560 0.000000 1.635460 
# 
# From -- ./inp_files/121209.got.cif
#   From: 2010.05.17/outbox.cif.g08.bks.cpg/sg12_61_cif.got.tgz:121209.got - 2010.06.03 13:09:07.
