data_PCOD9171914
_publ_section_title
;
Structure prediction by ZEFSAII (Michael W. Deem and Ramdas Pophale) SiO2 
 PCOD9171914
Probable space group: C 2/M
;
_chemical_formula_sum "Si O2"
_cell_formula_units_Z 56
_cell_length_a 25.341392
_cell_length_b 8.563655
_cell_length_c 16.962956
_cell_angle_alpha 90.000000
_cell_angle_beta 104.324858
_cell_angle_gamma 90.000000
_cell_volume 3566.760280
_symmetry_space_group_name_H-M "C 2/M"
_symmetry_group_IT_number 12
_symmetry_cell_setting 'monoclinic'
loop_
_space_group_symop_operation_xyz
x,y,z
-x,y,-z
-x,-y,-z
x,-y,z
1/2+x,1/2+y,z
1/2-x,1/2+y,-z
1/2-x,1/2-y,-z
1/2+x,1/2-y,z
loop_
_atom_site_type_symbol
_atom_site_label
_atom_site_fract_x
_atom_site_fract_y
_atom_site_fract_z
Si Si1 0.474373 0.688762 0.866385
Si Si2 0.210589 0.185725 0.226041
Si Si3 0.273705 0.315686 0.384805
Si Si4 0.795037 0.811391 0.957220
Si Si5 0.582198 0.689686 0.989584
Si Si6 0.329201 0.313291 0.556847
Si Si7 0.392625 0.815231 0.715178
O O1 0.472563 0.500000 0.859707
O O2 0.535998 0.737829 0.910199
O O3 0.446876 0.760979 0.779676
O O4 0.438850 0.732995 0.930746
O O5 0.262532 0.228137 0.299147
O O6 0.216075 0.235277 0.137571
O O7 0.157681 0.262944 0.246956
O O8 0.201600 0.000000 0.224959
O O9 0.275264 0.500000 0.370101
O O10 0.323249 0.274026 0.462051
O O11 0.220168 0.274916 0.417055
O O12 0.794734 0.000000 0.959431
O O13 0.750000 0.750000 0.000000
O O14 0.856300 0.757151 0.001003
O O15 0.582381 0.500000 0.988991
O O16 0.320641 0.500000 0.561184
O O17 0.381585 0.264530 0.626451
O O18 0.391240 0.000000 0.705451
#
# Coordination Sequence:
#
# PCOD9171914 Si02
#       7
#     8   8   8   8   8   8   8
#     4   9  15  28  48  63  81 112 146 181 213 256
#     4  10  18  29  44  58  80 114 150 179 211 261
#     4   9  16  25  38  57  80 106 141 180 214 248
#     4  10  20  33  47  65  86 113 149 184 218 256
#     4   8  15  29  48  64  80 109 149 181 213 258
#     4   9  16  25  37  54  80 114 144 170 205 255
#     4  11  19  25  38  62  90 114 141 178 215 255
#
# _framework density 15.700523
#
# number of rings (size 3 to 8) (size 9 to 14) (size 15 to 20)
#    0.000    2.571    1.429    5.143    0.000    2.857 
#    0.000    2.143    0.000    0.000    0.000    0.000 
#    0.000    1.143    0.000   12.857    0.000    6.429 
#
# Total GULP energy -155906.108462 kJ/mol
# GULP energy per Si atom -5568.075302 kJ/mol
# Density = 1.566479 g / cm^3
# Si number density = 15.700523 Si / 1000 Ang^3
#
#
#
# Elastic Constant Matrix: (Units=GPa)
#
#
# Indices 1 2 3 4 5 6 
#
# 1 72.0198 9.5233 51.6802 0.0000 14.0578 0.0000
# 2 9.5233 24.8298 13.9932 0.0000 2.6734 0.0000
# 3 51.6802 13.9932 113.2034 0.0000 32.6933 0.0000
# 4 0.0000 0.0000 0.0000 22.7992 0.0000 2.7581
# 5 14.0578 2.6734 32.6933 0.0000 23.3834 0.0000
# 6 0.0000 0.0000 0.0000 2.7581 0.0000 15.1825
#
#
#
# Elastic Compliance Matrix: (Units=1/GPa)
#
#
# Indices 1 2 3 4 5 6 
#
# 1 0.020847 -0.002769 -0.009471 0.000000 0.001026 0.000000
# 2 -0.002769 0.043910 -0.005358 0.000000 0.004136 0.000000
# 3 -0.009471 -0.005358 0.020125 0.000000 -0.021830 0.000000
# 4 0.000000 0.000000 0.000000 0.044847 0.000000 -0.008147
# 5 0.001026 0.004136 -0.021830 0.000000 0.072198 0.000000
# 6 0.000000 0.000000 0.000000 -0.008147 0.000000 0.067345
#
#
# Mechanical properties :
#
#
# Convention : Reuss Voigt Hill
#
# Bulk Modulus (GPa) = 20.12644 40.04961 30.08803
# Shear Modulus (GPa) = 15.57485 21.26346 18.41916
#
# Velocity S-wave (km/s) = 3.15301 3.68410 3.42885
# Velocity P-wave (km/s) = 5.10902 6.60761 5.90604
#
# Compressibility (1/GPa) = 0.04968588
#
# Stress axis : x y z
#
# Youngs Moduli (GPa) = 47.96748 22.77361 49.69067
#
# Poissons Ratio (x) = 0.06305 0.47064
# Poissons Ratio (y) = 0.13280 0.26626
# Poissons Ratio (z) = 0.45432 0.12203
#
# Static dielectric constant tensor:
#      x y z
#    x 1.505970 0.000000 0.049060 
#    y 0.000000 1.530790 0.000000 
#    z 0.049060 0.000000 1.569780 
# 
# From -- ./inp_files/280359.got.cif
#   From: 2010.05.17/outbox.cif.g08.bks.cpg/sg12_141_cif.got.tgz:280359.got - 2010.06.03 13:09:07.
