data_PCOD9171992
_publ_section_title
;
Structure prediction by ZEFSAII (Michael W. Deem and Ramdas Pophale) SiO2 
 PCOD9171992
Probable space group: C 2/M
;
_chemical_formula_sum "Si O2"
_cell_formula_units_Z 56
_cell_length_a 22.050781
_cell_length_b 17.277926
_cell_length_c 14.215637
_cell_angle_alpha 90.000000
_cell_angle_beta 140.375654
_cell_angle_gamma 90.000000
_cell_volume 3454.087130
_symmetry_space_group_name_H-M "C 2/M"
_symmetry_group_IT_number 12
_symmetry_cell_setting 'monoclinic'
loop_
_space_group_symop_operation_xyz
x,y,z
-x,y,-z
-x,-y,-z
x,-y,z
1/2+x,1/2+y,z
1/2-x,1/2+y,-z
1/2-x,1/2-y,-z
1/2+x,1/2-y,z
loop_
_atom_site_type_symbol
_atom_site_label
_atom_site_fract_x
_atom_site_fract_y
_atom_site_fract_z
Si Si1 0.913029 0.588118 0.969981
Si Si2 0.055785 0.343632 0.273638
Si Si3 0.456383 0.410710 0.053792
Si Si4 0.940753 0.408732 0.520657
Si Si5 0.130368 0.828010 0.341095
Si Si6 0.721740 0.089845 0.356074
Si Si7 0.717894 0.592139 0.262500
O O1 0.897624 0.500000 0.987242
O O2 0.823132 0.612457 0.798818
O O3 0.000000 0.583749 0.000000
O O4 0.956608 0.644704 0.099849
O O5 0.037638 0.360500 0.360378
O O6 0.108456 0.262527 0.318498
O O7 0.133489 0.403709 0.324237
O O8 0.457011 0.500000 0.082544
O O9 0.526214 0.365803 0.205546
O O10 0.500000 0.404968 0.000000
O O11 0.348732 0.385468 0.905166
O O12 0.960336 0.500000 0.562272
O O13 0.827903 0.400661 0.370779
O O14 0.000000 0.385588 0.500000
O O15 0.192603 0.858387 0.502587
O O16 0.188029 0.857280 0.317401
O O17 0.750687 0.000000 0.386661
O O18 0.698606 0.500000 0.260844
#
# Coordination Sequence:
#
# PCOD9171992 Si02
#       7
#     8   8   8   8   8   8   8
#     4   8  16  29  44  62  92 133 162 187 232 289
#     4  11  20  30  44  73 104 127 160 201 253 295
#     4   8  15  27  43  66  98 133 161 188 232 294
#     4  10  20  34  53  71  91 130 174 209 244 283
#     4  11  19  27  44  75 103 132 156 190 254 306
#     4  10  18  29  45  67 100 135 162 187 231 298
#     4   9  17  30  48  71 102 133 162 201 243 294
#
# _framework density 16.212678
#
# number of rings (size 3 to 8) (size 9 to 14) (size 15 to 20)
#    0.000    2.429    1.429    4.714    0.000    5.143 
#    0.000    0.000    0.000    0.857    0.000    0.000 
#    0.000    4.000    0.000    0.000    0.000    0.000 
#
# Total GULP energy -155905.195403 kJ/mol
# GULP energy per Si atom -5568.042693 kJ/mol
# Density = 1.617578 g / cm^3
# Si number density = 16.212678 Si / 1000 Ang^3
#
#
#
# Elastic Constant Matrix: (Units=GPa)
#
#
# Indices 1 2 3 4 5 6 
#
# 1 58.5334 29.7634 35.5896 0.0000 -5.1556 0.0000
# 2 29.7634 64.4131 56.1867 0.0000 4.5997 0.0000
# 3 35.5896 56.1867 146.2785 0.0000 15.5278 0.0000
# 4 0.0000 0.0000 0.0000 -108.3564 0.0000 -16.9305
# 5 -5.1556 4.5997 15.5278 0.0000 11.7678 0.0000
# 6 0.0000 0.0000 0.0000 -16.9305 0.0000 9.0327
#
#
#
# Elastic Compliance Matrix: (Units=1/GPa)
#
#
# Indices 1 2 3 4 5 6 
#
# 1 0.027181 -0.009489 -0.005380 0.000000 0.022716 0.000000
# 2 -0.009489 0.026761 -0.007464 0.000000 -0.004768 0.000000
# 3 -0.005380 -0.007464 0.012737 0.000000 -0.016246 0.000000
# 4 0.000000 0.000000 0.000000 -0.007138 0.000000 -0.013380
# 5 0.022716 -0.004768 -0.016246 0.000000 0.118229 0.000000
# 6 0.000000 0.000000 0.000000 -0.013380 0.000000 0.085631
#
#
# Mechanical properties :
#
#
# Convention : Reuss Voigt Hill
#
# Bulk Modulus (GPa) = 45.42826 56.92269 51.17548
# Shear Modulus (GPa) = 15.85268 -7.66549 4.09360
#
# Velocity S-wave (km/s) = 3.13036 -2.17678 1.59073
# Velocity P-wave (km/s) = 6.41456 5.37293 5.91671
#
# Compressibility (1/GPa) = 0.02201273
#
# Stress axis : x y z
#
# Youngs Moduli (GPa) = 36.79038 37.36810 78.51330
#
# Poissons Ratio (x) = 0.35459 0.42237
# Poissons Ratio (y) = 0.34911 0.58604
# Poissons Ratio (z) = 0.19792 0.27892
#
# Static dielectric constant tensor:
#      x y z
#    x 1.509310 0.000000 0.023140 
#    y 0.000000 1.577430 0.000000 
#    z 0.023140 0.000000 1.607840 
# 
# From -- ./inp_files/168529.got.cif
#   From: 2010.05.17/outbox.cif.g08.bks.cpg/sg12_85_cif.got.tgz:168529.got - 2010.06.03 13:09:07.
