data_PCOD9171314
_publ_section_title
;
Structure prediction by ZEFSAII (Michael W. Deem and Ramdas Pophale) SiO2 
 PCOD9171314
Probable space group: C 2/M
;
_chemical_formula_sum "Si O2"
_cell_formula_units_Z 64
_cell_length_a 8.512047
_cell_length_b 28.380918
_cell_length_c 29.342146
_cell_angle_alpha 90.000000
_cell_angle_beta 29.984216
_cell_angle_gamma 90.000000
_cell_volume 3542.542264
_symmetry_space_group_name_H-M "C 2/M"
_symmetry_group_IT_number 12
_symmetry_cell_setting 'monoclinic'
loop_
_space_group_symop_operation_xyz
x,y,z
-x,y,-z
-x,-y,-z
x,-y,z
1/2+x,1/2+y,z
1/2-x,1/2+y,-z
1/2-x,1/2-y,-z
1/2+x,1/2-y,z
loop_
_atom_site_type_symbol
_atom_site_label
_atom_site_fract_x
_atom_site_fract_y
_atom_site_fract_z
Si Si1 0.628455 0.800728 0.196111
Si Si2 0.364339 0.133671 0.396546
Si Si3 0.130598 0.722095 0.092106
Si Si4 0.488514 0.176676 0.453150
Si Si5 0.973681 0.640597 0.060616
Si Si6 0.200608 0.777169 0.383273
Si Si7 0.190580 0.051302 0.045499
Si Si8 0.707210 0.607116 0.788838
O O1 0.555112 0.797844 0.161328
O O2 0.349619 0.779436 0.296271
O O3 0.689809 0.852169 0.201549
O O4 0.928927 0.768196 0.131775
O O5 0.544967 0.139700 0.398833
O O6 0.379654 0.186848 0.371607
O O7 0.526914 0.102253 0.316730
O O8 0.000000 0.121757 0.500000
O O9 0.053587 0.683445 0.073171
O O10 0.500000 0.732274 0.000000
O O11 0.500000 0.154635 0.500000
O O12 0.699839 0.223595 0.399745
O O13 0.144236 0.199508 0.531264
O O14 0.612004 0.624352 0.156362
O O15 0.000000 0.652267 0.000000
O O16 0.216536 0.597034 0.007688
O O17 0.904632 0.064091 0.151289
O O18 0.148515 0.000000 0.034202
O O19 0.500000 0.048552 0.000000
#
# Coordination Sequence:
#
# PCOD9171314 Si02
#       8
#     8   8   8   8   8   8   8   8
#     4  11  24  32  48  66  95 135 173 203 234 284
#     4   9  18  30  43  63  95 131 157 196 243 280
#     4  12  24  35  46  65  96 135 170 202 239 282
#     4  10  18  27  46  62  89 117 164 210 237 268
#     4   9  19  35  53  71  95 123 158 204 244 291
#     4   9  19  31  41  62  84 124 165 206 240 265
#     4   8  15  31  56  79  94 114 151 201 251 296
#     4   9  18  34  51  72  98 126 163 200 246 289
#
# _framework density 18.066122
#
# number of rings (size 3 to 8) (size 9 to 14) (size 15 to 20)
#    0.000    2.625    0.000    4.500    7.000    2.500 
#    0.000    0.000    0.000    3.750    0.000    0.000 
#    0.000    0.500    0.000    0.000    0.000    5.625 
#
# Total GULP energy -178420.609626 kJ/mol
# GULP energy per Si atom -5575.644051 kJ/mol
# Density = 1.802500 g / cm^3
# Si number density = 18.066122 Si / 1000 Ang^3
#
#
#
# Elastic Constant Matrix: (Units=GPa)
#
#
# Indices 1 2 3 4 5 6 
#
# 1 65.5147 11.3080 11.4682 0.0002 23.3681 -0.0002
# 2 11.3080 42.0917 11.9702 -0.0003 9.7489 0.0001
# 3 11.4682 11.9702 94.2589 0.0006 19.3676 0.0002
# 4 0.0002 -0.0003 0.0006 9.2340 -0.0002 2.4262
# 5 23.3681 9.7489 19.3676 -0.0002 29.6074 0.0000
# 6 -0.0002 0.0001 0.0002 2.4262 0.0000 2.6723
#
#
#
# Elastic Compliance Matrix: (Units=1/GPa)
#
#
# Indices 1 2 3 4 5 6 
#
# 1 0.021504 -0.002165 0.001155 -0.000002 -0.017015 0.000004
# 2 -0.002165 0.026193 -0.001897 0.000001 -0.005675 -0.000002
# 3 0.001155 -0.001897 0.012441 -0.000001 -0.008425 0.000001
# 4 -0.000002 0.000001 -0.000001 0.142222 0.000003 -0.129124
# 5 -0.017015 -0.005675 -0.008425 0.000003 0.054585 -0.000004
# 6 0.000004 -0.000002 0.000001 -0.129124 -0.000004 0.491434
#
#
# Mechanical properties :
#
#
# Convention : Reuss Voigt Hill
#
# Bulk Modulus (GPa) = 18.40790 30.15090 24.27940
# Shear Modulus (GPa) = 6.47416 19.44400 12.95908
#
# Velocity S-wave (km/s) = 1.89509 3.28421 2.68118
# Velocity P-wave (km/s) = 3.87296 5.57735 4.80139
#
# Compressibility (1/GPa) = 0.05432449
#
# Stress axis : x y z
#
# Youngs Moduli (GPa) = 46.50219 38.17800 80.38238
#
# Poissons Ratio (x) = 0.08264 -0.09282
# Poissons Ratio (y) = 0.10066 0.15247
# Poissons Ratio (z) = -0.05370 0.07242
#
# Static dielectric constant tensor:
#      x y z
#    x 1.651270 0.000000 -0.002860 
#    y 0.000000 1.617510 0.000000 
#    z -0.002860 0.000000 1.694060 
# 
# From -- ./inp_files/373325.got.cif
#   From: 2010.05.17/outbox.cif.g08.bks.cpg/sg12_187_cif.got.tgz:373325.got - 2010.06.03 13:09:07.
