data_PCOD9171784
_publ_section_title
;
Structure prediction by ZEFSAII (Michael W. Deem and Ramdas Pophale) SiO2 
 PCOD9171784
Probable space group: C 2/M
;
_chemical_formula_sum "Si O2"
_cell_formula_units_Z 64
_cell_length_a 25.544805
_cell_length_b 7.424238
_cell_length_c 14.658788
_cell_angle_alpha 90.000000
_cell_angle_beta 100.193038
_cell_angle_gamma 90.000000
_cell_volume 2736.172387
_symmetry_space_group_name_H-M "C 2/M"
_symmetry_group_IT_number 12
_symmetry_cell_setting 'monoclinic'
loop_
_space_group_symop_operation_xyz
x,y,z
-x,y,-z
-x,-y,-z
x,-y,z
1/2+x,1/2+y,z
1/2-x,1/2+y,-z
1/2-x,1/2-y,-z
1/2+x,1/2-y,z
loop_
_atom_site_type_symbol
_atom_site_label
_atom_site_fract_x
_atom_site_fract_y
_atom_site_fract_z
Si Si1 0.780499 0.284239 0.172523
Si Si2 0.551305 0.708314 0.395536
Si Si3 0.449643 0.283389 0.258159
Si Si4 0.622921 0.787752 0.921856
Si Si5 0.161484 0.712732 0.119461
Si Si6 0.724684 0.294639 0.616521
Si Si7 0.390057 0.721127 0.416663
Si Si8 0.340181 0.780392 0.673126
O O1 0.784633 0.500000 0.184062
O O2 0.829102 0.215324 0.126407
O O3 0.723203 0.240256 0.112002
O O4 0.779470 0.204187 0.273971
O O5 0.536064 0.500000 0.405849
O O6 0.505581 0.783780 0.316088
O O7 0.564348 0.782700 0.499671
O O8 0.608136 0.717471 0.363770
O O9 0.450576 0.500000 0.257433
O O10 0.430918 0.230040 0.152175
O O11 0.405747 0.225201 0.319438
O O12 0.633867 0.000000 0.933814
O O13 0.626150 0.714582 0.025483
O O14 0.151236 0.500000 0.125325
O O15 0.155439 0.783688 0.220336
O O16 0.725554 0.500000 0.584121
O O17 0.668169 0.212284 0.571435
O O18 0.783102 0.216953 0.615960
O O19 0.388455 0.500000 0.418103
O O20 0.338887 0.000000 0.671606
#
# Coordination Sequence:
#
# PCOD9171784 Si02
#       8
#     8   8   8   8   8   8   8   8
#     4  10  18  28  47  79 112 135 164 210 264 308
#     4  10  21  36  55  78 102 135 179 221 260 304
#     4  10  20  35  56  79 104 136 174 215 261 312
#     4  10  20  33  51  78 108 136 170 214 261 309
#     4   9  19  35  53  73 103 143 179 207 247 312
#     4   9  17  32  54  77 104 141 176 206 252 315
#     4   9  17  33  57  80 103 133 172 215 260 313
#     4   9  19  35  53  74 103 139 178 211 251 309
#
# _framework density 23.390339000000001
#
# number of rings (size 3 to 8) (size 9 to 14) (size 15 to 20)
#    0.000    2.500    1.250    1.875    0.000    5.500 
#    0.000    1.875    0.000    5.250    0.000    0.000 
#    0.000    0.000    0.000    0.000    0.000    0.000 
#
# Total GULP energy -178710.588259 kJ/mol
# GULP energy per Si atom -5584.705883 kJ/mol
# Density = 2.333710 g / cm^3
# Si number density = 23.390339 Si / 1000 Ang^3
#
#
#
# Elastic Constant Matrix: (Units=GPa)
#
#
# Indices 1 2 3 4 5 6 
#
# 1 77.2482 -9.5283 24.1154 0.0000 23.1516 0.0000
# 2 -9.5283 75.5863 4.9309 0.0000 -5.8062 0.0000
# 3 24.1154 4.9309 114.6995 0.0000 36.8061 0.0000
# 4 0.0000 0.0000 0.0000 7.9403 0.0000 -3.2235
# 5 23.1516 -5.8062 36.8061 0.0000 36.9434 0.0000
# 6 0.0000 0.0000 0.0000 -3.2235 0.0000 10.2374
#
#
#
# Elastic Compliance Matrix: (Units=1/GPa)
#
#
# Indices 1 2 3 4 5 6 
#
# 1 0.016070 0.001325 -0.000398 0.000000 -0.009466 0.000000
# 2 0.001325 0.013770 -0.001909 0.000000 0.003236 0.000000
# 3 -0.000398 -0.001909 0.013083 0.000000 -0.013085 0.000000
# 4 0.000000 0.000000 0.000000 0.144398 0.000000 0.045467
# 5 -0.009466 0.003236 -0.013085 0.000000 0.046545 0.000000
# 6 0.000000 0.000000 0.000000 0.045467 0.000000 0.111998
#
#
# Mechanical properties :
#
#
# Convention : Reuss Voigt Hill
#
# Bulk Modulus (GPa) = 24.41506 34.06333 29.23919
# Shear Modulus (GPa) = 13.83196 27.55861 20.69528
#
# Velocity S-wave (km/s) = 2.43441 3.43622 2.97775
# Velocity P-wave (km/s) = 4.28516 5.50800 4.93461
#
# Compressibility (1/GPa) = 0.04095833
#
# Stress axis : x y z
#
# Youngs Moduli (GPa) = 62.22807 72.62182 76.43487
#
# Poissons Ratio (x) = -0.09620 0.03043
# Poissons Ratio (y) = -0.08243 0.14590
# Poissons Ratio (z) = 0.02477 0.13862
#
# Static dielectric constant tensor:
#      x y z
#    x 1.871930 0.000000 0.027230 
#    y 0.000000 1.905480 0.000000 
#    z 0.027230 0.000000 1.916400 
# 
# From -- ./inp_files/244139.got.cif
#   From: 2010.05.17/outbox.cif.g08.bks.cpg/sg12_123_cif.got.tgz:244139.got - 2010.06.03 13:09:07.
