data_PCOD9171445
_publ_section_title
;
Structure prediction by ZEFSAII (Michael W. Deem and Ramdas Pophale) SiO2 
 PCOD9171445
Probable space group: C 2/M
;
_chemical_formula_sum "Si O2"
_cell_formula_units_Z 64
_cell_length_a 23.321942
_cell_length_b 14.408862
_cell_length_c 13.231583
_cell_angle_alpha 90.000000
_cell_angle_beta 139.557487
_cell_angle_gamma 90.000000
_cell_volume 2884.296514
_symmetry_space_group_name_H-M "C 2/M"
_symmetry_group_IT_number 12
_symmetry_cell_setting 'monoclinic'
loop_
_space_group_symop_operation_xyz
x,y,z
-x,y,-z
-x,-y,-z
x,-y,z
1/2+x,1/2+y,z
1/2-x,1/2+y,-z
1/2-x,1/2-y,-z
1/2+x,1/2-y,z
loop_
_atom_site_type_symbol
_atom_site_label
_atom_site_fract_x
_atom_site_fract_y
_atom_site_fract_z
Si Si1 0.565515 0.236270 0.158285
Si Si2 0.988196 0.214141 0.268917
Si Si3 0.905786 0.107072 0.433536
Si Si4 0.321059 0.898273 0.573929
Si Si5 0.182947 0.112781 0.884439
Si Si6 0.461500 0.106017 0.576301
Si Si7 0.189693 0.612360 0.775926
Si Si8 0.327893 0.392887 0.786062
O O1 0.516307 0.269900 0.192641
O O2 0.650115 0.178893 0.308989
O O3 0.595223 0.321324 0.128963
O O4 0.500000 0.176911 0.000000
O O5 0.072203 0.169099 0.440507
O O6 0.972737 0.314079 0.300272
O O7 0.902630 0.150754 0.170522
O O8 0.833489 0.141196 0.254691
O O9 0.000000 0.107371 0.500000
O O10 0.887075 0.000000 0.436204
O O11 0.391072 0.896646 0.574637
O O12 0.228456 0.888696 0.393344
O O13 0.325479 0.000000 0.627507
O O14 0.179015 0.000000 0.878737
O O15 0.270730 0.142324 0.062908
O O16 0.404612 0.135397 0.401437
O O17 0.494880 0.000000 0.611016
O O18 0.187915 0.500000 0.775612
O O19 0.263882 0.636245 0.791704
O O20 0.354318 0.500000 0.838545
#
# Coordination Sequence:
#
# PCOD9171445 Si02
#       8
#     8   8   8   8   8   8   8   8
#     4  11  21  28  40  66  93 113 136 175 223 256
#     4  10  18  28  43  64  88 114 140 174 216 252
#     4   8  15  28  45  63  84 112 143 171 203 252
#     4   8  16  32  48  58  76 114 158 184 198 235
#     4   9  16  28  48  69  86 108 140 176 211 250
#     4   8  15  28  45  64  84 110 145 179 210 243
#     4   8  14  27  46  65  86 112 143 177 207 240
#     4   9  17  29  44  62  88 120 145 166 201 256
#
# _framework density 22.189119000000002
#
# number of rings (size 3 to 8) (size 9 to 14) (size 15 to 20)
#    0.000    3.125    0.000    3.750    0.000    1.500 
#    0.000    0.625    0.000    3.375    0.000    1.750 
#    0.000    0.000    0.000    0.000    0.000    0.000 
#
# Total GULP energy -178605.866926 kJ/mol
# GULP energy per Si atom -5581.433341 kJ/mol
# Density = 2.213862 g / cm^3
# Si number density = 22.189119 Si / 1000 Ang^3
#
#
#
# Elastic Constant Matrix: (Units=GPa)
#
#
# Indices 1 2 3 4 5 6 
#
# 1 41.5218 19.5887 27.1322 0.0000 -5.0758 0.0000
# 2 19.5887 68.2493 35.6897 0.0000 -7.9180 0.0000
# 3 27.1322 35.6897 141.6160 0.0000 -17.5195 0.0000
# 4 0.0000 0.0000 0.0000 15.2307 0.0000 -0.8990
# 5 -5.0758 -7.9180 -17.5195 0.0000 28.3789 0.0000
# 6 0.0000 0.0000 0.0000 -0.8990 0.0000 11.1121
#
#
#
# Elastic Compliance Matrix: (Units=1/GPa)
#
#
# Indices 1 2 3 4 5 6 
#
# 1 0.029812 -0.006350 -0.003974 0.000000 0.001107 0.000000
# 2 -0.006350 0.018363 -0.003159 0.000000 0.002037 0.000000
# 3 -0.003974 -0.003159 0.009118 0.000000 0.004037 0.000000
# 4 0.000000 0.000000 0.000000 0.065972 0.000000 0.005337
# 5 0.001107 0.002037 0.004037 0.000000 0.038496 0.000000
# 6 0.000000 0.000000 0.000000 0.005337 0.000000 0.090423
#
#
# Mechanical properties :
#
#
# Convention : Reuss Voigt Hill
#
# Bulk Modulus (GPa) = 32.97450 46.24538 39.60994
# Shear Modulus (GPa) = 17.28546 22.20942 19.74744
#
# Velocity S-wave (km/s) = 2.79410 3.16716 2.98646
# Velocity P-wave (km/s) = 5.03013 5.85331 5.45726
#
# Compressibility (1/GPa) = 0.03032647
#
# Stress axis : x y z
#
# Youngs Moduli (GPa) = 33.54382 54.45712 109.66828
#
# Poissons Ratio (x) = 0.34579 0.43587
# Poissons Ratio (y) = 0.21299 0.34647
# Poissons Ratio (z) = 0.13332 0.17204
#
# Static dielectric constant tensor:
#      x y z
#    x 1.804920 0.000000 0.008650 
#    y 0.000000 1.839230 0.000000 
#    z 0.008650 0.000000 1.857290 
# 
# From -- ./inp_files/246380.got.cif
#   From: 2010.05.17/outbox.cif.g08.bks.cpg/sg12_124_cif.got.tgz:246380.got - 2010.06.03 13:09:07.
