data_PCOD9171835
_publ_section_title
;
Structure prediction by ZEFSAII (Michael W. Deem and Ramdas Pophale) SiO2 
 PCOD9171835
Probable space group: C 2/M
;
_chemical_formula_sum "Si O2"
_cell_formula_units_Z 52
_cell_length_a 24.106638
_cell_length_b 13.468980
_cell_length_c 16.865562
_cell_angle_alpha 90.000000
_cell_angle_beta 157.217839
_cell_angle_gamma 90.000000
_cell_volume 2120.506156
_symmetry_space_group_name_H-M "C 2/M"
_symmetry_group_IT_number 12
_symmetry_cell_setting 'monoclinic'
loop_
_space_group_symop_operation_xyz
x,y,z
-x,y,-z
-x,-y,-z
x,-y,z
1/2+x,1/2+y,z
1/2-x,1/2+y,-z
1/2-x,1/2-y,-z
1/2+x,1/2-y,z
loop_
_atom_site_type_symbol
_atom_site_label
_atom_site_fract_x
_atom_site_fract_y
_atom_site_fract_z
Si Si1 0.133983 0.880747 0.626063
Si Si2 0.000000 0.285214 0.000000
Si Si3 0.709267 0.882054 0.838196
Si Si4 0.208618 0.117785 0.559133
Si Si5 0.588786 0.767217 0.950476
Si Si6 0.691456 0.880358 0.471603
Si Si7 0.096800 0.380591 0.510864
O O1 0.115225 0.846833 0.510269
O O2 0.276503 0.837386 0.851925
O O3 0.000000 0.848002 0.500000
O O4 0.142230 0.000000 0.638150
O O5 0.131388 0.355551 0.200002
O O6 0.040067 0.226646 0.972983
O O7 0.852879 0.817157 0.031688
O O8 0.660001 0.864175 0.681603
O O9 0.571797 0.851240 0.709783
O O10 0.735144 0.000000 0.883137
O O11 0.201668 0.152792 0.458643
O O12 0.189556 0.000000 0.530889
O O13 0.464357 0.838092 0.755165
O O14 0.701613 0.848474 0.576915
O O15 0.692856 0.000000 0.470597
O O16 0.089230 0.500000 0.493597
#
# Coordination Sequence:
#
# PCOD9171835 Si02
#       7
#     8   4   8   8   8   8   8
#     4   9  17  27  41  68 103 133 157 184 231 297
#     4   8  15  26  39  66  96 120 156 194 226 282
#     4   9  18  32  49  70  93 124 166 209 240 274
#     4   8  13  23  41  64  94 127 155 189 230 278
#     4  10  18  28  49  71  96 126 160 198 239 284
#     4   9  16  28  49  77 100 122 155 198 244 286
#     4   8  16  31  49  70  95 119 161 212 243 273
#
# _framework density 24.522447
#
# number of rings (size 3 to 8) (size 9 to 14) (size 15 to 20)
#    0.000    3.231    0.000    1.615    2.154    4.308 
#    0.000    0.385    0.000    8.308    0.000    1.077 
#    0.000    0.000    0.000    0.000    0.000    0.462 
#
# Total GULP energy -145212.679640 kJ/mol
# GULP energy per Si atom -5585.103063 kJ/mol
# Density = 2.446663 g / cm^3
# Si number density = 24.522447 Si / 1000 Ang^3
#
#
#
# Elastic Constant Matrix: (Units=GPa)
#
#
# Indices 1 2 3 4 5 6 
#
# 1 186.5195 20.1933 28.3533 0.0000 15.5401 0.0000
# 2 20.1933 91.3927 4.1297 0.0000 0.6733 0.0000
# 3 28.3533 4.1297 34.6928 0.0000 -0.8003 0.0000
# 4 0.0000 0.0000 0.0000 27.9802 0.0000 -0.3311
# 5 15.5401 0.6733 -0.8003 0.0000 31.6067 0.0000
# 6 0.0000 0.0000 0.0000 -0.3311 0.0000 20.8658
#
#
#
# Elastic Compliance Matrix: (Units=1/GPa)
#
#
# Indices 1 2 3 4 5 6 
#
# 1 0.006576 -0.001188 -0.005310 0.000000 -0.003342 0.000000
# 2 -0.001188 0.011218 -0.000356 0.000000 0.000336 0.000000
# 3 -0.005310 -0.000356 0.033286 0.000000 0.003461 0.000000
# 4 0.000000 0.000000 0.000000 0.035746 0.000000 0.000567
# 5 -0.003342 0.000336 0.003461 0.000000 0.033363 0.000000
# 6 0.000000 0.000000 0.000000 0.000567 0.000000 0.047934
#
#
# Mechanical properties :
#
#
# Convention : Reuss Voigt Hill
#
# Bulk Modulus (GPa) = 26.75881 46.43974 36.59927
# Shear Modulus (GPa) = 25.73491 33.41912 29.57702
#
# Velocity S-wave (km/s) = 3.24303 3.69561 3.47669
# Velocity P-wave (km/s) = 4.99586 6.09826 5.57438
#
# Compressibility (1/GPa) = 0.03737087
#
# Stress axis : x y z
#
# Youngs Moduli (GPa) = 152.07680 89.14254 30.04256
#
# Poissons Ratio (x) = 0.10593 0.15952
# Poissons Ratio (y) = 0.18072 0.01071
# Poissons Ratio (z) = 0.80748 0.03177
#
# Static dielectric constant tensor:
#      x y z
#    x 2.033790 0.000000 -0.012760 
#    y 0.000000 1.948540 0.000000 
#    z -0.012760 0.000000 1.954850 
# 
# From -- ./inp_files/289778.got.cif
#   From: 2010.05.17/outbox.cif.g08.bks.cpg/sg12_145_cif.got.tgz:289778.got - 2010.06.03 13:09:07.
