data_PCOD9171818
_publ_section_title
;
Structure prediction by ZEFSAII (Michael W. Deem and Ramdas Pophale) SiO2 
 PCOD9171818
Probable space group: C 2/M
;
_chemical_formula_sum "Si O2"
_cell_formula_units_Z 56
_cell_length_a 27.203091
_cell_length_b 8.976142
_cell_length_c 13.258280
_cell_angle_alpha 90.000000
_cell_angle_beta 59.823921
_cell_angle_gamma 90.000000
_cell_volume 2798.675111
_symmetry_space_group_name_H-M "C 2/M"
_symmetry_group_IT_number 12
_symmetry_cell_setting 'monoclinic'
loop_
_space_group_symop_operation_xyz
x,y,z
-x,y,-z
-x,-y,-z
x,-y,z
1/2+x,1/2+y,z
1/2-x,1/2+y,-z
1/2-x,1/2-y,-z
1/2+x,1/2-y,z
loop_
_atom_site_type_symbol
_atom_site_label
_atom_site_fract_x
_atom_site_fract_y
_atom_site_fract_z
Si Si1 0.909129 0.323959 0.746523
Si Si2 0.991730 0.172957 0.251344
Si Si3 0.921769 0.171668 0.532290
Si Si4 0.609446 0.172533 0.749604
Si Si5 0.678788 0.827421 0.468514
Si Si6 0.779575 0.678699 0.270139
Si Si7 0.215354 0.821896 0.126573
O O1 0.903291 0.500000 0.758893
O O2 0.936236 0.276330 0.610868
O O3 0.847659 0.246721 0.809634
O O4 0.950561 0.263950 0.791305
O O5 0.958922 0.185464 0.393075
O O6 0.947025 0.234982 0.215785
O O7 0.003875 0.000000 0.221017
O O8 0.859020 0.219438 0.561978
O O9 0.924077 0.000000 0.563986
O O10 0.649545 0.179796 0.608096
O O11 0.653780 0.219330 0.790607
O O12 0.593291 0.000000 0.780642
O O13 0.742443 0.769390 0.389583
O O14 0.674707 0.000000 0.439533
O O15 0.775888 0.500000 0.293887
O O16 0.750343 0.709438 0.193155
O O17 0.211346 0.000000 0.120825
O O18 0.250000 0.750000 0.000000
#
# Coordination Sequence:
#
# PCOD9171818 Si02
#       7
#     8   8   8   8   8   8   8
#     4  12  23  36  57  82 111 147 188 236 286 336
#     4  10  21  35  53  80 115 155 192 227 273 332
#     4  10  19  32  50  76 113 153 192 229 275 333
#     4   9  19  34  51  79 115 152 190 226 269 330
#     4  10  18  28  48  78 113 149 190 230 269 326
#     4  10  20  35  56  78 110 150 185 229 286 337
#     4  11  24  42  63  86 112 144 187 239 292 342
#
# _framework density 20.009466
#
# number of rings (size 3 to 8) (size 9 to 14) (size 15 to 20)
#    0.000    1.714    1.429    3.857    0.000    5.143 
#    0.000    0.000    0.000    0.857    0.000    6.000 
#    0.000    0.000    0.000    0.000    0.000    0.000 
#
# Total GULP energy -156344.091620 kJ/mol
# GULP energy per Si atom -5583.717558 kJ/mol
# Density = 1.996392 g / cm^3
# Si number density = 20.009466 Si / 1000 Ang^3
#
#
#
# Elastic Constant Matrix: (Units=GPa)
#
#
# Indices 1 2 3 4 5 6 
#
# 1 165.2626 73.3281 17.7199 0.0000 -7.6591 0.0000
# 2 73.3281 102.8130 23.7870 0.0000 -2.0522 0.0000
# 3 17.7199 23.7870 31.8860 0.0000 -1.0968 0.0000
# 4 0.0000 0.0000 0.0000 19.2640 0.0000 -3.7920
# 5 -7.6591 -2.0522 -1.0968 0.0000 10.6374 0.0000
# 6 0.0000 0.0000 0.0000 -3.7920 0.0000 30.1232
#
#
#
# Elastic Compliance Matrix: (Units=1/GPa)
#
#
# Indices 1 2 3 4 5 6 
#
# 1 0.009146 -0.006385 -0.000136 0.000000 0.005339 0.000000
# 2 -0.006385 0.016233 -0.008642 0.000000 -0.002357 0.000000
# 3 -0.000136 -0.008642 0.037958 0.000000 0.002149 0.000000
# 4 0.000000 0.000000 0.000000 0.053229 0.000000 0.006701
# 5 0.005339 -0.002357 0.002149 0.000000 0.097619 0.000000
# 6 0.000000 0.000000 0.000000 0.006701 0.000000 0.034041
#
#
# Mechanical properties :
#
#
# Convention : Reuss Voigt Hill
#
# Bulk Modulus (GPa) = 30.29323 58.84798 44.57060
# Shear Modulus (GPa) = 17.26777 24.34668 20.80722
#
# Velocity S-wave (km/s) = 2.94084 3.49199 3.22820
# Velocity P-wave (km/s) = 5.16756 6.76259 6.01815
#
# Compressibility (1/GPa) = 0.03301068
#
# Stress axis : x y z
#
# Youngs Moduli (GPa) = 109.33569 61.60316 26.34468
#
# Poissons Ratio (x) = 0.39335 0.00358
# Poissons Ratio (y) = 0.69813 0.22768
# Poissons Ratio (z) = 0.01484 0.53240
#
# Static dielectric constant tensor:
#      x y z
#    x 1.761610 0.000000 0.009680 
#    y 0.000000 1.667010 0.000000 
#    z 0.009680 0.000000 1.719960 
# 
# From -- ./inp_files/243626.got.cif
#   From: 2010.05.17/outbox.cif.g08.bks.cpg/sg12_122_cif.got.tgz:243626.got - 2010.06.03 13:09:07.
