data_PCOD9171309
_publ_section_title
;
Structure prediction by ZEFSAII (Michael W. Deem and Ramdas Pophale) SiO2 
 PCOD9171309
Probable space group: C 2/M
;
_chemical_formula_sum "Si O2"
_cell_formula_units_Z 56
_cell_length_a 20.039503
_cell_length_b 8.470813
_cell_length_c 32.853419
_cell_angle_alpha 90.000000
_cell_angle_beta 145.808155
_cell_angle_gamma 90.000000
_cell_volume 3134.024488
_symmetry_space_group_name_H-M "C 2/M"
_symmetry_group_IT_number 12
_symmetry_cell_setting 'monoclinic'
loop_
_space_group_symop_operation_xyz
x,y,z
-x,y,-z
-x,-y,-z
x,-y,z
1/2+x,1/2+y,z
1/2-x,1/2+y,-z
1/2-x,1/2-y,-z
1/2+x,1/2-y,z
loop_
_atom_site_type_symbol
_atom_site_label
_atom_site_fract_x
_atom_site_fract_y
_atom_site_fract_z
Si Si1 0.837330 0.812087 0.688947
Si Si2 0.649158 0.311551 0.919294
Si Si3 0.886174 0.311625 0.800414
Si Si4 0.729361 0.688139 0.555828
Si Si5 0.433002 0.309000 0.598031
Si Si6 0.109017 0.191888 0.809071
Si Si7 0.686276 0.307207 0.760305
O O1 0.825056 0.732144 0.726603
O O2 0.744405 0.764095 0.607551
O O3 0.969328 0.765587 0.739348
O O4 0.837657 0.000000 0.694632
O O5 0.654062 0.500000 0.921134
O O6 0.517365 0.261098 0.866395
O O7 0.662687 0.254699 0.879225
O O8 0.750000 0.250000 0.000000
O O9 0.897853 0.500000 0.808749
O O10 0.802750 0.254780 0.795046
O O11 0.728897 0.500000 0.560078
O O12 0.615870 0.735413 0.471201
O O13 0.842154 0.738778 0.585215
O O14 0.425638 0.500000 0.597735
O O15 0.566634 0.261359 0.675867
O O16 0.171616 0.247170 0.799473
O O17 0.112902 0.000000 0.810489
O O18 0.688494 0.500000 0.761842
#
# Coordination Sequence:
#
# PCOD9171309 Si02
#       7
#     8   8   8   8   8   8   8
#     4  10  18  32  52  70  99 140 178 215 256 309
#     4  10  20  36  58  81 106 136 169 205 249 304
#     4  10  20  33  54  80 105 130 166 215 260 306
#     4  10  18  27  45  75 102 129 175 227 266 301
#     4   9  17  30  48  70 101 138 173 214 266 315
#     4   8  15  29  53  77  94 127 175 208 241 296
#     4   9  16  31  53  76 101 134 173 212 256 311
#
# _framework density 17.868399
#
# number of rings (size 3 to 8) (size 9 to 14) (size 15 to 20)
#    0.000    2.571    1.429    2.571    0.000    0.571 
#    0.000    2.857    0.000    8.571    0.000    0.000 
#    0.000    0.000    0.000    0.000    0.000    0.000 
#
# Total GULP energy -156108.034732 kJ/mol
# GULP energy per Si atom -5575.286955 kJ/mol
# Density = 1.782773 g / cm^3
# Si number density = 17.868399 Si / 1000 Ang^3
#
#
#
# Elastic Constant Matrix: (Units=GPa)
#
#
# Indices 1 2 3 4 5 6 
#
# 1 126.7278 11.9773 63.4809 0.0000 -13.4394 0.0001
# 2 11.9773 22.8687 18.7323 -0.0001 -3.3719 0.0001
# 3 63.4809 18.7323 133.3011 0.0000 -20.1911 0.0000
# 4 0.0000 -0.0001 0.0000 25.4762 0.0000 -3.7071
# 5 -13.4394 -3.3719 -20.1911 0.0000 19.4181 0.0000
# 6 0.0001 0.0001 0.0000 -3.7071 0.0000 19.2342
#
#
#
# Elastic Compliance Matrix: (Units=1/GPa)
#
#
# Indices 1 2 3 4 5 6 
#
# 1 0.010507 -0.001523 -0.004425 0.000000 0.002406 0.000000
# 2 -0.001523 0.049680 -0.006064 0.000000 0.001267 0.000000
# 3 -0.004425 -0.006064 0.011677 0.000000 0.008026 0.000000
# 4 0.000000 0.000000 0.000000 0.040385 0.000000 0.007784
# 5 0.002406 0.001267 0.008026 0.000000 0.061730 0.000000
# 6 0.000000 0.000000 0.000000 0.007784 0.000000 0.053491
#
#
# Mechanical properties :
#
#
# Convention : Reuss Voigt Hill
#
# Bulk Modulus (GPa) = 20.90352 52.36428 36.63390
# Shear Modulus (GPa) = 18.69581 25.40616 22.05098
#
# Velocity S-wave (km/s) = 3.23817 3.77483 3.51675
# Velocity P-wave (km/s) = 5.07001 6.95473 6.08577
#
# Compressibility (1/GPa) = 0.04783884
#
# Stress axis : x y z
#
# Youngs Moduli (GPa) = 95.17793 20.12891 85.63866
#
# Poissons Ratio (x) = 0.03066 0.37895
# Poissons Ratio (y) = 0.14499 0.51930
# Poissons Ratio (z) = 0.42116 0.12206
#
# Static dielectric constant tensor:
#      x y z
#    x 1.608930 0.000000 -0.020380 
#    y 0.000000 1.617700 0.000000 
#    z -0.020380 0.000000 1.609270 
# 
# From -- ./inp_files/377637.got.cif
#   From: 2010.05.17/outbox.cif.g08.bks.cpg/sg12_189_cif.got.tgz:377637.got - 2010.06.03 13:09:07.
