data_PCOD9171185
_publ_section_title
;
Structure prediction by ZEFSAII (Michael W. Deem and Ramdas Pophale) SiO2 
 PCOD9171185
Probable space group: C 2/M
;
_chemical_formula_sum "Si O2"
_cell_formula_units_Z 56
_cell_length_a 28.574855
_cell_length_b 8.738206
_cell_length_c 17.709506
_cell_angle_alpha 90.000000
_cell_angle_beta 126.385397
_cell_angle_gamma 90.000000
_cell_volume 3559.860066
_symmetry_space_group_name_H-M "C 2/M"
_symmetry_group_IT_number 12
_symmetry_cell_setting 'monoclinic'
loop_
_space_group_symop_operation_xyz
x,y,z
-x,y,-z
-x,-y,-z
x,-y,z
1/2+x,1/2+y,z
1/2-x,1/2+y,-z
1/2-x,1/2-y,-z
1/2+x,1/2-y,z
loop_
_atom_site_type_symbol
_atom_site_label
_atom_site_fract_x
_atom_site_fract_y
_atom_site_fract_z
Si Si1 0.206601 0.315298 0.296150
Si Si2 0.518197 0.317872 0.902802
Si Si3 0.648259 0.679056 0.383894
Si Si4 0.976559 0.681906 0.715304
Si Si5 0.912283 0.316593 0.899006
Si Si6 0.666661 0.679517 0.577910
Si Si7 0.958608 0.315688 0.527719
O O1 0.207812 0.500000 0.307312
O O2 0.191314 0.238340 0.361280
O O3 0.152902 0.278724 0.189613
O O4 0.270944 0.267978 0.331194
O O5 0.519317 0.500000 0.909208
O O6 0.516861 0.263779 0.815092
O O7 0.459096 0.256440 0.886237
O O8 0.569740 0.245997 0.001965
O O9 0.634443 0.500000 0.357957
O O10 0.589420 0.777299 0.324246
O O11 0.671188 0.694281 0.491116
O O12 0.985249 0.500000 0.727497
O O13 0.980545 0.734522 0.631924
O O14 0.919395 0.500000 0.903634
O O15 0.659034 0.500000 0.587659
O O16 0.608018 0.764066 0.545643
O O17 0.959606 0.500000 0.529354
O O18 0.000000 0.260910 0.500000
#
# Coordination Sequence:
#
# PCOD9171185 Si02
#       7
#     8   8   8   8   8   8   8
#     4  10  19  30  44  63  93 128 160 189 222 271
#     4  11  20  30  44  65  93 122 159 201 233 268
#     4  10  18  27  42  64  93 124 158 192 222 264
#     4  10  18  30  48  67  92 124 156 190 233 282
#     4  10  19  30  45  63  90 129 165 193 228 270
#     4   9  19  32  45  67  94 123 155 188 229 277
#     4   9  19  35  53  73  94 118 152 194 237 282
#
# _framework density 15.730956000000001
#
# number of rings (size 3 to 8) (size 9 to 14) (size 15 to 20)
#    0.000    2.143    1.429    3.857    0.000    2.571 
#    0.000    0.000    0.000    0.000    0.000    1.000 
#    0.000    0.000    0.000    0.000    0.000    0.000 
#
# Total GULP energy -156130.685606 kJ/mol
# GULP energy per Si atom -5576.095915 kJ/mol
# Density = 1.569515 g / cm^3
# Si number density = 15.730956 Si / 1000 Ang^3
#
#
#
# Elastic Constant Matrix: (Units=GPa)
#
#
# Indices 1 2 3 4 5 6 
#
# 1 89.3101 21.5468 50.7115 0.0000 0.4024 0.0000
# 2 21.5468 44.5012 29.2861 0.0000 2.8283 0.0000
# 3 50.7115 29.2861 81.8958 0.0000 10.2733 0.0000
# 4 0.0000 0.0000 0.0000 17.2046 0.0000 -1.5284
# 5 0.4024 2.8283 10.2733 0.0000 15.4129 0.0000
# 6 0.0000 0.0000 0.0000 -1.5284 0.0000 12.1506
#
#
#
# Elastic Compliance Matrix: (Units=1/GPa)
#
#
# Indices 1 2 3 4 5 6 
#
# 1 0.018142 -0.001631 -0.011599 0.000000 0.007557 0.000000
# 2 -0.001631 0.029578 -0.009703 0.000000 0.001082 0.000000
# 3 -0.011599 -0.009703 0.024663 0.000000 -0.014356 0.000000
# 4 0.000000 0.000000 0.000000 0.058781 0.000000 0.007394
# 5 0.007557 0.001082 -0.014356 0.000000 0.074053 0.000000
# 6 0.000000 0.000000 0.000000 0.007394 0.000000 0.083231
#
#
# Mechanical properties :
#
#
# Convention : Reuss Voigt Hill
#
# Bulk Modulus (GPa) = 37.71030 46.53289 42.12159
# Shear Modulus (GPa) = 14.57076 16.56446 15.56761
#
# Velocity S-wave (km/s) = 3.04673 3.24849 3.14923
# Velocity P-wave (km/s) = 6.03331 6.61173 6.32913
#
# Compressibility (1/GPa) = 0.02651796
#
# Stress axis : x y z
#
# Youngs Moduli (GPa) = 55.11957 33.80921 40.54612
#
# Poissons Ratio (x) = 0.05516 0.47028
# Poissons Ratio (y) = 0.08993 0.39340
# Poissons Ratio (z) = 0.63931 0.32804
#
# Static dielectric constant tensor:
#      x y z
#    x 1.501600 0.000000 -0.001560 
#    y 0.000000 1.530790 0.000000 
#    z -0.001560 0.000000 1.562780 
# 
# From -- ./inp_files/291941.got.cif
#   From: 2010.05.17/outbox.cif.g08.bks.cpg/sg12_146_cif.got.tgz:291941.got - 2010.06.03 13:09:07.
