data_PCOD9171009
_publ_section_title
;
Structure prediction by ZEFSAII (Michael W. Deem and Ramdas Pophale) SiO2 
 PCOD9171009
Probable space group: C 2/M
;
_chemical_formula_sum "Si O2"
_cell_formula_units_Z 48
_cell_length_a 22.454770
_cell_length_b 7.392251
_cell_length_c 13.371437
_cell_angle_alpha 90.000000
_cell_angle_beta 125.551824
_cell_angle_gamma 90.000000
_cell_volume 1805.797170
_symmetry_space_group_name_H-M "C 2/M"
_symmetry_group_IT_number 12
_symmetry_cell_setting 'monoclinic'
loop_
_space_group_symop_operation_xyz
x,y,z
-x,y,-z
-x,-y,-z
x,-y,z
1/2+x,1/2+y,z
1/2-x,1/2+y,-z
1/2-x,1/2-y,-z
1/2+x,1/2-y,z
loop_
_atom_site_type_symbol
_atom_site_label
_atom_site_fract_x
_atom_site_fract_y
_atom_site_fract_z
Si Si1 0.981010 0.704293 0.864202
Si Si2 0.324189 0.222175 0.758457
Si Si3 0.330832 0.293354 0.429334
Si Si4 0.989059 0.207021 0.608337
Si Si5 0.639912 0.222695 0.980257
Si Si6 0.849545 0.297431 0.219687
O O1 0.976253 0.500000 0.818555
O O2 0.899862 0.784462 0.781583
O O3 0.055645 0.789491 0.898740
O O4 0.000000 0.688935 0.000000
O O5 0.249756 0.285549 0.633133
O O6 0.325047 0.000000 0.757389
O O7 0.326482 0.271882 0.879100
O O8 0.330153 0.500000 0.463399
O O9 0.407514 0.213975 0.543857
O O10 0.336440 0.296965 0.312689
O O11 0.000000 0.196734 0.500000
O O12 0.062530 0.307124 0.709483
O O13 0.990357 0.000000 0.646919
O O14 0.674723 0.285494 0.909663
O O15 0.639654 0.000000 0.978154
O O16 0.820760 0.500000 0.202335
#
# Coordination Sequence:
#
# PCOD9171009 Si02
#       6
#     8   8   8   8   8   8
#     4   7  10  19  36  56  77 101 129 161 194 225
#     4   8  13  23  40  59  79 104 131 161 198 233
#     4   9  17  28  42  60  80 103 133 166 196 229
#     4   8  15  28  42  55  74 102 138 172 192 217
#     4   8  14  23  36  59  86 104 125 161 198 233
#     4  10  18  26  39  60  84 108 130 156 196 240
#
# _framework density 26.581060999999998
#
# number of rings (size 3 to 8) (size 9 to 14) (size 15 to 20)
#    0.000    3.667    0.000    3.500    0.000    3.667 
#    0.000    0.000    0.000    2.000    0.000    2.333 
#    0.000   10.000    0.000    0.000    0.000    1.667 
#
# Total GULP energy -133844.631189 kJ/mol
# GULP energy per Si atom -5576.859633 kJ/mol
# Density = 2.652056 g / cm^3
# Si number density = 26.581061 Si / 1000 Ang^3
#
#
#
# Elastic Constant Matrix: (Units=GPa)
#
#
# Indices 1 2 3 4 5 6 
#
# 1 41.1792 0.7344 70.5694 0.0000 32.5927 0.0000
# 2 0.7344 97.6993 9.6782 0.0000 5.5472 0.0000
# 3 70.5694 9.6782 80.3875 0.0000 41.9342 0.0000
# 4 0.0000 0.0000 0.0000 30.4730 0.0000 -32.1983
# 5 32.5927 5.5472 41.9342 0.0000 82.7238 0.0000
# 6 0.0000 0.0000 0.0000 -32.1983 0.0000 29.8722
#
#
#
# Elastic Compliance Matrix: (Units=1/GPa)
#
#
# Indices 1 2 3 4 5 6 
#
# 1 -0.046120 -0.003692 0.042585 0.000000 -0.003168 0.000000
# 2 -0.003692 0.010064 0.002206 0.000000 -0.000338 0.000000
# 3 0.042585 0.002206 -0.022268 0.000000 -0.005638 0.000000
# 4 0.000000 0.000000 0.000000 -0.236264 0.000000 -0.254662
# 5 -0.003168 -0.000338 -0.005638 0.000000 0.016217 0.000000
# 6 0.000000 0.000000 0.000000 -0.254662 0.000000 -0.241016
#
#
# Mechanical properties :
#
#
# Convention : Reuss Voigt Hill
#
# Bulk Modulus (GPa) = 41.88926 42.35888 42.12407
# Shear Modulus (GPa) = -8.42280 37.83272 14.70496
#
# Velocity S-wave (km/s) = -1.78202 3.77675 2.35460
# Velocity P-wave (km/s) = 3.39987 5.91513 4.82431
#
# Compressibility (1/GPa) = 0.02387247
#
# Stress axis : x y z
#
# Youngs Moduli (GPa) = -21.68247 99.36463 -44.90665
#
# Poissons Ratio (x) = 0.36684 1.91233
# Poissons Ratio (y) = -0.08005 0.09906
# Poissons Ratio (z) = 0.92334 -0.21919
#
# Static dielectric constant tensor:
#      x y z
#    x 2.107820 0.000000 0.017740 
#    y 0.000000 1.995500 0.000000 
#    z 0.017740 0.000000 2.100480 
# 
# From -- ./inp_files/287275.got.cif
#   From: 2010.05.17/outbox.cif.g08.bks.cpg/sg12_144_cif.got.tgz:287275.got - 2010.06.03 13:09:07.
