data_PCOD9171118
_publ_section_title
;
Structure prediction by ZEFSAII (Michael W. Deem and Ramdas Pophale) SiO2 
 PCOD9171118
Probable space group: C 2/M
;
_chemical_formula_sum "Si O2"
_cell_formula_units_Z 64
_cell_length_a 28.295380
_cell_length_b 9.242915
_cell_length_c 16.938981
_cell_angle_alpha 90.000000
_cell_angle_beta 94.800129
_cell_angle_gamma 90.000000
_cell_volume 4414.544304
_symmetry_space_group_name_H-M "C 2/M"
_symmetry_group_IT_number 12
_symmetry_cell_setting 'monoclinic'
loop_
_space_group_symop_operation_xyz
x,y,z
-x,y,-z
-x,-y,-z
x,-y,z
1/2+x,1/2+y,z
1/2-x,1/2+y,-z
1/2-x,1/2-y,-z
1/2+x,1/2-y,z
loop_
_atom_site_type_symbol
_atom_site_label
_atom_site_fract_x
_atom_site_fract_y
_atom_site_fract_z
Si Si1 0.786357 0.825794 0.064081
Si Si2 0.606834 0.672452 0.969688
Si Si3 0.349411 0.828740 0.731576
Si Si4 0.784905 0.328691 0.393064
Si Si5 0.984553 0.333596 0.090266
Si Si6 0.759850 0.172904 0.238663
Si Si7 0.922700 0.827799 0.853913
Si Si8 0.189729 0.328125 0.436766
O O1 0.840261 0.788034 0.048951
O O2 0.774658 0.785392 0.152646
O O3 0.781490 0.000000 0.056670
O O4 0.750000 0.750000 0.000000
O O5 0.600382 0.500000 0.957782
O O6 0.566309 0.756500 0.916255
O O7 0.599135 0.702252 0.061852
O O8 0.295895 0.793501 0.754039
O O9 0.387724 0.737803 0.784163
O O10 0.348831 0.803707 0.636868
O O11 0.356933 0.000000 0.746832
O O12 0.782864 0.500000 0.380088
O O13 0.790796 0.248869 0.310874
O O14 0.819925 0.300039 0.472206
O O15 0.734442 0.268949 0.417803
O O16 0.982143 0.500000 0.115584
O O17 0.025812 0.246875 0.140490
O O18 0.000000 0.331997 0.000000
O O19 0.764650 0.000000 0.247680
O O20 0.927112 0.000000 0.846527
O O21 0.202875 0.500000 0.432446
#
# Coordination Sequence:
#
# PCOD9171118 Si02
#       8
#     8   8   8   8   8   8   8   8
#     4  10  20  32  45  61  84 114 146 178 210 242
#     4   9  18  31  44  59  81 108 138 174 210 239
#     4   9  16  26  39  56  82 112 139 166 199 243
#     4   9  15  24  40  58  76 103 140 176 206 241
#     4   9  17  29  45  62  78 101 134 168 205 250
#     4   9  18  30  41  56  82 115 145 174 209 244
#     4  10  18  27  41  61  84 107 133 168 208 246
#     4   8  15  26  38  55  80 108 135 167 209 249
#
# _framework density 14.497531
#
# number of rings (size 3 to 8) (size 9 to 14) (size 15 to 20)
#    0.000    2.875    0.000    2.625    0.000    5.500 
#    0.000    0.000    0.000    0.000    0.000    0.000 
#    0.000    1.000    0.000   11.500    0.000    3.750 
#
# Total GULP energy -178140.227669 kJ/mol
# GULP energy per Si atom -5566.882115 kJ/mol
# Density = 1.446453 g / cm^3
# Si number density = 14.497531 Si / 1000 Ang^3
#
#
#
# Elastic Constant Matrix: (Units=GPa)
#
#
# Indices 1 2 3 4 5 6 
#
# 1 82.2956 42.6350 58.8248 0.0000 15.5460 0.0000
# 2 42.6350 48.5817 56.4266 0.0000 15.3436 0.0000
# 3 58.8248 56.4266 127.3742 0.0000 17.1201 0.0000
# 4 0.0000 0.0000 0.0000 25.1837 0.0000 7.5959
# 5 15.5460 15.3436 17.1201 0.0000 18.4416 0.0000
# 6 0.0000 0.0000 0.0000 7.5959 0.0000 19.3132
#
#
#
# Elastic Compliance Matrix: (Units=1/GPa)
#
#
# Indices 1 2 3 4 5 6 
#
# 1 0.023187 -0.015069 -0.003532 0.000000 -0.003731 0.000000
# 2 -0.015069 0.060159 -0.016763 0.000000 -0.021788 0.000000
# 3 -0.003532 -0.016763 0.016719 0.000000 0.001403 0.000000
# 4 0.000000 0.000000 0.000000 0.045053 0.000000 -0.017719
# 5 -0.003731 -0.021788 0.001403 0.000000 0.074196 0.000000
# 6 0.000000 0.000000 0.000000 -0.017719 0.000000 0.058747
#
#
# Mechanical properties :
#
#
# Convention : Reuss Voigt Hill
#
# Bulk Modulus (GPa) = 34.08396 63.78047 48.93222
# Shear Modulus (GPa) = 13.94439 19.27870 16.61155
#
# Velocity S-wave (km/s) = 3.10473 3.65059 3.38867
# Velocity P-wave (km/s) = 6.03437 7.86502 7.00972
#
# Compressibility (1/GPa) = 0.02933931
#
# Stress axis : x y z
#
# Youngs Moduli (GPa) = 43.12742 16.62257 59.81158
#
# Poissons Ratio (x) = 0.25048 0.21123
# Poissons Ratio (y) = 0.64988 1.00260
# Poissons Ratio (z) = 0.15231 0.27864
#
# Static dielectric constant tensor:
#      x y z
#    x 1.452390 0.000000 0.002310 
#    y 0.000000 1.483920 0.000000 
#    z 0.002310 0.000000 1.500830 
# 
# From -- ./inp_files/287752.got.cif
#   From: 2010.05.17/outbox.cif.g08.bks.cpg/sg12_144_cif.got.tgz:287752.got - 2010.06.03 13:09:07.
