data_PCOD9171538
_publ_section_title
;
Structure prediction by ZEFSAII (Michael W. Deem and Ramdas Pophale) SiO2 
 PCOD9171538
Probable space group: C 2/M
;
_chemical_formula_sum "Si O2"
_cell_formula_units_Z 64
_cell_length_a 25.049528
_cell_length_b 14.597061
_cell_length_c 12.066770
_cell_angle_alpha 90.000000
_cell_angle_beta 108.689851
_cell_angle_gamma 90.000000
_cell_volume 4179.539535
_symmetry_space_group_name_H-M "C 2/M"
_symmetry_group_IT_number 12
_symmetry_cell_setting 'monoclinic'
loop_
_space_group_symop_operation_xyz
x,y,z
-x,y,-z
-x,-y,-z
x,-y,z
1/2+x,1/2+y,z
1/2-x,1/2+y,-z
1/2-x,1/2-y,-z
1/2+x,1/2-y,z
loop_
_atom_site_type_symbol
_atom_site_label
_atom_site_fract_x
_atom_site_fract_y
_atom_site_fract_z
Si Si1 0.319267 0.607663 0.313389
Si Si2 0.686779 0.241504 0.507548
Si Si3 0.647403 0.276525 0.247377
Si Si4 0.688605 0.101564 0.149639
Si Si5 0.433191 0.609505 0.950142
Si Si6 0.738405 0.145378 0.958836
Si Si7 0.263585 0.108630 0.293863
Si Si8 0.137477 0.896064 0.890390
O O1 0.332023 0.500000 0.341619
O O2 0.326917 0.672145 0.423485
O O3 0.252961 0.611760 0.237250
O O4 0.353047 0.642279 0.226902
O O5 0.750000 0.250000 0.500000
O O6 0.646882 0.243379 0.374216
O O7 0.692586 0.153181 0.590443
O O8 0.655146 0.186481 0.176977
O O9 0.595534 0.336054 0.169231
O O10 0.703372 0.340061 0.269661
O O11 0.695754 0.107873 0.022101
O O12 0.668404 0.000000 0.167685
O O13 0.421154 0.500000 0.932105
O O14 0.500000 0.621294 0.000000
O O15 0.403552 0.644286 0.044341
O O16 0.800088 0.100910 0.014827
O O17 0.750000 0.250000 0.000000
O O18 0.719352 0.131289 0.821039
O O19 0.257701 0.000000 0.304724
O O20 0.117806 0.000000 0.859261
#
# Coordination Sequence:
#
# PCOD9171538 Si02
#       8
#     8   8   8   8   8   8   8   8
#     4   9  16  28  45  65  95 132 164 193 228 281
#     4  10  20  30  39  64  96 131 169 190 224 280
#     4  11  20  33  45  66  96 132 163 195 240 288
#     4  10  18  28  44  68  98 131 162 193 235 287
#     4  10  20  34  53  75  95 118 157 211 261 298
#     4  11  16  26  44  67 100 130 159 194 234 284
#     4  11  19  28  43  65  96 131 163 192 226 282
#     4   9  16  27  44  67  91 120 158 194 239 289
#
# _framework density 15.312692
#
# number of rings (size 3 to 8) (size 9 to 14) (size 15 to 20)
#    0.000    1.875    5.000    3.000    0.000    3.000 
#    0.000    0.000    0.000    1.125    0.000    3.500 
#    0.000    0.000    0.000    8.750    0.000    0.000 
#
# Total GULP energy -178233.835199 kJ/mol
# GULP energy per Si atom -5569.807350 kJ/mol
# Density = 1.527784 g / cm^3
# Si number density = 15.312692 Si / 1000 Ang^3
#
#
#
# Elastic Constant Matrix: (Units=GPa)
#
#
# Indices 1 2 3 4 5 6 
#
# 1 38.4330 20.6231 40.1866 0.0000 -3.9120 0.0000
# 2 20.6231 103.6578 43.1376 0.0000 -1.0149 0.0000
# 3 40.1866 43.1376 112.1726 0.0000 -17.1098 0.0000
# 4 0.0000 0.0000 0.0000 10.4784 0.0000 -4.3733
# 5 -3.9120 -1.0149 -17.1098 0.0000 18.9161 0.0000
# 6 0.0000 0.0000 0.0000 -4.3733 0.0000 14.4455
#
#
#
# Elastic Compliance Matrix: (Units=1/GPa)
#
#
# Indices 1 2 3 4 5 6 
#
# 1 0.042543 -0.002204 -0.015162 0.000000 -0.005034 0.000000
# 2 -0.002204 0.011855 -0.004341 0.000000 -0.003746 0.000000
# 3 -0.015162 -0.004341 0.017983 0.000000 0.012898 0.000000
# 4 0.000000 0.000000 0.000000 0.109237 0.000000 0.033071
# 5 -0.005034 -0.003746 0.012898 0.000000 0.063289 0.000000
# 6 0.000000 0.000000 0.000000 0.033071 0.000000 0.079238
#
#
# Mechanical properties :
#
#
# Convention : Reuss Voigt Hill
#
# Bulk Modulus (GPa) = 34.52008 51.35089 42.93548
# Shear Modulus (GPa) = 13.25505 18.78907 16.02206
#
# Velocity S-wave (km/s) = 2.94534 3.50669 3.23820
# Velocity P-wave (km/s) = 5.84458 7.07132 6.48701
#
# Compressibility (1/GPa) = 0.02896865
#
# Stress axis : x y z
#
# Youngs Moduli (GPa) = 23.50577 84.34937 55.60731
#
# Poissons Ratio (x) = 0.18589 0.84309
# Poissons Ratio (y) = 0.05180 0.24139
# Poissons Ratio (z) = 0.35638 0.36617
#
# Static dielectric constant tensor:
#      x y z
#    x 1.490170 0.000000 -0.032760 
#    y 0.000000 1.546140 0.000000 
#    z -0.032760 0.000000 1.540270 
# 
# From -- ./inp_files/176173.got.cif
#   From: 2010.05.17/outbox.cif.g08.bks.cpg/sg12_89_cif.got.tgz:176173.got - 2010.06.03 13:09:07.
