data_PCOD9171318
_publ_section_title
;
Structure prediction by ZEFSAII (Michael W. Deem and Ramdas Pophale) SiO2 
 PCOD9171318
Probable space group: C 2/M
;
_chemical_formula_sum "Si O2"
_cell_formula_units_Z 64
_cell_length_a 23.246776
_cell_length_b 7.575837
_cell_length_c 17.479315
_cell_angle_alpha 90.000000
_cell_angle_beta 95.993783
_cell_angle_gamma 90.000000
_cell_volume 3061.519720
_symmetry_space_group_name_H-M "C 2/M"
_symmetry_group_IT_number 12
_symmetry_cell_setting 'monoclinic'
loop_
_space_group_symop_operation_xyz
x,y,z
-x,y,-z
-x,-y,-z
x,-y,z
1/2+x,1/2+y,z
1/2-x,1/2+y,-z
1/2-x,1/2-y,-z
1/2+x,1/2-y,z
loop_
_atom_site_type_symbol
_atom_site_label
_atom_site_fract_x
_atom_site_fract_y
_atom_site_fract_z
Si Si1 0.583754 0.783907 0.875172
Si Si2 0.349088 0.783220 0.256974
Si Si3 0.042731 0.296027 0.116412
Si Si4 0.728534 0.708647 0.170673
Si Si5 0.684298 0.789629 0.414287
Si Si6 0.121307 0.210304 0.256821
Si Si7 0.684500 0.205421 0.584936
Si Si8 0.149699 0.712739 0.029036
O O1 0.599078 0.729089 0.791407
O O2 0.521483 0.720122 0.895873
O O3 0.581750 0.000000 0.875350
O O4 0.634469 0.732543 0.941079
O O5 0.290210 0.724087 0.206337
O O6 0.346030 0.720010 0.343935
O O7 0.349043 0.000000 0.258996
O O8 0.037953 0.500000 0.091622
O O9 0.065630 0.287124 0.206689
O O10 0.094813 0.221009 0.072326
O O11 0.730513 0.500000 0.185027
O O12 0.676837 0.780827 0.216728
O O13 0.707707 0.732120 0.080695
O O14 0.634582 0.750498 0.346500
O O15 0.673489 0.719555 0.498683
O O16 0.745938 0.715273 0.394162
O O17 0.692180 0.000000 0.420202
O O18 0.118206 0.000000 0.247191
O O19 0.668008 0.000000 0.578888
O O20 0.150014 0.500000 0.030970
#
# Coordination Sequence:
#
# PCOD9171318 Si02
#       8
#     8   8   8   8   8   8   8   8
#     4   9  17  29  48  69  89 122 160 192 230 272
#     4   9  16  29  47  66  93 126 157 185 221 276
#     4   9  17  30  48  70  93 117 154 200 235 265
#     4   9  17  29  45  65  91 123 153 184 228 277
#     4  10  18  27  46  73  97 119 150 188 229 273
#     4  10  18  30  48  69  95 124 152 187 234 277
#     4   9  17  30  46  68  97 126 151 184 226 272
#     4   9  17  29  46  69  94 117 150 196 237 269
#
# _framework density 20.904651000000001
#
# number of rings (size 3 to 8) (size 9 to 14) (size 15 to 20)
#    0.000    2.750    1.250    1.125    0.000    3.000 
#    0.000    0.625    0.000    6.000    0.000    5.250 
#    0.000    0.000    0.000    0.000    0.000    0.000 
#
# Total GULP energy -178460.667893 kJ/mol
# GULP energy per Si atom -5576.895872 kJ/mol
# Density = 2.085707 g / cm^3
# Si number density = 20.904651 Si / 1000 Ang^3
#
#
#
# Elastic Constant Matrix: (Units=GPa)
#
#
# Indices 1 2 3 4 5 6 
#
# 1 12.4275 -1.9958 -2.5855 0.0000 -1.9461 0.0000
# 2 -1.9958 49.6521 -8.1061 0.0000 -3.5033 0.0000
# 3 -2.5855 -8.1061 103.1364 0.0000 -5.8789 0.0000
# 4 0.0000 0.0000 0.0000 13.8284 0.0000 6.4950
# 5 -1.9461 -3.5033 -5.8789 0.0000 29.6974 0.0000
# 6 0.0000 0.0000 0.0000 6.4950 0.0000 5.8702
#
#
#
# Elastic Compliance Matrix: (Units=1/GPa)
#
#
# Indices 1 2 3 4 5 6 
#
# 1 0.082738 0.004235 0.002776 0.000000 0.006471 0.000000
# 2 0.004235 0.020844 0.001922 0.000000 0.003117 0.000000
# 3 0.002776 0.001922 0.010053 0.000000 0.002399 0.000000
# 4 0.000000 0.000000 0.000000 0.150558 0.000000 -0.166584
# 5 0.006471 0.003117 0.002399 0.000000 0.034940 0.000000
# 6 0.000000 0.000000 0.000000 -0.166584 0.000000 0.354669
#
#
# Mechanical properties :
#
#
# Convention : Reuss Voigt Hill
#
# Bulk Modulus (GPa) = 7.60445 15.53791 11.57118
# Shear Modulus (GPa) = 7.35544 21.73942 14.54743
#
# Velocity S-wave (km/s) = 1.87782 3.22830 2.64084
# Velocity P-wave (km/s) = 2.88915 4.62004 3.85305
#
# Compressibility (1/GPa) = 0.13150200
#
# Stress axis : x y z
#
# Youngs Moduli (GPa) = 12.08636 47.97520 99.46989
#
# Poissons Ratio (x) = -0.20319 -0.27611
# Poissons Ratio (y) = -0.05119 -0.19119
# Poissons Ratio (z) = -0.03355 -0.09221
#
# Static dielectric constant tensor:
#      x y z
#    x 1.733260 0.000000 -0.015140 
#    y 0.000000 1.798400 0.000000 
#    z -0.015140 0.000000 1.791370 
# 
# From -- ./inp_files/287785.got.cif
#   From: 2010.05.17/outbox.cif.g08.bks.cpg/sg12_144_cif.got.tgz:287785.got - 2010.06.03 13:09:07.
