data_PCOD9171825
_publ_section_title
;
Structure prediction by ZEFSAII (Michael W. Deem and Ramdas Pophale) SiO2 
 PCOD9171825
Probable space group: C 2/M
;
_chemical_formula_sum "Si O2"
_cell_formula_units_Z 64
_cell_length_a 24.154375
_cell_length_b 9.075050
_cell_length_c 19.639255
_cell_angle_alpha 90.000000
_cell_angle_beta 120.844644
_cell_angle_gamma 90.000000
_cell_volume 3696.075424
_symmetry_space_group_name_H-M "C 2/M"
_symmetry_group_IT_number 12
_symmetry_cell_setting 'monoclinic'
loop_
_space_group_symop_operation_xyz
x,y,z
-x,y,-z
-x,-y,-z
x,-y,z
1/2+x,1/2+y,z
1/2-x,1/2+y,-z
1/2-x,1/2-y,-z
1/2+x,1/2-y,z
loop_
_atom_site_type_symbol
_atom_site_label
_atom_site_fract_x
_atom_site_fract_y
_atom_site_fract_z
Si Si1 0.790153 0.323284 0.720136
Si Si2 0.809225 0.324878 0.075656
Si Si3 0.298125 0.172738 0.231335
Si Si4 0.581517 0.826791 0.417300
Si Si5 0.427726 0.824038 0.752195
Si Si6 0.940961 0.824648 0.168235
Si Si7 0.210316 0.823650 0.536283
Si Si8 0.939532 0.323497 0.314852
O O1 0.791162 0.500000 0.723016
O O2 0.757265 0.262144 0.766723
O O3 0.863103 0.275737 0.750034
O O4 0.745040 0.279484 0.628175
O O5 0.811409 0.500000 0.064895
O O6 0.800692 0.302607 0.151751
O O7 0.876962 0.250404 0.097711
O O8 0.750000 0.250000 0.000000
O O9 0.370426 0.208065 0.304785
O O10 0.287020 0.000000 0.235994
O O11 0.582629 0.801622 0.335864
O O12 0.636963 0.731068 0.485928
O O13 0.507841 0.797315 0.394198
O O14 0.595276 0.000000 0.436872
O O15 0.491447 0.739088 0.815959
O O16 0.437158 0.000000 0.766669
O O17 0.941112 0.771539 0.247128
O O18 0.937897 0.000000 0.161213
O O19 0.250000 0.750000 0.500000
O O20 0.213686 0.000000 0.531953
O O21 0.938911 0.500000 0.296382
#
# Coordination Sequence:
#
# PCOD9171825 Si02
#       8
#     8   8   8   8   8   8   8   8
#     4  10  21  35  50  70 101 140 175 212 260 310
#     4  10  20  36  58  84 111 137 165 202 249 299
#     4   9  19  35  54  77 103 133 169 207 248 302
#     4   9  16  30  50  70  94 128 170 219 266 305
#     4   9  17  32  49  68 100 138 173 211 258 304
#     4  10  18  28  48  80 107 130 168 211 250 295
#     4  11  21  33  47  69  99 132 173 220 265 308
#     4   8  16  32  50  68  98 134 167 209 260 308
#
# _framework density 17.315664000000002
#
# number of rings (size 3 to 8) (size 9 to 14) (size 15 to 20)
#    0.000    2.500    1.250    3.375    0.000    6.000 
#    0.000    0.625    0.000    4.500    0.000    5.250 
#    0.000    0.000    0.000    0.000    0.000    0.000 
#
# Total GULP energy -178363.517453 kJ/mol
# GULP energy per Si atom -5573.859920 kJ/mol
# Density = 1.727625 g / cm^3
# Si number density = 17.315664 Si / 1000 Ang^3
#
#
#
# Elastic Constant Matrix: (Units=GPa)
#
#
# Indices 1 2 3 4 5 6 
#
# 1 112.8544 50.1212 44.6525 0.0000 36.2102 0.0000
# 2 50.1212 63.5077 47.7595 0.0000 23.9121 0.0000
# 3 44.6525 47.7595 69.6335 0.0000 38.7694 0.0000
# 4 0.0000 0.0000 0.0000 27.3882 0.0000 6.7219
# 5 36.2102 23.9121 38.7694 0.0000 31.2957 0.0000
# 6 0.0000 0.0000 0.0000 6.7219 0.0000 29.9788
#
#
#
# Elastic Compliance Matrix: (Units=1/GPa)
#
#
# Indices 1 2 3 4 5 6 
#
# 1 0.018553 -0.013987 0.011918 0.000000 -0.025543 0.000000
# 2 -0.013987 0.043865 -0.036955 0.000000 0.028449 0.000000
# 3 0.011918 -0.036955 0.077419 0.000000 -0.081460 0.000000
# 4 0.000000 0.000000 0.000000 0.038638 0.000000 -0.008664
# 5 -0.025543 0.028449 -0.081460 0.000000 0.140685 0.000000
# 6 0.000000 0.000000 0.000000 -0.008664 0.000000 0.035299
#
#
# Mechanical properties :
#
#
# Convention : Reuss Voigt Hill
#
# Bulk Modulus (GPa) = 16.18442 59.00689 37.59566
# Shear Modulus (GPa) = 11.03492 24.63003 17.83248
#
# Velocity S-wave (km/s) = 2.52718 3.77558 3.21260
# Velocity P-wave (km/s) = 4.22877 7.29094 5.95988
#
# Compressibility (1/GPa) = 0.06178782
#
# Stress axis : x y z
#
# Youngs Moduli (GPa) = 53.89829 22.79712 12.91666
#
# Poissons Ratio (x) = 0.31887 -0.15394
# Poissons Ratio (y) = 0.75390 0.47734
# Poissons Ratio (z) = -0.64235 0.84248
#
# Static dielectric constant tensor:
#      x y z
#    x 1.610200 0.000000 0.018110 
#    y 0.000000 1.573420 0.000000 
#    z 0.018110 0.000000 1.591810 
# 
# From -- ./inp_files/324309.got.cif
#   From: 2010.05.17/outbox.cif.g08.bks.cpg/sg12_163_cif.got.tgz:324309.got - 2010.06.03 13:09:07.
