data_PCOD9171980
_publ_section_title
;
Structure prediction by ZEFSAII (Michael W. Deem and Ramdas Pophale) SiO2 
 PCOD9171980
Probable space group: C 2/M
;
_chemical_formula_sum "Si O2"
_cell_formula_units_Z 56
_cell_length_a 24.370020
_cell_length_b 9.307470
_cell_length_c 10.574539
_cell_angle_alpha 90.000000
_cell_angle_beta 80.080579
_cell_angle_gamma 90.000000
_cell_volume 2362.695134
_symmetry_space_group_name_H-M "C 2/M"
_symmetry_group_IT_number 12
_symmetry_cell_setting 'monoclinic'
loop_
_space_group_symop_operation_xyz
x,y,z
-x,y,-z
-x,-y,-z
x,-y,z
1/2+x,1/2+y,z
1/2-x,1/2+y,-z
1/2-x,1/2-y,-z
1/2+x,1/2-y,z
loop_
_atom_site_type_symbol
_atom_site_label
_atom_site_fract_x
_atom_site_fract_y
_atom_site_fract_z
Si Si1 0.133911 0.664630 0.967653
Si Si2 0.683048 0.343307 0.592039
Si Si3 0.761879 0.824956 0.176722
Si Si4 0.660877 0.673085 0.316336
Si Si5 0.533076 0.336064 0.121101
Si Si6 0.561186 0.160707 0.450555
Si Si7 0.577715 0.225108 0.721975
O O1 0.144078 0.500000 0.002295
O O2 0.191628 0.752745 0.930854
O O3 0.103604 0.661210 0.840326
O O4 0.088794 0.746398 0.071945
O O5 0.708795 0.500000 0.569253
O O6 0.715204 0.273186 0.694363
O O7 0.681177 0.286730 0.451489
O O8 0.620188 0.353218 0.671309
O O9 0.700338 0.757335 0.203548
O O10 0.762200 0.000000 0.166190
O O11 0.662804 0.500000 0.300282
O O12 0.598624 0.735580 0.351080
O O13 0.545953 0.500000 0.153713
O O14 0.486141 0.264569 0.227397
O O15 0.500000 0.343490 0.000000
O O16 0.500000 0.220672 0.500000
O O17 0.582778 0.144754 0.586647
O O18 0.558013 0.000000 0.395916
#
# Coordination Sequence:
#
# PCOD9171980 Si02
#       7
#     8   8   8   8   8   8   8
#     4  10  19  29  44  70 102 131 162 198 236 283
#     4   8  15  26  41  64  92 123 157 192 231 281
#     4  10  18  29  45  65  93 127 160 192 233 286
#     4  10  19  31  47  67  92 122 158 199 242 284
#     4   9  17  29  46  68  96 130 164 196 236 288
#     4  10  21  36  52  71  96 127 165 205 243 284
#     4   9  17  29  48  69  96 130 164 201 241 281
#
# _framework density 23.701744999999999
#
# number of rings (size 3 to 8) (size 9 to 14) (size 15 to 20)
#    0.000    2.571    0.000    2.571    0.000    7.429 
#    0.000    4.286    0.000    0.000    0.000    1.000 
#    0.000    0.000    0.000    0.000    0.000    0.000 
#
# Total GULP energy -156065.399408 kJ/mol
# GULP energy per Si atom -5573.764265 kJ/mol
# Density = 2.364780 g / cm^3
# Si number density = 23.701745 Si / 1000 Ang^3
#
#
#
# Elastic Constant Matrix: (Units=GPa)
#
#
# Indices 1 2 3 4 5 6 
#
# 1 101.5066 55.0175 66.7445 0.0000 -50.4276 0.0000
# 2 55.0175 154.6193 71.7562 0.0000 -57.8737 0.0000
# 3 66.7445 71.7562 143.4437 0.0000 -36.4998 0.0000
# 4 0.0000 0.0000 0.0000 9.8270 0.0000 -10.8639
# 5 -50.4276 -57.8737 -36.4998 0.0000 73.5150 0.0000
# 6 0.0000 0.0000 0.0000 -10.8639 0.0000 17.7420
#
#
#
# Elastic Compliance Matrix: (Units=1/GPa)
#
#
# Indices 1 2 3 4 5 6 
#
# 1 0.018859 -0.000200 -0.006208 0.000000 0.009697 0.000000
# 2 -0.000200 0.010608 -0.003575 0.000000 0.006439 0.000000
# 3 -0.006208 -0.003575 0.011273 0.000000 -0.001476 0.000000
# 4 0.000000 0.000000 0.000000 0.314994 0.000000 0.192880
# 5 0.009697 0.006439 -0.001476 0.000000 0.024590 0.000000
# 6 0.000000 0.000000 0.000000 0.192880 0.000000 0.174469
#
#
# Mechanical properties :
#
#
# Convention : Reuss Voigt Hill
#
# Bulk Modulus (GPa) = 48.13739 87.40067 67.76903
# Shear Modulus (GPa) = 8.59575 33.95356 21.27466
#
# Velocity S-wave (km/s) = 1.90644 3.78899 2.99925
# Velocity P-wave (km/s) = 5.01993 7.48981 6.37561
#
# Compressibility (1/GPa) = 0.02077387
#
# Stress axis : x y z
#
# Youngs Moduli (GPa) = 53.02477 94.27083 88.71049
#
# Poissons Ratio (x) = 0.01888 0.55068
# Poissons Ratio (y) = 0.01062 0.31713
# Poissons Ratio (z) = 0.32916 0.33701
#
# Static dielectric constant tensor:
#      x y z
#    x 2.010750 0.000000 0.078610 
#    y 0.000000 1.864740 0.000000 
#    z 0.078610 0.000000 1.904360 
# 
# From -- ./inp_files/243616.got.cif
#   From: 2010.05.17/outbox.cif.g08.bks.cpg/sg12_122_cif.got.tgz:243616.got - 2010.06.03 13:09:07.
