data_PCOD9171820
_publ_section_title
;
Structure prediction by ZEFSAII (Michael W. Deem and Ramdas Pophale) SiO2 
 PCOD9171820
Probable space group: C 2/M
;
_chemical_formula_sum "Si O2"
_cell_formula_units_Z 64
_cell_length_a 30.086723
_cell_length_b 24.838277
_cell_length_c 8.928966
_cell_angle_alpha 90.000000
_cell_angle_beta 151.457787
_cell_angle_gamma 90.000000
_cell_volume 3188.226864
_symmetry_space_group_name_H-M "C 2/M"
_symmetry_group_IT_number 12
_symmetry_cell_setting 'monoclinic'
loop_
_space_group_symop_operation_xyz
x,y,z
-x,y,-z
-x,-y,-z
x,-y,z
1/2+x,1/2+y,z
1/2-x,1/2+y,-z
1/2-x,1/2-y,-z
1/2+x,1/2-y,z
loop_
_atom_site_type_symbol
_atom_site_label
_atom_site_fract_x
_atom_site_fract_y
_atom_site_fract_z
Si Si1 0.103314 0.060731 0.873678
Si Si2 0.102018 0.438770 0.370859
Si Si3 0.712042 0.162228 0.057364
Si Si4 0.602005 0.939485 0.733407
Si Si5 0.745530 0.356806 0.167872
Si Si6 0.100662 0.231391 0.725786
Si Si7 0.483551 0.439397 0.776804
Si Si8 0.586680 0.675001 0.368660
O O1 0.000000 0.065288 0.500000
O O2 0.080192 0.073315 0.977767
O O3 0.136147 0.000000 0.962567
O O4 0.170216 0.097527 0.979130
O O5 0.137197 0.500000 0.438455
O O6 0.097086 0.436384 0.537680
O O7 0.162993 0.387363 0.498692
O O8 0.000000 0.434829 0.000000
O O9 0.813788 0.177766 0.419025
O O10 0.673369 0.105556 0.999203
O O11 0.730090 0.155911 0.932085
O O12 0.634407 0.207729 0.847053
O O13 0.500000 0.930464 0.500000
O O14 0.631782 0.000000 0.861702
O O15 0.687001 0.304310 0.045318
O O16 0.089346 0.215842 0.516584
O O17 0.000000 0.220226 0.500000
O O18 0.451723 0.500000 0.630302
O O19 0.422259 0.385461 0.587315
O O20 0.500000 0.444747 0.000000
O O21 0.500000 0.683036 0.000000
#
# Coordination Sequence:
#
# PCOD9171820 Si02
#       8
#     8   8   8   8   8   8   8   8
#     4  10  18  28  48  79 108 137 182 230 265 312
#     4   9  18  33  53  80 114 147 181 229 282 324
#     4  10  21  37  57  81 109 145 184 226 284 344
#     4   9  18  35  58  81 105 139 185 230 275 336
#     4  10  18  32  54  79 104 141 185 223 267 328
#     4  11  22  39  59  79 108 145 187 233 285 341
#     4   9  18  32  49  74 113 153 179 210 267 326
#     4  10  20  36  57  81 111 145 185 230 273 326
#
# _framework density 20.073854999999998
#
# number of rings (size 3 to 8) (size 9 to 14) (size 15 to 20)
#    0.000    2.250    0.000    4.875    0.000    1.000 
#    0.000   11.875    0.000    9.000    0.000    0.000 
#    0.000    0.000    0.000    0.000    0.000    0.000 
#
# Total GULP energy -178147.819613 kJ/mol
# GULP energy per Si atom -5567.119363 kJ/mol
# Density = 2.002817 g / cm^3
# Si number density = 20.073855 Si / 1000 Ang^3
#
#
#
# Elastic Constant Matrix: (Units=GPa)
#
#
# Indices 1 2 3 4 5 6 
#
# 1 45.6033 19.3395 16.0125 0.0000 14.5436 0.0000
# 2 19.3395 79.2520 33.5922 0.0000 18.3592 0.0000
# 3 16.0125 33.5922 95.4076 0.0000 12.6497 0.0000
# 4 0.0000 0.0000 0.0000 -12.9871 0.0000 26.5331
# 5 14.5436 18.3592 12.6497 0.0000 27.5874 0.0000
# 6 0.0000 0.0000 0.0000 26.5331 0.0000 29.3021
#
#
#
# Elastic Compliance Matrix: (Units=1/GPa)
#
#
# Indices 1 2 3 4 5 6 
#
# 1 0.027673 -0.003247 -0.001973 0.000000 -0.011523 0.000000
# 2 -0.003247 0.017058 -0.004454 0.000000 -0.007598 0.000000
# 3 -0.001973 -0.004454 0.012617 0.000000 -0.001781 0.000000
# 4 0.000000 0.000000 0.000000 -0.027018 0.000000 0.024465
# 5 -0.011523 -0.007598 -0.001781 0.000000 0.048196 0.000000
# 6 0.000000 0.000000 0.000000 0.024465 0.000000 0.011975
#
#
# Mechanical properties :
#
#
# Convention : Reuss Voigt Hill
#
# Bulk Modulus (GPa) = 26.31601 39.79458 33.05530
# Shear Modulus (GPa) = 40.81096 18.86841 29.83969
#
# Velocity S-wave (km/s) = 4.51382 3.06919 3.85969
# Velocity P-wave (km/s) = 6.34855 5.69447 6.03039
#
# Compressibility (1/GPa) = 0.03799968
#
# Stress axis : x y z
#
# Youngs Moduli (GPa) = 36.13627 58.62253 79.25954
#
# Poissons Ratio (x) = 0.19035 0.15641
# Poissons Ratio (y) = 0.11734 0.35300
# Poissons Ratio (z) = 0.07131 0.26109
#
# Static dielectric constant tensor:
#      x y z
#    x 1.782850 0.000000 0.003270 
#    y 0.000000 1.757910 0.000000 
#    z 0.003270 0.000000 1.736290 
# 
# From -- ./inp_files/113657.got.cif
#   From: 2010.05.17/outbox.cif.g08.bks.cpg/sg12_57_cif.got.tgz:113657.got - 2010.06.03 13:09:07.
