data_PCOD9171628
_publ_section_title
;
Structure prediction by ZEFSAII (Michael W. Deem and Ramdas Pophale) SiO2 
 PCOD9171628
Probable space group: C 2/M
;
_chemical_formula_sum "Si O2"
_cell_formula_units_Z 48
_cell_length_a 22.229820
_cell_length_b 14.591385
_cell_length_c 25.764796
_cell_angle_alpha 90.000000
_cell_angle_beta 21.711448
_cell_angle_gamma 90.000000
_cell_volume 3091.587450
_symmetry_space_group_name_H-M "C 2/M"
_symmetry_group_IT_number 12
_symmetry_cell_setting 'monoclinic'
loop_
_space_group_symop_operation_xyz
x,y,z
-x,y,-z
-x,-y,-z
x,-y,z
1/2+x,1/2+y,z
1/2-x,1/2+y,-z
1/2-x,1/2-y,-z
1/2+x,1/2-y,z
loop_
_atom_site_type_symbol
_atom_site_label
_atom_site_fract_x
_atom_site_fract_y
_atom_site_fract_z
Si Si1 0.575385 0.604120 0.215267
Si Si2 0.828041 0.111128 0.263753
Si Si3 0.193697 0.892145 0.835361
Si Si4 0.600811 0.206569 0.241154
Si Si5 0.310483 0.391278 0.991287
Si Si6 0.204114 0.607184 0.472600
O O1 0.604749 0.500000 0.209645
O O2 0.608737 0.684473 0.228740
O O3 0.676895 0.619211 0.080724
O O4 0.386447 0.610459 0.349087
O O5 0.773270 0.138058 0.250324
O O6 0.718919 0.137393 0.400451
O O7 0.014665 0.138894 0.125375
O O8 0.831188 0.000000 0.261759
O O9 0.289216 0.833609 0.800824
O O10 0.237828 0.000000 0.805564
O O11 0.000000 0.886219 0.000000
O O12 0.420479 0.169877 0.396780
O O13 0.669975 0.163451 0.132510
O O14 0.293005 0.500000 0.016374
O O15 0.152123 0.500000 0.515919
#
# Coordination Sequence:
#
# PCOD9171628 Si02
#       6
#     8   8   8   8   8   8
#     4   9  20  35  46  61  94 129 154 186 232 267
#     4   8  15  29  44  64 100 129 137 164 233 291
#     4  10  18  28  45  72 100 120 143 182 230 279
#     4  12  19  27  48  74  92 117 161 190 215 269
#     4   9  16  29  48  69  93 120 147 185 230 275
#     4   9  18  31  47  69  96 120 144 185 232 277
#
# _framework density 15.526005
#
# number of rings (size 3 to 8) (size 9 to 14) (size 15 to 20)
#    0.000    2.500    1.667    4.500    0.000    0.667 
#    0.000    2.500    0.000    0.500    0.000    2.333 
#    0.000    0.000    0.000    0.000    0.000    0.000 
#
# Total GULP energy -133783.107704 kJ/mol
# GULP energy per Si atom -5574.296154 kJ/mol
# Density = 1.549067 g / cm^3
# Si number density = 15.526005 Si / 1000 Ang^3
#
#
#
# Elastic Constant Matrix: (Units=GPa)
#
#
# Indices 1 2 3 4 5 6 
#
# 1 49.8082 44.0781 12.4039 -0.0267 4.8569 0.0135
# 2 44.0781 82.6864 32.5493 -0.4270 16.4101 0.3025
# 3 12.4039 32.5493 78.5771 -0.4421 21.1107 0.3179
# 4 -0.0267 -0.4270 -0.4421 -39.4250 0.1766 46.4247
# 5 4.8569 16.4101 21.1107 0.1766 13.4323 -0.1274
# 6 0.0135 0.3025 0.3179 46.4247 -0.1274 -16.0900
#
#
#
# Elastic Compliance Matrix: (Units=1/GPa)
#
#
# Indices 1 2 3 4 5 6 
#
# 1 0.040297 -0.024474 -0.000587 0.000146 0.016248 -0.000145
# 2 -0.024474 0.031087 -0.002061 -0.000185 -0.025886 0.000193
# 3 -0.000587 -0.002061 0.022391 -0.000168 -0.032456 0.000174
# 4 0.000146 -0.000185 -0.000168 0.010582 0.000588 0.030521
# 5 0.016248 -0.025886 -0.032456 0.000588 0.151191 -0.000613
# 6 -0.000145 0.000193 0.000174 0.030521 -0.000613 0.025925
#
#
# Mechanical properties :
#
#
# Convention : Reuss Voigt Hill
#
# Bulk Modulus (GPa) = 25.29659 43.23714 34.26686
# Shear Modulus (GPa) = 14.33097 -0.28051 7.02523
#
# Velocity S-wave (km/s) = 3.04144 -0.42552 2.12947
# Velocity P-wave (km/s) = 5.35371 5.25997 5.30704
#
# Compressibility (1/GPa) = 0.03953102
#
# Stress axis : x y z
#
# Youngs Moduli (GPa) = 24.81573 32.16750 44.66102
#
# Poissons Ratio (x) = 0.78725 0.02622
# Poissons Ratio (y) = 0.60733 0.09207
# Poissons Ratio (z) = 0.01457 0.06631
#
# Static dielectric constant tensor:
#      x y z
#    x 1.522600 0.000000 0.013050 
#    y 0.000000 1.499160 0.000010 
#    z 0.013050 0.000010 1.536970 
# 
# From -- ./inp_files/85126.got.cif
#   From: 2010.05.17/outbox.cif.g08.bks.cpg/sg12_43_cif.got.tgz:85126.got - 2010.06.03 13:09:07.
