data_PCOD9171397
_publ_section_title
;
Structure prediction by ZEFSAII (Michael W. Deem and Ramdas Pophale) SiO2 
 PCOD9171397
Probable space group: C 2/M
;
_chemical_formula_sum "Si O2"
_cell_formula_units_Z 64
_cell_length_a 24.823904
_cell_length_b 7.566205
_cell_length_c 19.120121
_cell_angle_alpha 90.000000
_cell_angle_beta 118.370454
_cell_angle_gamma 90.000000
_cell_volume 3159.868744
_symmetry_space_group_name_H-M "C 2/M"
_symmetry_group_IT_number 12
_symmetry_cell_setting 'monoclinic'
loop_
_space_group_symop_operation_xyz
x,y,z
-x,y,-z
-x,-y,-z
x,-y,z
1/2+x,1/2+y,z
1/2-x,1/2+y,-z
1/2-x,1/2-y,-z
1/2+x,1/2-y,z
loop_
_atom_site_type_symbol
_atom_site_label
_atom_site_fract_x
_atom_site_fract_y
_atom_site_fract_z
Si Si1 0.036088 0.216979 0.591108
Si Si2 0.528208 0.297104 0.940920
Si Si3 0.503678 0.286923 0.281215
Si Si4 0.086780 0.786602 0.216063
Si Si5 0.633157 0.210365 0.845525
Si Si6 0.832234 0.203302 0.288935
Si Si7 0.835089 0.700352 0.986030
Si Si8 0.701315 0.788513 0.188269
O O1 0.004743 0.274505 0.644420
O O2 0.106579 0.279391 0.638664
O O3 0.000000 0.272347 0.500000
O O4 0.037063 0.000000 0.592498
O O5 0.541603 0.500000 0.926517
O O6 0.472722 0.221813 0.862374
O O7 0.591554 0.196208 0.979887
O O8 0.500000 0.305761 0.000000
O O9 0.503968 0.500000 0.282710
O O10 0.566537 0.230987 0.281712
O O11 0.440603 0.238590 0.201318
O O12 0.146746 0.736194 0.209931
O O13 0.086580 0.000000 0.214101
O O14 0.656330 0.292649 0.787684
O O15 0.667250 0.278395 0.936658
O O16 0.643278 0.000000 0.848683
O O17 0.765287 0.283394 0.257437
O O18 0.829265 0.000000 0.310745
O O19 0.811270 0.500000 0.976132
O O20 0.810672 0.782316 0.898292
O O21 0.707342 0.000000 0.183149
#
# Coordination Sequence:
#
# PCOD9171397 Si02
#       8
#     8   8   8   8   8   8   8   8
#     4   8  14  28  54  81  95 109 144 192 235 278
#     4  10  18  28  42  62  88 120 161 203 237 267
#     4   9  17  30  49  73  99 123 150 190 237 280
#     4  10  19  30  46  68  94 125 161 197 234 274
#     4  10  19  30  46  68  93 122 158 201 240 273
#     4   9  19  35  51  68  93 124 156 191 234 284
#     4  10  20  30  42  63  91 123 162 201 236 270
#     4  10  21  34  46  63  92 131 167 195 229 275
#
# _framework density 20.254007000000001
#
# number of rings (size 3 to 8) (size 9 to 14) (size 15 to 20)
#    0.000    2.500    2.500    1.125    0.000    2.750 
#    0.000    0.000    0.000    6.750    0.000    0.000 
#    0.000    0.000    0.000    0.000    0.000    0.000 
#
# Total GULP energy -178306.266785 kJ/mol
# GULP energy per Si atom -5572.070837 kJ/mol
# Density = 2.020791 g / cm^3
# Si number density = 20.254007 Si / 1000 Ang^3
#
#
#
# Elastic Constant Matrix: (Units=GPa)
#
#
# Indices 1 2 3 4 5 6 
#
# 1 74.4359 -6.1877 60.7592 0.0000 15.6855 0.0000
# 2 -6.1877 52.8915 5.5569 0.0000 0.9841 0.0000
# 3 60.7592 5.5569 141.6753 0.0000 5.4645 0.0000
# 4 0.0000 0.0000 0.0000 6.2406 0.0000 -4.8288
# 5 15.6855 0.9841 5.4645 0.0000 21.2358 0.0000
# 6 0.0000 0.0000 0.0000 -4.8288 0.0000 13.0032
#
#
#
# Elastic Compliance Matrix: (Units=1/GPa)
#
#
# Indices 1 2 3 4 5 6 
#
# 1 0.026074 0.004487 -0.010713 0.000000 -0.016710 0.000000
# 2 0.004487 0.019767 -0.002562 0.000000 -0.003571 0.000000
# 3 -0.010713 -0.002562 0.011558 0.000000 0.005058 0.000000
# 4 0.000000 0.000000 0.000000 0.224852 0.000000 0.083500
# 5 -0.016710 -0.003571 0.005058 0.000000 0.058297 0.000000
# 6 0.000000 0.000000 0.000000 0.083500 0.000000 0.107912
#
#
# Mechanical properties :
#
#
# Convention : Reuss Voigt Hill
#
# Bulk Modulus (GPa) = 25.11166 43.25107 34.18136
# Shear Modulus (GPa) = 10.43163 22.02086 16.22624
#
# Velocity S-wave (km/s) = 2.27191 3.30090 2.83351
# Velocity P-wave (km/s) = 4.39402 5.99405 5.25528
#
# Compressibility (1/GPa) = 0.03982214
#
# Stress axis : x y z
#
# Youngs Moduli (GPa) = 38.35309 50.58905 86.51734
#
# Poissons Ratio (x) = -0.22698 0.92690
# Poissons Ratio (y) = -0.17208 0.22164
# Poissons Ratio (z) = 0.41089 0.12960
#
# Static dielectric constant tensor:
#      x y z
#    x 1.760570 0.000000 -0.022470 
#    y 0.000000 1.824720 0.000000 
#    z -0.022470 0.000000 1.732260 
# 
# From -- ./inp_files/323739.got.cif
#   From: 2010.05.17/outbox.cif.g08.bks.cpg/sg12_162_cif.got.tgz:323739.got - 2010.06.03 13:09:07.
