data_PCOD9171876
_publ_section_title
;
Structure prediction by ZEFSAII (Michael W. Deem and Ramdas Pophale) SiO2 
 PCOD9171876
Probable space group: C 2/M
;
_chemical_formula_sum "Si O2"
_cell_formula_units_Z 40
_cell_length_a 8.486907
_cell_length_b 29.581806
_cell_length_c 10.212784
_cell_angle_alpha 90.000000
_cell_angle_beta 43.073903
_cell_angle_gamma 90.000000
_cell_volume 1751.062079
_symmetry_space_group_name_H-M "C 2/M"
_symmetry_group_IT_number 12
_symmetry_cell_setting 'monoclinic'
loop_
_space_group_symop_operation_xyz
x,y,z
-x,y,-z
-x,-y,-z
x,-y,z
1/2+x,1/2+y,z
1/2-x,1/2+y,-z
1/2-x,1/2-y,-z
1/2+x,1/2-y,z
loop_
_atom_site_type_symbol
_atom_site_label
_atom_site_fract_x
_atom_site_fract_y
_atom_site_fract_z
Si Si1 0.310764 0.553310 0.232909
Si Si2 0.124269 0.187009 0.293888
Si Si3 0.171088 0.910106 0.196140
Si Si4 0.962884 0.553482 0.235122
Si Si5 0.013404 0.765606 0.856853
O O1 0.289652 0.500000 0.278603
O O2 0.418870 0.578916 0.291536
O O3 0.074777 0.569065 0.305033
O O4 0.500000 0.556517 0.000000
O O5 0.220451 0.143333 0.161824
O O6 0.940140 0.208910 0.305429
O O7 0.314384 0.224069 0.221560
O O8 0.000000 0.171352 0.500000
O O9 0.240682 0.925582 0.299603
O O10 0.339453 0.936133 0.993556
O O11 0.930457 0.500000 0.265800
O O12 0.750000 0.750000 0.000000
O O13 0.000000 0.793917 0.000000
#
# Coordination Sequence:
#
# PCOD9171876 Si02
#       5
#     8   8   8   8   8
#     4   8  14  27  46  76 112 149 192 244 297 344
#     4  11  23  40  59  87 126 161 195 246 325 387
#     4  10  18  28  52  80 114 146 199 247 296 349
#     4   9  17  29  52  83 117 156 202 254 301 343
#     4   9  21  40  65  86 110 150 205 254 299 360
#
# _framework density 22.843278999999999
#
# number of rings (size 3 to 8) (size 9 to 14) (size 15 to 20)
#    0.000    2.600    0.000    4.200    8.400    2.400 
#    3.600    0.000    0.000    5.400    0.000    2.800 
#    0.000    0.000    0.000    0.000    0.000    0.000 
#
# Total GULP energy -111504.033635 kJ/mol
# GULP energy per Si atom -5575.201682 kJ/mol
# Density = 2.279129 g / cm^3
# Si number density = 22.843279 Si / 1000 Ang^3
#
#
#
# Elastic Constant Matrix: (Units=GPa)
#
#
# Indices 1 2 3 4 5 6 
#
# 1 225.1060 66.0875 41.3416 0.0000 45.5342 0.0000
# 2 66.0875 74.1504 -4.8657 0.0000 18.3552 0.0000
# 3 41.3416 -4.8657 50.1008 0.0000 10.5192 0.0000
# 4 0.0000 0.0000 0.0000 -4.1768 0.0000 -0.8360
# 5 45.5342 18.3552 10.5192 0.0000 46.6014 0.0000
# 6 0.0000 0.0000 0.0000 -0.8360 0.0000 9.2756
#
#
#
# Elastic Compliance Matrix: (Units=1/GPa)
#
#
# Indices 1 2 3 4 5 6 
#
# 1 0.008646 -0.007161 -0.006979 0.000000 -0.004052 0.000000
# 2 -0.007161 0.021263 0.008674 0.000000 -0.003336 0.000000
# 3 -0.006979 0.008674 0.027133 0.000000 -0.002722 0.000000
# 4 0.000000 0.000000 0.000000 -0.235178 0.000000 -0.021196
# 5 -0.004052 -0.003336 -0.002722 0.000000 0.027347 0.000000
# 6 0.000000 0.000000 0.000000 -0.021196 0.000000 0.105900
#
#
# Mechanical properties :
#
#
# Convention : Reuss Voigt Hill
#
# Bulk Modulus (GPa) = 21.68677 61.60934 41.64805
# Shear Modulus (GPa) = -268.98432 26.79296 -121.09568
#
# Velocity S-wave (km/s) = -10.86313 3.42848 -7.28880
# Velocity P-wave (km/s) = 12.15851 6.53465 7.25009
#
# Compressibility (1/GPa) = 0.04611106
#
# Stress axis : x y z
#
# Youngs Moduli (GPa) = 115.65956 47.02937 36.85598
#
# Poissons Ratio (x) = 0.33677 0.25722
# Poissons Ratio (y) = 0.82821 -0.31970
# Poissons Ratio (z) = 0.80720 -0.40795
#
# Static dielectric constant tensor:
#      x y z
#    x 1.901390 0.000000 -0.005750 
#    y 0.000000 1.802600 0.000000 
#    z -0.005750 0.000000 1.949480 
# 
# From -- ./inp_files/40328.got.cif
#   From: 2010.05.17/outbox.cif.g08.bks.cpg/sg12_21_cif.got.tgz:40328.got - 2010.06.03 13:09:07.
