data_PCOD9171297
_publ_section_title
;
Structure prediction by ZEFSAII (Michael W. Deem and Ramdas Pophale) SiO2 
 PCOD9171297
Probable space group: C 2/M
;
_chemical_formula_sum "Si O2"
_cell_formula_units_Z 56
_cell_length_a 19.416178
_cell_length_b 13.746126
_cell_length_c 14.478948
_cell_angle_alpha 90.000000
_cell_angle_beta 119.805054
_cell_angle_gamma 90.000000
_cell_volume 3353.215679
_symmetry_space_group_name_H-M "C 2/M"
_symmetry_group_IT_number 12
_symmetry_cell_setting 'monoclinic'
loop_
_space_group_symop_operation_xyz
x,y,z
-x,y,-z
-x,-y,-z
x,-y,z
1/2+x,1/2+y,z
1/2-x,1/2+y,-z
1/2-x,1/2-y,-z
1/2+x,1/2-y,z
loop_
_atom_site_type_symbol
_atom_site_label
_atom_site_fract_x
_atom_site_fract_y
_atom_site_fract_z
Si Si1 0.172784 0.887923 0.177496
Si Si2 0.824555 0.617860 0.169853
Si Si3 0.213746 0.108204 0.417093
Si Si4 0.365363 0.190677 0.616003
Si Si5 0.980956 0.382801 0.381295
Si Si6 0.588723 0.195794 0.150475
Si Si7 0.412220 0.884502 0.043972
O O1 0.238033 0.852053 0.147163
O O2 0.214964 0.888223 0.306388
O O3 0.102800 0.809728 0.138655
O O4 0.149124 0.000000 0.142703
O O5 0.821782 0.500000 0.169821
O O6 0.894014 0.646995 0.287675
O O7 0.853486 0.646469 0.086949
O O8 0.299809 0.129434 0.517191
O O9 0.157339 0.195988 0.411466
O O10 0.186843 0.000000 0.425391
O O11 0.451659 0.165149 0.636202
O O12 0.364209 0.170818 0.724840
O O13 0.986384 0.500000 0.374518
O O14 0.000000 0.359370 0.500000
O O15 0.496952 0.169397 0.106911
O O16 0.616664 0.137687 0.078701
O O17 0.426814 0.000000 0.063898
#
# Coordination Sequence:
#
# PCOD9171297 Si02
#       7
#     8   8   8   8   8   8   8
#     4   9  18  33  50  71  98 126 157 195 240 288
#     4   9  17  30  47  68  97 127 153 193 245 281
#     4   9  18  30  46  70  99 125 154 194 239 286
#     4  10  18  29  47  71  96 123 160 195 233 288
#     4  10  18  27  45  72  97 121 152 195 243 283
#     4  10  19  31  49  71  96 127 162 192 237 283
#     4  10  20  33  48  71  99 125 159 201 239 282
#
# _framework density 16.700388
#
# number of rings (size 3 to 8) (size 9 to 14) (size 15 to 20)
#    0.000    2.429    1.429    2.143    0.000    4.571 
#    0.000    1.429    0.000    0.429    0.000    4.000 
#    0.000    0.000    0.000    0.000    0.000    0.000 
#
# Total GULP energy -155987.489841 kJ/mol
# GULP energy per Si atom -5570.981780 kJ/mol
# Density = 1.666238 g / cm^3
# Si number density = 16.700388 Si / 1000 Ang^3
#
#
#
# Elastic Constant Matrix: (Units=GPa)
#
#
# Indices 1 2 3 4 5 6 
#
# 1 51.4180 36.4348 10.1763 0.0000 -11.9160 0.0000
# 2 36.4348 63.0219 28.9189 0.0000 -5.3334 0.0000
# 3 10.1763 28.9189 46.6448 0.0000 -8.4516 0.0000
# 4 0.0000 0.0000 0.0000 20.5361 0.0000 1.2132
# 5 -11.9160 -5.3334 -8.4516 0.0000 20.2414 0.0000
# 6 0.0000 0.0000 0.0000 1.2132 0.0000 17.8401
#
#
#
# Elastic Compliance Matrix: (Units=1/GPa)
#
#
# Indices 1 2 3 4 5 6 
#
# 1 0.042165 -0.028123 0.012324 0.000000 0.022558 0.000000
# 2 -0.028123 0.040934 -0.021949 0.000000 -0.014935 0.000000
# 3 0.012324 -0.021949 0.035295 0.000000 0.016209 0.000000
# 4 0.000000 0.000000 0.000000 0.048891 0.000000 -0.003325
# 5 0.022558 -0.014935 0.016209 0.000000 0.065517 0.000000
# 6 0.000000 0.000000 0.000000 -0.003325 0.000000 0.056279
#
#
# Mechanical properties :
#
#
# Convention : Reuss Voigt Hill
#
# Bulk Modulus (GPa) = 23.31096 34.68274 28.99685
# Shear Modulus (GPa) = 13.19691 17.42717 15.31204
#
# Velocity S-wave (km/s) = 2.81413 3.23386 3.03127
# Velocity P-wave (km/s) = 4.95457 5.89546 5.44538
#
# Compressibility (1/GPa) = 0.04289827
#
# Stress axis : x y z
#
# Youngs Moduli (GPa) = 23.71623 24.42950 28.33280
#
# Poissons Ratio (x) = 0.68703 -0.34918
# Poissons Ratio (y) = 0.66697 0.62188
# Poissons Ratio (z) = -0.29228 0.53620
#
# Static dielectric constant tensor:
#      x y z
#    x 1.549770 0.000000 -0.009810 
#    y 0.000000 1.563390 0.000000 
#    z -0.009810 0.000000 1.593740 
# 
# From -- ./inp_files/231975.got.cif
#   From: 2010.05.17/outbox.cif.g08.bks.cpg/sg12_116_cif.got.tgz:231975.got - 2010.06.03 13:09:07.
