data_PCOD9171816
_publ_section_title
;
Structure prediction by ZEFSAII (Michael W. Deem and Ramdas Pophale) SiO2 
 PCOD9171816
Probable space group: C 2/M
;
_chemical_formula_sum "Si O2"
_cell_formula_units_Z 56
_cell_length_a 14.188509
_cell_length_b 18.385196
_cell_length_c 13.690415
_cell_angle_alpha 90.000000
_cell_angle_beta 116.153096
_cell_angle_gamma 90.000000
_cell_volume 3205.633849
_symmetry_space_group_name_H-M "C 2/M"
_symmetry_group_IT_number 12
_symmetry_cell_setting 'monoclinic'
loop_
_space_group_symop_operation_xyz
x,y,z
-x,y,-z
-x,-y,-z
x,-y,z
1/2+x,1/2+y,z
1/2-x,1/2+y,-z
1/2-x,1/2-y,-z
1/2+x,1/2-y,z
loop_
_atom_site_type_symbol
_atom_site_label
_atom_site_fract_x
_atom_site_fract_y
_atom_site_fract_z
Si Si1 0.464419 0.080611 0.204183
Si Si2 0.057025 0.720464 0.159184
Si Si3 0.422934 0.881957 0.550208
Si Si4 0.187987 0.916074 0.371667
Si Si5 0.275713 0.415519 0.843199
Si Si6 0.363975 0.735522 0.598091
Si Si7 0.352557 0.279669 0.992474
O O1 0.504904 0.141820 0.149647
O O2 0.541622 0.083373 0.332166
O O3 0.348366 0.097084 0.193601
O O4 0.462319 0.000000 0.160413
O O5 0.126307 0.738584 0.285200
O O6 0.121904 0.729724 0.090115
O O7 0.956778 0.774444 0.105996
O O8 0.500000 0.905614 0.500000
O O9 0.305512 0.904142 0.467346
O O10 0.433788 0.794360 0.572052
O O11 0.196812 0.903706 0.258417
O O12 0.119764 0.851409 0.389513
O O13 0.155767 0.000000 0.373380
O O14 0.297896 0.500000 0.875293
O O15 0.334919 0.359405 0.939972
O O16 0.250000 0.750000 0.500000
O O17 0.250000 0.250000 0.000000
#
# Coordination Sequence:
#
# PCOD9171816 Si02
#       7
#     8   8   8   8   8   8   8
#     4  10  19  32  51  79 111 139 175 225 279 328
#     4  10  21  36  55  80 104 145 188 217 272 328
#     4  10  18  28  48  78 109 138 175 216 268 329
#     4  10  18  30  49  75 106 138 172 220 273 314
#     4  10  19  32  52  78 108 137 175 231 276 310
#     4   9  19  34  51  76 109 137 175 221 263 321
#     4  11  21  37  56  75 108 146 185 219 266 321
#
# _framework density 17.469244
#
# number of rings (size 3 to 8) (size 9 to 14) (size 15 to 20)
#    0.000    2.000    4.286    0.429    0.000    0.571 
#    0.000    4.286    0.000    0.429    0.000    0.000 
#    0.000    0.000    0.000    0.000    0.000    0.000 
#
# Total GULP energy -155979.081625 kJ/mol
# GULP energy per Si atom -5570.681487 kJ/mol
# Density = 1.742948 g / cm^3
# Si number density = 17.469244 Si / 1000 Ang^3
#
#
#
# Elastic Constant Matrix: (Units=GPa)
#
#
# Indices 1 2 3 4 5 6 
#
# 1 51.6226 20.1437 17.4695 0.0000 -5.1334 0.0000
# 2 20.1437 130.6566 21.9100 0.0000 -3.6437 0.0000
# 3 17.4695 21.9100 89.7610 0.0000 2.0564 0.0000
# 4 0.0000 0.0000 0.0000 24.8408 0.0000 1.4139
# 5 -5.1334 -3.6437 2.0564 0.0000 15.0104 0.0000
# 6 0.0000 0.0000 0.0000 1.4139 0.0000 22.4688
#
#
#
# Elastic Compliance Matrix: (Units=1/GPa)
#
#
# Indices 1 2 3 4 5 6 
#
# 1 0.022463 -0.002595 -0.003912 0.000000 0.007588 0.000000
# 2 -0.002595 0.008354 -0.001565 0.000000 0.001355 0.000000
# 3 -0.003912 -0.001565 0.012362 0.000000 -0.003411 0.000000
# 4 0.000000 0.000000 0.000000 0.040401 0.000000 -0.002542
# 5 0.007588 0.001355 -0.003411 0.000000 0.070012 0.000000
# 6 0.000000 0.000000 0.000000 -0.002542 0.000000 0.044666
#
#
# Mechanical properties :
#
#
# Convention : Reuss Voigt Hill
#
# Bulk Modulus (GPa) = 36.99084 43.45406 40.22245
# Shear Modulus (GPa) = 22.37996 26.63179 24.50588
#
# Velocity S-wave (km/s) = 3.58314 3.90872 3.74946
# Velocity P-wave (km/s) = 6.19187 6.73048 6.46679
#
# Compressibility (1/GPa) = 0.02703372
#
# Stress axis : x y z
#
# Youngs Moduli (GPa) = 44.51852 119.70266 80.89156
#
# Poissons Ratio (x) = 0.31069 0.31645
# Poissons Ratio (y) = 0.11555 0.12660
# Poissons Ratio (z) = 0.17416 0.18734
#
# Static dielectric constant tensor:
#      x y z
#    x 1.560910 0.000000 0.010670 
#    y 0.000000 1.650070 0.000000 
#    z 0.010670 0.000000 1.598760 
# 
# From -- ./inp_files/215848.got.cif
#   From: 2010.05.17/outbox.cif.g08.bks.cpg/sg12_108_cif.got.tgz:215848.got - 2010.06.03 13:09:07.
