data_PCOD9171143
_publ_section_title
;
Structure prediction by ZEFSAII (Michael W. Deem and Ramdas Pophale) SiO2 
 PCOD9171143
Probable space group: C 2/M
;
_chemical_formula_sum "Si O2"
_cell_formula_units_Z 48
_cell_length_a 25.313016
_cell_length_b 8.849449
_cell_length_c 22.305803
_cell_angle_alpha 90.000000
_cell_angle_beta 142.098743
_cell_angle_gamma 90.000000
_cell_volume 3069.447980
_symmetry_space_group_name_H-M "C 2/M"
_symmetry_group_IT_number 12
_symmetry_cell_setting 'monoclinic'
loop_
_space_group_symop_operation_xyz
x,y,z
-x,y,-z
-x,-y,-z
x,-y,z
1/2+x,1/2+y,z
1/2-x,1/2+y,-z
1/2-x,1/2-y,-z
1/2+x,1/2-y,z
loop_
_atom_site_type_symbol
_atom_site_label
_atom_site_fract_x
_atom_site_fract_y
_atom_site_fract_z
Si Si1 0.032273 0.825239 0.959545
Si Si2 0.207041 0.181455 0.166840
Si Si3 0.386111 0.317504 0.339611
Si Si4 0.735045 0.317545 0.551655
Si Si5 0.576630 0.316679 0.489131
Si Si6 0.363160 0.180000 0.772399
O O1 0.962544 0.730228 0.860850
O O2 0.029478 0.000000 0.937488
O O3 0.130824 0.772143 0.052788
O O4 0.000000 0.821992 0.000000
O O5 0.301130 0.243562 0.236800
O O6 0.180474 0.244287 0.208479
O O7 0.206418 0.000000 0.168637
O O8 0.379115 0.500000 0.330496
O O9 0.477369 0.270606 0.392708
O O10 0.393317 0.275134 0.416701
O O11 0.733026 0.500000 0.545909
O O12 0.750000 0.250000 0.500000
O O13 0.645437 0.265695 0.501867
O O14 0.810655 0.276670 0.666088
O O15 0.576766 0.500000 0.488741
O O16 0.356747 0.000000 0.774051
#
# Coordination Sequence:
#
# PCOD9171143 Si02
#       6
#     8   8   8   8   8   8
#     4   8  16  28  40  59  90 121 144 174 224 275
#     4  10  18  27  41  65  96 122 143 176 225 275
#     4   9  15  27  48  66  86 119 150 182 221 264
#     4  10  20  33  47  66  90 119 154 187 221 262
#     4   8  15  29  46  64  88 117 150 185 223 263
#     4  10  18  29  45  63  86 117 155 191 217 256
#
# _framework density 15.637991
#
# number of rings (size 3 to 8) (size 9 to 14) (size 15 to 20)
#    0.000    2.833    1.667    3.000    0.000    5.000 
#    0.000    2.500    0.000    0.000    0.000    1.167 
#    0.000    0.000    0.000    0.000    0.000    0.000 
#
# Total GULP energy -133642.764524 kJ/mol
# GULP energy per Si atom -5568.448522 kJ/mol
# Density = 1.560240 g / cm^3
# Si number density = 15.637991 Si / 1000 Ang^3
#
#
#
# Elastic Constant Matrix: (Units=GPa)
#
#
# Indices 1 2 3 4 5 6 
#
# 1 89.5296 21.4380 66.4421 0.0000 17.2605 0.0000
# 2 21.4380 26.6045 36.4976 0.0000 6.5540 0.0000
# 3 66.4421 36.4976 126.3182 0.0000 33.8839 0.0000
# 4 0.0000 0.0000 0.0000 21.3749 0.0000 -0.7136
# 5 17.2605 6.5540 33.8839 0.0000 28.8512 0.0000
# 6 0.0000 0.0000 0.0000 -0.7136 0.0000 15.8175
#
#
#
# Elastic Compliance Matrix: (Units=1/GPa)
#
#
# Indices 1 2 3 4 5 6 
#
# 1 0.018427 -0.002550 -0.008984 0.000000 0.000107 0.000000
# 2 -0.002550 0.064748 -0.020192 0.000000 0.010531 0.000000
# 3 -0.008984 -0.020192 0.023073 0.000000 -0.017136 0.000000
# 4 0.000000 0.000000 0.000000 0.046854 0.000000 0.002114
# 5 0.000107 0.010531 -0.017136 0.000000 0.052329 0.000000
# 6 0.000000 0.000000 0.000000 0.002114 0.000000 0.063316
#
#
# Mechanical properties :
#
#
# Convention : Reuss Voigt Hill
#
# Bulk Modulus (GPa) = 23.36630 54.57863 38.97246
# Shear Modulus (GPa) = 14.43151 21.08036 17.75593
#
# Velocity S-wave (km/s) = 3.04114 3.67553 3.37328
# Velocity P-wave (km/s) = 5.22550 7.27940 6.33623
#
# Compressibility (1/GPa) = 0.04279668
#
# Stress axis : x y z
#
# Youngs Moduli (GPa) = 54.26851 15.44451 43.34124
#
# Poissons Ratio (x) = 0.03938 0.38939
# Poissons Ratio (y) = 0.13836 0.87513
# Poissons Ratio (z) = 0.48756 0.31185
#
# Static dielectric constant tensor:
#      x y z
#    x 1.511270 0.000000 0.041860 
#    y 0.000000 1.526900 0.000000 
#    z 0.041860 0.000000 1.541250 
# 
# From -- ./inp_files/323504.got.cif
#   From: 2010.05.17/outbox.cif.g08.bks.cpg/sg12_162_cif.got.tgz:323504.got - 2010.06.03 13:09:07.
