data_PCOD9171299
_publ_section_title
;
Structure prediction by ZEFSAII (Michael W. Deem and Ramdas Pophale) SiO2 
 PCOD9171299
Probable space group: C 2/M
;
_chemical_formula_sum "Si O2"
_cell_formula_units_Z 56
_cell_length_a 28.153729
_cell_length_b 7.901031
_cell_length_c 14.209243
_cell_angle_alpha 90.000000
_cell_angle_beta 119.282182
_cell_angle_gamma 90.000000
_cell_volume 2756.876941
_symmetry_space_group_name_H-M "C 2/M"
_symmetry_group_IT_number 12
_symmetry_cell_setting 'monoclinic'
loop_
_space_group_symop_operation_xyz
x,y,z
-x,y,-z
-x,-y,-z
x,-y,z
1/2+x,1/2+y,z
1/2-x,1/2+y,-z
1/2-x,1/2-y,-z
1/2+x,1/2-y,z
loop_
_atom_site_type_symbol
_atom_site_label
_atom_site_fract_x
_atom_site_fract_y
_atom_site_fract_z
Si Si1 0.335110 0.697459 0.127064
Si Si2 0.970245 0.695361 0.073145
Si Si3 0.422028 0.303451 0.735310
Si Si4 0.366141 0.801292 0.871948
Si Si5 0.066036 0.792963 0.662334
Si Si6 0.731360 0.301046 0.116058
Si Si7 0.440062 0.706759 0.551881
O O1 0.344327 0.500000 0.115651
O O2 0.391697 0.770794 0.218950
O O3 0.289746 0.713888 0.165139
O O4 0.305474 0.770246 0.006329
O O5 0.965452 0.500000 0.099289
O O6 0.012921 0.788244 0.181217
O O7 0.911106 0.769879 0.990205
O O8 0.000000 0.693126 0.000000
O O9 0.407446 0.500000 0.723700
O O10 0.390304 0.220659 0.791110
O O11 0.412300 0.233863 0.621227
O O12 0.307060 0.724150 0.831654
O O13 0.362897 0.000000 0.887468
O O14 0.082317 0.742103 0.571700
O O15 0.003636 0.742031 0.616105
O O16 0.067051 0.000000 0.665689
O O17 0.740788 0.500000 0.110474
O O18 0.439383 0.500000 0.553584
#
# Coordination Sequence:
#
# PCOD9171299 Si02
#       7
#     8   8   8   8   8   8   8
#     4   9  18  32  52  73  97 128 160 194 239 290
#     4   8  16  29  41  58  89 128 161 187 226 280
#     4  10  18  27  45  72  99 125 158 200 240 278
#     4  10  20  33  47  64  94 132 165 195 237 289
#     4   8  14  28  48  71  99 129 159 193 235 284
#     4  10  20  32  49  74 100 123 159 203 241 282
#     4   8  15  26  45  74 102 126 157 197 236 276
#
# _framework density 20.312837999999999
#
# number of rings (size 3 to 8) (size 9 to 14) (size 15 to 20)
#    0.000    3.000    0.000    3.000    2.000    3.714 
#    0.000    0.000    0.000    2.571    0.000    5.000 
#    0.000    0.000    0.000    0.000    0.000    0.000 
#
# Total GULP energy -156060.650318 kJ/mol
# GULP energy per Si atom -5573.594654 kJ/mol
# Density = 2.026661 g / cm^3
# Si number density = 20.312838 Si / 1000 Ang^3
#
#
#
# Elastic Constant Matrix: (Units=GPa)
#
#
# Indices 1 2 3 4 5 6 
#
# 1 47.7294 -4.5807 -4.2694 0.0000 -8.6604 0.0000
# 2 -4.5807 29.9360 0.0946 0.0000 -0.9350 0.0000
# 3 -4.2694 0.0946 46.9456 0.0000 -7.2218 0.0000
# 4 0.0000 0.0000 0.0000 -3.5877 0.0000 10.0127
# 5 -8.6604 -0.9350 -7.2218 0.0000 27.4608 0.0000
# 6 0.0000 0.0000 0.0000 10.0127 0.0000 11.3761
#
#
#
# Elastic Compliance Matrix: (Units=1/GPa)
#
#
# Indices 1 2 3 4 5 6 
#
# 1 0.023124 0.003787 0.003374 0.000000 0.008309 0.000000
# 2 0.003787 0.034061 0.000665 0.000000 0.002529 0.000000
# 3 0.003374 0.000665 0.022692 0.000000 0.007054 0.000000
# 4 0.000000 0.000000 0.000000 -0.080642 0.000000 0.070978
# 5 0.008309 0.002529 0.007054 0.000000 0.040977 0.000000
# 6 0.000000 0.000000 0.000000 0.070978 0.000000 0.025432
#
#
# Mechanical properties :
#
#
# Convention : Reuss Voigt Hill
#
# Bulk Modulus (GPa) = 10.46805 11.89999 11.18402
# Shear Modulus (GPa) = 61.09759 15.94093 38.51926
#
# Velocity S-wave (km/s) = 5.49032 2.80442 4.35938
# Velocity P-wave (km/s) = 6.73469 4.04443 5.55489
#
# Compressibility (1/GPa) = 0.09552873
#
# Stress axis : x y z
#
# Youngs Moduli (GPa) = 43.24450 29.35907 44.06858
#
# Poissons Ratio (x) = -0.11119 -0.14867
# Poissons Ratio (y) = -0.16378 -0.02930
# Poissons Ratio (z) = -0.14589 -0.01952
#
# Static dielectric constant tensor:
#      x y z
#    x 1.770090 0.000000 -0.021920 
#    y 0.000000 1.723140 0.000000 
#    z -0.021920 0.000000 1.748560 
# 
# From -- ./inp_files/244275.got.cif
#   From: 2010.05.17/outbox.cif.g08.bks.cpg/sg12_123_cif.got.tgz:244275.got - 2010.06.03 13:09:07.
