data_PCOD9171712
_publ_section_title
;
Structure prediction by ZEFSAII (Michael W. Deem and Ramdas Pophale) SiO2 
 PCOD9171712
Probable space group: C 2/M
;
_chemical_formula_sum "Si O2"
_cell_formula_units_Z 64
_cell_length_a 22.589172
_cell_length_b 13.831113
_cell_length_c 20.043553
_cell_angle_alpha 90.000000
_cell_angle_beta 138.477243
_cell_angle_gamma 90.000000
_cell_volume 4151.371644
_symmetry_space_group_name_H-M "C 2/M"
_symmetry_group_IT_number 12
_symmetry_cell_setting 'monoclinic'
loop_
_space_group_symop_operation_xyz
x,y,z
-x,y,-z
-x,-y,-z
x,-y,z
1/2+x,1/2+y,z
1/2-x,1/2+y,-z
1/2-x,1/2-y,-z
1/2+x,1/2-y,z
loop_
_atom_site_type_symbol
_atom_site_label
_atom_site_fract_x
_atom_site_fract_y
_atom_site_fract_z
Si Si1 0.496613 0.233878 0.575654
Si Si2 0.801524 0.203978 0.943154
Si Si3 0.375824 0.616777 0.703776
Si Si4 0.513178 0.613441 0.932051
Si Si5 0.682491 0.113776 0.575274
Si Si6 0.281874 0.387169 0.068742
Si Si7 0.483957 0.614987 0.291467
Si Si8 0.824086 0.387309 0.271813
O O1 0.500000 0.261050 0.500000
O O2 0.404586 0.177291 0.512117
O O3 0.507128 0.323882 0.633806
O O4 0.579609 0.161529 0.656786
O O5 0.778351 0.315013 0.938683
O O6 0.747665 0.166833 0.833855
O O7 0.904761 0.179546 0.020235
O O8 0.770642 0.144236 0.982455
O O9 0.371013 0.500000 0.697479
O O10 0.426304 0.639827 0.815606
O O11 0.273389 0.649770 0.617163
O O12 0.440237 0.646558 0.697628
O O13 0.534690 0.500000 0.934556
O O14 0.500000 0.620076 0.000000
O O15 0.698161 0.118482 0.668414
O O16 0.666677 0.000000 0.545995
O O17 0.262122 0.500000 0.061161
O O18 0.385628 0.370489 0.176652
O O19 0.493893 0.500000 0.311485
O O20 0.826208 0.500000 0.255277
#
# Coordination Sequence:
#
# PCOD9171712 Si02
#       8
#     8   8   8   8   8   8   8   8
#     4  10  20  33  48  70  95 125 165 203 243 288
#     4  11  19  30  51  75 100 130 161 196 239 297
#     4   9  17  30  47  68  95 128 159 192 240 289
#     4  10  18  28  46  76 108 131 156 195 240 292
#     4   9  18  32  49  70  99 128 155 194 244 296
#     4  10  20  33  49  71 100 131 162 201 243 290
#     4  10  19  34  51  67  95 128 164 207 244 279
#     4  10  18  29  47  73 102 128 153 189 241 297
#
# _framework density 15.416591
#
# number of rings (size 3 to 8) (size 9 to 14) (size 15 to 20)
#    0.000    2.125    2.500    2.250    0.000    4.250 
#    0.000    0.000    0.000    0.375    0.000    0.875 
#    0.000    0.000    0.000    0.000    0.000    0.000 
#
# Total GULP energy -178408.389309 kJ/mol
# GULP energy per Si atom -5575.262166 kJ/mol
# Density = 1.538150 g / cm^3
# Si number density = 15.416591 Si / 1000 Ang^3
#
#
#
# Elastic Constant Matrix: (Units=GPa)
#
#
# Indices 1 2 3 4 5 6 
#
# 1 51.4068 24.3510 -2.6618 0.0000 18.7999 0.0000
# 2 24.3510 64.4133 12.7984 0.0000 3.3078 0.0000
# 3 -2.6618 12.7984 34.8036 0.0000 7.6356 0.0000
# 4 0.0000 0.0000 0.0000 18.1126 0.0000 1.1373
# 5 18.7999 3.3078 7.6356 0.0000 25.9528 0.0000
# 6 0.0000 0.0000 0.0000 1.1373 0.0000 23.0265
#
#
#
# Elastic Compliance Matrix: (Units=1/GPa)
#
#
# Indices 1 2 3 4 5 6 
#
# 1 0.039502 -0.016497 0.015933 0.000000 -0.031200 0.000000
# 2 -0.016497 0.023641 -0.012738 0.000000 0.012685 0.000000
# 3 0.015933 -0.012738 0.039351 0.000000 -0.021495 0.000000
# 4 0.000000 0.000000 0.000000 0.055382 0.000000 -0.002735
# 5 -0.031200 0.012685 -0.021495 0.000000 0.065840 0.000000
# 6 0.000000 0.000000 0.000000 -0.002735 0.000000 0.043563
#
#
# Mechanical properties :
#
#
# Convention : Reuss Voigt Hill
#
# Bulk Modulus (GPa) = 13.17707 24.39987 18.78847
# Shear Modulus (GPa) = 15.66509 21.16078 18.41293
#
# Velocity S-wave (km/s) = 3.19112 3.70888 3.45970
# Velocity P-wave (km/s) = 4.70569 5.84828 5.30782
#
# Compressibility (1/GPa) = 0.07588940
#
# Stress axis : x y z
#
# Youngs Moduli (GPa) = 25.31501 42.29957 25.41209
#
# Poissons Ratio (x) = 0.69782 -0.40488
# Poissons Ratio (y) = 0.41762 0.32370
# Poissons Ratio (z) = -0.40334 0.53882
#
# Static dielectric constant tensor:
#      x y z
#    x 1.518140 0.000000 0.003590 
#    y 0.000000 1.487630 0.000000 
#    z 0.003590 0.000000 1.504830 
# 
# From -- ./inp_files/324964.got.cif
#   From: 2010.05.17/outbox.cif.g08.bks.cpg/sg12_163_cif.got.tgz:324964.got - 2010.06.03 13:09:07.
