data_PCOD9171698
_publ_section_title
;
Structure prediction by ZEFSAII (Michael W. Deem and Ramdas Pophale) SiO2 
 PCOD9171698
Probable space group: C 2/M
;
_chemical_formula_sum "Si O2"
_cell_formula_units_Z 48
_cell_length_a 17.764054
_cell_length_b 13.752990
_cell_length_c 26.537749
_cell_angle_alpha 90.000000
_cell_angle_beta 154.026043
_cell_angle_gamma 90.000000
_cell_volume 2839.489629
_symmetry_space_group_name_H-M "C 2/M"
_symmetry_group_IT_number 12
_symmetry_cell_setting 'monoclinic'
loop_
_space_group_symop_operation_xyz
x,y,z
-x,y,-z
-x,-y,-z
x,-y,z
1/2+x,1/2+y,z
1/2-x,1/2+y,-z
1/2-x,1/2-y,-z
1/2+x,1/2-y,z
loop_
_atom_site_type_symbol
_atom_site_label
_atom_site_fract_x
_atom_site_fract_y
_atom_site_fract_z
Si Si1 0.518299 0.116952 0.093211
Si Si2 0.740070 0.193632 0.313579
Si Si3 0.151124 0.882217 0.408543
Si Si4 0.104194 0.883177 0.492967
Si Si5 0.697935 0.109303 0.603661
Si Si6 0.228790 0.882009 0.846974
O O1 0.585755 0.156865 0.186368
O O2 0.658218 0.142886 0.134191
O O3 0.516366 0.000000 0.095110
O O4 0.335066 0.149552 0.960219
O O5 0.768047 0.142340 0.384551
O O6 0.720062 0.307462 0.313047
O O7 0.921067 0.168141 0.394416
O O8 0.174222 0.852225 0.480327
O O9 0.284370 0.860723 0.444307
O O10 0.964945 0.847303 0.276749
O O11 0.145260 0.000000 0.407580
O O12 0.072816 0.000000 0.474141
O O13 0.500000 0.106759 0.500000
O O14 0.770353 0.000000 0.653031
O O15 0.223458 0.000000 0.845309
#
# Coordination Sequence:
#
# PCOD9171698 Si02
#       6
#     8   8   8   8   8   8
#     4   9  15  25  45  72 105 125 142 178 229 295
#     4  11  18  29  44  73  98 126 151 183 240 283
#     4   9  17  31  49  67  94 126 159 193 228 271
#     4  10  18  28  46  73 102 124 143 179 241 301
#     4  10  21  36  48  62  88 127 172 207 226 254
#     4   8  14  25  44  72  97 125 151 179 227 278
#
# _framework density 16.904447000000001
#
# number of rings (size 3 to 8) (size 9 to 14) (size 15 to 20)
#    0.000    2.500    3.333    3.000    0.000    0.667 
#    0.000    0.833    0.000    0.000    0.000    2.333 
#    0.000    0.000    0.000    2.333    0.000    0.000 
#
# Total GULP energy -133658.157615 kJ/mol
# GULP energy per Si atom -5569.089901 kJ/mol
# Density = 1.686597 g / cm^3
# Si number density = 16.904447 Si / 1000 Ang^3
#
#
#
# Elastic Constant Matrix: (Units=GPa)
#
#
# Indices 1 2 3 4 5 6 
#
# 1 106.1046 19.8839 48.8063 0.0016 -18.0979 0.0014
# 2 19.8839 63.8511 10.0384 -0.0001 -14.9090 0.0011
# 3 48.8063 10.0384 101.7061 0.0008 -33.4236 0.0037
# 4 0.0016 -0.0001 0.0008 11.7691 -0.0004 -7.6533
# 5 -18.0979 -14.9090 -33.4236 -0.0004 22.2283 -0.0004
# 6 0.0014 0.0011 0.0037 -7.6533 -0.0004 9.9824
#
#
#
# Elastic Compliance Matrix: (Units=1/GPa)
#
#
# Indices 1 2 3 4 5 6 
#
# 1 0.012656 -0.003219 -0.006086 -0.000002 -0.001007 0.000000
# 2 -0.003219 0.020476 0.006278 -0.000003 0.020552 -0.000005
# 3 -0.006086 0.006278 0.023502 -0.000009 0.034594 -0.000014
# 4 -0.000002 -0.000003 -0.000009 0.169450 -0.000011 0.129914
# 5 -0.001007 0.020552 0.034594 -0.000011 0.109970 -0.000019
# 6 0.000000 -0.000005 -0.000014 0.129914 -0.000019 0.199778
#
#
# Mechanical properties :
#
#
# Convention : Reuss Voigt Hill
#
# Bulk Modulus (GPa) = 19.77131 47.67988 33.72559
# Shear Modulus (GPa) = 8.94858 21.65818 15.30338
#
# Velocity S-wave (km/s) = 2.30328 3.58329 3.01206
# Velocity P-wave (km/s) = 4.33530 6.73696 5.66487
#
# Compressibility (1/GPa) = 0.05057833
#
# Stress axis : x y z
#
# Youngs Moduli (GPa) = 79.01481 48.83796 42.54959
#
# Poissons Ratio (x) = 0.15723 0.25897
# Poissons Ratio (y) = 0.25438 -0.26713
# Poissons Ratio (z) = 0.48091 -0.30661
#
# Static dielectric constant tensor:
#      x y z
#    x 1.596390 0.000000 -0.002140 
#    y 0.000000 1.603750 0.000000 
#    z -0.002140 0.000000 1.575040 
# 
# From -- ./inp_files/343596.got.cif
#   From: 2010.05.17/outbox.cif.g08.bks.cpg/sg12_172_cif.got.tgz:343596.got - 2010.06.03 13:09:07.
