data_PCOD9171986
_publ_section_title
;
Structure prediction by ZEFSAII (Michael W. Deem and Ramdas Pophale) SiO2 
 PCOD9171986
Probable space group: C 2/M
;
_chemical_formula_sum "Si O2"
_cell_formula_units_Z 56
_cell_length_a 28.021021
_cell_length_b 8.460911
_cell_length_c 14.992392
_cell_angle_alpha 90.000000
_cell_angle_beta 76.581027
_cell_angle_gamma 90.000000
_cell_volume 3457.407088
_symmetry_space_group_name_H-M "C 2/M"
_symmetry_group_IT_number 12
_symmetry_cell_setting 'monoclinic'
loop_
_space_group_symop_operation_xyz
x,y,z
-x,y,-z
-x,-y,-z
x,-y,z
1/2+x,1/2+y,z
1/2-x,1/2+y,-z
1/2-x,1/2-y,-z
1/2+x,1/2-y,z
loop_
_atom_site_type_symbol
_atom_site_label
_atom_site_fract_x
_atom_site_fract_y
_atom_site_fract_z
Si Si1 0.209709 0.308681 0.397552
Si Si2 0.641305 0.687847 0.061289
Si Si3 0.133378 0.188094 0.791134
Si Si4 0.055278 0.191824 0.967164
Si Si5 0.681585 0.813940 0.215746
Si Si6 0.284877 0.815305 0.112290
Si Si7 0.818189 0.311452 0.394614
O O1 0.214413 0.500000 0.393049
O O2 0.183747 0.257794 0.317405
O O3 0.182019 0.265462 0.501009
O O4 0.264537 0.239679 0.381511
O O5 0.645542 0.500000 0.047840
O O6 0.592133 0.741000 0.030780
O O7 0.644846 0.730705 0.163215
O O8 0.687135 0.765692 0.989742
O O9 0.175891 0.277458 0.827294
O O10 0.140985 0.232746 0.685348
O O11 0.140718 0.000000 0.799638
O O12 0.082734 0.231405 0.862539
O O13 0.053089 0.000000 0.971818
O O14 0.000000 0.252387 0.000000
O O15 0.736165 0.781773 0.154380
O O16 0.671575 0.000000 0.219350
O O17 0.272478 0.000000 0.115679
O O18 0.822349 0.500000 0.386656
#
# Coordination Sequence:
#
# PCOD9171986 Si02
#       7
#     8   8   8   8   8   8   8
#     4   9  19  31  44  62  90 127 163 195 225 260
#     4  10  20  32  47  67  91 118 151 189 231 278
#     4  10  18  29  47  70  95 122 152 190 235 279
#     4   8  16  32  52  71  90 115 149 189 234 282
#     4  11  20  31  45  63  92 126 158 189 224 266
#     4  11  20  30  44  64  91 124 160 190 221 265
#     4  10  18  29  45  66  91 123 160 195 228 267
#
# _framework density 16.197109999999999
#
# number of rings (size 3 to 8) (size 9 to 14) (size 15 to 20)
#    0.000    2.143    1.429    4.286    0.000    1.143 
#    0.000    0.000    0.000   15.429    0.000    1.000 
#    0.000    8.000    0.000    0.000    0.000    0.000 
#
# Total GULP energy -156154.914079 kJ/mol
# GULP energy per Si atom -5576.961217 kJ/mol
# Density = 1.616024 g / cm^3
# Si number density = 16.197110 Si / 1000 Ang^3
#
#
#
# Elastic Constant Matrix: (Units=GPa)
#
#
# Indices 1 2 3 4 5 6 
#
# 1 61.4658 -1.7679 53.0772 0.0000 -5.2055 0.0000
# 2 -1.7679 17.7443 12.3939 0.0000 2.1881 0.0000
# 3 53.0772 12.3939 133.7236 0.0000 11.2159 0.0000
# 4 0.0000 0.0000 0.0000 24.3882 0.0000 3.7067
# 5 -5.2055 2.1881 11.2159 0.0000 19.4816 0.0000
# 6 0.0000 0.0000 0.0000 3.7067 0.0000 11.9711
#
#
#
# Elastic Compliance Matrix: (Units=1/GPa)
#
#
# Indices 1 2 3 4 5 6 
#
# 1 0.030189 0.011124 -0.014275 0.000000 0.015035 0.000000
# 2 0.011124 0.064615 -0.010554 0.000000 0.001791 0.000000
# 3 -0.014275 -0.010554 0.015070 0.000000 -0.011305 0.000000
# 4 0.000000 0.000000 0.000000 0.043028 0.000000 -0.013323
# 5 0.015035 0.001791 -0.011305 0.000000 0.061655 0.000000
# 6 0.000000 0.000000 0.000000 -0.013323 0.000000 0.087660
#
#
# Mechanical properties :
#
#
# Convention : Reuss Voigt Hill
#
# Bulk Modulus (GPa) = 12.12633 37.81558 24.97096
# Shear Modulus (GPa) = 14.00104 21.11688 17.55896
#
# Velocity S-wave (km/s) = 2.94328 3.61466 3.29611
# Velocity P-wave (km/s) = 4.36504 6.38896 5.47140
#
# Compressibility (1/GPa) = 0.08246516
#
# Stress axis : x y z
#
# Youngs Moduli (GPa) = 33.12468 15.47616 66.35544
#
# Poissons Ratio (x) = -0.17216 0.94720
# Poissons Ratio (y) = -0.36848 0.70034
# Poissons Ratio (z) = 0.47284 0.16334
#
# Static dielectric constant tensor:
#      x y z
#    x 1.524280 0.000000 0.021640 
#    y 0.000000 1.553720 0.000000 
#    z 0.021640 0.000000 1.589300 
# 
# From -- ./inp_files/243010.got.cif
#   From: 2010.05.17/outbox.cif.g08.bks.cpg/sg12_122_cif.got.tgz:243010.got - 2010.06.03 13:09:07.
