data_PCOD9171160
_publ_section_title
;
Structure prediction by ZEFSAII (Michael W. Deem and Ramdas Pophale) SiO2 
 PCOD9171160
Probable space group: C 2/M
;
_chemical_formula_sum "Si O2"
_cell_formula_units_Z 56
_cell_length_a 19.994973
_cell_length_b 7.295944
_cell_length_c 14.046386
_cell_angle_alpha 90.000000
_cell_angle_beta 93.703550
_cell_angle_gamma 90.000000
_cell_volume 2044.838397
_symmetry_space_group_name_H-M "C 2/M"
_symmetry_group_IT_number 12
_symmetry_cell_setting 'monoclinic'
loop_
_space_group_symop_operation_xyz
x,y,z
-x,y,-z
-x,-y,-z
x,-y,z
1/2+x,1/2+y,z
1/2-x,1/2+y,-z
1/2-x,1/2-y,-z
1/2+x,1/2-y,z
loop_
_atom_site_type_symbol
_atom_site_label
_atom_site_fract_x
_atom_site_fract_y
_atom_site_fract_z
Si Si1 0.154884 0.721219 0.443563
Si Si2 0.893775 0.784232 0.827158
Si Si3 0.012165 0.279842 0.388350
Si Si4 0.128701 0.275928 0.659500
Si Si5 0.671118 0.708144 0.969405
Si Si6 0.968121 0.223209 0.101263
Si Si7 0.234620 0.792487 0.281820
O O1 0.158252 0.500000 0.442323
O O2 0.087669 0.783763 0.380709
O O3 0.144239 0.776209 0.551370
O O4 0.217762 0.798112 0.392561
O O5 0.865944 0.777376 0.932359
O O6 0.830624 0.699713 0.766761
O O7 0.969568 0.710596 0.827138
O O8 0.898733 0.000000 0.804254
O O9 0.012963 0.500000 0.379714
O O10 0.000000 0.243837 0.500000
O O11 0.946393 0.210983 0.327960
O O12 0.129110 0.500000 0.662519
O O13 0.192303 0.211305 0.725112
O O14 0.675216 0.500000 0.937699
O O15 0.750000 0.750000 0.000000
O O16 0.609230 0.791468 0.898996
O O17 0.966135 0.000000 0.106079
O O18 0.000000 0.266464 0.000000
O O19 0.237416 0.000000 0.243179
#
# Coordination Sequence:
#
# PCOD9171160 Si02
#       7
#     8   8   8   8   8   8   8
#     4   9  16  27  43  61  82 110 145 180 211 250
#     4   8  15  28  44  62  84 112 145 174 202 245
#     4   7  11  22  40  57  72  97 136 173 199 235
#     4   8  14  25  42  62  81 108 147 181 209 247
#     4   9  16  28  48  70  88 108 138 174 208 245
#     4   7  11  23  44  63  78 105 142 167 187 234
#     4  10  18  27  42  63  86 110 138 178 219 249
#
# _framework density 27.386028
#
# number of rings (size 3 to 8) (size 9 to 14) (size 15 to 20)
#    0.000    3.714    0.000    3.857    0.000    0.000 
#    0.000    2.143    0.000   11.143    0.000    0.000 
#    0.000    0.000    0.000    0.000    0.000    0.000 
#
# Total GULP energy -156149.642732 kJ/mol
# GULP energy per Si atom -5576.772955 kJ/mol
# Density = 2.732370 g / cm^3
# Si number density = 27.386028 Si / 1000 Ang^3
#
#
#
# Elastic Constant Matrix: (Units=GPa)
#
#
# Indices 1 2 3 4 5 6 
#
# 1 311.9413 20.6961 62.0417 0.0000 66.0582 0.0000
# 2 20.6961 117.1331 5.7939 0.0000 10.2112 0.0000
# 3 62.0417 5.7939 58.1285 0.0000 9.9650 0.0000
# 4 0.0000 0.0000 0.0000 -3.6708 0.0000 0.6155
# 5 66.0582 10.2112 9.9650 0.0000 69.3574 0.0000
# 6 0.0000 0.0000 0.0000 0.6155 0.0000 -115.3234
#
#
#
# Elastic Compliance Matrix: (Units=1/GPa)
#
#
# Indices 1 2 3 4 5 6 
#
# 1 0.005003 -0.000302 -0.004614 0.000000 -0.004057 0.000000
# 2 -0.000302 0.008691 -0.000383 0.000000 -0.000937 0.000000
# 3 -0.004614 -0.000383 0.021943 0.000000 0.001298 0.000000
# 4 0.000000 0.000000 0.000000 -0.272665 0.000000 -0.001455
# 5 -0.004057 -0.000937 0.001298 0.000000 0.018234 0.000000
# 6 0.000000 0.000000 0.000000 -0.001455 0.000000 -0.008679
#
#
# Mechanical properties :
#
#
# Convention : Reuss Voigt Hill
#
# Bulk Modulus (GPa) = 39.93770 73.80737 56.87254
# Shear Modulus (GPa) = -23.97747 16.65072 -3.66338
#
# Velocity S-wave (km/s) = -2.96216 2.46844 -1.15784
# Velocity P-wave (km/s) = 1.70755 5.92735 4.36172
#
# Compressibility (1/GPa) = 0.02503900
#
# Stress axis : x y z
#
# Youngs Moduli (GPa) = 199.89733 115.05768 45.57209
#
# Poissons Ratio (x) = 0.03475 0.21026
# Poissons Ratio (y) = 0.06037 0.01747
# Poissons Ratio (z) = 0.92227 0.04411
#
# Static dielectric constant tensor:
#      x y z
#    x 2.147810 0.000000 0.110730 
#    y 0.000000 2.038450 0.000000 
#    z 0.110730 0.000000 2.327040 
# 
# From -- ./inp_files/280440.got.cif
#   From: 2010.05.17/outbox.cif.g08.bks.cpg/sg12_141_cif.got.tgz:280440.got - 2010.06.03 13:09:07.
