data_PCOD9171012
_publ_section_title
;
Structure prediction by ZEFSAII (Michael W. Deem and Ramdas Pophale) SiO2 
 PCOD9171012
Probable space group: C 2/M
;
_chemical_formula_sum "Si O2"
_cell_formula_units_Z 60
_cell_length_a 19.294712
_cell_length_b 7.398951
_cell_length_c 17.262991
_cell_angle_alpha 90.000000
_cell_angle_beta 115.108793
_cell_angle_gamma 90.000000
_cell_volume 2231.591606
_symmetry_space_group_name_H-M "C 2/M"
_symmetry_group_IT_number 12
_symmetry_cell_setting 'monoclinic'
loop_
_space_group_symop_operation_xyz
x,y,z
-x,y,-z
-x,-y,-z
x,-y,z
1/2+x,1/2+y,z
1/2-x,1/2+y,-z
1/2-x,1/2-y,-z
1/2+x,1/2-y,z
loop_
_atom_site_type_symbol
_atom_site_label
_atom_site_fract_x
_atom_site_fract_y
_atom_site_fract_z
Si Si1 0.243294 0.780986 0.120956
Si Si2 0.876629 0.779850 0.722888
Si Si3 0.488120 0.705760 0.327148
Si Si4 0.967628 0.204064 0.908004
Si Si5 0.172565 0.294601 0.692653
Si Si6 0.373006 0.789734 0.062901
Si Si7 0.190589 0.500000 0.411256
Si Si8 0.891581 0.299761 0.493086
O O1 0.266620 0.718357 0.217560
O O2 0.165494 0.728274 0.040524
O O3 0.244306 0.000000 0.123453
O O4 0.310439 0.719714 0.093870
O O5 0.809762 0.661208 0.655394
O O6 0.950018 0.721859 0.704638
O O7 0.901331 0.728669 0.821208
O O8 0.868908 0.000000 0.713245
O O9 0.471099 0.500000 0.299244
O O10 0.407733 0.802593 0.297944
O O11 0.536607 0.711527 0.430214
O O12 0.944161 0.000000 0.918428
O O13 0.045389 0.196417 0.894436
O O14 0.000000 0.298246 0.000000
O O15 0.198582 0.500000 0.686626
O O16 0.145366 0.207917 0.598895
O O17 0.385533 0.000000 0.084865
O O18 0.170540 0.343965 0.469614
O O19 0.917357 0.500000 0.479443
#
# Coordination Sequence:
#
# PCOD9171012 Si02
#       8
#     8   8   8   8   8   8   4   8
#     4   9  19  34  51  71  95 138 181 218 252 305
#     4   9  18  31  46  67  95 131 170 205 248 312
#     4  10  18  26  39  60  90 128 166 207 251 303
#     4  10  21  36  54  77 106 139 170 216 271 325
#     4  10  18  27  42  61  88 123 169 210 248 300
#     4  10  20  34  52  74 102 135 176 221 263 308
#     4   8  16  30  46  64  94 132 166 208 248 306
#     4   8  16  28  38  57  87 126 159 206 248 303
#
# _framework density 26.886638999999999
#
# number of rings (size 3 to 8) (size 9 to 14) (size 15 to 20)
#    0.400    2.267    0.000    2.000    1.867    3.467 
#    0.000    0.000    0.000    0.000    0.000    0.000 
#    0.000    4.267    6.667    0.267    0.000    0.000 
#
# Total GULP energy -167190.184791 kJ/mol
# GULP energy per Si atom -5573.006160 kJ/mol
# Density = 2.682544 g / cm^3
# Si number density = 26.886639 Si / 1000 Ang^3
#
#
#
# Elastic Constant Matrix: (Units=GPa)
#
#
# Indices 1 2 3 4 5 6 
#
# 1 118.8000 0.5907 34.5678 0.0000 26.3740 0.0000
# 2 0.5907 110.8672 5.3088 0.0000 -0.0326 0.0000
# 3 34.5678 5.3088 189.9350 0.0000 0.2043 0.0000
# 4 0.0000 0.0000 0.0000 13.4384 0.0000 2.9845
# 5 26.3740 -0.0326 0.2043 0.0000 32.2411 0.0000
# 6 0.0000 0.0000 0.0000 2.9845 0.0000 15.9230
#
#
#
# Elastic Compliance Matrix: (Units=1/GPa)
#
#
# Indices 1 2 3 4 5 6 
#
# 1 0.010990 0.000034 -0.001991 0.000000 -0.008977 0.000000
# 2 0.000034 0.009032 -0.000259 0.000000 -0.000017 0.000000
# 3 -0.001991 -0.000259 0.005633 0.000000 0.001593 0.000000
# 4 0.000000 0.000000 0.000000 0.077646 0.000000 -0.014553
# 5 -0.008977 -0.000017 0.001593 0.000000 0.038350 0.000000
# 6 0.000000 0.000000 0.000000 -0.014553 0.000000 0.065530
#
#
# Mechanical properties :
#
#
# Convention : Reuss Voigt Hill
#
# Bulk Modulus (GPa) = 47.11901 55.61522 51.36711
# Shear Modulus (GPa) = 22.86378 37.59614 30.22996
#
# Velocity S-wave (km/s) = 2.91929 3.74347 3.35677
# Velocity P-wave (km/s) = 5.37830 6.27812 5.84555
#
# Compressibility (1/GPa) = 0.02122286
#
# Stress axis : x y z
#
# Youngs Moduli (GPa) = 90.99383 110.71746 177.52815
#
# Poissons Ratio (x) = -0.00378 0.35353
# Poissons Ratio (y) = -0.00311 0.04592
# Poissons Ratio (z) = 0.18121 0.02864
#
# Static dielectric constant tensor:
#      x y z
#    x 2.154510 0.000000 -0.049410 
#    y 0.000000 2.107050 0.000000 
#    z -0.049410 0.000000 2.129130 
# 
# From -- ./inp_files/291906.got.cif
#   From: 2010.05.17/outbox.cif.g08.bks.cpg/sg12_146_cif.got.tgz:291906.got - 2010.06.03 13:09:07.
