data_PCOD9171509
_publ_section_title
;
Structure prediction by ZEFSAII (Michael W. Deem and Ramdas Pophale) SiO2 
 PCOD9171509
Probable space group: C 2/M
;
_chemical_formula_sum "Si O2"
_cell_formula_units_Z 48
_cell_length_a 9.481515
_cell_length_b 15.984930
_cell_length_c 14.983254
_cell_angle_alpha 90.000000
_cell_angle_beta 97.264487
_cell_angle_gamma 90.000000
_cell_volume 2252.653906
_symmetry_space_group_name_H-M "C 2/M"
_symmetry_group_IT_number 12
_symmetry_cell_setting 'monoclinic'
loop_
_space_group_symop_operation_xyz
x,y,z
-x,y,-z
-x,-y,-z
x,-y,z
1/2+x,1/2+y,z
1/2-x,1/2+y,-z
1/2-x,1/2-y,-z
1/2+x,1/2-y,z
loop_
_atom_site_type_symbol
_atom_site_label
_atom_site_fract_x
_atom_site_fract_y
_atom_site_fract_z
Si Si1 0.539319 0.664738 0.128896
Si Si2 0.275655 0.215231 0.263894
Si Si3 0.785544 0.094699 0.015458
Si Si4 0.974169 0.342071 0.111994
Si Si5 0.450051 0.905483 0.394999
Si Si6 0.809717 0.592715 0.737312
O O1 0.620253 0.674654 0.228948
O O2 0.623578 0.604221 0.069000
O O3 0.557190 0.758157 0.092943
O O4 0.375257 0.642072 0.098641
O O5 0.372428 0.189672 0.186066
O O6 0.344924 0.166469 0.351894
O O7 0.266954 0.316019 0.272449
O O8 0.631446 0.123759 0.970976
O O9 0.780666 0.000000 0.042203
O O10 0.086007 0.402918 0.167935
O O11 0.500000 0.892616 0.500000
O O12 0.585670 0.905033 0.339919
O O13 0.387497 0.000000 0.382581
O O14 0.737461 0.500000 0.731694
#
# Coordination Sequence:
#
# PCOD9171509 Si02
#       6
#     8   8   8   8   8   8
#     4   9  17  28  43  64  89 115 147 185 224 263
#     4   9  18  30  48  70  92 120 151 186 228 269
#     4  10  18  28  44  66  89 116 152 190 228 265
#     4   9  17  30  46  64  89 121 154 185 222 267
#     4   9  18  32  51  73  93 116 149 186 223 268
#     4   9  17  31  49  68  92 121 153 185 221 268
#
# _framework density 21.308198999999998
#
# number of rings (size 3 to 8) (size 9 to 14) (size 15 to 20)
#    0.000    2.833    0.000    2.000    0.000    5.333 
#    0.000    1.667    0.000    6.500    0.000   18.667 
#    0.000    0.000    0.000    0.000    0.000    0.000 
#
# Total GULP energy -133848.592723 kJ/mol
# GULP energy per Si atom -5577.024697 kJ/mol
# Density = 2.125970 g / cm^3
# Si number density = 21.308199 Si / 1000 Ang^3
#
#
#
# Elastic Constant Matrix: (Units=GPa)
#
#
# Indices 1 2 3 4 5 6 
#
# 1 67.2095 29.3349 23.0433 0.0000 10.6774 0.0000
# 2 29.3349 170.5875 65.6408 0.0000 18.0449 0.0000
# 3 23.0433 65.6408 114.0641 0.0000 8.6873 0.0000
# 4 0.0000 0.0000 0.0000 29.6884 0.0000 6.3084
# 5 10.6774 18.0449 8.6873 0.0000 21.9044 0.0000
# 6 0.0000 0.0000 0.0000 6.3084 0.0000 30.4384
#
#
#
# Elastic Compliance Matrix: (Units=1/GPa)
#
#
# Indices 1 2 3 4 5 6 
#
# 1 0.017269 -0.001466 -0.002161 0.000000 -0.006353 0.000000
# 2 -0.001466 0.008137 -0.004053 0.000000 -0.004381 0.000000
# 3 -0.002161 -0.004053 0.011550 0.000000 -0.000189 0.000000
# 4 0.000000 0.000000 0.000000 0.035235 0.000000 -0.007302
# 5 -0.006353 -0.004381 -0.000189 0.000000 0.052434 0.000000
# 6 0.000000 0.000000 0.000000 -0.007302 0.000000 0.034367
#
#
# Mechanical properties :
#
#
# Convention : Reuss Voigt Hill
#
# Bulk Modulus (GPa) = 46.30417 65.32211 55.81314
# Shear Modulus (GPa) = 27.54048 31.99570 29.76809
#
# Velocity S-wave (km/s) = 3.59901 3.87921 3.74173
# Velocity P-wave (km/s) = 6.24887 7.12648 6.70206
#
# Compressibility (1/GPa) = 0.02159633
#
# Stress axis : x y z
#
# Youngs Moduli (GPa) = 57.90730 122.89273 86.57797
#
# Poissons Ratio (x) = 0.18016 0.18711
# Poissons Ratio (y) = 0.08489 0.35089
# Poissons Ratio (z) = 0.12515 0.49807
#
# Static dielectric constant tensor:
#      x y z
#    x 1.927950 0.000000 -0.021980 
#    y 0.000000 1.761190 0.000000 
#    z -0.021980 0.000000 1.766380 
# 
# From -- ./inp_files/204384.got.cif
#   From: 2010.05.17/outbox.cif.g08.bks.cpg/sg12_103_cif.got.tgz:204384.got - 2010.06.03 13:09:07.
