data_PCOD9171224
_publ_section_title
;
Structure prediction by ZEFSAII (Michael W. Deem and Ramdas Pophale) SiO2 
 PCOD9171224
Probable space group: C 2/M
;
_chemical_formula_sum "Si O2"
_cell_formula_units_Z 32
_cell_length_a 12.607682
_cell_length_b 19.164063
_cell_length_c 16.513642
_cell_angle_alpha 90.000000
_cell_angle_beta 34.172871
_cell_angle_gamma 90.000000
_cell_volume 2241.112758
_symmetry_space_group_name_H-M "C 2/M"
_symmetry_group_IT_number 12
_symmetry_cell_setting 'monoclinic'
loop_
_space_group_symop_operation_xyz
x,y,z
-x,y,-z
-x,-y,-z
x,-y,z
1/2+x,1/2+y,z
1/2-x,1/2+y,-z
1/2-x,1/2-y,-z
1/2+x,1/2-y,z
loop_
_atom_site_type_symbol
_atom_site_label
_atom_site_fract_x
_atom_site_fract_y
_atom_site_fract_z
Si Si1 0.282879 0.500000 0.765993
Si Si2 0.167295 0.149966 0.334141
Si Si3 0.289472 0.242967 0.107590
Si Si4 0.096196 0.350685 0.117572
Si Si5 0.851499 0.500000 0.970988
O O1 0.367823 0.571913 0.678619
O O2 0.276600 0.500000 0.867468
O O3 0.065438 0.500000 0.871868
O O4 0.369564 0.149254 0.251979
O O5 0.000000 0.169484 0.500000
O O6 0.193462 0.203147 0.242988
O O7 0.169128 0.305933 0.146793
O O8 0.500000 0.266507 0.000000
O O9 0.324222 0.187120 0.013614
O O10 0.167977 0.429840 0.068023
#
# Coordination Sequence:
#
# PCOD9171224 Si02
#       5
#     4   8   8   8   4
#     4   9  15  26  42  66  91 107 136 176 215 259
#     4  10  18  27  43  67  93 115 135 169 216 262
#     4   9  17  30  45  63  86 113 146 180 208 245
#     4   9  17  29  46  64  85 113 145 178 212 248
#     4   9  14  26  47  64  82 111 142 178 216 245
#
# _framework density 14.278620999999999
#
# number of rings (size 3 to 8) (size 9 to 14) (size 15 to 20)
#    0.000    2.750    2.500    0.375    0.000    1.000 
#    0.000    0.625    0.000    0.000    0.000    0.875 
#    0.000    0.000    0.000    0.000    0.000    0.000 
#
# Total GULP energy -89095.534733 kJ/mol
# GULP energy per Si atom -5568.470921 kJ/mol
# Density = 1.424612 g / cm^3
# Si number density = 14.278621 Si / 1000 Ang^3
#
#
#
# Elastic Constant Matrix: (Units=GPa)
#
#
# Indices 1 2 3 4 5 6 
#
# 1 74.9763 60.6631 42.0186 -0.0003 4.6131 0.0001
# 2 60.6631 112.4892 43.3933 0.0062 -4.7943 0.0001
# 3 42.0186 43.3933 87.1573 0.0113 18.5502 0.0001
# 4 -0.0003 0.0062 0.0113 13.1844 -0.0009 -2.4865
# 5 4.6131 -4.7943 18.5502 -0.0009 13.3044 -0.0006
# 6 0.0001 0.0001 0.0001 -2.4865 -0.0006 22.1438
#
#
#
# Elastic Compliance Matrix: (Units=1/GPa)
#
#
# Indices 1 2 3 4 5 6 
#
# 1 0.027110 -0.012906 -0.005196 0.000011 -0.006806 0.000001
# 2 -0.012906 0.020461 -0.009224 0.000000 0.024709 0.000001
# 3 -0.005196 -0.009224 0.026868 -0.000022 -0.038984 -0.000004
# 4 0.000011 0.000000 -0.000022 0.077488 0.000032 0.008701
# 5 -0.006806 0.024709 -0.038984 0.000032 0.140782 0.000007
# 6 0.000001 0.000001 -0.000004 0.008701 0.000007 0.046136
#
#
# Mechanical properties :
#
#
# Convention : Reuss Voigt Hill
#
# Bulk Modulus (GPa) = 50.53573 62.97475 56.75524
# Shear Modulus (GPa) = 12.49710 18.29638 15.39674
#
# Velocity S-wave (km/s) = 2.96164 3.58352 3.28732
# Velocity P-wave (km/s) = 6.86764 7.83085 7.36501
#
# Compressibility (1/GPa) = 0.01978798
#
# Stress axis : x y z
#
# Youngs Moduli (GPa) = 36.88651 48.87380 37.21898
#
# Poissons Ratio (x) = 0.63075 0.19338
# Poissons Ratio (y) = 0.47605 0.34331
# Poissons Ratio (z) = 0.19165 0.45081
#
# Static dielectric constant tensor:
#      x y z
#    x 1.455310 0.000000 0.001000 
#    y 0.000000 1.473750 0.000000 
#    z 0.001000 0.000000 1.455500 
# 
# From -- ./inp_files/47484.got.cif
#   From: 2010.05.17/outbox.cif.g08.bks.cpg/sg12_24_cif.got.tgz:47484.got - 2010.06.03 13:09:07.
