data_PCOD9171905
_publ_section_title
;
Structure prediction by ZEFSAII (Michael W. Deem and Ramdas Pophale) SiO2 
 PCOD9171905
Probable space group: C 2/M
;
_chemical_formula_sum "Si O2"
_cell_formula_units_Z 64
_cell_length_a 21.843315
_cell_length_b 7.318302
_cell_length_c 27.775768
_cell_angle_alpha 90.000000
_cell_angle_beta 140.428894
_cell_angle_gamma 90.000000
_cell_volume 2828.514956
_symmetry_space_group_name_H-M "C 2/M"
_symmetry_group_IT_number 12
_symmetry_cell_setting 'monoclinic'
loop_
_space_group_symop_operation_xyz
x,y,z
-x,y,-z
-x,-y,-z
x,-y,z
1/2+x,1/2+y,z
1/2-x,1/2+y,-z
1/2-x,1/2-y,-z
1/2+x,1/2-y,z
loop_
_atom_site_type_symbol
_atom_site_label
_atom_site_fract_x
_atom_site_fract_y
_atom_site_fract_z
Si Si1 0.034033 0.782247 0.205889
Si Si2 0.959203 0.277338 0.330071
Si Si3 0.414645 0.778259 0.411117
Si Si4 0.140139 0.281229 0.827820
Si Si5 0.337315 0.215342 0.518835
Si Si6 0.955515 0.777556 0.898324
Si Si7 0.262524 0.277764 0.636750
Si Si8 0.850223 0.222310 0.928291
O O1 0.127840 0.714178 0.292183
O O2 0.933157 0.753760 0.172447
O O3 0.043801 0.714877 0.156663
O O4 0.044223 0.000000 0.209056
O O5 0.952601 0.500000 0.324599
O O6 0.926377 0.220172 0.363249
O O7 0.906708 0.213496 0.250460
O O8 0.069194 0.215969 0.397708
O O9 0.500000 0.718282 0.500000
O O10 0.306807 0.730618 0.361270
O O11 0.421140 0.000000 0.415858
O O12 0.145509 0.500000 0.828957
O O13 0.250780 0.216213 0.892527
O O14 0.250000 0.250000 0.500000
O O15 0.301183 0.290006 0.446395
O O16 0.355700 0.000000 0.521981
O O17 0.872323 0.721957 0.886105
O O18 0.952114 0.000000 0.895109
O O19 0.056668 0.725173 0.984205
O O20 0.266321 0.500000 0.635331
O O21 0.848650 0.000000 0.926764
#
# Coordination Sequence:
#
# PCOD9171905 Si02
#       8
#     8   8   8   8   8   8   8   8
#     4  10  20  32  48  72  99 126 157 192 232 280
#     4   9  17  27  42  66  93 117 148 191 235 273
#     4   9  14  24  42  66  91 113 145 196 244 272
#     4  10  20  32  48  72  99 126 157 192 232 280
#     4  10  18  29  43  61  87 120 151 182 224 272
#     4   8  15  29  49  73  98 122 153 196 239 274
#     4   9  17  27  42  66  93 117 148 191 235 273
#     4   8  15  29  49  73  98 122 153 196 239 274
#
# _framework density 22.626714
#
# number of rings (size 3 to 8) (size 9 to 14) (size 15 to 20)
#    0.000    2.875    1.250    1.500    1.750    0.500 
#    0.000    0.000    0.000    0.750    0.000    5.250 
#    0.000    0.000    0.000    0.000    0.000    0.000 
#
# Total GULP energy -178417.623934 kJ/mol
# GULP energy per Si atom -5575.550748 kJ/mol
# Density = 2.257521 g / cm^3
# Si number density = 22.626714 Si / 1000 Ang^3
#
#
#
# Elastic Constant Matrix: (Units=GPa)
#
#
# Indices 1 2 3 4 5 6 
#
# 1 71.2825 -8.7896 3.0052 -0.0003 21.2328 -0.0001
# 2 -8.7896 89.0823 2.8451 -0.0007 -0.3511 0.0028
# 3 3.0052 2.8451 53.4652 -0.0002 11.5176 -0.0001
# 4 -0.0003 -0.0007 -0.0002 -16.5111 -0.0001 9.7045
# 5 21.2328 -0.3511 11.5176 -0.0001 41.2990 0.0000
# 6 -0.0001 0.0028 -0.0001 9.7045 0.0000 8.0074
#
#
#
# Elastic Compliance Matrix: (Units=1/GPa)
#
#
# Indices 1 2 3 4 5 6 
#
# 1 0.016836 0.001598 0.000883 0.000000 -0.008889 0.000000
# 2 0.001598 0.011399 -0.000575 -0.000002 -0.000564 -0.000002
# 3 0.000883 -0.000575 0.019984 0.000000 -0.006032 0.000000
# 4 0.000000 -0.000002 0.000000 -0.035370 0.000000 0.042867
# 5 -0.008889 -0.000564 -0.006032 0.000000 0.030461 0.000000
# 6 0.000000 -0.000002 0.000000 0.042867 0.000000 0.072933
#
#
# Mechanical properties :
#
#
# Convention : Reuss Voigt Hill
#
# Bulk Modulus (GPa) = 19.21867 23.10571 21.16219
# Shear Modulus (GPa) = 38.52827 21.01034 29.76931
#
# Velocity S-wave (km/s) = 4.13095 3.05054 3.63115
# Velocity P-wave (km/s) = 5.59153 4.75832 5.19167
#
# Compressibility (1/GPa) = 0.05203274
#
# Stress axis : x y z
#
# Youngs Moduli (GPa) = 59.39610 87.72413 50.03955
#
# Poissons Ratio (x) = -0.14018 -0.04421
# Poissons Ratio (y) = -0.09491 0.02877
# Poissons Ratio (z) = -0.05247 0.05043
#
# Static dielectric constant tensor:
#      x y z
#    x 1.887540 0.000000 -0.012110 
#    y 0.000000 1.921960 0.000000 
#    z -0.012110 0.000000 1.900840 
# 
# From -- ./inp_files/365741.got.cif
#   From: 2010.05.17/outbox.cif.g08.bks.cpg/sg12_183_cif.got.tgz:365741.got - 2010.06.03 13:09:07.
