data_PCOD9171800
_publ_section_title
;
Structure prediction by ZEFSAII (Michael W. Deem and Ramdas Pophale) SiO2 
 PCOD9171800
Probable space group: C 2/M
;
_chemical_formula_sum "Si O2"
_cell_formula_units_Z 48
_cell_length_a 27.309586
_cell_length_b 21.889840
_cell_length_c 12.271789
_cell_angle_alpha 90.000000
_cell_angle_beta 160.210042
_cell_angle_gamma 90.000000
_cell_volume 2483.807411
_symmetry_space_group_name_H-M "C 2/M"
_symmetry_group_IT_number 12
_symmetry_cell_setting 'monoclinic'
loop_
_space_group_symop_operation_xyz
x,y,z
-x,y,-z
-x,-y,-z
x,-y,z
1/2+x,1/2+y,z
1/2-x,1/2+y,-z
1/2-x,1/2-y,-z
1/2+x,1/2-y,z
loop_
_atom_site_type_symbol
_atom_site_label
_atom_site_fract_x
_atom_site_fract_y
_atom_site_fract_z
Si Si1 0.937890 0.412242 0.713313
Si Si2 0.197847 0.799146 0.481516
Si Si3 0.127542 0.566804 0.676089
Si Si4 0.999517 0.721511 0.802383
Si Si5 0.642590 0.201057 0.725986
Si Si6 0.742597 0.934580 0.465099
O O1 0.929684 0.428003 0.568572
O O2 0.939866 0.339458 0.734769
O O3 0.804816 0.434257 0.507531
O O4 0.089305 0.434439 0.079492
O O5 0.250000 0.750000 0.500000
O O6 0.050106 0.778094 0.228750
O O7 0.190150 0.869126 0.425567
O O8 0.329268 0.790488 0.844379
O O9 0.201064 0.500000 0.839968
O O10 0.206997 0.631983 0.856926
O O11 0.000000 0.566246 0.500000
O O12 0.918098 0.722133 0.517621
O O13 0.500000 0.197190 0.500000
O O14 0.750000 0.250000 0.000000
O O15 0.816021 0.000000 0.594128
#
# Coordination Sequence:
#
# PCOD9171800 Si02
#       6
#     8   8   8   8   8   8
#     4   9  16  29  47  74 104 132 167 214 267 310
#     4  11  20  34  52  79 107 139 175 212 258 316
#     4   9  17  29  48  74 103 133 170 217 265 309
#     4  10  20  33  54  78 105 139 176 214 260 309
#     4  10  20  35  54  78 106 137 176 217 262 311
#     4  10  18  28  48  75 104 134 171 217 262 308
#
# _framework density 19.325171000000001
#
# number of rings (size 3 to 8) (size 9 to 14) (size 15 to 20)
#    0.000    2.167    1.667    3.500    0.000    1.333 
#    0.000    0.000    0.000    2.500    0.000    0.000 
#    0.000    0.000    0.000    0.000    0.000    0.000 
#
# Total GULP energy -133639.633687 kJ/mol
# GULP energy per Si atom -5568.318070 kJ/mol
# Density = 1.928119 g / cm^3
# Si number density = 19.325171 Si / 1000 Ang^3
#
#
#
# Elastic Constant Matrix: (Units=GPa)
#
#
# Indices 1 2 3 4 5 6 
#
# 1 72.1517 40.7493 8.7647 0.0000 -12.5106 0.0000
# 2 40.7493 178.4766 30.3586 0.0000 -7.7543 0.0000
# 3 8.7647 30.3586 54.2077 0.0000 -9.6306 0.0000
# 4 0.0000 0.0000 0.0000 -61.1310 0.0000 3.8028
# 5 -12.5106 -7.7543 -9.6306 0.0000 24.4322 0.0000
# 6 0.0000 0.0000 0.0000 3.8028 0.0000 9.7729
#
#
#
# Elastic Compliance Matrix: (Units=1/GPa)
#
#
# Indices 1 2 3 4 5 6 
#
# 1 0.017246 -0.003712 0.000699 0.000000 0.007928 0.000000
# 2 -0.003712 0.007001 -0.003510 0.000000 -0.001062 0.000000
# 3 0.000699 -0.003510 0.021684 0.000000 0.007791 0.000000
# 4 0.000000 0.000000 0.000000 -0.015972 0.000000 0.006215
# 5 0.007928 -0.001062 0.007791 0.000000 0.047723 0.000000
# 6 0.000000 0.000000 0.000000 0.006215 0.000000 0.099905
#
#
# Mechanical properties :
#
#
# Convention : Reuss Voigt Hill
#
# Bulk Modulus (GPa) = 30.40777 51.62014 41.01395
# Shear Modulus (GPa) = 24.80213 9.61238 17.20725
#
# Velocity S-wave (km/s) = 3.58636 2.23267 2.98720
# Velocity P-wave (km/s) = 5.73744 5.78064 5.75908
#
# Compressibility (1/GPa) = 0.03288633
#
# Stress axis : x y z
#
# Youngs Moduli (GPa) = 57.98482 142.83052 46.11643
#
# Poissons Ratio (x) = 0.53018 -0.03223
# Poissons Ratio (y) = 0.21524 0.16185
# Poissons Ratio (z) = -0.04053 0.50127
#
# Static dielectric constant tensor:
#      x y z
#    x 1.684690 0.000000 -0.004700 
#    y 0.000000 1.757340 0.000000 
#    z -0.004700 0.000000 1.683810 
# 
# From -- ./inp_files/132553.got.cif
#   From: 2010.05.17/outbox.cif.g08.bks.cpg/sg12_67_cif.got.tgz:132553.got - 2010.06.03 13:09:07.
