data_PCOD9171554
_publ_section_title
;
Structure prediction by ZEFSAII (Michael W. Deem and Ramdas Pophale) SiO2 
 PCOD9171554
Probable space group: C 2/M
;
_chemical_formula_sum "Si O2"
_cell_formula_units_Z 64
_cell_length_a 25.949179
_cell_length_b 8.576354
_cell_length_c 17.714856
_cell_angle_alpha 90.000000
_cell_angle_beta 89.514289
_cell_angle_gamma 90.000000
_cell_volume 3942.287943
_symmetry_space_group_name_H-M "C 2/M"
_symmetry_group_IT_number 12
_symmetry_cell_setting 'monoclinic'
loop_
_space_group_symop_operation_xyz
x,y,z
-x,y,-z
-x,-y,-z
x,-y,z
1/2+x,1/2+y,z
1/2-x,1/2+y,-z
1/2-x,1/2-y,-z
1/2+x,1/2-y,z
loop_
_atom_site_type_symbol
_atom_site_label
_atom_site_fract_x
_atom_site_fract_y
_atom_site_fract_z
Si Si1 0.948938 0.315428 0.411143
Si Si2 0.308335 0.687689 0.998631
Si Si3 0.693509 0.688749 0.836581
Si Si4 0.561607 0.315307 0.424560
Si Si5 0.152752 0.313258 0.322575
Si Si6 0.144909 0.811437 0.679827
Si Si7 0.310607 0.687111 0.833412
Si Si8 0.254062 0.687940 0.415342
O O1 0.956547 0.500000 0.409291
O O2 0.929258 0.266155 0.494644
O O3 0.906984 0.262189 0.351182
O O4 0.004088 0.232832 0.400585
O O5 0.307331 0.500000 0.997248
O O6 0.330156 0.736891 0.916909
O O7 0.250000 0.750000 0.000000
O O8 0.329296 0.733585 0.080915
O O9 0.699394 0.500000 0.834472
O O10 0.659340 0.733032 0.765235
O O11 0.750763 0.759830 0.828377
O O12 0.564141 0.500000 0.435488
O O13 0.603921 0.260560 0.364504
O O14 0.149359 0.500000 0.326725
O O15 0.159010 0.261270 0.236209
O O16 0.204645 0.263247 0.366560
O O17 0.193209 0.763424 0.626551
O O18 0.140796 0.000000 0.676313
O O19 0.312896 0.500000 0.827992
O O20 0.254099 0.500000 0.417379
O O21 0.250000 0.750000 0.500000
#
# Coordination Sequence:
#
# PCOD9171554 Si02
#       8
#     8   8   8   8   8   8   8   8
#     4  11  22  37  55  76  99 129 165 208 253 297
#     4   8  15  26  43  66  94 129 167 203 242 288
#     4   9  16  30  48  67  97 135 169 205 247 292
#     4  11  22  38  57  76  96 126 166 213 254 292
#     4  11  21  35  51  72 100 134 168 203 248 298
#     4  10  19  33  50  71  98 133 171 206 246 293
#     4  10  18  28  44  71 102 132 167 205 244 293
#     4  10  21  33  46  66  95 131 165 197 239 292
#
# _framework density 16.234227000000001
#
# number of rings (size 3 to 8) (size 9 to 14) (size 15 to 20)
#    0.000    2.000    1.250    4.500    0.000    4.500 
#    0.000    0.000    0.000    0.000    0.000    0.875 
#    0.000    7.000    0.000    0.000    0.000    0.000 
#
# Total GULP energy -178489.111762 kJ/mol
# GULP energy per Si atom -5577.784743 kJ/mol
# Density = 1.619728 g / cm^3
# Si number density = 16.234227 Si / 1000 Ang^3
#
#
#
# Elastic Constant Matrix: (Units=GPa)
#
#
# Indices 1 2 3 4 5 6 
#
# 1 40.1142 0.3812 26.9875 0.0000 5.5161 0.0000
# 2 0.3812 17.9668 -0.4477 0.0000 2.7648 0.0000
# 3 26.9875 -0.4477 100.5968 0.0000 12.6590 0.0000
# 4 0.0000 0.0000 0.0000 22.3507 0.0000 -1.9416
# 5 5.5161 2.7648 12.6590 0.0000 18.8413 0.0000
# 6 0.0000 0.0000 0.0000 -1.9416 0.0000 21.9547
#
#
#
# Elastic Compliance Matrix: (Units=1/GPa)
#
#
# Indices 1 2 3 4 5 6 
#
# 1 0.030663 -0.000271 -0.007759 0.000000 -0.003725 0.000000
# 2 -0.000271 0.057134 0.001499 0.000000 -0.009312 0.000000
# 3 -0.007759 0.001499 0.012858 0.000000 -0.006587 0.000000
# 4 0.000000 0.000000 0.000000 0.045088 0.000000 0.003987
# 5 -0.003725 -0.009312 -0.006587 0.000000 0.059958 0.000000
# 6 0.000000 0.000000 0.000000 0.003987 0.000000 0.045901
#
#
# Mechanical properties :
#
#
# Convention : Reuss Voigt Hill
#
# Bulk Modulus (GPa) = 11.41634 23.61332 17.51483
# Shear Modulus (GPa) = 17.01485 21.41312 19.21398
#
# Velocity S-wave (km/s) = 3.24093 3.63576 3.44401
# Velocity P-wave (km/s) = 4.58828 5.67468 5.16015
#
# Compressibility (1/GPa) = 0.08759371
#
# Stress axis : x y z
#
# Youngs Moduli (GPa) = 32.61220 17.50268 77.77421
#
# Poissons Ratio (x) = 0.00474 0.60343
# Poissons Ratio (y) = 0.00883 -0.11656
# Poissons Ratio (z) = 0.25303 -0.02623
#
# Static dielectric constant tensor:
#      x y z
#    x 1.509960 0.000000 0.005270 
#    y 0.000000 1.548370 0.000000 
#    z 0.005270 0.000000 1.574340 
# 
# From -- ./inp_files/287688.got.cif
#   From: 2010.05.17/outbox.cif.g08.bks.cpg/sg12_144_cif.got.tgz:287688.got - 2010.06.03 13:09:07.
