data_PCOD9171841
_publ_section_title
;
Structure prediction by ZEFSAII (Michael W. Deem and Ramdas Pophale) SiO2 
 PCOD9171841
Probable space group: C 2/M
;
_chemical_formula_sum "Si O2"
_cell_formula_units_Z 56
_cell_length_a 11.156962
_cell_length_b 16.881359
_cell_length_c 14.076282
_cell_angle_alpha 90.000000
_cell_angle_beta 91.155956
_cell_angle_gamma 90.000000
_cell_volume 2650.653288
_symmetry_space_group_name_H-M "C 2/M"
_symmetry_group_IT_number 12
_symmetry_cell_setting 'monoclinic'
loop_
_space_group_symop_operation_xyz
x,y,z
-x,y,-z
-x,-y,-z
x,-y,z
1/2+x,1/2+y,z
1/2-x,1/2+y,-z
1/2-x,1/2-y,-z
1/2+x,1/2-y,z
loop_
_atom_site_type_symbol
_atom_site_label
_atom_site_fract_x
_atom_site_fract_y
_atom_site_fract_z
Si Si1 0.876160 0.596332 0.448534
Si Si2 0.374156 0.907190 0.226385
Si Si3 0.603628 0.592044 0.758967
Si Si4 0.385778 0.407443 0.876761
Si Si5 0.370682 0.596958 0.453964
Si Si6 0.273887 0.356180 0.066793
Si Si7 0.406483 0.800025 0.067804
O O1 0.875529 0.500000 0.455777
O O2 0.878296 0.614564 0.336706
O O3 0.750525 0.623522 0.493924
O O4 0.000000 0.623834 0.500000
O O5 0.238276 0.899170 0.183608
O O6 0.446891 0.846636 0.161098
O O7 0.408299 0.000000 0.216577
O O8 0.574166 0.500000 0.740681
O O9 0.492744 0.630062 0.816066
O O10 0.630629 0.624939 0.655663
O O11 0.711158 0.597619 0.835819
O O12 0.414293 0.500000 0.882782
O O13 0.363282 0.383292 0.984721
O O14 0.500000 0.619921 0.500000
O O15 0.367429 0.500000 0.457120
O O16 0.305203 0.264663 0.091329
O O17 0.150198 0.361791 0.008675
O O18 0.500000 0.758941 0.000000
#
# Coordination Sequence:
#
# PCOD9171841 Si02
#       7
#     8   8   8   8   8   8   8
#     4   9  17  30  48  69  94 126 163 201 242 289
#     4   9  18  32  50  71  95 127 165 201 240 287
#     4  10  18  28  49  77 101 126 157 200 244 278
#     4   9  16  28  48  74 102 129 157 193 239 288
#     4   9  17  29  46  71 100 126 157 199 244 288
#     4  10  20  33  49  71  98 127 161 196 236 293
#     4  10  21  35  50  68  94 129 161 194 241 293
#
# _framework density 21.126866
#
# number of rings (size 3 to 8) (size 9 to 14) (size 15 to 20)
#    0.000    2.571    0.000    2.571    0.000    6.571 
#    0.000    1.429    0.000    1.714    0.000    0.000 
#    0.000    0.000    0.000    0.000    0.000    0.000 
#
# Total GULP energy -155926.733889 kJ/mol
# GULP energy per Si atom -5568.811925 kJ/mol
# Density = 2.107878 g / cm^3
# Si number density = 21.126866 Si / 1000 Ang^3
#
#
#
# Elastic Constant Matrix: (Units=GPa)
#
#
# Indices 1 2 3 4 5 6 
#
# 1 66.5117 2.3231 49.5779 0.0000 -0.4375 0.0000
# 2 2.3231 23.3895 27.6598 0.0000 -7.8970 0.0000
# 3 49.5779 27.6598 193.3659 0.0000 0.2774 0.0000
# 4 0.0000 0.0000 0.0000 -7.3534 0.0000 -2.9501
# 5 -0.4375 -7.8970 0.2774 0.0000 27.8077 0.0000
# 6 0.0000 0.0000 0.0000 -2.9501 0.0000 14.3648
#
#
#
# Elastic Compliance Matrix: (Units=1/GPa)
#
#
# Indices 1 2 3 4 5 6 
#
# 1 0.019090 0.005464 -0.005679 0.000000 0.001909 0.000000
# 2 0.005464 0.059813 -0.009981 0.000000 0.017172 0.000000
# 3 -0.005679 -0.009981 0.008060 0.000000 -0.003004 0.000000
# 4 0.000000 0.000000 0.000000 -0.125639 0.000000 -0.025802
# 5 0.001909 0.017172 -0.003004 0.000000 0.040898 0.000000
# 6 0.000000 0.000000 0.000000 -0.025802 0.000000 0.064316
#
#
# Mechanical properties :
#
#
# Convention : Reuss Voigt Hill
#
# Bulk Modulus (GPa) = 15.02184 49.15429 32.08807
# Shear Modulus (GPa) = 45.82162 20.54423 33.18293
#
# Velocity S-wave (km/s) = 4.66218 3.12175 3.96744
# Velocity P-wave (km/s) = 6.00890 6.02582 6.01737
#
# Compressibility (1/GPa) = 0.06656972
#
# Stress axis : x y z
#
# Youngs Moduli (GPa) = 52.38448 16.71878 124.07498
#
# Poissons Ratio (x) = -0.09135 0.70460
# Poissons Ratio (y) = -0.28623 1.23845
# Poissons Ratio (z) = 0.29748 0.16688
#
# Static dielectric constant tensor:
#      x y z
#    x 1.940860 0.000000 -0.021100 
#    y 0.000000 1.778190 0.000000 
#    z -0.021100 0.000000 1.748060 
# 
# From -- ./inp_files/133207.got.cif
#   From: 2010.05.17/outbox.cif.g08.bks.cpg/sg12_67_cif.got.tgz:133207.got - 2010.06.03 13:09:07.
