data_PCOD9171414
_publ_section_title
;
Structure prediction by ZEFSAII (Michael W. Deem and Ramdas Pophale) SiO2 
 PCOD9171414
Probable space group: C 2/M
;
_chemical_formula_sum "Si O2"
_cell_formula_units_Z 56
_cell_length_a 26.607107
_cell_length_b 7.409140
_cell_length_c 20.001847
_cell_angle_alpha 90.000000
_cell_angle_beta 131.396035
_cell_angle_gamma 90.000000
_cell_volume 2957.928195
_symmetry_space_group_name_H-M "C 2/M"
_symmetry_group_IT_number 12
_symmetry_cell_setting 'monoclinic'
loop_
_space_group_symop_operation_xyz
x,y,z
-x,y,-z
-x,-y,-z
x,-y,z
1/2+x,1/2+y,z
1/2-x,1/2+y,-z
1/2-x,1/2-y,-z
1/2+x,1/2-y,z
loop_
_atom_site_type_symbol
_atom_site_label
_atom_site_fract_x
_atom_site_fract_y
_atom_site_fract_z
Si Si1 0.891205 0.720439 0.898711
Si Si2 0.995774 0.715506 0.101175
Si Si3 0.259762 0.279055 0.213427
Si Si4 0.695866 0.284284 0.894931
Si Si5 0.454703 0.715183 0.214704
Si Si6 0.509651 0.280269 0.401429
Si Si7 0.392154 0.280573 0.401033
O O1 0.889693 0.500000 0.897442
O O2 0.814730 0.780818 0.833244
O O3 0.936353 0.779050 0.875413
O O4 0.932564 0.778274 0.001052
O O5 0.996222 0.500000 0.094740
O O6 0.986413 0.754597 0.170382
O O7 0.259460 0.500000 0.212943
O O8 0.279365 0.219699 0.155727
O O9 0.318339 0.221022 0.315431
O O10 0.690298 0.500000 0.883887
O O11 0.621769 0.214962 0.848274
O O12 0.750000 0.250000 0.000000
O O13 0.450462 0.500000 0.219492
O O14 0.497680 0.782910 0.315570
O O15 0.511925 0.500000 0.403020
O O16 0.444767 0.230907 0.388888
O O17 0.574828 0.220240 0.500229
O O18 0.391131 0.500000 0.401202
#
# Coordination Sequence:
#
# PCOD9171414 Si02
#       7
#     8   8   8   8   8   8   8
#     4   8  15  27  43  59  78 106 146 185 208 232
#     4   9  17  30  45  61  81 112 148 178 205 240
#     4   9  14  23  40  62  83 105 136 177 214 242
#     4  10  19  28  40  62  90 114 135 163 206 255
#     4  10  18  28  42  64  91 113 134 168 211 254
#     4   8  13  22  36  58  87 111 132 165 208 252
#     4   8  12  20  37  59  83 109 136 168 208 248
#
# _framework density 18.932171
#
# number of rings (size 3 to 8) (size 9 to 14) (size 15 to 20)
#    0.000    3.143    1.429    2.571    0.000    1.714 
#    0.000    1.429    0.000    1.714    0.000    3.000 
#    0.000    0.000    0.000    0.000    0.000    0.000 
#
# Total GULP energy -156144.912174 kJ/mol
# GULP energy per Si atom -5576.604006 kJ/mol
# Density = 1.888908 g / cm^3
# Si number density = 18.932171 Si / 1000 Ang^3
#
#
#
# Elastic Constant Matrix: (Units=GPa)
#
#
# Indices 1 2 3 4 5 6 
#
# 1 143.6817 4.0513 125.7954 0.0000 -4.9264 0.0001
# 2 4.0513 59.8067 3.7813 0.0002 2.2877 -0.0004
# 3 125.7954 3.7813 206.3706 0.0000 -4.7988 0.0000
# 4 0.0000 0.0002 0.0000 -2.0342 0.0000 15.1751
# 5 -4.9264 2.2877 -4.7988 0.0000 27.4301 0.0000
# 6 0.0001 -0.0004 0.0000 15.1751 0.0000 -54.6291
#
#
#
# Elastic Compliance Matrix: (Units=1/GPa)
#
#
# Indices 1 2 3 4 5 6 
#
# 1 0.014972 -0.000483 -0.009091 0.000000 0.001139 0.000000
# 2 -0.000483 0.016814 -0.000048 0.000000 -0.001498 0.000000
# 3 -0.009091 -0.000048 0.010392 0.000000 0.000189 0.000000
# 4 0.000000 0.000000 0.000000 0.458458 0.000000 0.127352
# 5 0.001139 -0.001498 0.000189 0.000000 0.036819 0.000000
# 6 0.000000 0.000000 0.000000 0.127352 0.000000 0.017071
#
#
# Mechanical properties :
#
#
# Convention : Reuss Voigt Hill
#
# Bulk Modulus (GPa) = 43.60520 75.23501 59.42011
# Shear Modulus (GPa) = 8.59972 12.56876 10.58424
#
# Velocity S-wave (km/s) = 2.13360 2.57939 2.36701
# Velocity P-wave (km/s) = 5.39926 6.97829 6.23893
#
# Compressibility (1/GPa) = 0.02293304
#
# Stress axis : x y z
#
# Youngs Moduli (GPa) = 66.79319 59.47566 96.22497
#
# Poissons Ratio (x) = 0.02873 0.87476
# Poissons Ratio (y) = 0.03226 0.00467
# Poissons Ratio (z) = 0.60720 0.00288
#
# Static dielectric constant tensor:
#      x y z
#    x 1.636340 0.000000 -0.000240 
#    y 0.000000 1.746750 0.000000 
#    z -0.000240 0.000000 1.660720 
# 
# From -- ./inp_files/323567.got.cif
#   From: 2010.05.17/outbox.cif.g08.bks.cpg/sg12_162_cif.got.tgz:323567.got - 2010.06.03 13:09:07.
