data_PCOD9171100
_publ_section_title
;
Structure prediction by ZEFSAII (Michael W. Deem and Ramdas Pophale) SiO2 
 PCOD9171100
Probable space group: C 2/M
;
_chemical_formula_sum "Si O2"
_cell_formula_units_Z 64
_cell_length_a 28.571268
_cell_length_b 8.566601
_cell_length_c 23.088917
_cell_angle_alpha 90.000000
_cell_angle_beta 47.779028
_cell_angle_gamma 90.000000
_cell_volume 4185.054246
_symmetry_space_group_name_H-M "C 2/M"
_symmetry_group_IT_number 12
_symmetry_cell_setting 'monoclinic'
loop_
_space_group_symop_operation_xyz
x,y,z
-x,y,-z
-x,-y,-z
x,-y,z
1/2+x,1/2+y,z
1/2-x,1/2+y,-z
1/2-x,1/2-y,-z
1/2+x,1/2-y,z
loop_
_atom_site_type_symbol
_atom_site_label
_atom_site_fract_x
_atom_site_fract_y
_atom_site_fract_z
Si Si1 0.847607 0.814568 0.023321
Si Si2 0.737973 0.186285 0.602512
Si Si3 0.724273 0.314138 0.082847
Si Si4 0.426266 0.188528 0.065513
Si Si5 0.601155 0.185341 0.141512
Si Si6 0.156034 0.810824 0.563260
Si Si7 0.538026 0.313249 0.730979
Si Si8 0.377826 0.810359 0.232578
O O1 0.775960 0.749317 0.084674
O O2 0.887036 0.762668 0.046093
O O3 0.845407 0.000000 0.019929
O O4 0.880739 0.748069 0.937632
O O5 0.808668 0.238274 0.525485
O O6 0.695696 0.231244 0.581885
O O7 0.693893 0.241997 0.691944
O O8 0.741360 0.000000 0.605547
O O9 0.725376 0.500000 0.081575
O O10 0.652596 0.254298 0.143512
O O11 0.750000 0.250000 0.000000
O O12 0.399290 0.234569 0.150661
O O13 0.422016 0.000000 0.064101
O O14 0.500000 0.231358 0.000000
O O15 0.530232 0.235804 0.214724
O O16 0.607188 0.000000 0.135549
O O17 0.083639 0.773524 0.638519
O O18 0.162187 0.000000 0.563556
O O19 0.530976 0.500000 0.739412
O O20 0.575204 0.257326 0.757730
O O21 0.380963 0.000000 0.233858
#
# Coordination Sequence:
#
# PCOD9171100 Si02
#       8
#     8   8   8   8   8   8   8   8
#     4  11  21  33  48  65  85 111 144 179 214 251
#     4   8  13  23  38  55  76 106 143 177 210 248
#     4  10  18  31  49  67  86 108 137 172 211 253
#     4  10  20  32  44  60  85 117 151 184 216 247
#     4  11  20  31  46  64  87 113 141 173 211 254
#     4   8  14  23  36  55  80 108 137 172 211 251
#     4  10  18  27  40  61  88 115 143 175 214 257
#     4   9  17  28  42  59  82 115 152 185 215 250
#
# _framework density 15.292514000000001
#
# number of rings (size 3 to 8) (size 9 to 14) (size 15 to 20)
#    0.000    2.375    0.000    6.000    0.000    2.250 
#    0.000    0.000    0.000    0.000    0.000    0.000 
#    0.000    1.000    0.000   11.750    0.000    2.250 
#
# Total GULP energy -178190.790993 kJ/mol
# GULP energy per Si atom -5568.462219 kJ/mol
# Density = 1.525771 g / cm^3
# Si number density = 15.292514 Si / 1000 Ang^3
#
#
#
# Elastic Constant Matrix: (Units=GPa)
#
#
# Indices 1 2 3 4 5 6 
#
# 1 93.4528 38.7497 54.4170 0.0055 -20.3379 -0.0017
# 2 38.7497 69.5056 32.8355 0.0104 -8.0699 -0.0026
# 3 54.4170 32.8355 128.5778 0.0003 -18.2467 0.0011
# 4 0.0055 0.0104 0.0003 -19.0031 0.0027 19.4414
# 5 -20.3379 -8.0699 -18.2467 0.0027 18.3491 -0.0033
# 6 -0.0017 -0.0026 0.0011 19.4414 -0.0033 6.5297
#
#
#
# Elastic Compliance Matrix: (Units=1/GPa)
#
#
# Indices 1 2 3 4 5 6 
#
# 1 0.019150 -0.007016 -0.004353 0.000003 0.013811 0.000000
# 2 -0.007016 0.019132 -0.002126 0.000003 -0.001477 -0.000005
# 3 -0.004353 -0.002126 0.010881 -0.000001 0.005060 0.000001
# 4 0.000003 0.000003 -0.000001 -0.013006 0.000013 0.038724
# 5 0.013811 -0.001477 0.005060 0.000013 0.074189 0.000000
# 6 0.000000 -0.000005 0.000001 0.038724 0.000000 0.037851
#
#
# Mechanical properties :
#
#
# Convention : Reuss Voigt Hill
#
# Bulk Modulus (GPa) = 45.10131 60.39341 52.74736
# Shear Modulus (GPa) = 27.38544 12.21072 19.79808
#
# Velocity S-wave (km/s) = 4.23634 2.82880 3.60199
# Velocity P-wave (km/s) = 7.31336 7.08854 7.20183
#
# Compressibility (1/GPa) = 0.02217231
#
# Stress axis : x y z
#
# Youngs Moduli (GPa) = 52.21822 52.26885 91.90585
#
# Poissons Ratio (x) = 0.36674 0.40007
# Poissons Ratio (y) = 0.36638 0.19538
# Poissons Ratio (z) = 0.22731 0.11112
#
# Static dielectric constant tensor:
#      x y z
#    x 1.489590 0.000000 -0.030750 
#    y 0.000000 1.479140 0.000000 
#    z -0.030750 0.000000 1.552450 
# 
# From -- ./inp_files/350910.got.cif
#   From: 2010.05.17/outbox.cif.g08.bks.cpg/sg12_176_cif.got.tgz:350910.got - 2010.06.03 13:09:07.
