data_PCOD9171648
_publ_section_title
;
Structure prediction by ZEFSAII (Michael W. Deem and Ramdas Pophale) SiO2 
 PCOD9171648
Probable space group: C 2/M
;
_chemical_formula_sum "Si O2"
_cell_formula_units_Z 64
_cell_length_a 27.010705
_cell_length_b 20.753082
_cell_length_c 5.545283
_cell_angle_alpha 90.000000
_cell_angle_beta 89.999042
_cell_angle_gamma 90.000000
_cell_volume 3108.438195
_symmetry_space_group_name_H-M "C 2/M"
_symmetry_group_IT_number 12
_symmetry_cell_setting 'monoclinic'
loop_
_space_group_symop_operation_xyz
x,y,z
-x,y,-z
-x,-y,-z
x,-y,z
1/2+x,1/2+y,z
1/2-x,1/2+y,-z
1/2-x,1/2-y,-z
1/2+x,1/2-y,z
loop_
_atom_site_type_symbol
_atom_site_label
_atom_site_fract_x
_atom_site_fract_y
_atom_site_fract_z
Si Si1 0.558581 0.390595 0.000058
Si Si2 0.597568 0.594562 0.500056
Si Si3 0.829121 0.364155 0.000080
Si Si4 0.777449 0.817316 0.999912
Si Si5 0.557227 0.738531 0.500059
Si Si6 0.702018 0.629362 0.500086
Si Si7 0.684624 0.076664 0.499922
Si Si8 0.405298 0.244216 0.999945
O O1 0.573052 0.425445 0.751861
O O2 0.500000 0.376640 0.000000
O O3 0.573038 0.425441 0.248279
O O4 0.588027 0.322005 0.000080
O O5 0.588906 0.672549 0.500077
O O6 0.655948 0.580890 0.500014
O O7 0.769520 0.365194 0.000102
O O8 0.841131 0.397288 0.744646
O O9 0.852858 0.292452 0.000021
O O10 0.841135 0.397270 0.255542
O O11 0.803975 0.829770 0.253486
O O12 0.750000 0.750000 0.000000
O O13 0.803963 0.829740 0.746283
O O14 0.500000 0.718758 0.500000
O O15 0.569098 0.774825 0.252138
O O16 0.569079 0.774817 0.748013
O O17 0.757687 0.601170 0.500092
O O18 0.685028 0.000000 0.499964
#
# Coordination Sequence:
#
# PCOD9171648 Si02
#       8
#     8   8   8   8   8   8   8   8
#     4  10  19  31  46  68 102 144 164 187 237 282
#     4  10  18  28  46  65  97 126 173 205 215 281
#     4  10  21  33  51  78  92 127 173 200 247 302
#     4  10  21  31  45  65 107 134 159 192 234 300
#     4  10  19  29  44  66 100 142 162 185 235 280
#     4  10  21  33  47  74  92 131 178 197 244 291
#     4  10  21  40  55  68  98 128 163 224 262 290
#     4  10  18  29  46  66 100 122 166 202 218 284
#
# _framework density 20.589120000000001
#
# number of rings (size 3 to 8) (size 9 to 14) (size 15 to 20)
#    0.000    2.000    0.000    6.000    7.000    0.000 
#    0.000    0.000    0.000    0.000    0.000    0.000 
#    0.000   63.500    0.000    0.000    0.000    0.000 
#
# Total GULP energy -178291.462484 kJ/mol
# GULP energy per Si atom -5571.608203 kJ/mol
# Density = 2.054226 g / cm^3
# Si number density = 20.589120 Si / 1000 Ang^3
#
#
#
# Elastic Constant Matrix: (Units=GPa)
#
#
# Indices 1 2 3 4 5 6 
#
# 1 78.8621 27.7669 36.9515 0.0000 -0.6106 0.0000
# 2 27.7669 68.1990 47.7748 0.0000 -1.8176 0.0000
# 3 36.9515 47.7748 247.5147 0.0000 -14.7465 0.0000
# 4 0.0000 0.0000 0.0000 65.8448 0.0000 -6.2555
# 5 -0.6106 -1.8176 -14.7465 0.0000 25.7843 0.0000
# 6 0.0000 0.0000 0.0000 -6.2555 0.0000 -3.0238
#
#
#
# Elastic Compliance Matrix: (Units=1/GPa)
#
#
# Indices 1 2 3 4 5 6 
#
# 1 0.015137 -0.005283 -0.001285 0.000000 -0.000749 0.000000
# 2 -0.005283 0.018812 -0.002868 0.000000 -0.000440 0.000000
# 3 -0.001285 -0.002868 0.004940 0.000000 0.002593 0.000000
# 4 0.000000 0.000000 0.000000 0.012693 0.000000 -0.026258
# 5 -0.000749 -0.000440 0.002593 0.000000 0.040217 0.000000
# 6 0.000000 0.000000 0.000000 -0.026258 0.000000 -0.276391
#
#
# Mechanical properties :
#
#
# Convention : Reuss Voigt Hill
#
# Bulk Modulus (GPa) = 49.95927 68.84023 59.39975
# Shear Modulus (GPa) = -31.43682 36.52657 2.54488
#
# Velocity S-wave (km/s) = -3.91175 4.21654 1.11298
# Velocity P-wave (km/s) = 1.97868 7.56396 5.52850
#
# Compressibility (1/GPa) = 0.02001630
#
# Stress axis : x y z
#
# Youngs Moduli (GPa) = 66.06523 53.15884 202.42550
#
# Poissons Ratio (x) = 0.28083 0.26005
# Poissons Ratio (y) = 0.34901 0.58065
# Poissons Ratio (z) = 0.08487 0.15249
#
# Static dielectric constant tensor:
#      x y z
#    x 1.756570 0.000000 -0.005200 
#    y 0.000000 1.713560 0.000000 
#    z -0.005200 0.000000 1.813330 
# 
# From -- ./inp_files/26415.got.cif
#   From: 2010.05.17/outbox.cif.g08.bks.cpg/sg12_14_cif.got.tgz:26415.got - 2010.06.03 13:09:07.
