data_PCOD9171489
_publ_section_title
;
Structure prediction by ZEFSAII (Michael W. Deem and Ramdas Pophale) SiO2 
 PCOD9171489
Probable space group: C 2/M
;
_chemical_formula_sum "Si O2"
_cell_formula_units_Z 56
_cell_length_a 28.365243
_cell_length_b 8.770400
_cell_length_c 16.613712
_cell_angle_alpha 90.000000
_cell_angle_beta 115.209659
_cell_angle_gamma 90.000000
_cell_volume 3739.415333
_symmetry_space_group_name_H-M "C 2/M"
_symmetry_group_IT_number 12
_symmetry_cell_setting 'monoclinic'
loop_
_space_group_symop_operation_xyz
x,y,z
-x,y,-z
-x,-y,-z
x,-y,z
1/2+x,1/2+y,z
1/2-x,1/2+y,-z
1/2-x,1/2-y,-z
1/2+x,1/2-y,z
loop_
_atom_site_type_symbol
_atom_site_label
_atom_site_fract_x
_atom_site_fract_y
_atom_site_fract_z
Si Si1 0.508972 0.683254 0.311640
Si Si2 0.197976 0.316424 0.863850
Si Si3 0.191082 0.683912 0.046199
Si Si4 0.940982 0.175773 0.492400
Si Si5 0.984107 0.684437 0.858594
Si Si6 0.582349 0.814713 0.037777
Si Si7 0.096801 0.682040 0.691898
O O1 0.507168 0.500000 0.312423
O O2 0.550791 0.731984 0.410509
O O3 0.521868 0.742929 0.232764
O O4 0.452564 0.745802 0.297871
O O5 0.201139 0.500000 0.863286
O O6 0.254168 0.248611 0.883398
O O7 0.150549 0.267628 0.772479
O O8 0.186334 0.273122 0.948309
O O9 0.192740 0.500000 0.051074
O O10 0.139917 0.737867 0.056438
O O11 0.907548 0.270186 0.404569
O O12 0.000000 0.176721 0.500000
O O13 0.923272 0.000000 0.479798
O O14 0.983524 0.500000 0.851207
O O15 0.940307 0.730687 0.891904
O O16 0.039501 0.728305 0.939396
O O17 0.582977 0.000000 0.038152
O O18 0.092807 0.500000 0.696237
#
# Coordination Sequence:
#
# PCOD9171489 Si02
#       7
#     8   8   8   8   8   8   8
#     4  10  19  29  41  61  90 116 138 169 209 251
#     4   9  18  29  41  62  87 109 138 174 208 241
#     4   9  16  28  44  60  83 114 143 168 200 246
#     4   8  16  29  41  57  85 114 136 166 209 253
#     4   9  16  28  46  64  84 112 144 174 206 245
#     4   8  15  28  45  64  85 111 143 177 208 240
#     4  10  18  28  44  63  84 111 143 176 207 245
#
# _framework density 14.975603
#
# number of rings (size 3 to 8) (size 9 to 14) (size 15 to 20)
#    0.000    3.000    0.000    3.429    0.000    6.571 
#    0.000    5.714    0.000    0.000    0.000    1.000 
#    0.000    0.000    0.000    0.000    0.000    0.000 
#
# Total GULP energy -155934.256093 kJ/mol
# GULP energy per Si atom -5569.080575 kJ/mol
# Density = 1.494152 g / cm^3
# Si number density = 14.975603 Si / 1000 Ang^3
#
#
#
# Elastic Constant Matrix: (Units=GPa)
#
#
# Indices 1 2 3 4 5 6 
#
# 1 103.5860 21.8358 60.4585 0.0000 4.5186 0.0000
# 2 21.8358 20.4977 29.9806 0.0000 2.9782 0.0000
# 3 60.4585 29.9806 131.8736 0.0000 2.0989 0.0000
# 4 0.0000 0.0000 0.0000 22.1610 0.0000 0.6425
# 5 4.5186 2.9782 2.0989 0.0000 23.4013 0.0000
# 6 0.0000 0.0000 0.0000 0.6425 0.0000 18.4006
#
#
#
# Elastic Compliance Matrix: (Units=1/GPa)
#
#
# Indices 1 2 3 4 5 6 
#
# 1 0.014105 -0.008108 -0.004603 0.000000 -0.001279 0.000000
# 2 -0.008108 0.079209 -0.014175 0.000000 -0.007244 0.000000
# 3 -0.004603 -0.014175 0.012892 0.000000 0.001537 0.000000
# 4 0.000000 0.000000 0.000000 0.045170 0.000000 -0.001577
# 5 -0.001279 -0.007244 0.001537 0.000000 0.043764 0.000000
# 6 0.000000 0.000000 0.000000 -0.001577 0.000000 0.054401
#
#
# Mechanical properties :
#
#
# Convention : Reuss Voigt Hill
#
# Bulk Modulus (GPa) = 19.07181 53.38967 36.23074
# Shear Modulus (GPa) = 15.58650 22.37139 18.97895
#
# Velocity S-wave (km/s) = 3.22963 3.86924 3.56381
# Velocity P-wave (km/s) = 5.16433 7.46256 6.41717
#
# Compressibility (1/GPa) = 0.05243341
#
# Stress axis : x y z
#
# Youngs Moduli (GPa) = 70.89521 12.62489 77.57026
#
# Poissons Ratio (x) = 0.10236 0.35706
# Poissons Ratio (y) = 0.57480 1.09958
# Poissons Ratio (z) = 0.32634 0.17896
#
# Static dielectric constant tensor:
#      x y z
#    x 1.480680 0.000000 -0.003600 
#    y 0.000000 1.507560 0.000000 
#    z -0.003600 0.000000 1.506430 
# 
# From -- ./inp_files/247924.got.cif
#   From: 2010.05.17/outbox.cif.g08.bks.cpg/sg12_124_cif.got.tgz:247924.got - 2010.06.03 13:09:07.
