data_PCOD9171692
_publ_section_title
;
Structure prediction by ZEFSAII (Michael W. Deem and Ramdas Pophale) SiO2 
 PCOD9171692
Probable space group: C 2/M
;
_chemical_formula_sum "Si O2"
_cell_formula_units_Z 64
_cell_length_a 19.794861
_cell_length_b 7.678258
_cell_length_c 22.316681
_cell_angle_alpha 90.000000
_cell_angle_beta 102.764842
_cell_angle_gamma 90.000000
_cell_volume 3308.082716
_symmetry_space_group_name_H-M "C 2/M"
_symmetry_group_IT_number 12
_symmetry_cell_setting 'monoclinic'
loop_
_space_group_symop_operation_xyz
x,y,z
-x,y,-z
-x,-y,-z
x,-y,z
1/2+x,1/2+y,z
1/2-x,1/2+y,-z
1/2-x,1/2-y,-z
1/2+x,1/2-y,z
loop_
_atom_site_type_symbol
_atom_site_label
_atom_site_fract_x
_atom_site_fract_y
_atom_site_fract_z
Si Si1 0.964878 0.290321 0.053773
Si Si2 0.619587 0.785748 0.677240
Si Si3 0.811146 0.709753 0.057446
Si Si4 0.658067 0.789580 0.428349
Si Si5 0.816060 0.708299 0.434237
Si Si6 0.833622 0.302535 0.189661
Si Si7 0.014365 0.201442 0.813244
Si Si8 0.535653 0.209798 0.319122
O O1 0.962383 0.500000 0.049585
O O2 0.885803 0.227409 0.047866
O O3 0.005423 0.243891 0.122671
O O4 0.000000 0.224397 0.000000
O O5 0.648595 0.725708 0.619330
O O6 0.664701 0.724670 0.743414
O O7 0.539941 0.732500 0.672168
O O8 0.620750 0.000000 0.678853
O O9 0.816173 0.500000 0.063605
O O10 0.800082 0.777648 0.123360
O O11 0.750000 0.750000 0.000000
O O12 0.734137 0.743584 0.419326
O O13 0.654271 0.725384 0.496423
O O14 0.597384 0.725263 0.373179
O O15 0.653723 0.000000 0.429332
O O16 0.825958 0.500000 0.436243
O O17 0.807157 0.500000 0.190318
O O18 0.915616 0.306906 0.188409
O O19 0.960466 0.238500 0.749853
O O20 0.033936 0.000000 0.813953
O O21 0.536169 0.000000 0.321482
#
# Coordination Sequence:
#
# PCOD9171692 Si02
#       8
#     8   8   8   8   8   8   8   8
#     4   9  18  34  53  69  91 127 163 189 222 275
#     4   8  14  27  49  71  88 113 152 195 232 267
#     4   9  17  29  47  69  92 120 152 186 225 269
#     4   9  18  31  47  67  92 125 157 185 226 280
#     4   9  17  30  48  69  93 120 152 191 234 278
#     4   8  15  30  48  65  89 123 157 185 225 281
#     4  10  18  28  46  72  97 119 149 192 238 275
#     4   9  17  31  49  67  91 122 156 190 225 274
#
# _framework density 19.346553
#
# number of rings (size 3 to 8) (size 9 to 14) (size 15 to 20)
#    0.000    3.125    0.000    2.625    0.000    3.250 
#    0.000    6.250    0.000    3.000    0.000    7.000 
#    0.000    0.000    0.000    0.000    0.000    0.000 
#
# Total GULP energy -178247.421422 kJ/mol
# GULP energy per Si atom -5570.231919 kJ/mol
# Density = 1.930252 g / cm^3
# Si number density = 19.346553 Si / 1000 Ang^3
#
#
#
# Elastic Constant Matrix: (Units=GPa)
#
#
# Indices 1 2 3 4 5 6 
#
# 1 59.6189 0.8015 93.0008 0.0000 4.9579 0.0000
# 2 0.8015 39.7447 0.7414 0.0000 -1.8041 0.0000
# 3 93.0008 0.7414 227.4804 0.0000 6.1098 0.0000
# 4 0.0000 0.0000 0.0000 10.6174 0.0000 6.5092
# 5 4.9579 -1.8041 6.1098 0.0000 36.2629 0.0000
# 6 0.0000 0.0000 0.0000 6.5092 0.0000 12.7068
#
#
#
# Elastic Compliance Matrix: (Units=1/GPa)
#
#
# Indices 1 2 3 4 5 6 
#
# 1 0.046685 -0.000733 -0.018998 0.000000 -0.003219 0.000000
# 2 -0.000733 0.025232 0.000182 0.000000 0.001325 0.000000
# 3 -0.018998 0.000182 0.012147 0.000000 0.000560 0.000000
# 4 0.000000 0.000000 0.000000 0.137306 0.000000 -0.070337
# 5 -0.003219 0.001325 0.000560 0.000000 0.027988 0.000000
# 6 0.000000 0.000000 0.000000 -0.070337 0.000000 0.114729
#
#
# Mechanical properties :
#
#
# Convention : Reuss Voigt Hill
#
# Bulk Modulus (GPa) = 22.23854 57.32571 39.78213
# Shear Modulus (GPa) = 11.95671 27.40411 19.68041
#
# Velocity S-wave (km/s) = 2.48871 3.76771 3.19291
# Velocity P-wave (km/s) = 4.44725 6.97300 5.84811
#
# Compressibility (1/GPa) = 0.04496698
#
# Stress axis : x y z
#
# Youngs Moduli (GPa) = 21.41995 39.63200 82.32394
#
# Poissons Ratio (x) = 0.02906 1.56396
# Poissons Ratio (y) = 0.01571 -0.01498
# Poissons Ratio (z) = 0.40693 -0.00721
#
# Static dielectric constant tensor:
#      x y z
#    x 1.632670 0.000000 0.000270 
#    y 0.000000 1.733930 0.000000 
#    z 0.000270 0.000000 1.727850 
# 
# From -- ./inp_files/319203.got.cif
#   From: 2010.05.17/outbox.cif.g08.bks.cpg/sg12_160_cif.got.tgz:319203.got - 2010.06.03 13:09:07.
