data_PCOD9171209
_publ_section_title
;
Structure prediction by ZEFSAII (Michael W. Deem and Ramdas Pophale) SiO2 
 PCOD9171209
Probable space group: C 2/M
;
_chemical_formula_sum "Si O2"
_cell_formula_units_Z 56
_cell_length_a 24.613332
_cell_length_b 9.655471
_cell_length_c 17.948034
_cell_angle_alpha 90.000000
_cell_angle_beta 64.178172
_cell_angle_gamma 90.000000
_cell_volume 3839.520937
_symmetry_space_group_name_H-M "C 2/M"
_symmetry_group_IT_number 12
_symmetry_cell_setting 'monoclinic'
loop_
_space_group_symop_operation_xyz
x,y,z
-x,y,-z
-x,-y,-z
x,-y,z
1/2+x,1/2+y,z
1/2-x,1/2+y,-z
1/2-x,1/2-y,-z
1/2+x,1/2-y,z
loop_
_atom_site_type_symbol
_atom_site_label
_atom_site_fract_x
_atom_site_fract_y
_atom_site_fract_z
Si Si1 0.162888 0.161431 0.018431
Si Si2 0.797043 0.662765 0.869496
Si Si3 0.859437 0.665668 0.221209
Si Si4 0.689480 0.659270 0.449656
Si Si5 0.218211 0.165639 0.267926
Si Si6 0.833257 0.340352 0.400835
Si Si7 0.569891 0.664717 0.942961
O O1 0.165772 0.261807 0.087424
O O2 0.157475 0.000000 0.044801
O O3 0.226806 0.174527 0.937046
O O4 0.110036 0.194901 0.992070
O O5 0.811107 0.500000 0.854617
O O6 0.803502 0.744576 0.788447
O O7 0.869407 0.500000 0.211060
O O8 0.790074 0.689598 0.236848
O O9 0.863798 0.707575 0.305584
O O10 0.903401 0.748632 0.141255
O O11 0.670007 0.500000 0.467031
O O12 0.686165 0.702853 0.365327
O O13 0.761293 0.662119 0.425731
O O14 0.657338 0.751083 0.531031
O O15 0.210628 0.000000 0.260263
O O16 0.849648 0.500000 0.404141
O O17 0.576211 0.500000 0.924185
O O18 0.500000 0.694754 0.000000
#
# Coordination Sequence:
#
# PCOD9171209 Si02
#       7
#     8   8   8   8   8   8   8
#     4   9  18  31  43  59  83 110 139 175 218 253
#     4  10  18  27  43  64  83 109 144 176 209 254
#     4   9  17  28  42  59  82 112 145 176 211 253
#     4   8  14  23  35  54  79 109 140 167 201 244
#     4   9  16  26  40  59  86 115 141 172 209 250
#     4   8  14  24  36  53  78 108 139 171 204 241
#     4  10  20  33  47  63  84 110 144 183 218 252
#
# _framework density 14.585153
#
# number of rings (size 3 to 8) (size 9 to 14) (size 15 to 20)
#    0.000    3.000    1.429    2.143    0.000    2.571 
#    0.000    2.857    0.000    0.000    0.000    0.000 
#    0.000    1.143    0.000   12.857    0.000    7.000 
#
# Total GULP energy -155879.130386 kJ/mol
# GULP energy per Si atom -5567.111799 kJ/mol
# Density = 1.455196 g / cm^3
# Si number density = 14.585153 Si / 1000 Ang^3
#
#
#
# Elastic Constant Matrix: (Units=GPa)
#
#
# Indices 1 2 3 4 5 6 
#
# 1 50.9915 38.0675 51.8108 0.0000 8.5634 0.0000
# 2 38.0675 71.3363 84.4432 0.0000 22.2337 0.0000
# 3 51.8108 84.4432 138.1128 0.0000 31.9902 0.0000
# 4 0.0000 0.0000 0.0000 31.5098 0.0000 6.6353
# 5 8.5634 22.2337 31.9902 0.0000 20.2246 0.0000
# 6 0.0000 0.0000 0.0000 6.6353 0.0000 14.2633
#
#
#
# Elastic Compliance Matrix: (Units=1/GPa)
#
#
# Indices 1 2 3 4 5 6 
#
# 1 0.035720 -0.013258 -0.008154 0.000000 0.012348 0.000000
# 2 -0.013258 0.057143 -0.026378 0.000000 -0.015483 0.000000
# 3 -0.008154 -0.026378 0.029845 0.000000 -0.014756 0.000000
# 4 0.000000 0.000000 0.000000 0.035183 0.000000 -0.016367
# 5 0.012348 -0.015483 -0.014756 0.000000 0.084578 0.000000
# 6 0.000000 0.000000 0.000000 -0.016367 0.000000 0.077724
#
#
# Mechanical properties :
#
#
# Convention : Reuss Voigt Hill
#
# Bulk Modulus (GPa) = 36.86196 67.67597 52.26896
# Shear Modulus (GPa) = 11.76982 18.94081 15.35531
#
# Velocity S-wave (km/s) = 2.84381 3.60757 3.24821
# Velocity P-wave (km/s) = 6.00928 7.99087 7.06985
#
# Compressibility (1/GPa) = 0.02712824
#
# Stress axis : x y z
#
# Youngs Moduli (GPa) = 27.99557 17.49983 33.50657
#
# Poissons Ratio (x) = 0.23201 0.27321
# Poissons Ratio (y) = 0.37116 0.88384
# Poissons Ratio (z) = 0.22827 0.46161
#
# Static dielectric constant tensor:
#      x y z
#    x 1.457210 0.000000 0.015080 
#    y 0.000000 1.484240 0.000000 
#    z 0.015080 0.000000 1.479760 
# 
# From -- ./inp_files/287353.got.cif
#   From: 2010.05.17/outbox.cif.g08.bks.cpg/sg12_144_cif.got.tgz:287353.got - 2010.06.03 13:09:07.
