data_PCOD9171900
_publ_section_title
;
Structure prediction by ZEFSAII (Michael W. Deem and Ramdas Pophale) SiO2 
 PCOD9171900
Probable space group: C 2/M
;
_chemical_formula_sum "Si O2"
_cell_formula_units_Z 56
_cell_length_a 29.500069
_cell_length_b 9.475959
_cell_length_c 29.725540
_cell_angle_alpha 90.000000
_cell_angle_beta 153.247739
_cell_angle_gamma 90.000000
_cell_volume 3740.394985
_symmetry_space_group_name_H-M "C 2/M"
_symmetry_group_IT_number 12
_symmetry_cell_setting 'monoclinic'
loop_
_space_group_symop_operation_xyz
x,y,z
-x,y,-z
-x,-y,-z
x,-y,z
1/2+x,1/2+y,z
1/2-x,1/2+y,-z
1/2-x,1/2-y,-z
1/2+x,1/2-y,z
loop_
_atom_site_type_symbol
_atom_site_label
_atom_site_fract_x
_atom_site_fract_y
_atom_site_fract_z
Si Si1 0.965866 0.833143 0.359561
Si Si2 0.390378 0.668868 0.593940
Si Si3 0.137647 0.335671 0.242160
Si Si4 0.817824 0.332218 0.285179
Si Si5 0.131310 0.838878 0.583798
Si Si6 0.909120 0.831137 0.886827
Si Si7 0.839340 0.330705 0.636671
O O1 0.869780 0.743173 0.289026
O O2 0.021385 0.792442 0.362531
O O3 0.049003 0.814362 0.472645
O O4 0.942076 0.000000 0.336641
O O5 0.394551 0.500000 0.604826
O O6 0.280683 0.698806 0.474551
O O7 0.392213 0.751033 0.642502
O O8 0.108075 0.500000 0.212055
O O9 0.258021 0.329642 0.340039
O O10 0.087930 0.245213 0.158697
O O11 0.122385 0.288275 0.280009
O O12 0.830395 0.500000 0.294255
O O13 0.870238 0.268322 0.376284
O O14 0.699308 0.299517 0.186572
O O15 0.119159 0.000000 0.590245
O O16 0.913668 0.000000 0.884228
O O17 0.000000 0.788850 0.000000
O O18 0.850887 0.500000 0.642801
#
# Coordination Sequence:
#
# PCOD9171900 Si02
#       7
#     8   8   8   8   8   8   8
#     4  10  18  29  43  60  87 124 155 176 208 255
#     4   9  17  28  42  61  88 123 158 183 207 250
#     4   9  16  28  47  68  90 116 149 185 218 258
#     4  10  20  30  42  63  87 111 145 185 221 260
#     4   9  16  28  43  59  85 122 153 174 206 255
#     4   9  19  35  50  65  88 115 143 181 230 277
#     4   9  16  28  43  63  90 119 151 186 219 248
#
# _framework density 14.971681
#
# number of rings (size 3 to 8) (size 9 to 14) (size 15 to 20)
#    0.000    2.714    1.429    0.857    0.000    4.286 
#    0.000    0.000    0.000    0.000    0.000    1.000 
#    0.000    0.000    0.000    0.000    0.000    0.000 
#
# Total GULP energy -156031.303136 kJ/mol
# GULP energy per Si atom -5572.546541 kJ/mol
# Density = 1.493761 g / cm^3
# Si number density = 14.971681 Si / 1000 Ang^3
#
#
#
# Elastic Constant Matrix: (Units=GPa)
#
#
# Indices 1 2 3 4 5 6 
#
# 1 143.4764 61.2418 49.7258 0.0000 -13.1554 0.0000
# 2 61.2418 42.7308 37.4098 0.0000 -6.2022 0.0000
# 3 49.7258 37.4098 69.6216 0.0000 -15.7726 0.0000
# 4 0.0000 0.0000 0.0000 17.3356 0.0000 -2.4215
# 5 -13.1554 -6.2022 -15.7726 0.0000 15.0445 0.0000
# 6 0.0000 0.0000 0.0000 -2.4215 0.0000 30.0989
#
#
#
# Elastic Compliance Matrix: (Units=1/GPa)
#
#
# Indices 1 2 3 4 5 6 
#
# 1 0.018960 -0.029833 0.004535 0.000000 0.009035 0.000000
# 2 -0.029833 0.092027 -0.033386 0.000000 -0.023150 0.000000
# 3 0.004535 -0.033386 0.035206 0.000000 0.027112 0.000000
# 4 0.000000 0.000000 0.000000 0.058340 0.000000 0.004694
# 5 0.009035 -0.023150 0.027112 0.000000 0.093250 0.000000
# 6 0.000000 0.000000 0.000000 0.004694 0.000000 0.033601
#
#
# Mechanical properties :
#
#
# Convention : Reuss Voigt Hill
#
# Bulk Modulus (GPa) = 34.69153 61.39815 48.04484
# Shear Modulus (GPa) = 10.90839 19.65923 15.28381
#
# Velocity S-wave (km/s) = 2.70219 3.62760 3.19854
# Velocity P-wave (km/s) = 5.74086 7.65797 6.76764
#
# Compressibility (1/GPa) = 0.02882548
#
# Stress axis : x y z
#
# Youngs Moduli (GPa) = 52.74126 10.86632 28.40441
#
# Poissons Ratio (x) = 0.32417 -0.12881
# Poissons Ratio (y) = 1.57343 0.94831
# Poissons Ratio (z) = -0.23918 0.36278
#
# Static dielectric constant tensor:
#      x y z
#    x 1.506090 0.000000 0.008930 
#    y 0.000000 1.496500 0.000000 
#    z 0.008930 0.000000 1.475810 
# 
# From -- ./inp_files/247736.got.cif
#   From: 2010.05.17/outbox.cif.g08.bks.cpg/sg12_124_cif.got.tgz:247736.got - 2010.06.03 13:09:07.
