data_PCOD9171715
_publ_section_title
;
Structure prediction by ZEFSAII (Michael W. Deem and Ramdas Pophale) SiO2 
 PCOD9171715
Probable space group: C 2/M
;
_chemical_formula_sum "Si O2"
_cell_formula_units_Z 48
_cell_length_a 16.181983
_cell_length_b 12.969587
_cell_length_c 32.053212
_cell_angle_alpha 90.000000
_cell_angle_beta 160.758570
_cell_angle_gamma 90.000000
_cell_volume 2216.919930
_symmetry_space_group_name_H-M "C 2/M"
_symmetry_group_IT_number 12
_symmetry_cell_setting 'monoclinic'
loop_
_space_group_symop_operation_xyz
x,y,z
-x,y,-z
-x,-y,-z
x,-y,z
1/2+x,1/2+y,z
1/2-x,1/2+y,-z
1/2-x,1/2-y,-z
1/2+x,1/2-y,z
loop_
_atom_site_type_symbol
_atom_site_label
_atom_site_fract_x
_atom_site_fract_y
_atom_site_fract_z
Si Si1 0.791327 0.833238 0.648972
Si Si2 0.562396 0.384156 0.695223
Si Si3 0.953174 0.626680 0.026947
Si Si4 0.083683 0.885206 0.201183
Si Si5 0.796983 0.387014 0.633091
Si Si6 0.887444 0.375885 0.578075
O O1 0.500000 0.826661 0.500000
O O2 0.831432 0.891717 0.710386
O O3 0.890732 0.715430 0.700646
O O4 0.920676 0.886547 0.671862
O O5 0.617856 0.500000 0.706001
O O6 0.352848 0.339805 0.563759
O O7 0.826164 0.338574 0.836579
O O8 0.949982 0.500000 0.024663
O O9 0.692006 0.662240 0.923476
O O10 0.000000 0.655973 0.000000
O O11 0.331267 0.836871 0.298168
O O12 0.048481 0.000000 0.165987
O O13 0.500000 0.393150 0.500000
O O14 0.904731 0.500000 0.695037
O O15 0.834824 0.366589 0.602019
O O16 0.900421 0.500000 0.574947
#
# Coordination Sequence:
#
# PCOD9171715 Si02
#       6
#     8   8   8   8   8   8
#     4  11  19  28  47  78 102 137 166 202 256 300
#     4  10  18  28  46  78 113 138 163 195 248 313
#     4   9  16  26  43  71 113 152 164 179 233 318
#     4  10  18  29  49  82 114 134 159 197 254 315
#     4   9  20  38  53  71  97 132 180 224 258 292
#     4   9  18  32  52  77 104 131 165 218 259 292
#
# _framework density 21.651661000000001
#
# number of rings (size 3 to 8) (size 9 to 14) (size 15 to 20)
#    0.000    2.333    3.333    0.500    0.000    1.333 
#    0.000    0.000    0.000    1.000    8.667    2.333 
#    0.000    1.000    0.000    0.000    0.000    0.000 
#
# Total GULP energy -133677.434099 kJ/mol
# GULP energy per Si atom -5569.893087 kJ/mol
# Density = 2.160238 g / cm^3
# Si number density = 21.651661 Si / 1000 Ang^3
#
#
#
# Elastic Constant Matrix: (Units=GPa)
#
#
# Indices 1 2 3 4 5 6 
#
# 1 96.2860 10.0453 60.1860 -0.0031 29.5871 0.0007
# 2 10.0453 79.0139 20.3330 -0.0039 -4.2037 -0.0161
# 3 60.1860 20.3330 167.2163 -0.0287 27.4153 -0.0783
# 4 -0.0031 -0.0039 -0.0287 18.6202 0.0018 1.4097
# 5 29.5871 -4.2037 27.4153 0.0018 35.9547 -0.0302
# 6 0.0007 -0.0161 -0.0783 1.4097 -0.0302 115.1022
#
#
#
# Elastic Compliance Matrix: (Units=1/GPa)
#
#
# Indices 1 2 3 4 5 6 
#
# 1 0.016255 -0.001621 -0.003919 -0.000002 -0.010577 -0.000006
# 2 -0.001621 0.013542 -0.001762 -0.000001 0.004260 0.000002
# 3 -0.003919 -0.001762 0.008126 0.000011 -0.003177 0.000004
# 4 -0.000002 -0.000001 0.000011 0.053755 -0.000010 -0.000658
# 5 -0.010577 0.004260 -0.003177 -0.000010 0.039437 0.000009
# 6 -0.000006 0.000002 0.000004 -0.000658 0.000009 0.008696
#
#
# Mechanical properties :
#
#
# Convention : Reuss Voigt Hill
#
# Bulk Modulus (GPa) = 42.88309 58.18274 50.53292
# Shear Modulus (GPa) = 30.82845 50.73222 40.78034
#
# Velocity S-wave (km/s) = 3.77747 4.84582 4.34461
# Velocity P-wave (km/s) = 6.23495 7.63150 6.96830
#
# Compressibility (1/GPa) = 0.02331922
#
# Stress axis : x y z
#
# Youngs Moduli (GPa) = 61.51998 73.84395 123.06074
#
# Poissons Ratio (x) = 0.11968 0.48233
# Poissons Ratio (y) = 0.09970 0.21681
# Poissons Ratio (z) = 0.24112 0.13010
#
# Static dielectric constant tensor:
#      x y z
#    x 1.756600 0.000010 0.056410 
#    y 0.000010 1.919690 0.000000 
#    z 0.056410 0.000000 1.840620 
# 
# From -- ./inp_files/143202.got.cif
#   From: 2010.05.17/outbox.cif.g08.bks.cpg/sg12_72_cif.got.tgz:143202.got - 2010.06.03 13:09:07.
