data_PCOD9171749
_publ_section_title
;
Structure prediction by ZEFSAII (Michael W. Deem and Ramdas Pophale) SiO2 
 PCOD9171749
Probable space group: C 2/M
;
_chemical_formula_sum "Si O2"
_cell_formula_units_Z 48
_cell_length_a 23.218222
_cell_length_b 9.148967
_cell_length_c 14.312568
_cell_angle_alpha 90.000000
_cell_angle_beta 77.445947
_cell_angle_gamma 90.000000
_cell_volume 2967.625282
_symmetry_space_group_name_H-M "C 2/M"
_symmetry_group_IT_number 12
_symmetry_cell_setting 'monoclinic'
loop_
_space_group_symop_operation_xyz
x,y,z
-x,y,-z
-x,-y,-z
x,-y,z
1/2+x,1/2+y,z
1/2-x,1/2+y,-z
1/2-x,1/2-y,-z
1/2+x,1/2-y,z
loop_
_atom_site_type_symbol
_atom_site_label
_atom_site_fract_x
_atom_site_fract_y
_atom_site_fract_z
Si Si1 0.945885 0.675435 0.587328
Si Si2 0.931565 0.332229 0.990040
Si Si3 0.602959 0.325323 0.818009
Si Si4 0.172117 0.174081 0.443520
Si Si5 0.208029 0.174517 0.643030
Si Si6 0.984964 0.323726 0.783252
O O1 0.937452 0.500000 0.584955
O O2 0.886744 0.754265 0.575601
O O3 0.963375 0.712220 0.687411
O O4 0.000000 0.714079 0.500000
O O5 0.910810 0.500000 0.002273
O O6 0.897198 0.233940 0.076034
O O7 0.937320 0.284395 0.880418
O O8 0.000000 0.331198 0.000000
O O9 0.596325 0.500000 0.819687
O O10 0.661783 0.286831 0.740073
O O11 0.546478 0.253384 0.786883
O O12 0.178995 0.206353 0.551996
O O13 0.230404 0.240847 0.375260
O O14 0.170707 0.000000 0.432718
O O15 0.219078 0.000000 0.642737
O O16 0.993402 0.500000 0.786843
#
# Coordination Sequence:
#
# PCOD9171749 Si02
#       6
#     8   8   8   8   8   8
#     4  10  20  33  50  71  96 127 158 187 226 278
#     4   8  15  28  44  64  93 125 155 189 230 276
#     4  10  18  28  47  73  96 120 154 196 236 271
#     4  10  20  33  50  71  94 123 157 192 231 273
#     4   9  19  34  49  68  96 125 153 190 235 279
#     4   9  18  31  46  67  97 130 157 185 229 280
#
# _framework density 16.174548999999999
#
# number of rings (size 3 to 8) (size 9 to 14) (size 15 to 20)
#    0.000    2.667    0.000    3.000    0.000    6.000 
#    0.000    0.000    0.000    1.000    0.000    0.000 
#    0.000    0.000    0.000    0.000    0.000    0.000 
#
# Total GULP energy -133793.486476 kJ/mol
# GULP energy per Si atom -5574.728603 kJ/mol
# Density = 1.613774 g / cm^3
# Si number density = 16.174549 Si / 1000 Ang^3
#
#
#
# Elastic Constant Matrix: (Units=GPa)
#
#
# Indices 1 2 3 4 5 6 
#
# 1 105.6928 52.1995 83.6765 0.0000 -7.5426 0.0000
# 2 52.1995 43.9250 61.3544 0.0000 -9.0696 0.0000
# 3 83.6765 61.3544 167.6078 0.0000 -14.4419 0.0000
# 4 0.0000 0.0000 0.0000 25.4326 0.0000 -1.2749
# 5 -7.5426 -9.0696 -14.4419 0.0000 23.8263 0.0000
# 6 0.0000 0.0000 0.0000 -1.2749 0.0000 22.9301
#
#
#
# Elastic Compliance Matrix: (Units=1/GPa)
#
#
# Indices 1 2 3 4 5 6 
#
# 1 0.023983 -0.024767 -0.003234 0.000000 -0.003796 0.000000
# 2 -0.024767 0.073581 -0.013539 0.000000 0.011962 0.000000
# 3 -0.003234 -0.013539 0.012666 0.000000 0.001500 0.000000
# 4 0.000000 0.000000 0.000000 0.039429 0.000000 0.002192
# 5 -0.003796 0.011962 0.001500 0.000000 0.046231 0.000000
# 6 0.000000 0.000000 0.000000 0.002192 0.000000 0.043733
#
#
# Mechanical properties :
#
#
# Convention : Reuss Voigt Hill
#
# Bulk Modulus (GPa) = 36.83440 79.07626 57.95533
# Shear Modulus (GPa) = 15.07141 22.43748 18.75445
#
# Velocity S-wave (km/s) = 3.05585 3.72857 3.40884
# Velocity P-wave (km/s) = 5.93914 8.21777 7.16956
#
# Compressibility (1/GPa) = 0.02714854
#
# Stress axis : x y z
#
# Youngs Moduli (GPa) = 41.69645 13.59053 78.94952
#
# Poissons Ratio (x) = 0.33660 0.25532
# Poissons Ratio (y) = 1.03270 1.06893
# Poissons Ratio (z) = 0.13485 0.18401
#
# Static dielectric constant tensor:
#      x y z
#    x 1.500740 0.000000 0.005010 
#    y 0.000000 1.539230 0.000000 
#    z 0.005010 0.000000 1.565440 
# 
# From -- ./inp_files/229838.got.cif
#   From: 2010.05.17/outbox.cif.g08.bks.cpg/sg12_115_cif.got.tgz:229838.got - 2010.06.03 13:09:07.
