data_PCOD9171960
_publ_section_title
;
Structure prediction by ZEFSAII (Michael W. Deem and Ramdas Pophale) SiO2 
 PCOD9171960
Probable space group: C 2/M
;
_chemical_formula_sum "Si O2"
_cell_formula_units_Z 56
_cell_length_a 33.091951
_cell_length_b 9.156331
_cell_length_c 13.946563
_cell_angle_alpha 90.000000
_cell_angle_beta 63.732901
_cell_angle_gamma 90.000000
_cell_volume 3789.465300
_symmetry_space_group_name_H-M "C 2/M"
_symmetry_group_IT_number 12
_symmetry_cell_setting 'monoclinic'
loop_
_space_group_symop_operation_xyz
x,y,z
-x,y,-z
-x,-y,-z
x,-y,z
1/2+x,1/2+y,z
1/2-x,1/2+y,-z
1/2-x,1/2-y,-z
1/2+x,1/2-y,z
loop_
_atom_site_type_symbol
_atom_site_label
_atom_site_fract_x
_atom_site_fract_y
_atom_site_fract_z
Si Si1 0.276028 0.325114 0.834641
Si Si2 0.000409 0.831981 0.883121
Si Si3 0.591503 0.174754 0.016806
Si Si4 0.764127 0.174249 0.630052
Si Si5 0.407337 0.825946 0.212351
Si Si6 0.318444 0.824682 0.966239
Si Si7 0.819209 0.173646 0.381280
O O1 0.281146 0.500000 0.837732
O O2 0.280540 0.284711 0.718680
O O3 0.309713 0.247657 0.872644
O O4 0.225248 0.287746 0.923004
O O5 0.044846 0.742836 0.807883
O O6 0.953734 0.756113 0.903037
O O7 0.002828 0.000000 0.849184
O O8 0.000000 0.830766 0.000000
O O9 0.635596 0.220037 0.029689
O O10 0.585413 0.000000 0.033171
O O11 0.598551 0.202937 0.895843
O O12 0.800670 0.200243 0.508354
O O13 0.719159 0.260048 0.647730
O O14 0.753920 0.000000 0.641548
O O15 0.366083 0.751857 0.310460
O O16 0.407475 0.000000 0.225512
O O17 0.319181 0.000000 0.955681
O O18 0.823133 0.000000 0.363002
#
# Coordination Sequence:
#
# PCOD9171960 Si02
#       7
#     8   8   8   8   8   8   8
#     4   9  17  30  45  61  85 116 147 177 211 252
#     4   9  17  28  42  63  89 113 142 180 215 249
#     4   9  17  29  44  62  87 119 148 173 210 260
#     4   9  18  32  46  61  86 118 147 177 215 258
#     4  10  18  29  45  63  88 120 147 172 210 260
#     4   9  17  28  43  64  87 112 145 180 211 248
#     4  10  19  29  44  66  88 112 146 183 215 250
#
# _framework density 14.777809
#
# number of rings (size 3 to 8) (size 9 to 14) (size 15 to 20)
#    0.000    2.714    0.000    2.143    0.000    6.286 
#    0.000    2.857    0.000    0.000    0.000    1.000 
#    0.000    8.000    0.000    0.000    0.000    0.000 
#
# Total GULP energy -156059.155455 kJ/mol
# GULP energy per Si atom -5573.541266 kJ/mol
# Density = 1.474417 g / cm^3
# Si number density = 14.777809 Si / 1000 Ang^3
#
#
#
# Elastic Constant Matrix: (Units=GPa)
#
#
# Indices 1 2 3 4 5 6 
#
# 1 126.2886 50.5087 49.0936 0.0000 -8.8500 0.0000
# 2 50.5087 51.0497 41.4554 0.0000 -10.6268 0.0000
# 3 49.0936 41.4554 64.4360 0.0000 -5.8045 0.0000
# 4 0.0000 0.0000 0.0000 22.8069 0.0000 -3.7734
# 5 -8.8500 -10.6268 -5.8045 0.0000 28.3467 0.0000
# 6 0.0000 0.0000 0.0000 -3.7734 0.0000 27.9620
#
#
#
# Elastic Compliance Matrix: (Units=1/GPa)
#
#
# Indices 1 2 3 4 5 6 
#
# 1 0.013484 -0.010603 -0.003495 0.000000 -0.000481 0.000000
# 2 -0.010603 0.052445 -0.024644 0.000000 0.011304 0.000000
# 3 -0.003495 -0.024644 0.033729 0.000000 -0.003423 0.000000
# 4 0.000000 0.000000 0.000000 0.044848 0.000000 0.006052
# 5 -0.000481 0.011304 -0.003423 0.000000 0.038664 0.000000
# 6 0.000000 0.000000 0.000000 0.006052 0.000000 0.036579
#
#
# Mechanical properties :
#
#
# Convention : Reuss Voigt Hill
#
# Bulk Modulus (GPa) = 45.09961 58.20998 51.65479
# Shear Modulus (GPa) = 16.41361 22.53758 19.47560
#
# Velocity S-wave (km/s) = 3.33632 3.90948 3.63422
# Velocity P-wave (km/s) = 6.73989 7.73656 7.25536
#
# Compressibility (1/GPa) = 0.02217314
#
# Stress axis : x y z
#
# Youngs Moduli (GPa) = 74.16198 19.06761 29.64796
#
# Poissons Ratio (x) = 0.20217 0.10363
# Poissons Ratio (y) = 0.78632 0.73066
# Poissons Ratio (z) = 0.25922 0.46991
#
# Static dielectric constant tensor:
#      x y z
#    x 1.469440 0.000000 -0.001120 
#    y 0.000000 1.494510 0.000000 
#    z -0.001120 0.000000 1.476080 
# 
# From -- ./inp_files/247713.got.cif
#   From: 2010.05.17/outbox.cif.g08.bks.cpg/sg12_124_cif.got.tgz:247713.got - 2010.06.03 13:09:07.
