data_PCOD9171912
_publ_section_title
;
Structure prediction by ZEFSAII (Michael W. Deem and Ramdas Pophale) SiO2 
 PCOD9171912
Probable space group: C 2/M
;
_chemical_formula_sum "Si O2"
_cell_formula_units_Z 56
_cell_length_a 28.109877
_cell_length_b 8.506753
_cell_length_c 14.930680
_cell_angle_alpha 90.000000
_cell_angle_beta 104.203645
_cell_angle_gamma 90.000000
_cell_volume 3461.136247
_symmetry_space_group_name_H-M "C 2/M"
_symmetry_group_IT_number 12
_symmetry_cell_setting 'monoclinic'
loop_
_space_group_symop_operation_xyz
x,y,z
-x,y,-z
-x,-y,-z
x,-y,z
1/2+x,1/2+y,z
1/2-x,1/2+y,-z
1/2-x,1/2-y,-z
1/2+x,1/2-y,z
loop_
_atom_site_type_symbol
_atom_site_label
_atom_site_fract_x
_atom_site_fract_y
_atom_site_fract_z
Si Si1 0.183756 0.185903 0.275501
Si Si2 0.363913 0.689745 0.570897
Si Si3 0.714875 0.314046 0.610435
Si Si4 0.864868 0.313220 0.293082
Si Si5 0.555707 0.189054 0.527087
Si Si6 0.818912 0.812888 0.105387
Si Si7 0.206793 0.687092 0.093951
O O1 0.143662 0.240120 0.330084
O O2 0.236021 0.220111 0.346608
O O3 0.185313 0.268337 0.180246
O O4 0.178424 0.000000 0.258993
O O5 0.364624 0.500000 0.569127
O O6 0.315956 0.738299 0.490737
O O7 0.411073 0.750522 0.539543
O O8 0.725737 0.500000 0.609847
O O9 0.677503 0.281772 0.674622
O O10 0.856687 0.500000 0.300950
O O11 0.915102 0.271702 0.367796
O O12 0.858894 0.268546 0.187010
O O13 0.500000 0.248375 0.500000
O O14 0.554459 0.000000 0.520487
O O15 0.764195 0.762267 0.113588
O O16 0.822498 0.000000 0.116486
O O17 0.820603 0.765536 0.002353
O O18 0.206019 0.500000 0.081938
#
# Coordination Sequence:
#
# PCOD9171912 Si02
#       7
#     8   8   8   8   8   8   8
#     4  11  20  30  44  65  95 129 162 195 232 275
#     4   9  20  33  46  67  94 125 160 195 234 282
#     4  10  18  29  43  63  93 127 163 196 226 271
#     4  10  18  29  48  70  95 126 158 195 238 282
#     4   9  19  35  53  74  97 122 156 198 241 284
#     4  10  19  31  46  66  94 126 162 201 234 275
#     4  10  20  31  45  65  93 129 165 199 232 273
#
# _framework density 16.179658
#
# number of rings (size 3 to 8) (size 9 to 14) (size 15 to 20)
#    0.000    2.143    1.429    2.571    0.000    3.714 
#    0.000    0.000    0.000    0.000    0.000    1.000 
#    0.000    8.000    0.000    0.000    0.000    0.000 
#
# Total GULP energy -156163.467433 kJ/mol
# GULP energy per Si atom -5577.266694 kJ/mol
# Density = 1.614283 g / cm^3
# Si number density = 16.179658 Si / 1000 Ang^3
#
#
#
# Elastic Constant Matrix: (Units=GPa)
#
#
# Indices 1 2 3 4 5 6 
#
# 1 63.3506 3.6534 52.1324 0.0000 2.1866 0.0000
# 2 3.6534 16.1721 11.2854 0.0000 1.0706 0.0000
# 3 52.1324 11.2854 110.6248 0.0000 -13.7820 0.0000
# 4 0.0000 0.0000 0.0000 23.6434 0.0000 -3.2150
# 5 2.1866 1.0706 -13.7820 0.0000 17.5277 0.0000
# 6 0.0000 0.0000 0.0000 -3.2150 0.0000 15.6953
#
#
#
# Elastic Compliance Matrix: (Units=1/GPa)
#
#
# Indices 1 2 3 4 5 6 
#
# 1 0.029948 0.006190 -0.016914 0.000000 -0.017414 0.000000
# 2 0.006190 0.069619 -0.011801 0.000000 -0.014304 0.000000
# 3 -0.016914 -0.011801 0.020583 0.000000 0.019016 0.000000
# 4 0.000000 0.000000 0.000000 0.043507 0.000000 0.008912
# 5 -0.017414 -0.014304 0.019016 0.000000 0.075051 0.000000
# 6 0.000000 0.000000 0.000000 0.008912 0.000000 0.065539
#
#
# Mechanical properties :
#
#
# Convention : Reuss Voigt Hill
#
# Bulk Modulus (GPa) = 13.31557 36.03222 24.67389
# Shear Modulus (GPa) = 13.35716 19.57836 16.46776
#
# Velocity S-wave (km/s) = 2.87636 3.48237 3.19377
# Velocity P-wave (km/s) = 4.39078 6.20384 5.37432
#
# Compressibility (1/GPa) = 0.07510007
#
# Stress axis : x y z
#
# Youngs Moduli (GPa) = 33.39088 14.36391 48.58273
#
# Poissons Ratio (x) = -0.08892 0.82174
# Poissons Ratio (y) = -0.20670 0.57335
# Poissons Ratio (z) = 0.56478 0.16952
#
# Static dielectric constant tensor:
#      x y z
#    x 1.527830 0.000000 -0.010350 
#    y 0.000000 1.544390 0.000000 
#    z -0.010350 0.000000 1.572140 
# 
# From -- ./inp_files/243018.got.cif
#   From: 2010.05.17/outbox.cif.g08.bks.cpg/sg12_122_cif.got.tgz:243018.got - 2010.06.03 13:09:07.
