data_PCOD9171446
_publ_section_title
;
Structure prediction by ZEFSAII (Michael W. Deem and Ramdas Pophale) SiO2 
 PCOD9171446
Probable space group: C 2/M
;
_chemical_formula_sum "Si O2"
_cell_formula_units_Z 64
_cell_length_a 28.088111
_cell_length_b 8.730341
_cell_length_c 20.175235
_cell_angle_alpha 90.000000
_cell_angle_beta 120.722189
_cell_angle_gamma 90.000000
_cell_volume 4253.008759
_symmetry_space_group_name_H-M "C 2/M"
_symmetry_group_IT_number 12
_symmetry_cell_setting 'monoclinic'
loop_
_space_group_symop_operation_xyz
x,y,z
-x,y,-z
-x,-y,-z
x,-y,z
1/2+x,1/2+y,z
1/2-x,1/2+y,-z
1/2-x,1/2-y,-z
1/2+x,1/2-y,z
loop_
_atom_site_type_symbol
_atom_site_label
_atom_site_fract_x
_atom_site_fract_y
_atom_site_fract_z
Si Si1 0.801481 0.815977 0.994775
Si Si2 0.209175 0.316462 0.525350
Si Si3 0.032221 0.317401 0.683452
Si Si4 0.291161 0.816102 0.323725
Si Si5 0.755785 0.183904 0.166077
Si Si6 0.082423 0.314938 0.444508
Si Si7 0.632056 0.316267 0.834482
Si Si8 0.086186 0.182422 0.591042
O O1 0.792769 0.743573 0.916605
O O2 0.797616 0.000000 0.988056
O O3 0.750000 0.750000 0.000000
O O4 0.853341 0.776604 0.078919
O O5 0.210057 0.500000 0.521016
O O6 0.250000 0.250000 0.500000
O O7 0.225981 0.277192 0.613107
O O8 0.144897 0.267144 0.470337
O O9 0.036170 0.500000 0.688191
O O10 0.075168 0.250757 0.766879
O O11 0.052740 0.258576 0.626650
O O12 0.967217 0.274673 0.640760
O O13 0.253561 0.756394 0.237248
O O14 0.350311 0.735113 0.355440
O O15 0.297890 0.000000 0.324585
O O16 0.814908 0.230679 0.173594
O O17 0.755077 0.000000 0.168570
O O18 0.082972 0.500000 0.452860
O O19 0.069435 0.242143 0.506755
O O20 0.629587 0.500000 0.827831
O O21 0.081454 0.000000 0.591434
#
# Coordination Sequence:
#
# PCOD9171446 Si02
#       8
#     8   8   8   8   8   8   8   8
#     4   9  17  28  41  57  83 119 155 190 224 260
#     4   9  19  35  52  68  88 112 143 184 228 272
#     4  11  20  29  44  61  85 121 154 183 217 259
#     4  10  19  31  47  66  89 119 151 183 222 269
#     4  10  18  28  43  64  89 116 151 192 224 259
#     4   9  20  35  46  62  86 114 149 183 219 267
#     4   9  18  29  40  59  88 119 154 190 221 252
#     4  11  20  29  42  62  88 116 149 187 222 256
#
# _framework density 15.048171
#
# number of rings (size 3 to 8) (size 9 to 14) (size 15 to 20)
#    0.000    2.250    1.250    4.500    0.000    7.500 
#    0.000    0.000    0.000    0.000    0.000    0.000 
#    0.000    1.000    0.000   11.250    0.000    5.000 
#
# Total GULP energy -178325.859586 kJ/mol
# GULP energy per Si atom -5572.683112 kJ/mol
# Density = 1.501392 g / cm^3
# Si number density = 15.048171 Si / 1000 Ang^3
#
#
#
# Elastic Constant Matrix: (Units=GPa)
#
#
# Indices 1 2 3 4 5 6 
#
# 1 55.6971 12.6640 55.4937 0.0000 -4.8874 0.0000
# 2 12.6640 20.1974 34.9501 0.0000 2.1626 0.0000
# 3 55.4937 34.9501 148.9150 0.0000 6.6707 0.0000
# 4 0.0000 0.0000 0.0000 27.9016 0.0000 -2.6430
# 5 -4.8874 2.1626 6.6707 0.0000 11.9947 0.0000
# 6 0.0000 0.0000 0.0000 -2.6430 0.0000 16.6442
#
#
#
# Elastic Compliance Matrix: (Units=1/GPa)
#
#
# Indices 1 2 3 4 5 6 
#
# 1 0.032928 -0.000044 -0.013190 0.000000 0.020761 0.000000
# 2 -0.000044 0.083583 -0.019408 0.000000 -0.004294 0.000000
# 3 -0.013190 -0.019408 0.016685 0.000000 -0.011155 0.000000
# 4 0.000000 0.000000 0.000000 0.036388 0.000000 0.005778
# 5 0.020761 -0.004294 -0.011155 0.000000 0.098807 0.000000
# 6 0.000000 0.000000 0.000000 0.005778 0.000000 0.060998
#
#
# Mechanical properties :
#
#
# Convention : Reuss Voigt Hill
#
# Bulk Modulus (GPa) = 14.72507 47.89166 31.30836
# Shear Modulus (GPa) = 11.98145 19.42157 15.70151
#
# Velocity S-wave (km/s) = 2.82477 3.59643 3.23370
# Velocity P-wave (km/s) = 4.52169 7.01002 5.89856
#
# Compressibility (1/GPa) = 0.06791141
#
# Stress axis : x y z
#
# Youngs Moduli (GPa) = 30.36899 11.96417 59.93273
#
# Poissons Ratio (x) = 0.00053 0.79054
# Poissons Ratio (y) = 0.00134 1.16317
# Poissons Ratio (z) = 0.40058 0.23220
#
# Static dielectric constant tensor:
#      x y z
#    x 1.432240 0.000000 0.070750 
#    y 0.000000 1.502260 0.000000 
#    z 0.070750 0.000000 1.476880 
# 
# From -- ./inp_files/326594.got.cif
#   From: 2010.05.17/outbox.cif.g08.bks.cpg/sg12_164_cif.got.tgz:326594.got - 2010.06.03 13:09:07.
