data_PCOD9171725
_publ_section_title
;
Structure prediction by ZEFSAII (Michael W. Deem and Ramdas Pophale) SiO2 
 PCOD9171725
Probable space group: C 2/M
;
_chemical_formula_sum "Si O2"
_cell_formula_units_Z 48
_cell_length_a 14.155502
_cell_length_b 24.019713
_cell_length_c 10.319571
_cell_angle_alpha 90.000000
_cell_angle_beta 49.162393
_cell_angle_gamma 90.000000
_cell_volume 2654.615088
_symmetry_space_group_name_H-M "C 2/M"
_symmetry_group_IT_number 12
_symmetry_cell_setting 'monoclinic'
loop_
_space_group_symop_operation_xyz
x,y,z
-x,y,-z
-x,-y,-z
x,-y,z
1/2+x,1/2+y,z
1/2-x,1/2+y,-z
1/2-x,1/2-y,-z
1/2+x,1/2-y,z
loop_
_atom_site_type_symbol
_atom_site_label
_atom_site_fract_x
_atom_site_fract_y
_atom_site_fract_z
Si Si1 0.910105 0.166344 0.245530
Si Si2 0.557776 0.773192 0.205186
Si Si3 0.020105 0.936162 0.265858
Si Si4 0.219445 0.756091 0.818642
Si Si5 0.181702 0.662968 0.641812
Si Si6 0.207355 0.936251 0.320284
O O1 0.986798 0.109402 0.188592
O O2 0.866461 0.192298 0.148605
O O3 0.779691 0.157660 0.438135
O O4 0.986740 0.214095 0.253954
O O5 0.645808 0.773779 0.250940
O O6 0.454293 0.820754 0.287363
O O7 0.648348 0.775139 0.998854
O O8 0.905981 0.934757 0.472684
O O9 0.142555 0.921714 0.241197
O O10 0.030857 0.000000 0.210678
O O11 0.225126 0.714695 0.692468
O O12 0.192786 0.608125 0.720008
O O13 0.251719 0.000000 0.274658
#
# Coordination Sequence:
#
# PCOD9171725 Si02
#       6
#     8   8   8   8   8   8
#     4  10  18  28  47  71  91 112 145 190 228 262
#     4  10  20  32  45  62  90 125 152 178 219 271
#     4   8  14  25  42  66  94 119 144 180 226 269
#     4  10  20  32  45  62  90 125 152 178 219 271
#     4  10  18  28  47  71  91 112 145 190 228 262
#     4   8  14  25  42  66  94 119 144 180 226 269
#
# _framework density 18.081717000000001
#
# number of rings (size 3 to 8) (size 9 to 14) (size 15 to 20)
#    0.000    2.667    0.000    6.000    0.000    4.000 
#    0.000    0.000    0.000    5.000    0.000    9.333 
#    0.000    0.000    0.000    0.000    0.000    0.000 
#
# Total GULP energy -133815.788140 kJ/mol
# GULP energy per Si atom -5575.657839 kJ/mol
# Density = 1.804056 g / cm^3
# Si number density = 18.081717 Si / 1000 Ang^3
#
#
#
# Elastic Constant Matrix: (Units=GPa)
#
#
# Indices 1 2 3 4 5 6 
#
# 1 136.6184 56.8440 6.2368 0.0000 -18.1736 0.0000
# 2 56.8440 87.5324 -4.1964 0.0000 -10.6783 0.0000
# 3 6.2368 -4.1964 21.1168 0.0000 -6.4042 0.0000
# 4 0.0000 0.0000 0.0000 5.2633 0.0000 2.9139
# 5 -18.1736 -10.6783 -6.4042 0.0000 23.4089 0.0000
# 6 0.0000 0.0000 0.0000 2.9139 0.0000 31.8265
#
#
#
# Elastic Compliance Matrix: (Units=1/GPa)
#
#
# Indices 1 2 3 4 5 6 
#
# 1 0.010822 -0.006627 -0.003143 0.000000 0.004519 0.000000
# 2 -0.006627 0.016551 0.006517 0.000000 0.004188 0.000000
# 3 -0.003143 0.006517 0.054241 0.000000 0.015372 0.000000
# 4 0.000000 0.000000 0.000000 0.200138 0.000000 -0.018324
# 5 0.004519 0.004188 0.015372 0.000000 0.052343 0.000000
# 6 0.000000 0.000000 0.000000 -0.018324 0.000000 0.033098
#
#
# Mechanical properties :
#
#
# Convention : Reuss Voigt Hill
#
# Bulk Modulus (GPa) = 13.31430 40.33738 26.82584
# Shear Modulus (GPa) = 12.53967 24.52530 18.53248
#
# Velocity S-wave (km/s) = 2.63630 3.68687 3.20493
# Velocity P-wave (km/s) = 4.07997 6.36246 5.34448
#
# Compressibility (1/GPa) = 0.07510723
#
# Stress axis : x y z
#
# Youngs Moduli (GPa) = 92.40800 60.41828 18.43632
#
# Poissons Ratio (x) = 0.40039 0.05794
# Poissons Ratio (y) = 0.61239 -0.12014
# Poissons Ratio (z) = 0.29041 -0.39372
#
# Static dielectric constant tensor:
#      x y z
#    x 1.624370 0.000000 0.013900 
#    y 0.000000 1.623590 0.000000 
#    z 0.013900 0.000000 1.666030 
# 
# From -- ./inp_files/148289.got.cif
#   From: 2010.05.17/outbox.cif.g08.bks.cpg/sg12_75_cif.got.tgz:148289.got - 2010.06.03 13:09:07.
