data_PCOD9171406
_publ_section_title
;
Structure prediction by ZEFSAII (Michael W. Deem and Ramdas Pophale) SiO2 
 PCOD9171406
Probable space group: C 2/M
;
_chemical_formula_sum "Si O2"
_cell_formula_units_Z 64
_cell_length_a 30.775675
_cell_length_b 7.918764
_cell_length_c 14.641140
_cell_angle_alpha 90.000000
_cell_angle_beta 92.631722
_cell_angle_gamma 90.000000
_cell_volume 3564.360227
_symmetry_space_group_name_H-M "C 2/M"
_symmetry_group_IT_number 12
_symmetry_cell_setting 'monoclinic'
loop_
_space_group_symop_operation_xyz
x,y,z
-x,y,-z
-x,-y,-z
x,-y,z
1/2+x,1/2+y,z
1/2-x,1/2+y,-z
1/2-x,1/2-y,-z
1/2+x,1/2-y,z
loop_
_atom_site_type_symbol
_atom_site_label
_atom_site_fract_x
_atom_site_fract_y
_atom_site_fract_z
Si Si1 0.550563 0.793411 0.516033
Si Si2 0.559214 0.299927 0.037138
Si Si3 0.640859 0.794673 0.171824
Si Si4 0.122624 0.198679 0.894475
Si Si5 0.702393 0.197619 0.026329
Si Si6 0.081805 0.694156 0.713272
Si Si7 0.496749 0.300673 0.806751
Si Si8 0.415330 0.204867 0.674763
O O1 0.500000 0.740134 0.500000
O O2 0.572160 0.731885 0.612221
O O3 0.577847 0.744419 0.429188
O O4 0.549514 0.000000 0.520523
O O5 0.551190 0.500000 0.025805
O O6 0.600441 0.271327 0.107982
O O7 0.518757 0.237036 0.094598
O O8 0.579756 0.232997 0.944730
O O9 0.628554 0.747505 0.274466
O O10 0.640181 0.000000 0.168308
O O11 0.683035 0.731543 0.120420
O O12 0.165921 0.269734 0.945284
O O13 0.116127 0.226809 0.786701
O O14 0.123653 0.000000 0.912269
O O15 0.704968 0.000000 0.040615
O O16 0.750000 0.250000 0.000000
O O17 0.094289 0.500000 0.702897
O O18 0.035941 0.707476 0.761656
O O19 0.507935 0.500000 0.814909
O O20 0.455461 0.278879 0.736284
O O21 0.419181 0.000000 0.678493
#
# Coordination Sequence:
#
# PCOD9171406 Si02
#       8
#     8   8   8   8   8   8   8   8
#     4   9  16  28  46  66  88 122 166 205 240 278
#     4   8  16  29  44  60  86 122 156 188 230 278
#     4   8  15  26  45  71  95 117 150 191 226 268
#     4  10  20  35  50  67  93 124 155 193 236 279
#     4  10  19  33  53  79 103 124 149 180 225 282
#     4  11  21  32  45  63  90 125 164 202 237 279
#     4  10  18  28  42  63  88 120 160 200 237 274
#     4   9  15  28  47  65  89 123 160 200 238 271
#
# _framework density 17.955537
#
# number of rings (size 3 to 8) (size 9 to 14) (size 15 to 20)
#    0.000    2.625    1.250    1.500    0.000    2.000 
#    0.000    4.375    0.000    0.000    0.000    0.875 
#    0.000    0.000    0.000    0.000    0.000    0.000 
#
# Total GULP energy -178235.693426 kJ/mol
# GULP energy per Si atom -5569.865420 kJ/mol
# Density = 1.791467 g / cm^3
# Si number density = 17.955537 Si / 1000 Ang^3
#
#
#
# Elastic Constant Matrix: (Units=GPa)
#
#
# Indices 1 2 3 4 5 6 
#
# 1 92.4905 3.0902 47.5717 0.0000 -23.6368 0.0000
# 2 3.0902 16.4238 0.4394 0.0000 -5.4480 0.0000
# 3 47.5717 0.4394 153.9540 0.0000 -22.3808 0.0000
# 4 0.0000 0.0000 0.0000 8.9541 0.0000 -0.5838
# 5 -23.6368 -5.4480 -22.3808 0.0000 19.1642 0.0000
# 6 0.0000 0.0000 0.0000 -0.5838 0.0000 17.8974
#
#
#
# Elastic Compliance Matrix: (Units=1/GPa)
#
#
# Indices 1 2 3 4 5 6 
#
# 1 0.016746 0.003101 -0.002472 0.000000 0.018648 0.000000
# 2 0.003101 0.069065 0.002716 0.000000 0.026631 0.000000
# 3 -0.002472 0.002716 0.008336 0.000000 0.007458 0.000000
# 4 0.000000 0.000000 0.000000 0.111919 0.000000 0.003650
# 5 0.018648 0.026631 0.007458 0.000000 0.091461 0.000000
# 6 0.000000 0.000000 0.000000 0.003650 0.000000 0.055993
#
#
# Mechanical properties :
#
#
# Convention : Reuss Voigt Hill
#
# Bulk Modulus (GPa) = 9.91705 40.56343 25.24024
# Shear Modulus (GPa) = 13.14261 23.32093 18.23177
#
# Velocity S-wave (km/s) = 2.70840 3.60782 3.18997
# Velocity P-wave (km/s) = 3.91352 6.32418 5.25884
#
# Compressibility (1/GPa) = 0.10083647
#
# Stress axis : x y z
#
# Youngs Moduli (GPa) = 59.71709 14.47910 119.96470
#
# Poissons Ratio (x) = -0.04490 0.29659
# Poissons Ratio (y) = -0.18520 -0.32582
# Poissons Ratio (z) = 0.14764 -0.03933
#
# Static dielectric constant tensor:
#      x y z
#    x 1.661440 0.000000 -0.061020 
#    y 0.000000 1.677760 0.000000 
#    z -0.061020 0.000000 1.698850 
# 
# From -- ./inp_files/248387.got.cif
#   From: 2010.05.17/outbox.cif.g08.bks.cpg/sg12_125_cif.got.tgz:248387.got - 2010.06.03 13:09:07.
