data_PCOD9171375
_publ_section_title
;
Structure prediction by ZEFSAII (Michael W. Deem and Ramdas Pophale) SiO2 
 PCOD9171375
Probable space group: C 2/M
;
_chemical_formula_sum "Si O2"
_cell_formula_units_Z 56
_cell_length_a 10.068641
_cell_length_b 18.321162
_cell_length_c 18.027514
_cell_angle_alpha 90.000000
_cell_angle_beta 114.900485
_cell_angle_gamma 90.000000
_cell_volume 3016.382190
_symmetry_space_group_name_H-M "C 2/M"
_symmetry_group_IT_number 12
_symmetry_cell_setting 'monoclinic'
loop_
_space_group_symop_operation_xyz
x,y,z
-x,y,-z
-x,-y,-z
x,-y,z
1/2+x,1/2+y,z
1/2-x,1/2+y,-z
1/2-x,1/2-y,-z
1/2+x,1/2-y,z
loop_
_atom_site_type_symbol
_atom_site_label
_atom_site_fract_x
_atom_site_fract_y
_atom_site_fract_z
Si Si1 0.827627 0.819178 0.478193
Si Si2 0.161250 0.678366 0.006005
Si Si3 0.728355 0.178200 0.288943
Si Si4 0.090981 0.658065 0.830193
Si Si5 0.333092 0.913321 0.443633
Si Si6 0.112894 0.164664 0.818695
Si Si7 0.214438 0.853575 0.260973
O O1 0.750000 0.750000 0.500000
O O2 0.757084 0.834483 0.381608
O O3 0.783778 0.882833 0.524630
O O4 0.000000 0.808574 0.500000
O O5 0.864742 0.635393 0.076646
O O6 0.259500 0.642741 0.093760
O O7 0.250000 0.750000 0.000000
O O8 0.000000 0.697579 0.000000
O O9 0.576617 0.143154 0.227722
O O10 0.847530 0.151831 0.257784
O O11 0.721564 0.266014 0.276636
O O12 0.102438 0.747081 0.827100
O O13 0.192943 0.627960 0.789781
O O14 0.500000 0.886137 0.500000
O O15 0.281437 0.888994 0.350071
O O16 0.336572 0.000000 0.448484
O O17 0.955124 0.130322 0.794853
#
# Coordination Sequence:
#
# PCOD9171375 Si02
#       7
#     8   8   8   8   8   8   8
#     4  12  24  36  58  86 116 153 196 241 294 349
#     4  10  18  28  41  69 110 150 180 212 279 346
#     4  10  18  30  49  74 106 143 184 228 276 339
#     4   9  18  27  46  70 104 144 179 223 266 339
#     4  11  24  42  61  82 114 153 197 251 300 348
#     4   9  18  28  45  70 106 144 180 221 274 335
#     4  10  19  32  50  75 104 141 187 229 280 333
#
# _framework density 18.565287000000001
#
# number of rings (size 3 to 8) (size 9 to 14) (size 15 to 20)
#    0.000    1.857    2.857    2.143   10.000    0.286 
#    0.000    0.000    0.000    0.000    0.000    2.000 
#    0.000    1.143    0.000    0.000    0.000    0.000 
#
# Total GULP energy -156066.449788 kJ/mol
# GULP energy per Si atom -5573.801778 kJ/mol
# Density = 1.852303 g / cm^3
# Si number density = 18.565287 Si / 1000 Ang^3
#
#
#
# Elastic Constant Matrix: (Units=GPa)
#
#
# Indices 1 2 3 4 5 6 
#
# 1 112.5312 23.5022 18.1023 0.0000 -8.0749 0.0000
# 2 23.5022 21.1774 12.2597 0.0000 -0.8742 0.0000
# 3 18.1023 12.2597 113.9674 0.0000 -8.7350 0.0000
# 4 0.0000 0.0000 0.0000 2.8611 0.0000 0.9752
# 5 -8.0749 -0.8742 -8.7350 0.0000 38.8796 0.0000
# 6 0.0000 0.0000 0.0000 0.9752 0.0000 8.3334
#
#
#
# Elastic Compliance Matrix: (Units=1/GPa)
#
#
# Indices 1 2 3 4 5 6 
#
# 1 0.011756 -0.012767 -0.000335 0.000000 0.002079 0.000000
# 2 -0.012767 0.064221 -0.005060 0.000000 -0.002344 0.000000
# 3 -0.000335 -0.005060 0.009522 0.000000 0.001956 0.000000
# 4 0.000000 0.000000 0.000000 0.364033 0.000000 -0.042598
# 5 0.002079 -0.002344 0.001956 0.000000 0.026539 0.000000
# 6 0.000000 0.000000 0.000000 -0.042598 0.000000 0.124984
#
#
# Mechanical properties :
#
#
# Convention : Reuss Voigt Hill
#
# Bulk Modulus (GPa) = 20.33530 39.48938 29.91234
# Shear Modulus (GPa) = 7.64796 22.93562 15.29179
#
# Velocity S-wave (km/s) = 2.03186 3.51864 2.87309
# Velocity P-wave (km/s) = 4.05977 6.15016 5.21087
#
# Compressibility (1/GPa) = 0.04917556
#
# Stress axis : x y z
#
# Youngs Moduli (GPa) = 85.06437 15.57120 105.02181
#
# Poissons Ratio (x) = 0.19879 0.03513
# Poissons Ratio (y) = 1.08600 0.53144
# Poissons Ratio (z) = 0.02846 0.07879
#
# Static dielectric constant tensor:
#      x y z
#    x 1.661530 0.000000 0.011910 
#    y 0.000000 1.625410 0.000000 
#    z 0.011910 0.000000 1.652620 
# 
# From -- ./inp_files/257689.got.cif
#   From: 2010.05.17/outbox.cif.g08.bks.cpg/sg12_129_cif.got.tgz:257689.got - 2010.06.03 13:09:07.
