data_PCOD9171838
_publ_section_title
;
Structure prediction by ZEFSAII (Michael W. Deem and Ramdas Pophale) SiO2 
 PCOD9171838
Probable space group: C 2/M
;
_chemical_formula_sum "Si O2"
_cell_formula_units_Z 64
_cell_length_a 19.370392
_cell_length_b 18.618489
_cell_length_c 18.811585
_cell_angle_alpha 90.000000
_cell_angle_beta 149.090399
_cell_angle_gamma 90.000000
_cell_volume 3485.018926
_symmetry_space_group_name_H-M "C 2/M"
_symmetry_group_IT_number 12
_symmetry_cell_setting 'monoclinic'
loop_
_space_group_symop_operation_xyz
x,y,z
-x,y,-z
-x,-y,-z
x,-y,z
1/2+x,1/2+y,z
1/2-x,1/2+y,-z
1/2-x,1/2-y,-z
1/2+x,1/2-y,z
loop_
_atom_site_type_symbol
_atom_site_label
_atom_site_fract_x
_atom_site_fract_y
_atom_site_fract_z
Si Si1 0.144201 0.416848 0.240779
Si Si2 0.656339 0.828596 0.873523
Si Si3 0.597929 0.083967 0.371167
Si Si4 0.761969 0.796760 0.583179
Si Si5 0.347704 0.083681 0.984542
Si Si6 0.438189 0.679557 0.153979
Si Si7 0.615758 0.315946 0.545700
Si Si8 0.449549 0.582997 0.295536
O O1 0.181708 0.500000 0.260172
O O2 0.128977 0.407361 0.313719
O O3 0.256002 0.361540 0.314185
O O4 0.993012 0.404854 0.078319
O O5 0.543522 0.876672 0.737139
O O6 0.660325 0.861977 0.956687
O O7 0.605375 0.747116 0.834679
O O8 0.812663 0.829810 0.989743
O O9 0.709484 0.125342 0.514527
O O10 0.591271 0.000000 0.379390
O O11 0.750000 0.750000 0.500000
O O12 0.670041 0.756362 0.558433
O O13 0.915514 0.800015 0.744629
O O14 0.351181 0.000000 0.013718
O O15 0.207097 0.090304 0.819453
O O16 0.452799 0.610267 0.217191
O O17 0.500000 0.302625 0.500000
O O18 0.547333 0.366766 0.425982
O O19 0.488717 0.500000 0.336606
#
# Coordination Sequence:
#
# PCOD9171838 Si02
#       8
#     8   8   8   8   8   8   8   8
#     4   9  16  29  48  73 102 134 169 203 242 295
#     4   9  15  26  44  73 105 126 163 206 260 299
#     4  10  18  30  53  80 105 133 166 206 256 307
#     4  12  19  35  53  74 103 133 170 216 252 295
#     4   8  15  27  46  69  98 134 168 204 247 296
#     4  10  18  28  49  74  98 135 166 209 255 299
#     4  12  24  35  49  70  99 137 174 211 252 297
#     4  10  19  32  48  72 103 133 167 206 249 301
#
# _framework density 18.364319999999999
#
# number of rings (size 3 to 8) (size 9 to 14) (size 15 to 20)
#    0.000    2.000    3.750    2.250    0.000    3.000 
#    0.000    0.625    0.000    2.625    0.000    0.000 
#    0.000    1.000    0.000    0.000    0.000    0.000 
#
# Total GULP energy -178446.945794 kJ/mol
# GULP energy per Si atom -5576.467056 kJ/mol
# Density = 1.832252 g / cm^3
# Si number density = 18.364320 Si / 1000 Ang^3
#
#
#
# Elastic Constant Matrix: (Units=GPa)
#
#
# Indices 1 2 3 4 5 6 
#
# 1 35.9480 19.4391 15.4261 0.0014 22.3669 0.0000
# 2 19.4391 72.6793 36.0237 0.0008 14.2304 0.0003
# 3 15.4261 36.0237 98.1956 0.0038 36.9548 0.0005
# 4 0.0014 0.0008 0.0038 28.6695 0.0009 8.3393
# 5 22.3669 14.2304 36.9548 0.0009 23.6017 0.0000
# 6 0.0000 0.0003 0.0005 8.3393 0.0000 7.6032
#
#
#
# Elastic Compliance Matrix: (Units=1/GPa)
#
#
# Indices 1 2 3 4 5 6 
#
# 1 0.392637 -0.083459 0.219192 -0.000034 -0.664977 0.000031
# 2 -0.083459 0.034570 -0.052326 0.000008 0.140179 -0.000007
# 3 0.219192 -0.052326 0.149113 -0.000022 -0.409650 0.000019
# 4 -0.000034 0.000008 -0.000022 0.051222 0.000059 -0.056181
# 5 -0.664977 0.140179 -0.409650 0.000059 1.229452 -0.000052
# 6 0.000031 -0.000007 0.000019 -0.056181 -0.000052 0.193143
#
#
# Mechanical properties :
#
#
# Convention : Reuss Voigt Hill
#
# Bulk Modulus (GPa) = 1.34565 38.73343 20.03954
# Shear Modulus (GPa) = 2.34628 21.03715 11.69171
#
# Velocity S-wave (km/s) = 1.13155 3.38826 2.52594
# Velocity P-wave (km/s) = 1.56255 6.03693 4.40943
#
# Compressibility (1/GPa) = 0.74313414
#
# Stress axis : x y z
#
# Youngs Moduli (GPa) = 2.54688 28.92654 6.70633
#
# Poissons Ratio (x) = 2.41418 -1.46998
# Poissons Ratio (y) = 0.21256 0.35092
# Poissons Ratio (z) = -0.55826 1.51361
#
# Static dielectric constant tensor:
#      x y z
#    x 1.636280 0.000000 0.026910 
#    y 0.000000 1.620640 0.000000 
#    z 0.026910 0.000000 1.717550 
# 
# From -- ./inp_files/317395.got.cif
#   From: 2010.05.17/outbox.cif.g08.bks.cpg/sg12_159_cif.got.tgz:317395.got - 2010.06.03 13:09:07.
