data_PCOD9171208
_publ_section_title
;
Structure prediction by ZEFSAII (Michael W. Deem and Ramdas Pophale) SiO2 
 PCOD9171208
Probable space group: C 2/M
;
_chemical_formula_sum "Si O2"
_cell_formula_units_Z 64
_cell_length_a 33.468904
_cell_length_b 9.044125
_cell_length_c 14.321465
_cell_angle_alpha 90.000000
_cell_angle_beta 93.402931
_cell_angle_gamma 90.000000
_cell_volume 4327.420179
_symmetry_space_group_name_H-M "C 2/M"
_symmetry_group_IT_number 12
_symmetry_cell_setting 'monoclinic'
loop_
_space_group_symop_operation_xyz
x,y,z
-x,y,-z
-x,-y,-z
x,-y,z
1/2+x,1/2+y,z
1/2-x,1/2+y,-z
1/2-x,1/2-y,-z
1/2+x,1/2-y,z
loop_
_atom_site_type_symbol
_atom_site_label
_atom_site_fract_x
_atom_site_fract_y
_atom_site_fract_z
Si Si1 0.823502 0.677495 0.166504
Si Si2 0.110344 0.175448 0.696620
Si Si3 0.291070 0.822917 0.971256
Si Si4 0.283926 0.177385 0.568860
Si Si5 0.240681 0.677682 0.223877
Si Si6 0.969127 0.672354 0.360143
Si Si7 0.134065 0.175571 0.484216
Si Si8 0.055012 0.327430 0.423858
O O1 0.823519 0.500000 0.175314
O O2 0.860613 0.745108 0.226722
O O3 0.782304 0.741708 0.204689
O O4 0.822881 0.718117 0.055668
O O5 0.064899 0.234261 0.695335
O O6 0.126182 0.206449 0.593270
O O7 0.111539 0.000000 0.710095
O O8 0.291857 0.785400 0.861603
O O9 0.287463 0.000000 0.976058
O O10 0.250000 0.750000 0.000000
O O11 0.250000 0.250000 0.500000
O O12 0.274419 0.214668 0.675299
O O13 0.326710 0.240022 0.544126
O O14 0.283097 0.000000 0.558863
O O15 0.247848 0.500000 0.221817
O O16 0.966957 0.500000 0.332145
O O17 0.957698 0.678121 0.468627
O O18 0.015475 0.721323 0.361703
O O19 0.094935 0.231804 0.423281
O O20 0.139019 0.000000 0.474569
O O21 0.063009 0.500000 0.403311
#
# Coordination Sequence:
#
# PCOD9171208 Si02
#       8
#     8   8   8   8   8   8   8   8
#     4  10  18  27  43  64  83 106 135 168 207 249
#     4  10  19  28  39  58  86 116 141 167 202 243
#     4   8  15  28  44  61  79 100 130 167 207 250
#     4  11  22  33  45  60  81 111 144 177 210 241
#     4   9  18  32  46  59  79 107 138 173 211 247
#     4   8  14  25  41  60  81 106 136 169 204 242
#     4  10  20  31  42  58  82 113 146 176 204 237
#     4   8  14  26  43  60  79 105 137 172 207 241
#
# _framework density 14.789412
#
# number of rings (size 3 to 8) (size 9 to 14) (size 15 to 20)
#    0.000    2.750    0.000    3.000    0.000    6.500 
#    0.000    2.500    0.000    0.000    0.000    0.000 
#    0.000    1.000    0.000   11.500    0.000    3.750 
#
# Total GULP energy -178142.431686 kJ/mol
# GULP energy per Si atom -5566.950990 kJ/mol
# Density = 1.475575 g / cm^3
# Si number density = 14.789412 Si / 1000 Ang^3
#
#
#
# Elastic Constant Matrix: (Units=GPa)
#
#
# Indices 1 2 3 4 5 6 
#
# 1 101.6310 45.8679 57.7799 0.0000 24.8858 0.0000
# 2 45.8679 42.6202 48.7275 0.0000 13.1634 0.0000
# 3 57.7799 48.7275 104.4196 0.0000 21.8686 0.0000
# 4 0.0000 0.0000 0.0000 17.4597 0.0000 5.3150
# 5 24.8858 13.1634 21.8686 0.0000 22.5162 0.0000
# 6 0.0000 0.0000 0.0000 5.3150 0.0000 25.0973
#
#
#
# Elastic Compliance Matrix: (Units=1/GPa)
#
#
# Indices 1 2 3 4 5 6 
#
# 1 0.021740 -0.018828 -0.000648 0.000000 -0.012390 0.000000
# 2 -0.018828 0.067870 -0.021719 0.000000 0.002226 0.000000
# 3 -0.000648 -0.021719 0.021669 0.000000 -0.007632 0.000000
# 4 0.000000 0.000000 0.000000 0.061222 0.000000 -0.012965
# 5 -0.012390 0.002226 -0.007632 0.000000 0.064218 0.000000
# 6 0.000000 0.000000 0.000000 -0.012965 0.000000 0.042591
#
#
# Mechanical properties :
#
#
# Convention : Reuss Voigt Hill
#
# Bulk Modulus (GPa) = 34.61752 61.49127 48.05440
# Shear Modulus (GPa) = 13.46514 19.43434 16.44974
#
# Velocity S-wave (km/s) = 3.02065 3.62894 3.33868
# Velocity P-wave (km/s) = 5.96855 7.69592 6.88661
#
# Compressibility (1/GPa) = 0.02888711
#
# Stress axis : x y z
#
# Youngs Moduli (GPa) = 45.99909 14.73406 46.14841
#
# Poissons Ratio (x) = 0.27741 0.02992
# Poissons Ratio (y) = 0.86607 1.00231
# Poissons Ratio (z) = 0.02983 0.32001
#
# Static dielectric constant tensor:
#      x y z
#    x 1.475850 0.000000 0.020640 
#    y 0.000000 1.491760 0.000000 
#    z 0.020640 0.000000 1.506540 
# 
# From -- ./inp_files/248526.got.cif
#   From: 2010.05.17/outbox.cif.g08.bks.cpg/sg12_125_cif.got.tgz:248526.got - 2010.06.03 13:09:07.
