data_PCOD9171598
_publ_section_title
;
Structure prediction by ZEFSAII (Michael W. Deem and Ramdas Pophale) SiO2 
 PCOD9171598
Probable space group: C 2/M
;
_chemical_formula_sum "Si O2"
_cell_formula_units_Z 56
_cell_length_a 28.574576
_cell_length_b 8.750589
_cell_length_c 21.436538
_cell_angle_alpha 90.000000
_cell_angle_beta 41.678999
_cell_angle_gamma 90.000000
_cell_volume 3564.224542
_symmetry_space_group_name_H-M "C 2/M"
_symmetry_group_IT_number 12
_symmetry_cell_setting 'monoclinic'
loop_
_space_group_symop_operation_xyz
x,y,z
-x,y,-z
-x,-y,-z
x,-y,z
1/2+x,1/2+y,z
1/2-x,1/2+y,-z
1/2-x,1/2-y,-z
1/2+x,1/2-y,z
loop_
_atom_site_type_symbol
_atom_site_label
_atom_site_fract_x
_atom_site_fract_y
_atom_site_fract_z
Si Si1 0.213495 0.683573 0.974676
Si Si2 0.423930 0.316451 0.324192
Si Si3 0.417622 0.183210 0.581384
Si Si4 0.783799 0.816748 0.403147
Si Si5 0.343873 0.316954 0.532820
Si Si6 0.650790 0.683897 0.226092
Si Si7 0.577641 0.183259 0.174613
O O1 0.216028 0.500000 0.974589
O O2 0.266891 0.728716 0.866442
O O3 0.250000 0.750000 0.000000
O O4 0.131905 0.727052 0.064694
O O5 0.432555 0.500000 0.315903
O O6 0.366186 0.277553 0.328580
O O7 0.389547 0.274212 0.425634
O O8 0.498876 0.238831 0.241683
O O9 0.500000 0.226373 0.500000
O O10 0.380587 0.251622 0.557344
O O11 0.381005 0.245462 0.680065
O O12 0.412983 0.000000 0.584376
O O13 0.750000 0.750000 0.500000
O O14 0.734932 0.747847 0.398112
O O15 0.777822 0.000000 0.409180
O O16 0.340999 0.500000 0.537880
O O17 0.645665 0.500000 0.233470
O O18 0.607682 0.743161 0.208605
O O19 0.578928 0.000000 0.180374
#
# Coordination Sequence:
#
# PCOD9171598 Si02
#       7
#     8   8   8   8   8   8   8
#     4   8  16  29  44  64  88 116 149 185 225 267
#     4   9  18  30  45  68  95 121 149 183 225 269
#     4  11  23  35  47  66  92 122 156 190 222 261
#     4   9  17  30  47  66  90 119 152 189 226 268
#     4  10  20  33  48  66  91 123 156 188 224 268
#     4  10  19  32  48  64  89 123 156 189 224 266
#     4  10  18  28  45  69  95 120 149 186 227 270
#
# _framework density 15.711693
#
# number of rings (size 3 to 8) (size 9 to 14) (size 15 to 20)
#    0.000    2.429    0.000    3.857    0.000    8.000 
#    0.000    0.000    0.000    0.000    0.000    1.000 
#    0.000    8.000    0.000    0.000    0.000    0.000 
#
# Total GULP energy -155970.952345 kJ/mol
# GULP energy per Si atom -5570.391155 kJ/mol
# Density = 1.567593 g / cm^3
# Si number density = 15.711693 Si / 1000 Ang^3
#
#
#
# Elastic Constant Matrix: (Units=GPa)
#
#
# Indices 1 2 3 4 5 6 
#
# 1 128.6605 43.0730 68.5641 -0.0118 -21.1781 0.0044
# 2 43.0730 41.4328 40.3979 -0.0150 -9.5400 0.0078
# 3 68.5641 40.3979 125.2303 -0.0061 -22.4033 0.0040
# 4 -0.0118 -0.0150 -0.0061 15.3064 0.0103 -1.3836
# 5 -21.1781 -9.5400 -22.4033 0.0103 24.7945 -0.0029
# 6 0.0044 0.0078 0.0040 -1.3836 -0.0029 27.4666
#
#
#
# Elastic Compliance Matrix: (Units=1/GPa)
#
#
# Indices 1 2 3 4 5 6 
#
# 1 0.013673 -0.009698 -0.003501 -0.000003 0.004783 0.000001
# 2 -0.009698 0.042412 -0.008271 0.000030 0.000561 -0.000008
# 3 -0.003501 -0.008271 0.013677 -0.000009 0.006185 0.000001
# 4 -0.000003 0.000030 -0.000009 0.065631 -0.000027 0.003306
# 5 0.004783 0.000561 0.006185 -0.000027 0.050221 0.000002
# 6 0.000001 -0.000008 0.000001 0.003306 0.000002 0.036574
#
#
# Mechanical properties :
#
#
# Convention : Reuss Voigt Hill
#
# Bulk Modulus (GPa) = 37.28730 66.59930 51.94330
# Shear Modulus (GPa) = 18.24353 23.06606 20.65480
#
# Velocity S-wave (km/s) = 3.41125 3.83571 3.62969
# Velocity P-wave (km/s) = 6.26891 7.88019 7.12027
#
# Compressibility (1/GPa) = 0.02681879
#
# Stress axis : x y z
#
# Youngs Moduli (GPa) = 73.13945 23.57840 73.11533
#
# Poissons Ratio (x) = 0.22867 0.25601
# Poissons Ratio (y) = 0.70934 0.60476
# Poissons Ratio (z) = 0.25610 0.19502
#
# Static dielectric constant tensor:
#      x y z
#    x 1.497180 0.000000 -0.044570 
#    y 0.000000 1.534310 0.000000 
#    z -0.044570 0.000000 1.529370 
# 
# From -- ./inp_files/288175.got.cif
#   From: 2010.05.17/outbox.cif.g08.bks.cpg/sg12_145_cif.got.tgz:288175.got - 2010.06.03 13:09:07.
