data_PCOD9171094
_publ_section_title
;
Structure prediction by ZEFSAII (Michael W. Deem and Ramdas Pophale) SiO2 
 PCOD9171094
Probable space group: C 2/M
;
_chemical_formula_sum "Si O2"
_cell_formula_units_Z 40
_cell_length_a 18.642283
_cell_length_b 24.622970
_cell_length_c 5.440200
_cell_angle_alpha 90.000000
_cell_angle_beta 65.137527
_cell_angle_gamma 90.000000
_cell_volume 2265.764063
_symmetry_space_group_name_H-M "C 2/M"
_symmetry_group_IT_number 12
_symmetry_cell_setting 'monoclinic'
loop_
_space_group_symop_operation_xyz
x,y,z
-x,y,-z
-x,-y,-z
x,-y,z
1/2+x,1/2+y,z
1/2-x,1/2+y,-z
1/2-x,1/2-y,-z
1/2+x,1/2-y,z
loop_
_atom_site_type_symbol
_atom_site_label
_atom_site_fract_x
_atom_site_fract_y
_atom_site_fract_z
Si Si1 0.755985 0.851213 0.195501
Si Si2 0.288844 0.374017 0.643960
Si Si3 0.047102 0.065032 0.677372
Si Si4 0.645229 0.251958 0.393224
Si Si5 0.084199 0.214427 0.978305
O O1 0.735419 0.879578 0.481169
O O2 0.703770 0.797057 0.250613
O O3 0.847598 0.831239 0.095414
O O4 0.752301 0.887804 0.959758
O O5 0.369035 0.405917 0.472199
O O6 0.308435 0.309439 0.649137
O O7 0.000000 0.082503 0.500000
O O8 0.057954 0.000000 0.650183
O O9 0.000000 0.075437 0.000000
O O10 0.609589 0.245837 0.717904
O O11 0.586169 0.259225 0.246700
O O12 0.000000 0.193811 0.000000
#
# Coordination Sequence:
#
# PCOD9171094 Si02
#       5
#     8   8   8   8   8
#     4  10  19  31  45  63  88 116 150 187 232 280
#     4  10  18  28  46  63  77 111 155 184 219 271
#     4  10  21  35  47  63  91 122 154 200 246 269
#     4  10  19  31  43  61  90 118 148 186 233 277
#     4  10  18  27  40  60  84 113 148 184 214 252
#
# _framework density 17.65409
#
# number of rings (size 3 to 8) (size 9 to 14) (size 15 to 20)
#    0.000    2.000    0.000    7.800    0.000    9.600 
#    0.000    0.000    0.000    0.000    0.000    0.000 
#    0.000    0.000    0.000    0.000    0.000  195.000 
#
# Total GULP energy -111408.918534 kJ/mol
# GULP energy per Si atom -5570.445927 kJ/mol
# Density = 1.761391 g / cm^3
# Si number density = 17.654090 Si / 1000 Ang^3
#
#
#
# Elastic Constant Matrix: (Units=GPa)
#
#
# Indices 1 2 3 4 5 6 
#
# 1 50.5755 8.5312 19.9158 0.0000 24.7055 0.0000
# 2 8.5312 26.7345 14.4858 0.0000 0.0604 0.0000
# 3 19.9158 14.4858 130.1471 0.0000 45.7203 0.0000
# 4 0.0000 0.0000 0.0000 2.4489 0.0000 -5.1098
# 5 24.7055 0.0604 45.7203 0.0000 42.5667 0.0000
# 6 0.0000 0.0000 0.0000 -5.1098 0.0000 16.0965
#
#
#
# Elastic Compliance Matrix: (Units=1/GPa)
#
#
# Indices 1 2 3 4 5 6 
#
# 1 0.031423 -0.012578 0.004805 0.000000 -0.023381 0.000000
# 2 -0.012578 0.046411 -0.009286 0.000000 0.017209 0.000000
# 3 0.004805 -0.009286 0.014385 0.000000 -0.018226 0.000000
# 4 0.000000 0.000000 0.000000 1.209459 0.000000 0.383942
# 5 -0.023381 0.017209 -0.018226 0.000000 0.056615 0.000000
# 6 0.000000 0.000000 0.000000 0.383942 0.000000 0.184007
#
#
# Mechanical properties :
#
#
# Convention : Reuss Voigt Hill
#
# Bulk Modulus (GPa) = 17.21148 32.59142 24.90145
# Shear Modulus (GPa) = 3.13325 23.19072 13.16199
#
# Velocity S-wave (km/s) = 1.33366 3.62832 2.73344
# Velocity P-wave (km/s) = 3.48454 6.00451 4.90898
#
# Compressibility (1/GPa) = 0.05810077
#
# Stress axis : x y z
#
# Youngs Moduli (GPa) = 31.82339 21.54639 69.51828
#
# Poissons Ratio (x) = 0.27102 -0.33405
# Poissons Ratio (y) = 0.40028 0.64558
# Poissons Ratio (z) = -0.15292 0.20009
#
# Static dielectric constant tensor:
#      x y z
#    x 1.653070 0.000000 0.062050 
#    y 0.000000 1.582610 0.000000 
#    z 0.062050 0.000000 1.756370 
# 
# From -- ./inp_files/11325.got.cif
#   From: 2010.05.17/outbox.cif.g08.bks.cpg/sg12_6_cif.got.tgz:11325.got - 2010.06.03 13:09:07.
