data_PCOD9171325
_publ_section_title
;
Structure prediction by ZEFSAII (Michael W. Deem and Ramdas Pophale) SiO2 
 PCOD9171325
Probable space group: C 2/M
;
_chemical_formula_sum "Si O2"
_cell_formula_units_Z 64
_cell_length_a 20.595032
_cell_length_b 7.731945
_cell_length_c 27.869859
_cell_angle_alpha 90.000000
_cell_angle_beta 49.625176
_cell_angle_gamma 90.000000
_cell_volume 3380.960451
_symmetry_space_group_name_H-M "C 2/M"
_symmetry_group_IT_number 12
_symmetry_cell_setting 'monoclinic'
loop_
_space_group_symop_operation_xyz
x,y,z
-x,y,-z
-x,-y,-z
x,-y,z
1/2+x,1/2+y,z
1/2-x,1/2+y,-z
1/2-x,1/2-y,-z
1/2+x,1/2-y,z
loop_
_atom_site_type_symbol
_atom_site_label
_atom_site_fract_x
_atom_site_fract_y
_atom_site_fract_z
Si Si1 0.287518 0.201049 0.191742
Si Si2 0.904659 0.292304 0.054418
Si Si3 0.097493 0.291039 0.457638
Si Si4 0.343350 0.294606 0.674011
Si Si5 0.634904 0.788587 0.193096
Si Si6 0.497094 0.797619 0.670203
Si Si7 0.247147 0.794707 0.945465
Si Si8 0.846727 0.708430 0.464997
O O1 0.364092 0.278049 0.123609
O O2 0.244938 0.273479 0.260468
O O3 0.208190 0.216817 0.193014
O O4 0.308554 0.000000 0.190738
O O5 0.910000 0.500000 0.057099
O O6 0.837262 0.263166 0.043442
O O7 0.000000 0.226160 0.000000
O O8 0.097341 0.500000 0.458131
O O9 0.148010 0.236291 0.386286
O O10 0.132476 0.227757 0.491537
O O11 0.000000 0.232137 0.500000
O O12 0.347008 0.500000 0.681466
O O13 0.424333 0.216249 0.663632
O O14 0.546762 0.728920 0.259921
O O15 0.668529 0.734985 0.124556
O O16 0.635971 0.000000 0.195061
O O17 0.583822 0.722968 0.606538
O O18 0.512970 0.000000 0.671643
O O19 0.246760 0.000000 0.942272
O O20 0.250000 0.750000 0.000000
O O21 0.856743 0.500000 0.460983
O O22 0.750000 0.750000 0.500000
#
# Coordination Sequence:
#
# PCOD9171325 Si02
#       8
#     8   8   8   8   8   8   8   8
#     4   8  15  27  43  69 101 125 153 194 242 283
#     4   9  17  31  52  74  98 132 167 199 239 290
#     4  10  19  34  52  71  95 126 161 195 235 285
#     4  10  18  27  46  76 102 122 152 202 246 276
#     4   8  15  27  47  71  92 119 162 201 232 280
#     4   9  16  31  51  70  94 126 160 195 238 287
#     4  10  19  31  49  75 102 129 162 203 246 288
#     4  10  21  35  52  71  95 127 159 195 239 286
#
# _framework density 18.929531999999998
#
# number of rings (size 3 to 8) (size 9 to 14) (size 15 to 20)
#    0.000    2.750    1.250    0.750    0.000    2.500 
#    0.000    0.000    2.750    0.000    0.000    0.000 
#    0.000    0.000    0.000    0.000    0.000    0.000 
#
# Total GULP energy -178140.914920 kJ/mol
# GULP energy per Si atom -5566.903591 kJ/mol
# Density = 1.888645 g / cm^3
# Si number density = 18.929532 Si / 1000 Ang^3
#
#
#
# Elastic Constant Matrix: (Units=GPa)
#
#
# Indices 1 2 3 4 5 6 
#
# 1 74.4162 -2.7251 78.0108 -0.0002 -6.9714 -0.0016
# 2 -2.7251 29.6352 5.3496 -0.0116 -1.2251 -0.0119
# 3 78.0108 5.3496 247.1925 0.0005 -9.9681 -0.0012
# 4 -0.0002 -0.0116 0.0005 13.4965 0.0001 1.9158
# 5 -6.9714 -1.2251 -9.9681 0.0001 29.5798 -0.0002
# 6 -0.0016 -0.0119 -0.0012 1.9158 -0.0002 17.6263
#
#
#
# Elastic Compliance Matrix: (Units=1/GPa)
#
#
# Indices 1 2 3 4 5 6 
#
# 1 0.020578 0.003173 -0.006450 0.000003 0.002808 0.000003
# 2 0.003173 0.034405 -0.001681 0.000027 0.001606 0.000021
# 3 -0.006450 -0.001681 0.006137 -0.000002 0.000478 -0.000001
# 4 0.000003 0.000027 -0.000002 0.075254 0.000001 -0.008179
# 5 0.002808 0.001606 0.000478 0.000001 0.034696 0.000002
# 6 0.000003 0.000021 -0.000001 -0.008179 0.000002 0.057622
#
#
# Mechanical properties :
#
#
# Convention : Reuss Voigt Hill
#
# Bulk Modulus (GPa) = 19.52968 56.94604 38.23786
# Shear Modulus (GPa) = 19.55589 30.18111 24.86850
#
# Velocity S-wave (km/s) = 3.21766 3.99732 3.62849
# Velocity P-wave (km/s) = 4.91364 7.17309 6.14805
#
# Compressibility (1/GPa) = 0.05120412
#
# Stress axis : x y z
#
# Youngs Moduli (GPa) = 48.59454 29.06525 162.95812
#
# Poissons Ratio (x) = -0.09222 1.05104
# Poissons Ratio (y) = -0.15418 0.27394
# Poissons Ratio (z) = 0.31342 0.04886
#
# Static dielectric constant tensor:
#      x y z
#    x 1.707880 0.000000 0.067950 
#    y 0.000000 1.720330 0.000000 
#    z 0.067950 0.000000 1.808690 
# 
# From -- ./inp_files/365161.got.cif
#   From: 2010.05.17/outbox.cif.g08.bks.cpg/sg12_183_cif.got.tgz:365161.got - 2010.06.03 13:09:07.
