data_PCOD9171491
_publ_section_title
;
Structure prediction by ZEFSAII (Michael W. Deem and Ramdas Pophale) SiO2 
 PCOD9171491
Probable space group: C 2/M
;
_chemical_formula_sum "Si O2"
_cell_formula_units_Z 64
_cell_length_a 29.193356
_cell_length_b 7.617890
_cell_length_c 21.402389
_cell_angle_alpha 90.000000
_cell_angle_beta 134.068338
_cell_angle_gamma 90.000000
_cell_volume 3419.906609
_symmetry_space_group_name_H-M "C 2/M"
_symmetry_group_IT_number 12
_symmetry_cell_setting 'monoclinic'
loop_
_space_group_symop_operation_xyz
x,y,z
-x,y,-z
-x,-y,-z
x,-y,z
1/2+x,1/2+y,z
1/2-x,1/2+y,-z
1/2-x,1/2-y,-z
1/2+x,1/2-y,z
loop_
_atom_site_type_symbol
_atom_site_label
_atom_site_fract_x
_atom_site_fract_y
_atom_site_fract_z
Si Si1 0.180985 0.287915 0.754834
Si Si2 0.501962 0.212523 0.171457
Si Si3 0.939709 0.207871 0.903242
Si Si4 0.190572 0.800496 0.167269
Si Si5 0.007471 0.299810 0.703131
Si Si6 0.964105 0.715415 0.403355
Si Si7 0.651827 0.294313 0.862772
Si Si8 0.144667 0.292977 0.991037
O O1 0.181791 0.500000 0.752636
O O2 0.238715 0.220199 0.766803
O O3 0.109984 0.229063 0.668799
O O4 0.190992 0.238387 0.837018
O O5 0.545501 0.269512 0.155538
O O6 0.518798 0.278526 0.257131
O O7 0.429124 0.265169 0.086916
O O8 0.501983 0.000000 0.174059
O O9 0.871010 0.282369 0.857987
O O10 0.936932 0.000000 0.915493
O O11 0.000000 0.280393 0.000000
O O12 0.196648 0.000000 0.197152
O O13 0.172855 0.803650 0.077072
O O14 0.983955 0.500000 0.677147
O O15 0.002300 0.221854 0.628976
O O16 0.084125 0.302070 0.787449
O O17 0.964167 0.500000 0.401311
O O18 0.000000 0.769348 0.500000
O O19 0.638460 0.500000 0.854114
O O20 0.676553 0.235573 0.953713
O O21 0.145890 0.500000 0.006002
#
# Coordination Sequence:
#
# PCOD9171491 Si02
#       8
#     8   8   8   8   8   8   8   8
#     4   9  18  32  46  62  89 117 143 178 219 265
#     4   9  17  28  43  62  86 116 148 185 224 259
#     4  10  19  30  44  62  84 111 151 197 227 253
#     4  10  20  32  44  60  84 116 150 186 227 262
#     4   8  15  28  44  67  95 118 144 180 220 262
#     4   8  13  25  49  75  93 111 138 175 218 263
#     4  10  18  28  44  63  86 117 152 183 216 259
#     4  10  19  30  44  62  85 116 153 189 222 256
#
# _framework density 18.713961999999999
#
# number of rings (size 3 to 8) (size 9 to 14) (size 15 to 20)
#    0.000    2.750    1.250    3.000    0.000    3.750 
#    0.000    0.000    0.000    6.000    0.000    0.875 
#    0.000    0.000    0.000    0.000    0.000    0.000 
#
# Total GULP energy -178333.992388 kJ/mol
# GULP energy per Si atom -5572.937262 kJ/mol
# Density = 1.867137 g / cm^3
# Si number density = 18.713962 Si / 1000 Ang^3
#
#
#
# Elastic Constant Matrix: (Units=GPa)
#
#
# Indices 1 2 3 4 5 6 
#
# 1 150.4577 -2.9944 49.0428 0.0000 -5.9563 0.0000
# 2 -2.9944 51.1301 -2.3779 0.0000 3.3390 -0.0006
# 3 49.0428 -2.3779 80.3995 0.0000 -16.0788 -0.0001
# 4 0.0000 0.0000 0.0000 3.4621 0.0000 -0.0346
# 5 -5.9563 3.3390 -16.0788 0.0000 22.6553 0.0000
# 6 0.0000 -0.0006 -0.0001 -0.0346 0.0000 -9.9403
#
#
#
# Elastic Compliance Matrix: (Units=1/GPa)
#
#
# Indices 1 2 3 4 5 6 
#
# 1 0.008355 0.000348 -0.005427 0.000000 -0.001707 0.000000
# 2 0.000348 0.019763 -0.000224 0.000000 -0.002980 -0.000001
# 3 -0.005427 -0.000224 0.018021 0.000000 0.011396 0.000000
# 4 0.000000 0.000000 0.000000 0.288834 0.000000 -0.001006
# 5 -0.001707 -0.002980 0.011396 0.000000 0.052218 0.000000
# 6 0.000000 -0.000001 0.000000 -0.001006 0.000000 -0.100597
#
#
# Mechanical properties :
#
#
# Convention : Reuss Voigt Hill
#
# Bulk Modulus (GPa) = 28.14337 41.03649 34.58993
# Shear Modulus (GPa) = 16.17899 19.12321 17.65110
#
# Velocity S-wave (km/s) = 2.94350 3.20014 3.07450
# Velocity P-wave (km/s) = 5.15981 5.96912 5.57916
#
# Compressibility (1/GPa) = 0.03553234
#
# Stress axis : x y z
#
# Youngs Moduli (GPa) = 119.69097 50.60081 55.49110
#
# Poissons Ratio (x) = -0.01763 0.30117
# Poissons Ratio (y) = -0.04169 0.01243
# Poissons Ratio (z) = 0.64961 0.01133
#
# Static dielectric constant tensor:
#      x y z
#    x 1.695650 0.000000 -0.000250 
#    y 0.000000 1.686800 0.000000 
#    z -0.000250 0.000000 1.637480 
# 
# From -- ./inp_files/326912.got.cif
#   From: 2010.05.17/outbox.cif.g08.bks.cpg/sg12_164_cif.got.tgz:326912.got - 2010.06.03 13:09:07.
