data_PCOD9171897
_publ_section_title
;
Structure prediction by ZEFSAII (Michael W. Deem and Ramdas Pophale) SiO2 
 PCOD9171897
Probable space group: C 2/M
;
_chemical_formula_sum "Si O2"
_cell_formula_units_Z 40
_cell_length_a 29.610288
_cell_length_b 17.455766
_cell_length_c 5.137984
_cell_angle_alpha 90.000000
_cell_angle_beta 103.682328
_cell_angle_gamma 90.000000
_cell_volume 2580.308810
_symmetry_space_group_name_H-M "C 2/M"
_symmetry_group_IT_number 12
_symmetry_cell_setting 'monoclinic'
loop_
_space_group_symop_operation_xyz
x,y,z
-x,y,-z
-x,-y,-z
x,-y,z
1/2+x,1/2+y,z
1/2-x,1/2+y,-z
1/2-x,1/2-y,-z
1/2+x,1/2-y,z
loop_
_atom_site_type_symbol
_atom_site_label
_atom_site_fract_x
_atom_site_fract_y
_atom_site_fract_z
Si Si1 0.280772 0.088896 0.773127
Si Si2 0.696719 0.333041 0.430673
Si Si3 0.291875 0.819896 0.299573
Si Si4 0.393066 0.592353 0.940326
Si Si5 0.449113 0.592859 0.514581
O O1 0.297646 0.143183 0.027994
O O2 0.287643 0.000000 0.837615
O O3 0.225907 0.106420 0.644613
O O4 0.303914 0.117267 0.536533
O O5 0.684756 0.260013 0.592326
O O6 0.736359 0.306386 0.276763
O O7 0.653903 0.369251 0.223809
O O8 0.387061 0.500000 0.930727
O O9 0.432711 0.612059 0.781785
O O10 0.410728 0.616013 0.248852
O O11 0.500000 0.620812 0.500000
O O12 0.450888 0.500000 0.506696
#
# Coordination Sequence:
#
# PCOD9171897 Si02
#       5
#     8   8   8   8   8
#     4  10  18  29  43  59  78 109 146 178 204 238
#     4   9  20  30  43  60  86 108 145 177 214 247
#     4   9  20  30  43  56  86 115 133 179 219 253
#     4  10  19  27  44  64  78 106 146 183 203 234
#     4   9  18  31  42  57  82 107 134 173 220 253
#
# _framework density 15.50202
#
# number of rings (size 3 to 8) (size 9 to 14) (size 15 to 20)
#    1.200    1.400    0.000    2.400    2.800    2.400 
#    0.000    0.000    0.000    0.000    0.000    0.000 
#    0.000    0.000    0.000    0.000    0.000   70.000 
#
# Total GULP energy -111336.170479 kJ/mol
# GULP energy per Si atom -5566.808524 kJ/mol
# Density = 1.546674 g / cm^3
# Si number density = 15.502020 Si / 1000 Ang^3
#
#
#
# Elastic Constant Matrix: (Units=GPa)
#
#
# Indices 1 2 3 4 5 6 
#
# 1 14.0129 -3.0819 -5.6782 0.0000 4.2798 0.0000
# 2 -3.0819 48.0263 8.5769 0.0000 2.1135 0.0000
# 3 -5.6782 8.5769 58.0507 0.0000 -6.9875 0.0000
# 4 0.0000 0.0000 0.0000 19.6874 0.0000 0.6627
# 5 4.2798 2.1135 -6.9875 0.0000 17.4870 0.0000
# 6 0.0000 0.0000 0.0000 0.6627 0.0000 8.9758
#
#
#
# Elastic Compliance Matrix: (Units=1/GPa)
#
#
# Indices 1 2 3 4 5 6 
#
# 1 0.080029 0.005066 0.004883 0.000000 -0.018248 0.000000
# 2 0.005066 0.021982 -0.003384 0.000000 -0.005249 0.000000
# 3 0.004883 -0.003384 0.019024 0.000000 0.006816 0.000000
# 4 0.000000 0.000000 0.000000 0.050921 0.000000 -0.003759
# 5 -0.018248 -0.005249 0.006816 0.000000 0.065009 0.000000
# 6 0.000000 0.000000 0.000000 -0.003759 0.000000 0.111689
#
#
# Mechanical properties :
#
#
# Convention : Reuss Voigt Hill
#
# Bulk Modulus (GPa) = 7.45343 13.30261 10.37802
# Shear Modulus (GPa) = 13.14941 17.24825 15.19883
#
# Velocity S-wave (km/s) = 2.91561 3.33925 3.13460
# Velocity P-wave (km/s) = 4.01906 4.84431 4.45085
#
# Compressibility (1/GPa) = 0.13416640
#
# Stress axis : x y z
#
# Youngs Moduli (GPa) = 12.49549 45.49102 52.56424
#
# Poissons Ratio (x) = -0.23048 -0.25667
# Poissons Ratio (y) = -0.06331 0.17788
# Poissons Ratio (z) = -0.06102 0.15395
#
# Static dielectric constant tensor:
#      x y z
#    x 1.532070 0.000000 -0.028770 
#    y 0.000000 1.511700 0.000000 
#    z -0.028770 0.000000 1.539600 
# 
# From -- ./inp_files/28254.got.cif
#   From: 2010.05.17/outbox.cif.g08.bks.cpg/sg12_15_cif.got.tgz:28254.got - 2010.06.03 13:09:07.
