data_PCOD9171016
_publ_section_title
;
Structure prediction by ZEFSAII (Michael W. Deem and Ramdas Pophale) SiO2 
 PCOD9171016
Probable space group: C 2/M
;
_chemical_formula_sum "Si O2"
_cell_formula_units_Z 56
_cell_length_a 28.135383
_cell_length_b 8.398302
_cell_length_c 26.041852
_cell_angle_alpha 90.000000
_cell_angle_beta 143.977635
_cell_angle_gamma 90.000000
_cell_volume 3618.829355
_symmetry_space_group_name_H-M "C 2/M"
_symmetry_group_IT_number 12
_symmetry_cell_setting 'monoclinic'
loop_
_space_group_symop_operation_xyz
x,y,z
-x,y,-z
-x,-y,-z
x,-y,z
1/2+x,1/2+y,z
1/2-x,1/2+y,-z
1/2-x,1/2-y,-z
1/2+x,1/2-y,z
loop_
_atom_site_type_symbol
_atom_site_label
_atom_site_fract_x
_atom_site_fract_y
_atom_site_fract_z
Si Si1 0.947932 0.692718 0.689295
Si Si2 0.579388 0.192152 0.135381
Si Si3 0.127858 0.692180 0.865829
Si Si4 0.303626 0.192074 0.498920
Si Si5 0.395228 0.807851 0.957948
Si Si6 0.659012 0.690754 0.308309
Si Si7 0.794861 0.809662 0.963409
O O1 0.949524 0.500000 0.690463
O O2 0.893774 0.745986 0.593073
O O3 0.901145 0.744465 0.700102
O O4 0.040083 0.750392 0.771392
O O5 0.612070 0.242101 0.107915
O O6 0.629291 0.254142 0.227015
O O7 0.580073 0.000000 0.137216
O O8 0.485056 0.241952 0.055130
O O9 0.126628 0.500000 0.863553
O O10 0.203999 0.746148 0.897946
O O11 0.147776 0.743819 0.941262
O O12 0.250000 0.250000 0.500000
O O13 0.250444 0.243667 0.403522
O O14 0.305289 0.000000 0.499635
O O15 0.328319 0.744007 0.938002
O O16 0.393512 0.000000 0.957611
O O17 0.656303 0.500000 0.308188
O O18 0.795834 0.000000 0.967015
#
# Coordination Sequence:
#
# PCOD9171016 Si02
#       7
#     8   8   8   8   8   8   8
#     4   9  16  28  44  58  79 114 146 165 189 236
#     4   9  18  31  45  60  79 108 142 166 193 241
#     4   9  18  30  43  60  82 111 143 167 193 237
#     4   8  15  26  39  57  81 108 135 164 199 237
#     4   9  18  32  46  59  79 108 140 170 197 235
#     4  10  18  26  39  63  90 108 129 168 210 240
#     4  10  19  29  42  62  86 108 133 170 209 238
#
# _framework density 15.474617
#
# number of rings (size 3 to 8) (size 9 to 14) (size 15 to 20)
#    0.000    2.857    0.000    2.571    0.000    6.286 
#    0.000    1.429    0.000    0.000    0.000    1.000 
#    0.000    8.000    0.000    0.000    0.000    0.000 
#
# Total GULP energy -155897.722332 kJ/mol
# GULP energy per Si atom -5567.775798 kJ/mol
# Density = 1.543940 g / cm^3
# Si number density = 15.474617 Si / 1000 Ang^3
#
#
#
# Elastic Constant Matrix: (Units=GPa)
#
#
# Indices 1 2 3 4 5 6 
#
# 1 78.6224 7.1224 58.4195 0.0000 -1.7654 0.0000
# 2 7.1224 3.5975 15.1621 0.0000 1.3198 0.0000
# 3 58.4195 15.1621 165.0186 0.0000 -1.6439 0.0000
# 4 0.0000 0.0000 0.0000 17.8415 0.0000 -1.1134
# 5 -1.7654 1.3198 -1.6439 0.0000 21.9252 0.0000
# 6 0.0000 0.0000 0.0000 -1.1134 0.0000 20.2060
#
#
#
# Elastic Compliance Matrix: (Units=1/GPa)
#
#
# Indices 1 2 3 4 5 6 
#
# 1 0.017769 -0.015478 -0.004848 0.000000 0.001999 0.000000
# 2 -0.015478 0.488408 -0.039731 0.000000 -0.033625 0.000000
# 3 -0.004848 -0.039731 0.011455 0.000000 0.002860 0.000000
# 4 0.000000 0.000000 0.000000 0.056242 0.000000 0.003099
# 5 0.001999 -0.033625 0.002860 0.000000 0.048009 0.000000
# 6 0.000000 0.000000 0.000000 0.003099 0.000000 0.049661
#
#
# Mechanical properties :
#
#
# Convention : Reuss Voigt Hill
#
# Bulk Modulus (GPa) = 2.51561 45.40518 23.96039
# Shear Modulus (GPa) = 5.41029 23.09683 14.25356
#
# Velocity S-wave (km/s) = 1.87185 3.86756 3.03824
# Velocity P-wave (km/s) = 2.51017 7.02492 5.27496
#
# Compressibility (1/GPa) = 0.39751722
#
# Stress axis : x y z
#
# Youngs Moduli (GPa) = 56.27928 2.04747 87.29528
#
# Poissons Ratio (x) = 0.03169 0.42324
# Poissons Ratio (y) = 0.87108 3.46834
# Poissons Ratio (z) = 0.27286 0.08135
#
# Static dielectric constant tensor:
#      x y z
#    x 1.490140 0.000000 0.013760 
#    y 0.000000 1.535100 0.000000 
#    z 0.013760 0.000000 1.553340 
# 
# From -- ./inp_files/243258.got.cif
#   From: 2010.05.17/outbox.cif.g08.bks.cpg/sg12_122_cif.got.tgz:243258.got - 2010.06.03 13:09:07.
