data_PCOD9171709
_publ_section_title
;
Structure prediction by ZEFSAII (Michael W. Deem and Ramdas Pophale) SiO2 
 PCOD9171709
Probable space group: C 2/M
;
_chemical_formula_sum "Si O2"
_cell_formula_units_Z 42
_cell_length_a 20.107631
_cell_length_b 7.980782
_cell_length_c 20.042233
_cell_angle_alpha 90.000000
_cell_angle_beta 142.381850
_cell_angle_gamma 90.000000
_cell_volume 1963.198532
_symmetry_space_group_name_H-M "C 2/M"
_symmetry_group_IT_number 12
_symmetry_cell_setting 'monoclinic'
loop_
_space_group_symop_operation_xyz
x,y,z
-x,y,-z
-x,-y,-z
x,-y,z
1/2+x,1/2+y,z
1/2-x,1/2+y,-z
1/2-x,1/2-y,-z
1/2+x,1/2-y,z
loop_
_atom_site_type_symbol
_atom_site_label
_atom_site_fract_x
_atom_site_fract_y
_atom_site_fract_z
Si Si1 0.500000 0.500000 0.500000
Si Si2 0.226694 0.803786 0.869914
Si Si3 0.410276 0.196026 0.114554
Si Si4 0.629464 0.194791 0.459773
Si Si5 0.642430 0.308830 0.321701
Si Si6 0.100241 0.687283 0.646383
O O1 0.587814 0.350112 0.590961
O O2 0.133853 0.783518 0.853389
O O3 0.191645 0.708662 0.775637
O O4 0.236269 0.000000 0.861456
O O5 0.336904 0.744552 0.994276
O O6 0.538983 0.217593 0.208331
O O7 0.385654 0.000000 0.104291
O O8 0.624338 0.296733 0.387375
O O9 0.733324 0.253605 0.585471
O O10 0.514645 0.196803 0.404725
O O11 0.651459 0.000000 0.459179
O O12 0.638413 0.500000 0.295678
O O13 0.109692 0.500000 0.622925
#
# Coordination Sequence:
#
# PCOD9171709 Si02
#       6
#     2   8   8   8   8   8
#     4  12  26  40  60  82 102 144 202 232 284 322
#     4  10  19  32  49  72 108 147 180 221 270 321
#     4  10  19  29  45  75 111 146 181 211 259 338
#     4   9  19  32  47  71 106 143 175 217 270 319
#     4  10  18  28  46  74 108 144 179 206 255 339
#     4  11  22  39  58  79 109 141 182 237 280 319
#
# _framework density 21.393657999999999
#
# number of rings (size 3 to 8) (size 9 to 14) (size 15 to 20)
#    0.000    1.905    2.857    2.000    1.333    3.048 
#    0.000    0.000    0.000    0.000    0.000    2.667 
#    0.000    6.095    0.000    0.000    0.000    0.000 
#
# Total GULP energy -116917.573740 kJ/mol
# GULP energy per Si atom -5567.503511 kJ/mol
# Density = 2.134497 g / cm^3
# Si number density = 21.393658 Si / 1000 Ang^3
#
#
#
# Elastic Constant Matrix: (Units=GPa)
#
#
# Indices 1 2 3 4 5 6 
#
# 1 20.5113 16.9967 7.8192 0.0000 5.4958 0.0000
# 2 16.9967 95.6225 30.9972 0.0000 -14.0659 0.0000
# 3 7.8192 30.9972 165.4140 0.0000 -0.7152 0.0000
# 4 0.0000 0.0000 0.0000 30.3362 0.0000 -3.1371
# 5 5.4958 -14.0659 -0.7152 0.0000 32.0240 0.0000
# 6 0.0000 0.0000 0.0000 -3.1371 0.0000 6.2985
#
#
#
# Elastic Compliance Matrix: (Units=1/GPa)
#
#
# Indices 1 2 3 4 5 6 
#
# 1 0.065167 -0.013957 -0.000540 0.000000 -0.017326 0.000000
# 2 -0.013957 0.014929 -0.002099 0.000000 0.008906 0.000000
# 3 -0.000540 -0.002099 0.006461 0.000000 -0.000685 0.000000
# 4 0.000000 0.000000 0.000000 0.034754 0.000000 0.017310
# 5 -0.017326 0.008906 -0.000685 0.000000 0.038096 0.000000
# 6 0.000000 0.000000 0.000000 0.017310 0.000000 0.167389
#
#
# Mechanical properties :
#
#
# Convention : Reuss Voigt Hill
#
# Bulk Modulus (GPa) = 18.73881 43.68599 31.21240
# Shear Modulus (GPa) = 13.23530 28.78073 21.00802
#
# Velocity S-wave (km/s) = 2.48998 3.67180 3.13705
# Velocity P-wave (km/s) = 4.12852 6.20005 5.26713
#
# Compressibility (1/GPa) = 0.05336518
#
# Stress axis : x y z
#
# Youngs Moduli (GPa) = 15.34518 66.98319 154.76527
#
# Poissons Ratio (x) = 0.93488 0.08357
# Poissons Ratio (y) = 0.21417 0.32490
# Poissons Ratio (z) = 0.00829 0.14062
#
# Static dielectric constant tensor:
#      x y z
#    x 1.769560 0.000000 0.000250 
#    y 0.000000 1.793540 0.000000 
#    z 0.000250 0.000000 1.815920 
# 
# From -- ./inp_files/348674.got.cif
#   From: 2010.05.17/outbox.cif.g08.bks.cpg/sg12_175_cif.got.tgz:348674.got - 2010.06.03 13:09:07.
