data_PCOD9171933
_publ_section_title
;
Structure prediction by ZEFSAII (Michael W. Deem and Ramdas Pophale) SiO2 
 PCOD9171933
Probable space group: C 2/M
;
_chemical_formula_sum "Si O2"
_cell_formula_units_Z 56
_cell_length_a 29.668757
_cell_length_b 8.932131
_cell_length_c 17.760898
_cell_angle_alpha 90.000000
_cell_angle_beta 50.465889
_cell_angle_gamma 90.000000
_cell_volume 3630.046129
_symmetry_space_group_name_H-M "C 2/M"
_symmetry_group_IT_number 12
_symmetry_cell_setting 'monoclinic'
loop_
_space_group_symop_operation_xyz
x,y,z
-x,y,-z
-x,-y,-z
x,-y,z
1/2+x,1/2+y,z
1/2-x,1/2+y,-z
1/2-x,1/2-y,-z
1/2+x,1/2-y,z
loop_
_atom_site_type_symbol
_atom_site_label
_atom_site_fract_x
_atom_site_fract_y
_atom_site_fract_z
Si Si1 0.158563 0.180304 0.585349
Si Si2 0.727876 0.177815 0.259347
Si Si3 0.085411 0.823712 0.255468
Si Si4 0.768637 0.678435 0.362306
Si Si5 0.041340 0.181859 0.629180
Si Si6 0.711111 0.179344 0.106555
Si Si7 0.896449 0.824406 0.589412
O O1 0.181476 0.253418 0.637518
O O2 0.207033 0.217149 0.469737
O O3 0.094348 0.229419 0.626792
O O4 0.158557 0.000000 0.592845
O O5 0.767549 0.256415 0.279644
O O6 0.735176 0.222813 0.164152
O O7 0.661796 0.226684 0.349127
O O8 0.734285 0.000000 0.258166
O O9 0.144381 0.737101 0.172741
O O10 0.077675 0.814434 0.354427
O O11 0.024608 0.766957 0.284966
O O12 0.093704 0.000000 0.228729
O O13 0.772921 0.500000 0.355852
O O14 0.061128 0.220315 0.523205
O O15 0.039096 0.000000 0.634277
O O16 0.711890 0.000000 0.101146
O O17 0.750000 0.250000 0.000000
O O18 0.880198 0.000000 0.594154
#
# Coordination Sequence:
#
# PCOD9171933 Si02
#       7
#     8   8   8   8   8   8   8
#     4   9  17  28  42  62  93 128 163 198 225 258
#     4  10  19  30  46  68  93 121 153 192 236 277
#     4   9  17  28  47  69  92 122 155 190 228 272
#     4  10  18  29  44  64  90 124 164 198 230 269
#     4   9  15  26  43  66  93 126 162 190 220 263
#     4  10  21  36  52  71  94 118 150 192 237 284
#     4   9  15  26  42  64  92 124 160 190 217 261
#
# _framework density 15.426802
#
# number of rings (size 3 to 8) (size 9 to 14) (size 15 to 20)
#    0.000    2.571    1.429    1.714    0.000    4.000 
#    0.000    1.429    0.000    3.429    0.000    1.000 
#    0.000    8.000    0.000    0.000    0.000    0.000 
#
# Total GULP energy -156016.971658 kJ/mol
# GULP energy per Si atom -5572.034702 kJ/mol
# Density = 1.539169 g / cm^3
# Si number density = 15.426802 Si / 1000 Ang^3
#
#
#
# Elastic Constant Matrix: (Units=GPa)
#
#
# Indices 1 2 3 4 5 6 
#
# 1 121.3700 39.0049 64.7564 0.0000 -3.3720 0.0001
# 2 39.0049 29.6551 32.0954 0.0000 3.4438 0.0001
# 3 64.7564 32.0954 89.5180 0.0000 4.0903 0.0000
# 4 0.0000 0.0000 0.0000 14.8417 0.0000 1.2394
# 5 -3.3720 3.4438 4.0903 0.0000 13.6586 0.0000
# 6 0.0001 0.0001 0.0000 1.2394 0.0000 21.9675
#
#
#
# Elastic Compliance Matrix: (Units=1/GPa)
#
#
# Indices 1 2 3 4 5 6 
#
# 1 0.017888 -0.016745 -0.007433 0.000000 0.010864 0.000000
# 2 -0.016745 0.071674 -0.012744 0.000000 -0.018389 0.000000
# 3 -0.007433 -0.012744 0.021346 0.000000 -0.005014 0.000000
# 4 0.000000 0.000000 0.000000 0.067697 0.000000 -0.003819
# 5 0.010864 -0.018389 -0.005014 0.000000 0.082034 0.000000
# 6 0.000000 0.000000 0.000000 -0.003819 0.000000 0.045737
#
#
# Mechanical properties :
#
#
# Convention : Reuss Voigt Hill
#
# Bulk Modulus (GPa) = 26.98036 56.91739 41.94888
# Shear Modulus (GPa) = 12.73638 17.07265 14.90451
#
# Velocity S-wave (km/s) = 2.87644 3.33030 3.11166
# Velocity P-wave (km/s) = 5.34408 7.19466 6.33728
#
# Compressibility (1/GPa) = 0.03706399
#
# Stress axis : x y z
#
# Youngs Moduli (GPa) = 55.90229 13.95203 46.84705
#
# Poissons Ratio (x) = 0.23363 0.34821
# Poissons Ratio (y) = 0.93611 0.59702
# Poissons Ratio (z) = 0.41551 0.17781
#
# Static dielectric constant tensor:
#      x y z
#    x 1.538990 0.000000 0.004620 
#    y 0.000000 1.516650 0.000000 
#    z 0.004620 0.000000 1.488820 
# 
# From -- ./inp_files/291839.got.cif
#   From: 2010.05.17/outbox.cif.g08.bks.cpg/sg12_146_cif.got.tgz:291839.got - 2010.06.03 13:09:07.
