data_PCOD9171902
_publ_section_title
;
Structure prediction by ZEFSAII (Michael W. Deem and Ramdas Pophale) SiO2 
 PCOD9171902
Probable space group: C 2/M
;
_chemical_formula_sum "Si O2"
_cell_formula_units_Z 48
_cell_length_a 25.692667
_cell_length_b 7.649890
_cell_length_c 22.201344
_cell_angle_alpha 90.000000
_cell_angle_beta 142.265440
_cell_angle_gamma 90.000000
_cell_volume 2670.533532
_symmetry_space_group_name_H-M "C 2/M"
_symmetry_group_IT_number 12
_symmetry_cell_setting 'monoclinic'
loop_
_space_group_symop_operation_xyz
x,y,z
-x,y,-z
-x,-y,-z
x,-y,z
1/2+x,1/2+y,z
1/2-x,1/2+y,-z
1/2-x,1/2-y,-z
1/2+x,1/2-y,z
loop_
_atom_site_type_symbol
_atom_site_label
_atom_site_fract_x
_atom_site_fract_y
_atom_site_fract_z
Si Si1 0.777737 0.707886 0.956808
Si Si2 0.100028 0.703076 0.754941
Si Si3 0.825968 0.212803 0.490713
Si Si4 0.971711 0.797978 0.537449
Si Si5 0.952922 0.285513 0.159031
Si Si6 0.638708 0.207183 0.338407
O O1 0.776920 0.500000 0.947942
O O2 0.702229 0.781804 0.846984
O O3 0.750000 0.750000 0.000000
O O4 0.875592 0.769921 0.044833
O O5 0.076558 0.500000 0.730423
O O6 0.070025 0.769211 0.793352
O O7 0.049986 0.793953 0.655655
O O8 0.890820 0.277216 0.499265
O O9 0.728514 0.275657 0.395710
O O10 0.857754 0.266707 0.586148
O O11 0.826103 0.000000 0.490591
O O12 0.000000 0.717007 0.500000
O O13 0.948754 0.000000 0.503815
O O14 0.951975 0.500000 0.158524
O O15 0.048191 0.224443 0.232381
O O16 0.638639 0.000000 0.326775
#
# Coordination Sequence:
#
# PCOD9171902 Si02
#       6
#     8   8   8   8   8   8
#     4   9  16  26  40  61  88 116 143 171 213 263
#     4  10  18  29  43  61  85 114 147 181 219 256
#     4   9  17  27  41  62  84 112 145 174 212 256
#     4  10  20  32  44  61  87 118 150 183 217 254
#     4   8  14  24  40  62  86 112 135 165 211 258
#     4   9  15  26  43  62  87 113 137 171 212 258
#
# _framework density 17.973935999999998
#
# number of rings (size 3 to 8) (size 9 to 14) (size 15 to 20)
#    0.000    2.833    1.667    2.000    0.000    0.333 
#    0.000    0.833    0.000    0.000    0.000    1.167 
#    0.000    9.333    0.000    0.000    0.000    0.000 
#
# Total GULP energy -133638.410368 kJ/mol
# GULP energy per Si atom -5568.267099 kJ/mol
# Density = 1.793303 g / cm^3
# Si number density = 17.973936 Si / 1000 Ang^3
#
#
#
# Elastic Constant Matrix: (Units=GPa)
#
#
# Indices 1 2 3 4 5 6 
#
# 1 103.9653 -2.6748 63.0424 0.0000 22.8588 0.0000
# 2 -2.6748 34.6139 -6.4399 0.0000 -0.8992 0.0000
# 3 63.0424 -6.4399 98.9921 0.0000 41.1571 0.0000
# 4 0.0000 0.0000 0.0000 13.2577 0.0000 -0.0968
# 5 22.8588 -0.8992 41.1571 0.0000 33.6859 0.0000
# 6 0.0000 0.0000 0.0000 -0.0968 0.0000 6.1313
#
#
#
# Elastic Compliance Matrix: (Units=1/GPa)
#
#
# Indices 1 2 3 4 5 6 
#
# 1 0.015862 -0.000833 -0.011526 0.000000 0.003297 0.000000
# 2 -0.000833 0.029452 0.003830 0.000000 -0.003328 0.000000
# 3 -0.011526 0.003830 0.029261 0.000000 -0.027827 0.000000
# 4 0.000000 0.000000 0.000000 0.075437 0.000000 0.001190
# 5 0.003297 -0.003328 -0.027827 0.000000 0.061358 0.000000
# 6 0.000000 0.000000 0.000000 0.001190 0.000000 0.163116
#
#
# Mechanical properties :
#
#
# Convention : Reuss Voigt Hill
#
# Bulk Modulus (GPa) = 17.38645 38.38076 27.88360
# Shear Modulus (GPa) = 12.17389 22.85787 17.51588
#
# Velocity S-wave (km/s) = 2.60534 3.56999 3.12511
# Velocity P-wave (km/s) = 4.32949 6.19621 5.34498
#
# Compressibility (1/GPa) = 0.05751606
#
# Stress axis : x y z
#
# Youngs Moduli (GPa) = 63.04548 33.95363 34.17556
#
# Poissons Ratio (x) = 0.02829 0.39392
# Poissons Ratio (y) = 0.05252 -0.13090
# Poissons Ratio (z) = 0.72668 -0.13005
#
# Static dielectric constant tensor:
#      x y z
#    x 1.624900 0.000000 0.058210 
#    y 0.000000 1.665110 0.000000 
#    z 0.058210 0.000000 1.640320 
# 
# From -- ./inp_files/323489.got.cif
#   From: 2010.05.17/outbox.cif.g08.bks.cpg/sg12_162_cif.got.tgz:323489.got - 2010.06.03 13:09:07.
