data_PCOD9171366
_publ_section_title
;
Structure prediction by ZEFSAII (Michael W. Deem and Ramdas Pophale) SiO2 
 PCOD9171366
Probable space group: C 2/M
;
_chemical_formula_sum "Si O2"
_cell_formula_units_Z 48
_cell_length_a 28.915641
_cell_length_b 7.684226
_cell_length_c 12.689877
_cell_angle_alpha 90.000000
_cell_angle_beta 108.060411
_cell_angle_gamma 90.000000
_cell_volume 2680.696465
_symmetry_space_group_name_H-M "C 2/M"
_symmetry_group_IT_number 12
_symmetry_cell_setting 'monoclinic'
loop_
_space_group_symop_operation_xyz
x,y,z
-x,y,-z
-x,-y,-z
x,-y,z
1/2+x,1/2+y,z
1/2-x,1/2+y,-z
1/2-x,1/2-y,-z
1/2+x,1/2-y,z
loop_
_atom_site_type_symbol
_atom_site_label
_atom_site_fract_x
_atom_site_fract_y
_atom_site_fract_z
Si Si1 0.172142 0.788692 0.929789
Si Si2 0.760725 0.792156 0.838312
Si Si3 0.883547 0.294494 0.441896
Si Si4 0.519629 0.710377 0.398868
Si Si5 0.076644 0.202261 0.758194
Si Si6 0.774651 0.709238 0.407031
O O1 0.210354 0.740494 0.865072
O O2 0.118610 0.721825 0.862179
O O3 0.170424 0.000000 0.931004
O O4 0.196280 0.724990 0.055708
O O5 0.754817 0.724038 0.715876
O O6 0.767397 0.000000 0.836962
O O7 0.880629 0.500000 0.417946
O O8 0.924478 0.266442 0.560325
O O9 0.901684 0.209360 0.345603
O O10 0.830481 0.229127 0.437367
O O11 0.500000 0.766745 0.500000
O O12 0.519007 0.500000 0.395941
O O13 0.478234 0.775042 0.288974
O O14 0.071456 0.000000 0.784073
O O15 0.776420 0.500000 0.399657
O O16 0.750000 0.750000 0.500000
#
# Coordination Sequence:
#
# PCOD9171366 Si02
#       6
#     8   8   8   8   8   8
#     4   9  16  26  45  66  87 116 142 169 213 264
#     4   9  17  30  43  62  89 113 142 180 217 253
#     4  10  18  28  41  60  86 113 143 180 216 249
#     4   8  15  26  39  58  86 114 141 171 206 255
#     4   9  16  26  41  64  89 115 142 167 206 261
#     4  10  21  33  45  62  86 116 149 185 217 251
#
# _framework density 17.905795000000001
#
# number of rings (size 3 to 8) (size 9 to 14) (size 15 to 20)
#    0.000    2.833    1.667    1.500    0.000    5.000 
#    0.000    0.000    0.000    0.000    0.000    1.167 
#    0.000    9.333    0.000    0.000    0.000    0.000 
#
# Total GULP energy -133621.947822 kJ/mol
# GULP energy per Si atom -5567.581159 kJ/mol
# Density = 1.786504 g / cm^3
# Si number density = 17.905795 Si / 1000 Ang^3
#
#
#
# Elastic Constant Matrix: (Units=GPa)
#
#
# Indices 1 2 3 4 5 6 
#
# 1 71.7723 -5.7158 64.1776 0.0000 30.1806 0.0000
# 2 -5.7158 27.1056 0.4779 0.0000 3.2344 0.0000
# 3 64.1776 0.4779 131.7776 0.0000 30.7953 0.0000
# 4 0.0000 0.0000 0.0000 9.3488 0.0000 0.8855
# 5 30.1806 3.2344 30.7953 0.0000 37.2352 0.0000
# 6 0.0000 0.0000 0.0000 0.8855 0.0000 17.8061
#
#
#
# Elastic Compliance Matrix: (Units=1/GPa)
#
#
# Indices 1 2 3 4 5 6 
#
# 1 0.032544 0.009147 -0.011817 0.000000 -0.017400 0.000000
# 2 0.009147 0.039913 -0.002550 0.000000 -0.008773 0.000000
# 3 -0.011817 -0.002550 0.013713 0.000000 -0.001542 0.000000
# 4 0.000000 0.000000 0.000000 0.107472 0.000000 -0.005344
# 5 -0.017400 -0.008773 -0.001542 0.000000 0.042997 0.000000
# 6 0.000000 0.000000 0.000000 -0.005344 0.000000 0.056426
#
#
# Mechanical properties :
#
#
# Convention : Reuss Voigt Hill
#
# Bulk Modulus (GPa) = 13.20421 38.72610 25.96515
# Shear Modulus (GPa) = 15.20921 24.32574 19.76747
#
# Velocity S-wave (km/s) = 2.91761 3.68984 3.32621
# Velocity P-wave (km/s) = 4.32900 6.31093 5.41147
#
# Compressibility (1/GPa) = 0.07573343
#
# Stress axis : x y z
#
# Youngs Moduli (GPa) = 30.72718 25.05426 72.92364
#
# Poissons Ratio (x) = -0.22918 0.86170
# Poissons Ratio (y) = -0.28107 0.18592
# Poissons Ratio (z) = 0.36309 0.06388
#
# Static dielectric constant tensor:
#      x y z
#    x 1.625740 0.000000 0.077050 
#    y 0.000000 1.646560 0.000000 
#    z 0.077050 0.000000 1.640550 
# 
# From -- ./inp_files/179200.got.cif
#   From: 2010.05.17/outbox.cif.g08.bks.cpg/sg12_90_cif.got.tgz:179200.got - 2010.06.03 13:09:07.
