data_PCOD9171148
_publ_section_title
;
Structure prediction by ZEFSAII (Michael W. Deem and Ramdas Pophale) SiO2 
 PCOD9171148
Probable space group: C 2/M
;
_chemical_formula_sum "Si O2"
_cell_formula_units_Z 64
_cell_length_a 25.931317
_cell_length_b 7.619071
_cell_length_c 24.635594
_cell_angle_alpha 90.000000
_cell_angle_beta 133.215140
_cell_angle_gamma 90.000000
_cell_volume 3547.240845
_symmetry_space_group_name_H-M "C 2/M"
_symmetry_group_IT_number 12
_symmetry_cell_setting 'monoclinic'
loop_
_space_group_symop_operation_xyz
x,y,z
-x,y,-z
-x,-y,-z
x,-y,z
1/2+x,1/2+y,z
1/2-x,1/2+y,-z
1/2-x,1/2-y,-z
1/2+x,1/2-y,z
loop_
_atom_site_type_symbol
_atom_site_label
_atom_site_fract_x
_atom_site_fract_y
_atom_site_fract_z
Si Si1 0.782027 0.208691 0.582233
Si Si2 0.972340 0.285223 0.584919
Si Si3 0.310107 0.708384 0.164244
Si Si4 0.924273 0.704662 0.155932
Si Si5 0.868371 0.288626 0.323286
Si Si6 0.192036 0.710316 0.004590
Si Si7 0.664619 0.784994 0.581638
Si Si8 0.556199 0.792079 0.313345
O O1 0.750000 0.250000 0.500000
O O2 0.729322 0.276475 0.590812
O O3 0.862488 0.271107 0.643935
O O4 0.783665 0.000000 0.588228
O O5 0.972213 0.500000 0.584805
O O6 0.909145 0.231676 0.499669
O O7 0.956221 0.223966 0.634545
O O8 0.050279 0.227526 0.623385
O O9 0.313191 0.500000 0.156711
O O10 0.371116 0.787362 0.169469
O O11 0.327042 0.741517 0.238882
O O12 0.232887 0.772198 0.087989
O O13 0.936373 0.500000 0.151642
O O14 0.998440 0.782134 0.229750
O O15 0.881007 0.781539 0.073456
O O16 0.871009 0.500000 0.327385
O O17 0.834761 0.227258 0.355530
O O18 0.183563 0.500000 0.002943
O O19 0.250000 0.750000 0.000000
O O20 0.665748 0.000000 0.581870
O O21 0.541633 0.000000 0.306377
#
# Coordination Sequence:
#
# PCOD9171148 Si02
#       8
#     8   8   8   8   8   8   8   8
#     4  11  21  34  50  69  92 121 155 194 234 274
#     4   9  15  27  47  69  89 112 150 192 224 259
#     4  10  18  27  41  66  99 125 146 182 232 277
#     4   9  16  29  47  66  90 122 160 189 216 269
#     4  10  18  30  49  68  87 121 159 190 221 267
#     4   8  15  26  41  62  90 123 151 180 221 269
#     4   9  18  31  48  67  87 115 159 197 223 262
#     4  10  18  30  49  71  92 119 155 193 228 269
#
# _framework density 18.042192
#
# number of rings (size 3 to 8) (size 9 to 14) (size 15 to 20)
#    0.000    2.500    2.500    1.125    0.000    2.500 
#    0.000    1.250    0.000    0.750    0.000    0.875 
#    0.000    7.000    0.000    0.000    0.000    0.000 
#
# Total GULP energy -178366.002317 kJ/mol
# GULP energy per Si atom -5573.937572 kJ/mol
# Density = 1.800113 g / cm^3
# Si number density = 18.042192 Si / 1000 Ang^3
#
#
#
# Elastic Constant Matrix: (Units=GPa)
#
#
# Indices 1 2 3 4 5 6 
#
# 1 95.5175 -7.4199 67.0295 0.0001 -2.6095 0.0002
# 2 -7.4199 33.2705 -9.8244 0.0001 1.9259 0.0016
# 3 67.0295 -9.8244 164.4621 0.0000 18.2402 0.0000
# 4 0.0001 0.0001 0.0000 9.8460 0.0000 1.6666
# 5 -2.6095 1.9259 18.2402 0.0000 16.8303 0.0000
# 6 0.0002 0.0016 0.0000 1.6666 0.0000 13.3543
#
#
#
# Elastic Compliance Matrix: (Units=1/GPa)
#
#
# Indices 1 2 3 4 5 6 
#
# 1 0.016306 0.000697 -0.007815 0.000000 0.010918 0.000000
# 2 0.000697 0.031212 0.002233 0.000000 -0.005884 -0.000004
# 3 -0.007815 0.002233 0.010868 0.000000 -0.013246 0.000000
# 4 0.000000 0.000000 0.000000 0.103756 0.000000 -0.012948
# 5 0.010918 -0.005884 -0.013246 0.000000 0.076138 0.000000
# 6 0.000000 -0.000004 0.000000 -0.012948 0.000000 0.076498
#
#
# Mechanical properties :
#
#
# Convention : Reuss Voigt Hill
#
# Bulk Modulus (GPa) = 20.56956 43.64673 32.10815
# Shear Modulus (GPa) = 14.67334 24.23711 19.45523
#
# Velocity S-wave (km/s) = 2.85490 3.66916 3.28734
# Velocity P-wave (km/s) = 4.72153 6.49571 5.67834
#
# Compressibility (1/GPa) = 0.04861552
#
# Stress axis : x y z
#
# Youngs Moduli (GPa) = 61.32740 32.03896 92.01284
#
# Poissons Ratio (x) = -0.02232 0.71909
# Poissons Ratio (y) = -0.04273 -0.20547
# Poissons Ratio (z) = 0.47928 -0.07154
#
# Static dielectric constant tensor:
#      x y z
#    x 1.580860 0.000000 0.001980 
#    y 0.000000 1.691300 0.000000 
#    z 0.001980 0.000000 1.659070 
# 
# From -- ./inp_files/323667.got.cif
#   From: 2010.05.17/outbox.cif.g08.bks.cpg/sg12_162_cif.got.tgz:323667.got - 2010.06.03 13:09:07.
