data_PCOD9171241
_publ_section_title
;
Structure prediction by ZEFSAII (Michael W. Deem and Ramdas Pophale) SiO2 
 PCOD9171241
Probable space group: C 2/M
;
_chemical_formula_sum "Si O2"
_cell_formula_units_Z 64
_cell_length_a 31.368196
_cell_length_b 10.743543
_cell_length_c 10.111032
_cell_angle_alpha 90.000000
_cell_angle_beta 80.970061
_cell_angle_gamma 90.000000
_cell_volume 3365.243373
_symmetry_space_group_name_H-M "C 2/M"
_symmetry_group_IT_number 12
_symmetry_cell_setting 'monoclinic'
loop_
_space_group_symop_operation_xyz
x,y,z
-x,y,-z
-x,-y,-z
x,-y,z
1/2+x,1/2+y,z
1/2-x,1/2+y,-z
1/2-x,1/2-y,-z
1/2+x,1/2-y,z
loop_
_atom_site_type_symbol
_atom_site_label
_atom_site_fract_x
_atom_site_fract_y
_atom_site_fract_z
Si Si1 0.027899 0.349206 0.673537
Si Si2 0.798357 0.134193 0.973835
Si Si3 0.639406 0.145062 0.983468
Si Si4 0.755944 0.263592 0.768228
Si Si5 0.154173 0.350831 0.394636
Si Si6 0.451344 0.848883 0.056261
Si Si7 0.678155 0.855367 0.670824
Si Si8 0.563397 0.849436 0.364743
O O1 0.026674 0.500000 0.679746
O O2 0.977820 0.306129 0.699927
O O3 0.054053 0.307995 0.788846
O O4 0.049058 0.321293 0.522842
O O5 0.829506 0.254171 0.965188
O O6 0.767687 0.144564 0.117297
O O7 0.820467 0.000000 0.962857
O O8 0.768919 0.149518 0.858392
O O9 0.589283 0.184654 0.014309
O O10 0.651605 0.148344 0.820978
O O11 0.644844 0.000000 0.025315
O O12 0.799809 0.312781 0.684791
O O13 0.721190 0.222967 0.676935
O O14 0.150989 0.500000 0.392436
O O15 0.153453 0.314331 0.550331
O O16 0.112559 0.303479 0.332802
O O17 0.450864 0.000000 0.051714
O O18 0.500000 0.809860 0.000000
O O19 0.689981 0.000000 0.644260
O O20 0.564243 0.000000 0.347347
#
# Coordination Sequence:
#
# PCOD9171241 Si02
#       8
#     8   8   8   8   8   8   8   8
#     4   8  13  23  37  55  85 122 154 180 218 278
#     4  10  21  36  52  68  93 131 168 201 241 288
#     4   9  18  32  51  74  98 127 164 201 238 285
#     4  10  20  32  48  67  91 121 164 205 237 279
#     4  10  18  27  43  69  97 121 150 193 241 284
#     4   9  16  25  40  65  96 126 154 190 235 278
#     4   9  17  30  47  66  92 125 156 190 237 288
#     4   8  14  23  37  58  85 118 149 181 226 278
#
# _framework density 19.017941
#
# number of rings (size 3 to 8) (size 9 to 14) (size 15 to 20)
#    0.000    2.875    0.000    2.625    0.000    7.500 
#    0.000    2.500    0.000    1.125    0.000    0.000 
#    0.000    0.000    0.000   14.250    0.000    6.250 
#
# Total GULP energy -178240.539930 kJ/mol
# GULP energy per Si atom -5570.016873 kJ/mol
# Density = 1.897466 g / cm^3
# Si number density = 19.017941 Si / 1000 Ang^3
#
#
#
# Elastic Constant Matrix: (Units=GPa)
#
#
# Indices 1 2 3 4 5 6 
#
# 1 113.7831 24.2011 3.3974 0.0000 -0.9455 0.0000
# 2 24.2011 46.4649 4.7606 0.0000 7.3380 0.0000
# 3 3.3974 4.7606 32.5931 0.0000 5.5439 0.0000
# 4 0.0000 0.0000 0.0000 -2.4173 0.0000 -1.8670
# 5 -0.9455 7.3380 5.5439 0.0000 25.8151 0.0000
# 6 0.0000 0.0000 0.0000 -1.8670 0.0000 14.7366
#
#
#
# Elastic Compliance Matrix: (Units=1/GPa)
#
#
# Indices 1 2 3 4 5 6 
#
# 1 0.009985 -0.005463 -0.000591 0.000000 0.002046 0.000000
# 2 -0.005463 0.025688 -0.001979 0.000000 -0.007077 0.000000
# 3 -0.000591 -0.001979 0.032113 0.000000 -0.006356 0.000000
# 4 0.000000 0.000000 0.000000 -0.376812 0.000000 -0.047739
# 5 0.002046 -0.007077 -0.006356 0.000000 0.042188 0.000000
# 6 0.000000 0.000000 0.000000 -0.047739 0.000000 0.061810
#
#
# Mechanical properties :
#
#
# Convention : Reuss Voigt Hill
#
# Bulk Modulus (GPa) = 19.33482 28.61769 23.97625
# Shear Modulus (GPa) = -29.11677 18.32568 -5.39554
#
# Velocity S-wave (km/s) = -3.91706 3.10756 -1.68619
# Velocity P-wave (km/s) = 3.20455 5.28737 2.97381
#
# Compressibility (1/GPa) = 0.05172017
#
# Stress axis : x y z
#
# Youngs Moduli (GPa) = 100.14711 38.92940 31.13999
#
# Poissons Ratio (x) = 0.21268 0.01840
# Poissons Ratio (y) = 0.54714 0.06162
# Poissons Ratio (z) = 0.05917 0.07703
#
# Static dielectric constant tensor:
#      x y z
#    x 1.709770 0.000000 -0.018300 
#    y 0.000000 1.622800 0.000000 
#    z -0.018300 0.000000 1.730120 
# 
# From -- ./inp_files/182046.got.cif
#   From: 2010.05.17/outbox.cif.g08.bks.cpg/sg12_92_cif.got.tgz:182046.got - 2010.06.03 13:09:07.
