data_PCOD9171771
_publ_section_title
;
Structure prediction by ZEFSAII (Michael W. Deem and Ramdas Pophale) SiO2 
 PCOD9171771
Probable space group: C 2/M
;
_chemical_formula_sum "Si O2"
_cell_formula_units_Z 48
_cell_length_a 9.788828
_cell_length_b 26.123843
_cell_length_c 12.606087
_cell_angle_alpha 90.000000
_cell_angle_beta 132.933945
_cell_angle_gamma 90.000000
_cell_volume 2360.162396
_symmetry_space_group_name_H-M "C 2/M"
_symmetry_group_IT_number 12
_symmetry_cell_setting 'monoclinic'
loop_
_space_group_symop_operation_xyz
x,y,z
-x,y,-z
-x,-y,-z
x,-y,z
1/2+x,1/2+y,z
1/2-x,1/2+y,-z
1/2-x,1/2-y,-z
1/2+x,1/2-y,z
loop_
_atom_site_type_symbol
_atom_site_label
_atom_site_fract_x
_atom_site_fract_y
_atom_site_fract_z
Si Si1 0.800032 0.135831 0.024645
Si Si2 0.217699 0.804399 0.426682
Si Si3 0.287935 0.941956 0.847149
Si Si4 0.717809 0.326668 0.194032
Si Si5 0.724765 0.360476 0.632131
Si Si6 0.229008 0.788838 0.819517
O O1 0.812072 0.086945 0.107785
O O2 0.697407 0.177806 0.043753
O O3 0.010488 0.153332 0.110763
O O4 0.706512 0.135553 0.858368
O O5 0.250000 0.750000 0.500000
O O6 0.300521 0.815380 0.354227
O O7 0.284692 0.848186 0.544004
O O8 0.992533 0.800944 0.295779
O O9 0.275078 0.909000 0.732150
O O10 0.222050 0.000000 0.796465
O O11 0.500000 0.943008 0.000000
O O12 0.722882 0.270163 0.145065
O O13 0.500000 0.361459 0.500000
O O14 0.786242 0.312088 0.736674
#
# Coordination Sequence:
#
# PCOD9171771 Si02
#       6
#     8   8   8   8   8   8
#     4   9  20  35  51  79 109 143 192 235 271 336
#     4  10  18  28  47  75 113 156 189 211 259 329
#     4  10  22  42  64  82 103 138 188 251 304 331
#     4  10  18  32  50  75 116 154 183 218 271 329
#     4   9  18  34  53  81 112 142 187 226 264 328
#     4   9  17  30  47  72 111 153 185 221 257 319
#
# _framework density 20.337582999999999
#
# number of rings (size 3 to 8) (size 9 to 14) (size 15 to 20)
#    0.000    2.500    1.667    1.500    0.000    1.667 
#   15.000    1.667    0.000    1.000    0.000    2.333 
#    0.000    0.000    0.000    0.000    0.000    0.000 
#
# Total GULP energy -133667.376753 kJ/mol
# GULP energy per Si atom -5569.474031 kJ/mol
# Density = 2.029129 g / cm^3
# Si number density = 20.337583 Si / 1000 Ang^3
#
#
#
# Elastic Constant Matrix: (Units=GPa)
#
#
# Indices 1 2 3 4 5 6 
#
# 1 46.9060 18.3585 36.4521 0.0000 -23.4344 0.0000
# 2 18.3585 114.1405 36.1884 0.0000 -25.2760 0.0000
# 3 36.4521 36.1884 122.2421 0.0000 -30.5884 0.0000
# 4 0.0000 0.0000 0.0000 22.3731 0.0000 1.7919
# 5 -23.4344 -25.2760 -30.5884 0.0000 54.4035 0.0000
# 6 0.0000 0.0000 0.0000 1.7919 0.0000 11.1513
#
#
#
# Elastic Compliance Matrix: (Units=1/GPa)
#
#
# Indices 1 2 3 4 5 6 
#
# 1 0.031661 -0.000842 -0.006839 0.000000 0.009401 0.000000
# 2 -0.000842 0.010247 -0.001957 0.000000 0.003298 0.000000
# 3 -0.006839 -0.001957 0.011445 0.000000 0.002579 0.000000
# 4 0.000000 0.000000 0.000000 0.045279 0.000000 -0.007276
# 5 0.009401 0.003298 0.002579 0.000000 0.025413 0.000000
# 6 0.000000 0.000000 0.000000 -0.007276 0.000000 0.090845
#
#
# Mechanical properties :
#
#
# Convention : Reuss Voigt Hill
#
# Bulk Modulus (GPa) = 29.34658 51.69851 40.52255
# Shear Modulus (GPa) = 20.36440 30.40490 25.38465
#
# Velocity S-wave (km/s) = 3.16779 3.87073 3.53677
# Velocity P-wave (km/s) = 5.27645 6.74182 6.05364
#
# Compressibility (1/GPa) = 0.03407552
#
# Stress axis : x y z
#
# Youngs Moduli (GPa) = 31.58479 97.58555 87.37548
#
# Poissons Ratio (x) = 0.08217 0.59759
# Poissons Ratio (y) = 0.02660 0.17102
# Poissons Ratio (z) = 0.21602 0.19101
#
# Static dielectric constant tensor:
#      x y z
#    x 1.798590 0.000000 0.009070 
#    y 0.000000 1.706930 0.000000 
#    z 0.009070 0.000000 1.928750 
# 
# From -- ./inp_files/135522.got.cif
#   From: 2010.05.17/outbox.cif.g08.bks.cpg/sg12_68_cif.got.tgz:135522.got - 2010.06.03 13:09:07.
