data_PCOD9171885
_publ_section_title
;
Structure prediction by ZEFSAII (Michael W. Deem and Ramdas Pophale) SiO2 
 PCOD9171885
Probable space group: C 2/M
;
_chemical_formula_sum "Si O2"
_cell_formula_units_Z 52
_cell_length_a 17.655748
_cell_length_b 20.257413
_cell_length_c 14.201457
_cell_angle_alpha 90.000000
_cell_angle_beta 155.118643
_cell_angle_gamma 90.000000
_cell_volume 2137.063793
_symmetry_space_group_name_H-M "C 2/M"
_symmetry_group_IT_number 12
_symmetry_cell_setting 'monoclinic'
loop_
_space_group_symop_operation_xyz
x,y,z
-x,y,-z
-x,-y,-z
x,-y,z
1/2+x,1/2+y,z
1/2-x,1/2+y,-z
1/2-x,1/2-y,-z
1/2+x,1/2-y,z
loop_
_atom_site_type_symbol
_atom_site_label
_atom_site_fract_x
_atom_site_fract_y
_atom_site_fract_z
Si Si1 0.734981 0.237530 0.837820
Si Si2 0.898468 0.884299 0.125057
Si Si3 0.175790 0.734825 0.565086
Si Si4 0.817846 0.353874 0.611527
Si Si5 0.303671 0.379494 0.226698
Si Si6 0.183309 0.500000 0.398310
Si Si7 0.518719 0.500000 0.909515
Si Si8 0.804870 0.000000 0.331428
O O1 0.747178 0.208818 0.745838
O O2 0.530838 0.251237 0.641742
O O3 0.806981 0.312111 0.910368
O O4 0.819438 0.185845 0.003787
O O5 0.830351 0.905326 0.150943
O O6 0.108773 0.874085 0.374467
O O7 0.878865 0.937353 0.020206
O O8 0.156225 0.683767 0.457991
O O9 0.300477 0.795966 0.671555
O O10 0.910462 0.427039 0.713428
O O11 0.500000 0.367099 0.500000
O O12 0.215282 0.433514 0.193860
O O13 0.315583 0.500000 0.637395
O O14 0.307588 0.500000 0.445092
O O15 0.500000 0.500000 0.000000
O O16 0.000000 0.000000 0.500000
#
# Coordination Sequence:
#
# PCOD9171885 Si02
#       8
#     8   8   8   8   8   4   4   4
#     4  11  21  35  56  83 120 145 193 221 290 325
#     4  11  22  35  59  85 111 150 188 233 280 337
#     4  10  21  37  55  82 115 158 175 238 271 346
#     4  10  20  37  59  82 115 143 195 224 292 321
#     4  11  18  34  55  86 114 142 180 240 282 334
#     4  10  20  34  57  85 104 145 187 234 276 340
#     4  10  22  36  51  81 121 144 182 243 284 318
#     4  10  18  28  58  84 110 138 183 231 292 332
#
# _framework density 24.332450999999999
#
# number of rings (size 3 to 8) (size 9 to 14) (size 15 to 20)
#    0.000    1.538    3.077    5.538    4.308    0.000 
#    0.000    0.769    0.000    1.846    0.000    1.077 
#    0.000    0.000    0.000    0.000    0.000    0.000 
#
# Total GULP energy -145166.641700 kJ/mol
# GULP energy per Si atom -5583.332373 kJ/mol
# Density = 2.427707 g / cm^3
# Si number density = 24.332451 Si / 1000 Ang^3
#
#
#
# Elastic Constant Matrix: (Units=GPa)
#
#
# Indices 1 2 3 4 5 6 
#
# 1 176.7949 40.7799 33.7546 0.0000 -39.4315 0.0000
# 2 40.7799 148.5248 16.2523 0.0000 -10.9597 0.0000
# 3 33.7546 16.2523 60.0227 0.0000 -13.3535 0.0000
# 4 0.0000 0.0000 0.0000 10.4020 0.0000 -24.3836
# 5 -39.4315 -10.9597 -13.3535 0.0000 46.7340 0.0000
# 6 0.0000 0.0000 0.0000 -24.3836 0.0000 26.3246
#
#
#
# Elastic Compliance Matrix: (Units=1/GPa)
#
#
# Indices 1 2 3 4 5 6 
#
# 1 0.007710 -0.001418 -0.002754 0.000000 0.005386 0.000000
# 2 -0.001418 0.007259 -0.001127 0.000000 0.000184 0.000000
# 3 -0.002754 -0.001127 0.019156 0.000000 0.002886 0.000000
# 4 0.000000 0.000000 0.000000 -0.082077 0.000000 -0.076025
# 5 0.005386 0.000184 0.002886 0.000000 0.026810 0.000000
# 6 0.000000 0.000000 0.000000 -0.076025 0.000000 -0.032432
#
#
# Mechanical properties :
#
#
# Convention : Reuss Voigt Hill
#
# Bulk Modulus (GPa) = 42.50342 62.99069 52.74705
# Shear Modulus (GPa) = -142.31884 36.32916 -52.99484
#
# Velocity S-wave (km/s) = -7.65613 3.86817 -4.67191
# Velocity P-wave (km/s) = 7.78777 6.77451 2.71618
#
# Compressibility (1/GPa) = 0.02352752
#
# Stress axis : x y z
#
# Youngs Moduli (GPa) = 129.69340 137.75666 52.20246
#
# Poissons Ratio (x) = 0.19537 0.14375
# Poissons Ratio (y) = 0.18394 0.05884
# Poissons Ratio (z) = 0.35715 0.15527
#
# Static dielectric constant tensor:
#      x y z
#    x 1.896730 0.000000 0.049980 
#    y 0.000000 2.127250 0.000000 
#    z 0.049980 0.000000 2.020930 
# 
# From -- ./inp_files/227459.got.cif
#   From: 2010.05.17/outbox.cif.g08.bks.cpg/sg12_114_cif.got.tgz:227459.got - 2010.06.03 13:09:07.
