data_PCOD9171099
_publ_section_title
;
Structure prediction by ZEFSAII (Michael W. Deem and Ramdas Pophale) SiO2 
 PCOD9171099
Probable space group: C 2/M
;
_chemical_formula_sum "Si O2"
_cell_formula_units_Z 64
_cell_length_a 27.942634
_cell_length_b 8.998686
_cell_length_c 17.592085
_cell_angle_alpha 90.000000
_cell_angle_beta 78.433047
_cell_angle_gamma 90.000000
_cell_volume 4333.640703
_symmetry_space_group_name_H-M "C 2/M"
_symmetry_group_IT_number 12
_symmetry_cell_setting 'monoclinic'
loop_
_space_group_symop_operation_xyz
x,y,z
-x,y,-z
-x,-y,-z
x,-y,z
1/2+x,1/2+y,z
1/2-x,1/2+y,-z
1/2-x,1/2-y,-z
1/2+x,1/2-y,z
loop_
_atom_site_type_symbol
_atom_site_label
_atom_site_fract_x
_atom_site_fract_y
_atom_site_fract_z
Si Si1 0.675914 0.677433 0.664313
Si Si2 0.696578 0.821873 0.506780
Si Si3 0.056464 0.320616 0.973475
Si Si4 0.291777 0.827131 0.081859
Si Si5 0.136515 0.822550 0.054531
Si Si6 0.375633 0.827467 0.182953
Si Si7 0.788717 0.677730 0.665375
Si Si8 0.311556 0.678878 0.814905
O O1 0.675795 0.500000 0.656315
O O2 0.666421 0.753095 0.585746
O O3 0.638165 0.731424 0.739873
O O4 0.731248 0.721572 0.673686
O O5 0.750000 0.750000 0.500000
O O6 0.684245 0.787476 0.422934
O O7 0.699422 0.000000 0.513462
O O8 0.060955 0.500000 0.976495
O O9 0.079304 0.277321 0.884367
O O10 0.090433 0.251630 0.028022
O O11 0.000000 0.279749 0.000000
O O12 0.329518 0.821945 0.140202
O O13 0.239614 0.776168 0.129092
O O14 0.288292 0.000000 0.058389
O O15 0.316095 0.730056 0.008430
O O16 0.146048 0.779764 0.139098
O O17 0.132606 0.000000 0.051167
O O18 0.382709 0.000000 0.202732
O O19 0.789070 0.500000 0.674813
O O20 0.811952 0.752548 0.731403
O O21 0.310623 0.500000 0.808815
#
# Coordination Sequence:
#
# PCOD9171099 Si02
#       8
#     8   8   8   8   8   8   8   8
#     4  10  18  27  40  61  86 114 148 182 216 255
#     4   9  17  28  40  57  81 112 150 186 218 252
#     4   9  19  36  53  66  84 112 145 180 223 272
#     4   9  17  29  42  58  83 118 152 178 212 253
#     4  10  20  30  43  65  87 110 143 182 221 258
#     4   9  16  27  45  65  84 111 145 181 218 254
#     4   9  18  28  39  58  83 115 152 184 214 246
#     4  10  19  29  41  59  86 118 150 180 212 254
#
# _framework density 14.768183000000001
#
# number of rings (size 3 to 8) (size 9 to 14) (size 15 to 20)
#    0.000    2.625    1.250    3.000    0.000    6.250 
#    0.000    0.000    0.000    0.000    0.000    0.000 
#    0.000    1.000    0.000   11.250    0.000    5.625 
#
# Total GULP energy -178248.290145 kJ/mol
# GULP energy per Si atom -5570.259067 kJ/mol
# Density = 1.473457 g / cm^3
# Si number density = 14.768183 Si / 1000 Ang^3
#
#
#
# Elastic Constant Matrix: (Units=GPa)
#
#
# Indices 1 2 3 4 5 6 
#
# 1 47.7698 22.3296 53.4266 0.0000 -2.8048 0.0000
# 2 22.3296 35.7297 49.4337 0.0000 3.4624 0.0000
# 3 53.4266 49.4337 141.3274 0.0000 9.3743 0.0000
# 4 0.0000 0.0000 0.0000 28.4016 0.0000 2.0806
# 5 -2.8048 3.4624 9.3743 0.0000 16.2103 0.0000
# 6 0.0000 0.0000 0.0000 2.0806 0.0000 13.2783
#
#
#
# Elastic Compliance Matrix: (Units=1/GPa)
#
#
# Indices 1 2 3 4 5 6 
#
# 1 0.041258 -0.008317 -0.013809 0.000000 0.016901 0.000000
# 2 -0.008317 0.055917 -0.016146 0.000000 -0.004045 0.000000
# 3 -0.013809 -0.016146 0.018586 0.000000 -0.009689 0.000000
# 4 0.000000 0.000000 0.000000 0.035618 0.000000 -0.005581
# 5 0.016901 -0.004045 -0.009689 0.000000 0.071081 0.000000
# 6 0.000000 0.000000 0.000000 -0.005581 0.000000 0.076185
#
#
# Mechanical properties :
#
#
# Convention : Reuss Voigt Hill
#
# Bulk Modulus (GPa) = 25.49932 52.80075 39.15003
# Shear Modulus (GPa) = 12.87795 18.22051 15.54923
#
# Velocity S-wave (km/s) = 2.95618 3.51631 3.24834
# Velocity P-wave (km/s) = 5.38107 7.23302 6.37466
#
# Compressibility (1/GPa) = 0.03921673
#
# Stress axis : x y z
#
# Youngs Moduli (GPa) = 24.23797 17.88369 53.80337
#
# Poissons Ratio (x) = 0.14874 0.74295
# Poissons Ratio (y) = 0.20159 0.86872
# Poissons Ratio (z) = 0.33469 0.28875
#
# Static dielectric constant tensor:
#      x y z
#    x 1.468480 0.000000 0.002260 
#    y 0.000000 1.525270 0.000000 
#    z 0.002260 0.000000 1.514680 
# 
# From -- ./inp_files/287548.got.cif
#   From: 2010.05.17/outbox.cif.g08.bks.cpg/sg12_144_cif.got.tgz:287548.got - 2010.06.03 13:09:07.
