data_PCOD9171407
_publ_section_title
;
Structure prediction by ZEFSAII (Michael W. Deem and Ramdas Pophale) SiO2 
 PCOD9171407
Probable space group: C 2/M
;
_chemical_formula_sum "Si O2"
_cell_formula_units_Z 56
_cell_length_a 28.378621
_cell_length_b 7.918853
_cell_length_c 16.702726
_cell_angle_alpha 90.000000
_cell_angle_beta 65.132944
_cell_angle_gamma 90.000000
_cell_volume 3405.533152
_symmetry_space_group_name_H-M "C 2/M"
_symmetry_group_IT_number 12
_symmetry_cell_setting 'monoclinic'
loop_
_space_group_symop_operation_xyz
x,y,z
-x,y,-z
-x,-y,-z
x,-y,z
1/2+x,1/2+y,z
1/2-x,1/2+y,-z
1/2-x,1/2-y,-z
1/2+x,1/2-y,z
loop_
_atom_site_type_symbol
_atom_site_label
_atom_site_fract_x
_atom_site_fract_y
_atom_site_fract_z
Si Si1 0.241002 0.698733 0.304885
Si Si2 0.347835 0.799268 0.311863
Si Si3 0.664008 0.697719 0.050606
Si Si4 0.555992 0.296220 0.863922
Si Si5 0.938626 0.206839 0.956156
Si Si6 0.804421 0.297073 0.502876
Si Si7 0.244436 0.801729 0.121958
O O1 0.231749 0.500000 0.300744
O O2 0.299268 0.721092 0.298338
O O3 0.201850 0.766623 0.401796
O O4 0.236773 0.781058 0.221408
O O5 0.401254 0.763574 0.228945
O O6 0.345688 0.740004 0.406388
O O7 0.338659 0.000000 0.318593
O O8 0.655393 0.500000 0.073374
O O9 0.608406 0.770085 0.065067
O O10 0.696323 0.766615 0.103203
O O11 0.703270 0.714924 0.947576
O O12 0.556486 0.500000 0.863257
O O13 0.496700 0.241731 0.889660
O O14 0.569164 0.242192 0.945525
O O15 0.937679 0.000000 0.956435
O O16 0.808083 0.500000 0.506733
O O17 0.750000 0.250000 0.500000
O O18 0.250259 0.000000 0.098872
#
# Coordination Sequence:
#
# PCOD9171407 Si02
#       7
#     8   8   8   8   8   8   8
#     4  10  18  29  44  60  82 114 145 169 201 248
#     4  10  18  28  42  63  89 110 133 170 211 248
#     4   9  17  30  45  60  84 117 145 169 203 247
#     4   9  16  27  44  64  83 108 142 170 199 244
#     4   8  15  28  44  60  81 111 144 172 195 235
#     4   8  16  28  41  58  81 109 137 166 203 248
#     4  10  19  28  41  64  88 110 140 176 210 242
#
# _framework density 16.443826000000001
#
# number of rings (size 3 to 8) (size 9 to 14) (size 15 to 20)
#    0.000    2.857    0.000    3.000    0.000    2.857 
#    0.000    2.143    0.000    0.000    0.000    1.000 
#    0.000    8.000    0.000    0.000    0.000    0.000 
#
# Total GULP energy -155904.634855 kJ/mol
# GULP energy per Si atom -5568.022673 kJ/mol
# Density = 1.640640 g / cm^3
# Si number density = 16.443826 Si / 1000 Ang^3
#
#
#
# Elastic Constant Matrix: (Units=GPa)
#
#
# Indices 1 2 3 4 5 6 
#
# 1 82.7595 -2.8101 41.0521 0.0000 -2.9108 0.0000
# 2 -2.8101 14.2202 -8.0681 0.0000 1.5262 0.0000
# 3 41.0521 -8.0681 126.8747 0.0000 -6.1540 0.0000
# 4 0.0000 0.0000 0.0000 13.6134 0.0000 -0.4379
# 5 -2.9108 1.5262 -6.1540 0.0000 22.7497 0.0000
# 6 0.0000 0.0000 0.0000 -0.4379 0.0000 10.2662
#
#
#
# Elastic Compliance Matrix: (Units=1/GPa)
#
#
# Indices 1 2 3 4 5 6 
#
# 1 0.014402 0.000162 -0.004621 0.000000 0.000582 0.000000
# 2 0.000162 0.073263 0.004427 0.000000 -0.003697 0.000000
# 3 -0.004621 0.004427 0.009743 0.000000 0.001747 0.000000
# 4 0.000000 0.000000 0.000000 0.073558 0.000000 0.003137
# 5 0.000582 -0.003697 0.001747 0.000000 0.044752 0.000000
# 6 0.000000 0.000000 0.000000 0.003137 0.000000 0.097540
#
#
# Mechanical properties :
#
#
# Convention : Reuss Voigt Hill
#
# Bulk Modulus (GPa) = 10.27294 31.57802 20.92548
# Shear Modulus (GPa) = 14.46045 22.23790 18.34917
#
# Velocity S-wave (km/s) = 2.96866 3.68143 3.34409
# Velocity P-wave (km/s) = 4.24399 6.10867 5.25962
#
# Compressibility (1/GPa) = 0.09734310
#
# Stress axis : x y z
#
# Youngs Moduli (GPa) = 69.43708 13.64942 102.63372
#
# Poissons Ratio (x) = -0.00220 0.47430
# Poissons Ratio (y) = -0.01121 -0.45439
# Poissons Ratio (z) = 0.32089 -0.06043
#
# Static dielectric constant tensor:
#      x y z
#    x 1.546610 0.000000 0.003000 
#    y 0.000000 1.613900 0.000000 
#    z 0.003000 0.000000 1.577790 
# 
# From -- ./inp_files/243025.got.cif
#   From: 2010.05.17/outbox.cif.g08.bks.cpg/sg12_122_cif.got.tgz:243025.got - 2010.06.03 13:09:07.
