data_PCOD9171304
_publ_section_title
;
Structure prediction by ZEFSAII (Michael W. Deem and Ramdas Pophale) SiO2 
 PCOD9171304
Probable space group: C 2/M
;
_chemical_formula_sum "Si O2"
_cell_formula_units_Z 36
_cell_length_a 14.620303
_cell_length_b 10.137289
_cell_length_c 10.941848
_cell_angle_alpha 90.000000
_cell_angle_beta 83.599746
_cell_angle_gamma 90.000000
_cell_volume 1611.586554
_symmetry_space_group_name_H-M "C 2/M"
_symmetry_group_IT_number 12
_symmetry_cell_setting 'monoclinic'
loop_
_space_group_symop_operation_xyz
x,y,z
-x,y,-z
-x,-y,-z
x,-y,z
1/2+x,1/2+y,z
1/2-x,1/2+y,-z
1/2-x,1/2-y,-z
1/2+x,1/2-y,z
loop_
_atom_site_type_symbol
_atom_site_label
_atom_site_fract_x
_atom_site_fract_y
_atom_site_fract_z
Si Si1 0.100872 0.855924 0.917991
Si Si2 0.852537 0.152949 0.831660
Si Si3 0.500000 0.748134 0.500000
Si Si4 0.299560 0.647741 0.580315
Si Si5 0.479763 0.152149 0.240133
O O1 0.093639 0.738680 0.823662
O O2 0.114616 0.000000 0.857297
O O3 0.170487 0.842738 0.021254
O O4 0.000000 0.858506 0.000000
O O5 0.784366 0.168674 0.727742
O O6 0.925382 0.270686 0.802792
O O7 0.888524 0.000000 0.809717
O O8 0.409933 0.663725 0.547042
O O9 0.529265 0.833288 0.613032
O O10 0.270621 0.500000 0.552857
O O11 0.250000 0.750000 0.500000
O O12 0.480123 0.000000 0.203281
#
# Coordination Sequence:
#
# PCOD9171304 Si02
#       5
#     8   8   4   8   8
#     4   8  14  26  44  67  98 136 176 215 261 322
#     4   8  16  31  48  69 102 142 177 212 264 329
#     4  10  22  38  54  76 114 154 182 210 266 336
#     4  10  21  37  59  84 110 143 183 224 268 321
#     4  10  18  27  45  74 104 136 177 226 270 307
#
# _framework density 22.338235000000001
#
# number of rings (size 3 to 8) (size 9 to 14) (size 15 to 20)
#    0.000    2.889    0.000    2.667    0.000   11.111 
#    0.000    0.000    0.000    1.333    0.000    0.000 
#    0.000    0.000    0.000    0.000    0.000    0.000 
#
# Total GULP energy -100313.435219 kJ/mol
# GULP energy per Si atom -5572.968623 kJ/mol
# Density = 2.228739 g / cm^3
# Si number density = 22.338235 Si / 1000 Ang^3
#
#
#
# Elastic Constant Matrix: (Units=GPa)
#
#
# Indices 1 2 3 4 5 6 
#
# 1 68.9995 46.2670 16.6016 0.0000 5.5285 0.0000
# 2 46.2670 225.8368 103.5393 0.0000 32.9159 0.0000
# 3 16.6016 103.5393 152.6957 0.0000 55.0951 0.0000
# 4 0.0000 0.0000 0.0000 18.2274 0.0000 6.6195
# 5 5.5285 32.9159 55.0951 0.0000 23.7673 0.0000
# 6 0.0000 0.0000 0.0000 6.6195 0.0000 13.7782
#
#
#
# Elastic Compliance Matrix: (Units=1/GPa)
#
#
# Indices 1 2 3 4 5 6 
#
# 1 0.016880 -0.003866 0.001657 0.000000 -0.002414 0.000000
# 2 -0.003866 0.007528 -0.007622 0.000000 0.008143 0.000000
# 3 0.001657 -0.007622 0.048093 0.000000 -0.101313 0.000000
# 4 0.000000 0.000000 0.000000 0.066457 0.000000 -0.031928
# 5 -0.002414 0.008143 -0.101313 0.000000 0.266214 0.000000
# 6 0.000000 0.000000 0.000000 -0.031928 0.000000 0.087918
#
#
# Mechanical properties :
#
#
# Convention : Reuss Voigt Hill
#
# Bulk Modulus (GPa) = 18.92568 86.70530 52.81549
# Shear Modulus (GPa) = 9.42749 29.89621 19.66185
#
# Velocity S-wave (km/s) = 2.05657 3.66230 2.97001
# Velocity P-wave (km/s) = 3.75900 7.53540 5.95451
#
# Compressibility (1/GPa) = 0.05283826
#
# Stress axis : x y z
#
# Youngs Moduli (GPa) = 59.24196 132.84296 20.79324
#
# Poissons Ratio (x) = 0.51359 -0.03446
# Poissons Ratio (y) = 0.22904 0.15849
# Poissons Ratio (z) = -0.09817 1.01252
#
# Static dielectric constant tensor:
#      x y z
#    x 1.916970 0.000000 -0.001450 
#    y 0.000000 1.777450 0.000000 
#    z -0.001450 0.000000 1.881590 
# 
# From -- ./inp_files/151299.got.cif
#   From: 2010.05.17/outbox.cif.g08.bks.cpg/sg12_76_cif.got.tgz:151299.got - 2010.06.03 13:09:07.
