data_PCOD9171259
_publ_section_title
;
Structure prediction by ZEFSAII (Michael W. Deem and Ramdas Pophale) SiO2 
 PCOD9171259
Probable space group: C 2/M
;
_chemical_formula_sum "Si O2"
_cell_formula_units_Z 56
_cell_length_a 13.773426
_cell_length_b 7.443410
_cell_length_c 19.857807
_cell_angle_alpha 90.000000
_cell_angle_beta 99.862455
_cell_angle_gamma 90.000000
_cell_volume 2005.761126
_symmetry_space_group_name_H-M "C 2/M"
_symmetry_group_IT_number 12
_symmetry_cell_setting 'monoclinic'
loop_
_space_group_symop_operation_xyz
x,y,z
-x,y,-z
-x,-y,-z
x,-y,z
1/2+x,1/2+y,z
1/2-x,1/2+y,-z
1/2-x,1/2-y,-z
1/2+x,1/2-y,z
loop_
_atom_site_type_symbol
_atom_site_label
_atom_site_fract_x
_atom_site_fract_y
_atom_site_fract_z
Si Si1 0.589013 0.796650 0.834168
Si Si2 0.847966 0.215339 0.731079
Si Si3 0.619940 0.784620 0.698832
Si Si4 0.124705 0.206287 0.408425
Si Si5 0.607045 0.796800 0.981820
Si Si6 0.189992 0.284639 0.130756
Si Si7 0.855694 0.785044 0.444452
O O1 0.563954 0.711317 0.758732
O O2 0.588054 0.706778 0.907518
O O3 0.707669 0.806435 0.839588
O O4 0.548957 0.000000 0.835351
O O5 0.733838 0.283265 0.713996
O O6 0.895939 0.289516 0.667692
O O7 0.880388 0.251722 0.812619
O O8 0.620418 0.000000 0.706738
O O9 0.345549 0.500000 0.724179
O O10 0.587069 0.748246 0.618550
O O11 0.101441 0.282975 0.479452
O O12 0.245684 0.205264 0.424112
O O13 0.090087 0.000000 0.403473
O O14 0.645215 0.000000 0.973704
O O15 0.500000 0.815209 0.000000
O O16 0.665017 0.719121 0.052351
O O17 0.199364 0.500000 0.127090
O O18 0.845717 0.000000 0.449735
#
# Coordination Sequence:
#
# PCOD9171259 Si02
#       7
#     8   8   8   8   8   8   8
#     4   9  17  30  47  63  83 114 145 171 205 253
#     4   8  14  25  38  52  77 111 141 168 201 247
#     4   8  14  23  34  51  75 103 134 164 198 242
#     4   8  14  22  30  44  70 105 138 163 194 239
#     4   9  18  32  48  65  85 110 141 175 210 251
#     4  10  18  27  44  68  88 107 138 179 214 245
#     4   9  14  19  30  48  71 101 135 167 199 234
#
# _framework density 27.919575999999999
#
# number of rings (size 3 to 8) (size 9 to 14) (size 15 to 20)
#    0.000    3.286    0.000    3.000    0.000    5.714 
#    0.000    0.714    0.000    3.857    0.000    0.000 
#    0.000    1.143    0.000   14.286    0.000    9.714 
#
# Total GULP energy -156293.246155 kJ/mol
# GULP energy per Si atom -5581.901648 kJ/mol
# Density = 2.785603 g / cm^3
# Si number density = 27.919576 Si / 1000 Ang^3
#
#
#
# Elastic Constant Matrix: (Units=GPa)
#
#
# Indices 1 2 3 4 5 6 
#
# 1 57.4056 8.9010 50.6527 0.0000 -13.1855 0.0000
# 2 8.9010 122.6118 14.2708 0.0000 -8.6630 0.0000
# 3 50.6527 14.2708 351.1227 0.0000 -33.5338 0.0000
# 4 0.0000 0.0000 0.0000 25.6302 0.0000 -0.9696
# 5 -13.1855 -8.6630 -33.5338 0.0000 72.8813 0.0000
# 6 0.0000 0.0000 0.0000 -0.9696 0.0000 20.7771
#
#
#
# Elastic Compliance Matrix: (Units=1/GPa)
#
#
# Indices 1 2 3 4 5 6 
#
# 1 0.020490 -0.001008 -0.002691 0.000000 0.002349 0.000000
# 2 -0.001008 0.008296 -0.000120 0.000000 0.000748 0.000000
# 3 -0.002691 -0.000120 0.003340 0.000000 0.001036 0.000000
# 4 0.000000 0.000000 0.000000 0.039085 0.000000 0.001824
# 5 0.002349 0.000748 0.001036 0.000000 0.014711 0.000000
# 6 0.000000 0.000000 0.000000 0.001824 0.000000 0.048215
#
#
# Mechanical properties :
#
#
# Convention : Reuss Voigt Hill
#
# Bulk Modulus (GPa) = 40.83711 75.42100 58.12906
# Shear Modulus (GPa) = 33.34707 54.34545 43.84626
#
# Velocity S-wave (km/s) = 3.45975 4.41670 3.96719
# Velocity P-wave (km/s) = 5.53338 7.28574 6.46917
#
# Compressibility (1/GPa) = 0.02448753
#
# Stress axis : x y z
#
# Youngs Moduli (GPa) = 48.80463 120.54167 299.40654
#
# Poissons Ratio (x) = 0.12155 0.80556
# Poissons Ratio (y) = 0.04921 0.03600
# Poissons Ratio (z) = 0.13131 0.01449
#
# Static dielectric constant tensor:
#      x y z
#    x 2.243790 0.000000 0.063690 
#    y 0.000000 2.474550 0.000000 
#    z 0.063690 0.000000 2.428020 
# 
# From -- ./inp_files/313313.got.cif
#   From: 2010.05.17/outbox.cif.g08.bks.cpg/sg12_157_cif.got.tgz:313313.got - 2010.06.03 13:09:07.
