data_PCOD9171392
_publ_section_title
;
Structure prediction by ZEFSAII (Michael W. Deem and Ramdas Pophale) SiO2 
 PCOD9171392
Probable space group: C 2/M
;
_chemical_formula_sum "Si O2"
_cell_formula_units_Z 64
_cell_length_a 28.488272
_cell_length_b 8.895439
_cell_length_c 17.395066
_cell_angle_alpha 90.000000
_cell_angle_beta 102.202494
_cell_angle_gamma 90.000000
_cell_volume 4308.587165
_symmetry_space_group_name_H-M "C 2/M"
_symmetry_group_IT_number 12
_symmetry_cell_setting 'monoclinic'
loop_
_space_group_symop_operation_xyz
x,y,z
-x,y,-z
-x,-y,-z
x,-y,z
1/2+x,1/2+y,z
1/2-x,1/2+y,-z
1/2-x,1/2-y,-z
1/2+x,1/2-y,z
loop_
_atom_site_type_symbol
_atom_site_label
_atom_site_fract_x
_atom_site_fract_y
_atom_site_fract_z
Si Si1 0.204997 0.676475 0.095097
Si Si2 0.129197 0.676076 0.933451
Si Si3 0.803094 0.680549 0.171916
Si Si4 0.697741 0.320058 0.498333
Si Si5 0.829848 0.320420 0.662425
Si Si6 0.719607 0.679777 0.673545
Si Si7 0.554893 0.681040 0.021386
Si Si8 0.127434 0.179886 0.178762
O O1 0.207317 0.500000 0.116691
O O2 0.257609 0.745690 0.113307
O O3 0.173776 0.765288 0.146994
O O4 0.175204 0.689669 0.006204
O O5 0.116473 0.500000 0.925770
O O6 0.148618 0.725609 0.857099
O O7 0.086234 0.762178 0.960318
O O8 0.799318 0.500000 0.166608
O O9 0.799051 0.735723 0.258004
O O10 0.699839 0.500000 0.490767
O O11 0.750000 0.250000 0.500000
O O12 0.665016 0.250145 0.420527
O O13 0.689574 0.286595 0.585526
O O14 0.832452 0.500000 0.659149
O O15 0.775643 0.282331 0.674441
O O16 0.867379 0.255512 0.736593
O O17 0.718074 0.500000 0.686220
O O18 0.555063 0.500000 0.019935
O O19 0.582603 0.726514 0.109393
O O20 0.500000 0.733873 0.000000
O O21 0.127655 0.000000 0.186160
#
# Coordination Sequence:
#
# PCOD9171392 Si02
#       8
#     8   8   8   8   8   8   8   8
#     4  10  18  29  42  57  85 117 148 184 218 253
#     4   9  20  33  44  63  86 113 148 183 219 261
#     4  11  20  28  41  61  87 117 152 185 213 254
#     4   9  17  28  41  57  81 114 153 188 220 257
#     4  10  18  28  42  61  87 115 149 187 219 258
#     4   9  18  29  40  57  84 119 152 183 218 253
#     4   9  19  35  52  69  88 111 143 184 228 271
#     4  10  18  28  45  66  87 114 147 182 222 264
#
# _framework density 14.854056999999999
#
# number of rings (size 3 to 8) (size 9 to 14) (size 15 to 20)
#    0.000    2.375    1.250    3.000    0.000    4.750 
#    0.000    0.000    0.000    0.000    0.000    0.000 
#    0.000    1.000    0.000   11.250    0.000    5.625 
#
# Total GULP energy -178298.618791 kJ/mol
# GULP energy per Si atom -5571.831837 kJ/mol
# Density = 1.482025 g / cm^3
# Si number density = 14.854057 Si / 1000 Ang^3
#
#
#
# Elastic Constant Matrix: (Units=GPa)
#
#
# Indices 1 2 3 4 5 6 
#
# 1 73.7051 25.6078 45.2128 0.0000 1.7544 0.0000
# 2 25.6078 41.8729 35.2264 0.0000 -1.0765 0.0000
# 3 45.2128 35.2264 80.7626 0.0000 -2.9966 0.0000
# 4 0.0000 0.0000 0.0000 25.2829 0.0000 -1.4595
# 5 1.7544 -1.0765 -2.9966 0.0000 12.1694 0.0000
# 6 0.0000 0.0000 0.0000 -1.4595 0.0000 14.2812
#
#
#
# Elastic Compliance Matrix: (Units=1/GPa)
#
#
# Indices 1 2 3 4 5 6 
#
# 1 0.021674 -0.004761 -0.010283 0.000000 -0.006078 0.000000
# 2 -0.004761 0.038776 -0.014225 0.000000 0.000614 0.000000
# 3 -0.010283 -0.014225 0.024576 0.000000 0.006276 0.000000
# 4 0.000000 0.000000 0.000000 0.039787 0.000000 0.004066
# 5 -0.006078 0.000614 0.006276 0.000000 0.084649 0.000000
# 6 0.000000 0.000000 0.000000 0.004066 0.000000 0.070437
#
#
# Mechanical properties :
#
#
# Convention : Reuss Voigt Hill
#
# Bulk Modulus (GPa) = 37.75144 45.38163 41.56653
# Shear Modulus (GPa) = 14.39818 16.36629 15.38223
#
# Velocity S-wave (km/s) = 3.11675 3.32295 3.22150
# Velocity P-wave (km/s) = 6.19857 6.73355 6.47159
#
# Compressibility (1/GPa) = 0.02648906
#
# Stress axis : x y z
#
# Youngs Moduli (GPa) = 46.13840 25.78899 40.69038
#
# Poissons Ratio (x) = 0.12278 0.41840
# Poissons Ratio (y) = 0.21965 0.57883
# Poissons Ratio (z) = 0.47442 0.36685
#
# Static dielectric constant tensor:
#      x y z
#    x 1.461730 0.000000 0.005470 
#    y 0.000000 1.493680 0.000000 
#    z 0.005470 0.000000 1.541020 
# 
# From -- ./inp_files/287733.got.cif
#   From: 2010.05.17/outbox.cif.g08.bks.cpg/sg12_144_cif.got.tgz:287733.got - 2010.06.03 13:09:07.
