data_PCOD9171642
_publ_section_title
;
Structure prediction by ZEFSAII (Michael W. Deem and Ramdas Pophale) SiO2 
 PCOD9171642
Probable space group: C 2/M
;
_chemical_formula_sum "Si O2"
_cell_formula_units_Z 40
_cell_length_a 8.550424
_cell_length_b 22.697958
_cell_length_c 8.872416
_cell_angle_alpha 90.000000
_cell_angle_beta 110.811488
_cell_angle_gamma 90.000000
_cell_volume 1609.584867
_symmetry_space_group_name_H-M "C 2/M"
_symmetry_group_IT_number 12
_symmetry_cell_setting 'monoclinic'
loop_
_space_group_symop_operation_xyz
x,y,z
-x,y,-z
-x,-y,-z
x,-y,z
1/2+x,1/2+y,z
1/2-x,1/2+y,-z
1/2-x,1/2-y,-z
1/2+x,1/2-y,z
loop_
_atom_site_type_symbol
_atom_site_label
_atom_site_fract_x
_atom_site_fract_y
_atom_site_fract_z
Si Si1 0.727380 0.618542 0.189326
Si Si2 0.899798 0.929538 0.177043
Si Si3 0.937757 0.430098 0.805760
Si Si4 0.747141 0.756450 0.176528
Si Si5 0.424080 0.775502 0.617845
O O1 0.594711 0.588023 0.256358
O O2 0.715280 0.688205 0.207459
O O3 0.921250 0.598782 0.252256
O O4 0.663343 0.602056 0.998251
O O5 0.761207 0.915358 0.257279
O O6 0.890439 0.000000 0.148912
O O7 0.948634 0.500000 0.780409
O O8 0.000000 0.420831 0.000000
O O9 0.616295 0.795956 0.224549
O O10 0.931092 0.772037 0.298229
O O11 0.750000 0.750000 0.000000
O O12 0.500000 0.809311 0.500000
O O13 0.250000 0.750000 0.500000
#
# Coordination Sequence:
#
# PCOD9171642 Si02
#       5
#     8   8   8   8   8
#     4  10  18  28  45  76 114 148 184 237 302 356
#     4   9  17  28  46  71 116 163 186 217 305 387
#     4   8  14  26  42  63 101 152 186 215 277 364
#     4  11  23  35  58  90 118 149 198 261 311 341
#     4   9  21  43  59  72 109 168 203 238 297 376
#
# _framework density 24.851126000000001
#
# number of rings (size 3 to 8) (size 9 to 14) (size 15 to 20)
#    0.000    2.600    0.000    4.200    5.600    4.800 
#    3.600    0.000    0.000    0.000    0.000    0.000 
#    0.000   72.000    0.000    0.000    0.000    0.400 
#
# Total GULP energy -111384.508147 kJ/mol
# GULP energy per Si atom -5569.225407 kJ/mol
# Density = 2.479456 g / cm^3
# Si number density = 24.851126 Si / 1000 Ang^3
#
#
#
# Elastic Constant Matrix: (Units=GPa)
#
#
# Indices 1 2 3 4 5 6 
#
# 1 267.9028 62.2267 46.0607 0.0000 -36.8572 0.0000
# 2 62.2267 102.3902 11.2149 0.0000 -15.1670 0.0000
# 3 46.0607 11.2149 96.7824 0.0000 -24.2198 0.0000
# 4 0.0000 0.0000 0.0000 12.5044 0.0000 3.3923
# 5 -36.8572 -15.1670 -24.2198 0.0000 40.9676 0.0000
# 6 0.0000 0.0000 0.0000 3.3923 0.0000 26.4387
#
#
#
# Elastic Compliance Matrix: (Units=1/GPa)
#
#
# Indices 1 2 3 4 5 6 
#
# 1 0.004905 -0.002431 -0.001378 0.000000 0.002699 0.000000
# 2 -0.002431 0.011544 0.000401 0.000000 0.002324 0.000000
# 3 -0.001378 0.000401 0.012521 0.000000 0.006311 0.000000
# 4 0.000000 0.000000 0.000000 0.082856 0.000000 -0.010631
# 5 0.002699 0.002324 0.006311 0.000000 0.031429 0.000000
# 6 0.000000 0.000000 0.000000 -0.010631 0.000000 0.039187
#
#
# Mechanical properties :
#
#
# Convention : Reuss Voigt Hill
#
# Bulk Modulus (GPa) = 45.13513 78.45334 61.79424
# Shear Modulus (GPa) = 25.42673 39.15367 32.29020
#
# Velocity S-wave (km/s) = 3.20216 3.97360 3.60855
# Velocity P-wave (km/s) = 5.64565 7.25882 6.50246
#
# Compressibility (1/GPa) = 0.02215569
#
# Stress axis : x y z
#
# Youngs Moduli (GPa) = 203.85677 86.62460 79.86559
#
# Poissons Ratio (x) = 0.21054 0.11002
# Poissons Ratio (y) = 0.49548 -0.03200
# Poissons Ratio (z) = 0.28081 -0.03470
#
# Static dielectric constant tensor:
#      x y z
#    x 2.166110 0.000000 -0.043070 
#    y 0.000000 2.199750 0.000000 
#    z -0.043070 0.000000 2.057440 
# 
# From -- ./inp_files/39441.got.cif
#   From: 2010.05.17/outbox.cif.g08.bks.cpg/sg12_20_cif.got.tgz:39441.got - 2010.06.03 13:09:07.
