data_PCOD9171544
_publ_section_title
;
Structure prediction by ZEFSAII (Michael W. Deem and Ramdas Pophale) SiO2 
 PCOD9171544
Probable space group: C 2/M
;
_chemical_formula_sum "Si O2"
_cell_formula_units_Z 64
_cell_length_a 22.867465
_cell_length_b 21.294367
_cell_length_c 8.781682
_cell_angle_alpha 90.000000
_cell_angle_beta 68.846242
_cell_angle_gamma 90.000000
_cell_volume 3988.072329
_symmetry_space_group_name_H-M "C 2/M"
_symmetry_group_IT_number 12
_symmetry_cell_setting 'monoclinic'
loop_
_space_group_symop_operation_xyz
x,y,z
-x,y,-z
-x,-y,-z
x,-y,z
1/2+x,1/2+y,z
1/2-x,1/2+y,-z
1/2-x,1/2-y,-z
1/2+x,1/2-y,z
loop_
_atom_site_type_symbol
_atom_site_label
_atom_site_fract_x
_atom_site_fract_y
_atom_site_fract_z
Si Si1 0.656242 0.677867 0.430445
Si Si2 0.874096 0.833389 0.210169
Si Si3 0.281985 0.572577 0.815260
Si Si4 0.744455 0.776784 0.248005
Si Si5 0.401952 0.427301 0.926265
Si Si6 0.455164 0.681423 0.686027
Si Si7 0.557051 0.777268 0.042213
Si Si8 0.815175 0.668376 0.985223
O O1 0.615958 0.665833 0.618954
O O2 0.694055 0.615555 0.346937
O O3 0.701754 0.737687 0.404852
O O4 0.613262 0.692458 0.324417
O O5 0.799909 0.819715 0.259445
O O6 0.892753 0.895184 0.099003
O O7 0.910674 0.776292 0.094437
O O8 0.275023 0.500000 0.781041
O O9 0.335899 0.576833 0.895583
O O10 0.218544 0.604101 0.936264
O O11 0.700982 0.816012 0.174064
O O12 0.779053 0.722649 0.115749
O O13 0.420395 0.500000 0.916091
O O14 0.449532 0.382846 0.787589
O O15 0.500000 0.676781 0.500000
O O16 0.467936 0.738497 0.788408
O O17 0.612050 0.823808 0.042938
O O18 0.500000 0.805498 0.000000
#
# Coordination Sequence:
#
# PCOD9171544 Si02
#       8
#     8   8   8   8   8   8   8   8
#     4  10  18  28  44  69  96 121 149 188 233 274
#     4  10  18  28  46  68  95 123 150 188 232 275
#     4   9  17  30  48  68  91 123 157 186 225 272
#     4   9  15  27  45  70  93 118 146 182 241 282
#     4   9  18  31  46  64  89 124 163 193 221 265
#     4  10  19  31  46  63  90 122 155 195 230 269
#     4  10  19  31  47  68  92 121 153 188 233 281
#     4   9  15  28  49  67  93 119 148 191 228 276
#
# _framework density 16.047853
#
# number of rings (size 3 to 8) (size 9 to 14) (size 15 to 20)
#    0.000    2.500    2.500    1.125    0.000    0.750 
#    0.000    0.000    0.000   13.125    0.000    0.000 
#    0.000    0.500    0.000    0.125    0.000    0.000 
#
# Total GULP energy -178300.372948 kJ/mol
# GULP energy per Si atom -5571.886655 kJ/mol
# Density = 1.601133 g / cm^3
# Si number density = 16.047853 Si / 1000 Ang^3
#
#
#
# Elastic Constant Matrix: (Units=GPa)
#
#
# Indices 1 2 3 4 5 6 
#
# 1 59.0685 2.0117 0.0617 0.0000 -1.7631 0.0000
# 2 2.0117 37.4859 15.6497 0.0000 -6.6235 0.0000
# 3 0.0617 15.6497 83.8885 0.0000 2.6623 0.0000
# 4 0.0000 0.0000 0.0000 10.2191 0.0000 1.4557
# 5 -1.7631 -6.6235 2.6623 0.0000 22.5150 0.0000
# 6 0.0000 0.0000 0.0000 1.4557 0.0000 13.1781
#
#
#
# Elastic Compliance Matrix: (Units=1/GPa)
#
#
# Indices 1 2 3 4 5 6 
#
# 1 0.016988 -0.000757 0.000094 0.000000 0.001096 0.000000
# 2 -0.000757 0.030988 -0.006091 0.000000 0.009777 0.000000
# 3 0.000094 -0.006091 0.013163 0.000000 -0.003341 0.000000
# 4 0.000000 0.000000 0.000000 0.099421 0.000000 -0.010983
# 5 0.001096 0.009777 -0.003341 0.000000 0.047772 0.000000
# 6 0.000000 0.000000 0.000000 -0.010983 0.000000 0.077097
#
#
# Mechanical properties :
#
#
# Convention : Reuss Voigt Hill
#
# Bulk Modulus (GPa) = 20.99489 23.98770 22.49130
# Shear Modulus (GPa) = 15.88251 20.03042 17.95647
#
# Velocity S-wave (km/s) = 3.14936 3.53678 3.34867
# Velocity P-wave (km/s) = 5.13183 5.62658 5.38489
#
# Compressibility (1/GPa) = 0.04763064
#
# Stress axis : x y z
#
# Youngs Moduli (GPa) = 58.86538 32.27105 75.97191
#
# Poissons Ratio (x) = 0.02443 -0.00714
# Poissons Ratio (y) = 0.04457 0.46271
# Poissons Ratio (z) = -0.00553 0.19655
#
# Static dielectric constant tensor:
#      x y z
#    x 1.586090 0.000000 -0.001140 
#    y 0.000000 1.504130 0.000000 
#    z -0.001140 0.000000 1.541710 
# 
# From -- ./inp_files/90390.got.cif
#   From: 2010.05.17/outbox.cif.g08.bks.cpg/sg12_46_cif.got.tgz:90390.got - 2010.06.03 13:09:07.
