data_PCOD9171555
_publ_section_title
;
Structure prediction by ZEFSAII (Michael W. Deem and Ramdas Pophale) SiO2 
 PCOD9171555
Probable space group: C 2/M
;
_chemical_formula_sum "Si O2"
_cell_formula_units_Z 40
_cell_length_a 17.738126
_cell_length_b 22.281602
_cell_length_c 6.758775
_cell_angle_alpha 90.000000
_cell_angle_beta 73.787781
_cell_angle_gamma 90.000000
_cell_volume 2565.070413
_symmetry_space_group_name_H-M "C 2/M"
_symmetry_group_IT_number 12
_symmetry_cell_setting 'monoclinic'
loop_
_space_group_symop_operation_xyz
x,y,z
-x,y,-z
-x,-y,-z
x,-y,z
1/2+x,1/2+y,z
1/2-x,1/2+y,-z
1/2-x,1/2-y,-z
1/2+x,1/2-y,z
loop_
_atom_site_type_symbol
_atom_site_label
_atom_site_fract_x
_atom_site_fract_y
_atom_site_fract_z
Si Si1 0.134770 0.788324 0.679641
Si Si2 0.500000 0.111956 0.000000
Si Si3 0.303651 0.823969 0.625141
Si Si4 0.419980 0.931722 0.438851
Si Si5 0.101423 0.282446 0.102892
Si Si6 0.000000 0.212436 0.500000
O O1 0.211371 0.829217 0.651639
O O2 0.163279 0.728356 0.542702
O O3 0.066765 0.817146 0.591560
O O4 0.108900 0.762618 0.912465
O O5 0.448367 0.074967 0.192132
O O6 0.559849 0.156839 0.064691
O O7 0.354433 0.883106 0.543484
O O8 0.319989 0.800594 0.836368
O O9 0.500000 0.919010 0.500000
O O10 0.395237 0.000000 0.498931
O O11 0.046037 0.252775 0.308047
#
# Coordination Sequence:
#
# PCOD9171555 Si02
#       6
#     8   4   8   8   8   4
#     4  10  19  30  48  70  98 127 157 197 248 285
#     4  12  17  30  50  66  94 132 163 196 226 276
#     4  10  20  32  46  70  94 127 167 201 235 284
#     4  11  22  34  48  67  95 133 169 197 229 275
#     4  11  17  29  48  68  98 130 156 194 239 282
#     4  10  18  28  44  72  98 124 152 186 240 302
#
# _framework density 15.594112000000001
#
# number of rings (size 3 to 8) (size 9 to 14) (size 15 to 20)
#    0.000    1.400    6.000    2.100    1.400    0.000 
#    0.000    0.000    0.000    0.000    0.000    0.700 
#    0.000    3.200    0.000    0.200    0.000    0.000 
#
# Total GULP energy -111411.243536 kJ/mol
# GULP energy per Si atom -5570.562177 kJ/mol
# Density = 1.555862 g / cm^3
# Si number density = 15.594112 Si / 1000 Ang^3
#
#
#
# Elastic Constant Matrix: (Units=GPa)
#
#
# Indices 1 2 3 4 5 6 
#
# 1 127.2385 37.1134 33.4983 0.0000 20.5164 0.0000
# 2 37.1134 59.3976 14.5702 0.0000 -1.4890 0.0000
# 3 33.4983 14.5702 88.2104 0.0000 12.6337 0.0000
# 4 0.0000 0.0000 0.0000 7.0311 0.0000 -3.1765
# 5 20.5164 -1.4890 12.6337 0.0000 21.6537 0.0000
# 6 0.0000 0.0000 0.0000 -3.1765 0.0000 20.4649
#
#
#
# Elastic Compliance Matrix: (Units=1/GPa)
#
#
# Indices 1 2 3 4 5 6 
#
# 1 0.012338 -0.007535 -0.001847 0.000000 -0.011131 0.000000
# 2 -0.007535 0.022349 -0.002262 0.000000 0.009996 0.000000
# 3 -0.001847 -0.002262 0.013294 0.000000 -0.006162 0.000000
# 4 0.000000 0.000000 0.000000 0.152950 0.000000 0.023741
# 5 -0.011131 0.009996 -0.006162 0.000000 0.061010 0.000000
# 6 0.000000 0.000000 0.000000 0.023741 0.000000 0.052549
#
#
# Mechanical properties :
#
#
# Convention : Reuss Voigt Hill
#
# Bulk Modulus (GPa) = 40.49525 49.46782 44.98153
# Shear Modulus (GPa) = 14.45046 22.47425 18.46235
#
# Velocity S-wave (km/s) = 3.04741 3.80043 3.44456
# Velocity P-wave (km/s) = 6.19734 7.14484 6.68789
#
# Compressibility (1/GPa) = 0.02469426
#
# Stress axis : x y z
#
# Youngs Moduli (GPa) = 81.04962 44.74404 75.22238
#
# Poissons Ratio (x) = 0.33716 0.13891
# Poissons Ratio (y) = 0.61073 0.17013
# Poissons Ratio (z) = 0.14967 0.10120
#
# Static dielectric constant tensor:
#      x y z
#    x 1.579810 0.000000 0.038810 
#    y 0.000000 1.478630 0.000000 
#    z 0.038810 0.000000 1.564320 
# 
# From -- ./inp_files/15805.got.cif
#   From: 2010.05.17/outbox.cif.g08.bks.cpg/sg12_8_cif.got.tgz:15805.got - 2010.06.03 13:09:07.
