data_PCOD9171030
_publ_section_title
;
Structure prediction by ZEFSAII (Michael W. Deem and Ramdas Pophale) SiO2 
 PCOD9171030
Probable space group: C 2/M
;
_chemical_formula_sum "Si O2"
_cell_formula_units_Z 56
_cell_length_a 17.890894
_cell_length_b 13.833833
_cell_length_c 13.232548
_cell_angle_alpha 90.000000
_cell_angle_beta 71.865124
_cell_angle_gamma 90.000000
_cell_volume 3112.367450
_symmetry_space_group_name_H-M "C 2/M"
_symmetry_group_IT_number 12
_symmetry_cell_setting 'monoclinic'
loop_
_space_group_symop_operation_xyz
x,y,z
-x,y,-z
-x,-y,-z
x,-y,z
1/2+x,1/2+y,z
1/2-x,1/2+y,-z
1/2-x,1/2-y,-z
1/2+x,1/2-y,z
loop_
_atom_site_type_symbol
_atom_site_label
_atom_site_fract_x
_atom_site_fract_y
_atom_site_fract_z
Si Si1 0.593605 0.611978 0.487268
Si Si2 0.209532 0.117803 0.024044
Si Si3 0.082634 0.116736 0.912259
Si Si4 0.935767 0.205511 0.297625
Si Si5 0.117488 0.382874 0.009471
Si Si6 0.952333 0.615075 0.176440
Si Si7 0.392178 0.616881 0.738881
O O1 0.500000 0.617178 0.500000
O O2 0.611343 0.500000 0.501471
O O3 0.607362 0.672372 0.582402
O O4 0.633893 0.640651 0.364592
O O5 0.152760 0.147857 0.956938
O O6 0.299316 0.152294 0.984175
O O7 0.211535 0.000000 0.018508
O O8 0.169648 0.140635 0.148230
O O9 0.090977 0.156455 0.795912
O O10 0.081508 0.000000 0.907413
O O11 0.000000 0.145830 0.000000
O O12 0.930571 0.319457 0.279990
O O13 0.025875 0.169605 0.272631
O O14 0.118582 0.500000 0.012185
O O15 0.040917 0.355872 0.105877
O O16 0.100835 0.360396 0.899093
O O17 0.948954 0.500000 0.194242
O O18 0.406507 0.500000 0.735349
#
# Coordination Sequence:
#
# PCOD9171030 Si02
#       7
#     8   8   8   8   8   8   8
#     4   8  15  27  45  69  96 125 156 183 215 273
#     4   9  16  27  46  71  99 129 151 179 228 286
#     4  10  18  26  40  69 108 131 142 169 223 295
#     4  11  18  27  46  66  95 130 156 185 229 280
#     4   8  16  32  48  63  88 123 165 200 233 271
#     4   9  19  33  48  63  84 119 165 216 242 258
#     4   9  16  28  47  73 100 124 151 182 219 279
#
# _framework density 17.992733000000001
#
# number of rings (size 3 to 8) (size 9 to 14) (size 15 to 20)
#    0.000    2.857    1.429    3.000    2.000    0.000 
#    0.000    2.857    0.000    4.714    0.000    2.000 
#    0.000   13.714    0.000    0.000    0.000   12.571 
#
# Total GULP energy -156162.537336 kJ/mol
# GULP energy per Si atom -5577.233476 kJ/mol
# Density = 1.795178 g / cm^3
# Si number density = 17.992733 Si / 1000 Ang^3
#
#
#
# Elastic Constant Matrix: (Units=GPa)
#
#
# Indices 1 2 3 4 5 6 
#
# 1 96.9364 21.4619 40.4848 0.0000 16.7584 0.0000
# 2 21.4619 75.3305 47.9534 0.0000 15.8753 0.0000
# 3 40.4848 47.9534 125.1668 0.0000 37.2364 0.0000
# 4 0.0000 0.0000 0.0000 21.5855 0.0000 6.9913
# 5 16.7584 15.8753 37.2364 0.0000 15.0991 0.0000
# 6 0.0000 0.0000 0.0000 6.9913 0.0000 12.8427
#
#
#
# Elastic Compliance Matrix: (Units=1/GPa)
#
#
# Indices 1 2 3 4 5 6 
#
# 1 0.012817 -0.000925 0.000569 0.000000 -0.014655 0.000000
# 2 -0.000925 0.017824 -0.004730 0.000000 -0.006049 0.000000
# 3 0.000569 -0.004730 0.031260 0.000000 -0.072750 0.000000
# 4 0.000000 0.000000 0.000000 0.056244 0.000000 -0.030619
# 5 -0.014655 -0.006049 -0.072750 0.000000 0.268265 0.000000
# 6 0.000000 0.000000 0.000000 -0.030619 0.000000 0.094534
#
#
# Mechanical properties :
#
#
# Convention : Reuss Voigt Hill
#
# Bulk Modulus (GPa) = 19.33179 57.47045 38.40112
# Shear Modulus (GPa) = 9.83555 22.40768 16.12162
#
# Velocity S-wave (km/s) = 2.34057 3.53281 2.99659
# Velocity P-wave (km/s) = 4.25111 6.97505 5.77595
#
# Compressibility (1/GPa) = 0.05172827
#
# Stress axis : x y z
#
# Youngs Moduli (GPa) = 78.02153 56.10371 31.98965
#
# Poissons Ratio (x) = 0.05190 -0.01819
# Poissons Ratio (y) = 0.07218 0.15131
# Poissons Ratio (z) = -0.04437 0.26537
#
# Static dielectric constant tensor:
#      x y z
#    x 1.617120 0.000000 -0.002860 
#    y 0.000000 1.666990 0.000000 
#    z -0.002860 0.000000 1.609790 
# 
# From -- ./inp_files/155978.got.cif
#   From: 2010.05.17/outbox.cif.g08.bks.cpg/sg12_78_cif.got.tgz:155978.got - 2010.06.03 13:09:07.
