data_PCOD9171777
_publ_section_title
;
Structure prediction by ZEFSAII (Michael W. Deem and Ramdas Pophale) SiO2 
 PCOD9171777
Probable space group: C 2/M
;
_chemical_formula_sum "Si O2"
_cell_formula_units_Z 56
_cell_length_a 20.169924
_cell_length_b 8.730620
_cell_length_c 18.104338
_cell_angle_alpha 90.000000
_cell_angle_beta 112.660179
_cell_angle_gamma 90.000000
_cell_volume 2941.998462
_symmetry_space_group_name_H-M "C 2/M"
_symmetry_group_IT_number 12
_symmetry_cell_setting 'monoclinic'
loop_
_space_group_symop_operation_xyz
x,y,z
-x,y,-z
-x,-y,-z
x,-y,z
1/2+x,1/2+y,z
1/2-x,1/2+y,-z
1/2-x,1/2-y,-z
1/2+x,1/2-y,z
loop_
_atom_site_type_symbol
_atom_site_label
_atom_site_fract_x
_atom_site_fract_y
_atom_site_fract_z
Si Si1 0.405504 0.317324 0.099500
Si Si2 0.676212 0.315027 0.076995
Si Si3 0.807464 0.315922 0.359701
Si Si4 0.831529 0.684492 0.203950
Si Si5 0.669865 0.682849 0.479708
Si Si6 0.941701 0.681494 0.863064
Si Si7 0.350724 0.818037 0.678293
O O1 0.406196 0.500000 0.103620
O O2 0.389922 0.249509 0.173137
O O3 0.480864 0.258590 0.100411
O O4 0.343438 0.268859 0.014928
O O5 0.674843 0.500000 0.080181
O O6 0.753559 0.263628 0.139891
O O7 0.614137 0.250711 0.102889
O O8 0.806993 0.500000 0.365829
O O9 0.837411 0.271413 0.292305
O O10 0.849053 0.244545 0.447308
O O11 0.724956 0.257444 0.329566
O O12 0.833495 0.500000 0.201712
O O13 0.671777 0.500000 0.479711
O O14 0.750000 0.750000 0.500000
O O15 0.627153 0.746462 0.390864
O O16 0.948324 0.500000 0.877968
O O17 0.907978 0.707130 0.767309
O O18 0.339141 0.000000 0.664375
#
# Coordination Sequence:
#
# PCOD9171777 Si02
#       7
#     8   8   8   8   8   8   8
#     4  11  24  38  56  80 111 148 185 228 276 329
#     4  10  21  39  59  82 109 142 185 231 278 326
#     4  10  18  31  53  79 108 143 177 220 271 320
#     4  10  21  37  58  81 111 146 183 227 274 326
#     4  10  18  28  47  76 110 142 173 219 268 318
#     4  11  23  37  57  82 111 146 185 230 275 325
#     4  10  19  32  51  78 108 140 180 224 268 320
#
# _framework density 19.034679000000001
#
# number of rings (size 3 to 8) (size 9 to 14) (size 15 to 20)
#    0.000    1.714    1.429    5.571    0.000    6.286 
#    0.000    0.000    0.000    0.857    0.000    6.000 
#    0.000    0.000    0.000    0.000    0.000    0.000 
#
# Total GULP energy -156372.672399 kJ/mol
# GULP energy per Si atom -5584.738300 kJ/mol
# Density = 1.899136 g / cm^3
# Si number density = 19.034679 Si / 1000 Ang^3
#
#
#
# Elastic Constant Matrix: (Units=GPa)
#
#
# Indices 1 2 3 4 5 6 
#
# 1 39.5252 -4.3275 -5.6911 0.0000 -11.6052 0.0000
# 2 -4.3275 48.8874 28.9313 0.0000 -6.9311 0.0000
# 3 -5.6911 28.9313 80.8519 0.0000 -22.8575 0.0000
# 4 0.0000 0.0000 0.0000 29.2227 0.0000 -5.8159
# 5 -11.6052 -6.9311 -22.8575 0.0000 18.9104 0.0000
# 6 0.0000 0.0000 0.0000 -5.8159 0.0000 26.3474
#
#
#
# Elastic Compliance Matrix: (Units=1/GPa)
#
#
# Indices 1 2 3 4 5 6 
#
# 1 0.039883 0.001003 0.014389 0.000000 0.042236 0.000000
# 2 0.001003 0.026060 -0.009692 0.000000 -0.001548 0.000000
# 3 0.014389 -0.009692 0.027862 0.000000 0.038956 0.000000
# 4 0.000000 0.000000 0.000000 0.035792 0.000000 0.007901
# 5 0.042236 -0.001548 0.038956 0.000000 0.125321 0.000000
# 6 0.000000 0.000000 0.000000 0.007901 0.000000 0.039698
#
#
# Mechanical properties :
#
#
# Convention : Reuss Voigt Hill
#
# Bulk Modulus (GPa) = 9.50517 23.00997 16.25757
# Shear Modulus (GPa) = 15.70914 24.91956 20.31435
#
# Velocity S-wave (km/s) = 2.87590 3.62217 3.27039
# Velocity P-wave (km/s) = 4.00402 5.44134 4.77705
#
# Compressibility (1/GPa) = 0.10520588
#
# Stress axis : x y z
#
# Youngs Moduli (GPa) = 25.07324 38.37258 35.89064
#
# Poissons Ratio (x) = -0.03850 -0.51642
# Poissons Ratio (y) = -0.02516 0.34786
# Poissons Ratio (z) = -0.36077 0.37191
#
# Static dielectric constant tensor:
#      x y z
#    x 1.623620 0.000000 -0.005010 
#    y 0.000000 1.642680 0.000000 
#    z -0.005010 0.000000 1.709970 
# 
# From -- ./inp_files/275490.got.cif
#   From: 2010.05.17/outbox.cif.g08.bks.cpg/sg12_138_cif.got.tgz:275490.got - 2010.06.03 13:09:07.
