data_PCOD9171507
_publ_section_title
;
Structure prediction by ZEFSAII (Michael W. Deem and Ramdas Pophale) SiO2 
 PCOD9171507
Probable space group: C 2/M
;
_chemical_formula_sum "Si O2"
_cell_formula_units_Z 64
_cell_length_a 30.644514
_cell_length_b 8.686120
_cell_length_c 14.487672
_cell_angle_alpha 90.000000
_cell_angle_beta 89.809236
_cell_angle_gamma 90.000000
_cell_volume 3856.335061
_symmetry_space_group_name_H-M "C 2/M"
_symmetry_group_IT_number 12
_symmetry_cell_setting 'monoclinic'
loop_
_space_group_symop_operation_xyz
x,y,z
-x,y,-z
-x,-y,-z
x,-y,z
1/2+x,1/2+y,z
1/2-x,1/2+y,-z
1/2-x,1/2-y,-z
1/2+x,1/2-y,z
loop_
_atom_site_type_symbol
_atom_site_label
_atom_site_fract_x
_atom_site_fract_y
_atom_site_fract_z
Si Si1 0.700446 0.315064 0.507252
Si Si2 0.450059 0.815702 0.986676
Si Si3 0.623321 0.686333 0.881899
Si Si4 0.759982 0.185537 0.804919
Si Si5 0.606938 0.676716 0.171025
Si Si6 0.825582 0.814915 0.287389
Si Si7 0.163158 0.683238 0.323089
Si Si8 0.310215 0.676727 0.970870
O O1 0.703338 0.500000 0.501618
O O2 0.750000 0.250000 0.500000
O O3 0.678812 0.271848 0.605594
O O4 0.671146 0.252752 0.423886
O O5 0.429999 0.755941 0.890444
O O6 0.448147 0.000000 0.987219
O O7 0.500000 0.766179 0.000000
O O8 0.419143 0.753258 0.068769
O O9 0.622078 0.500000 0.892915
O O10 0.631930 0.722210 0.774606
O O11 0.665544 0.745431 0.940574
O O12 0.714292 0.236552 0.765187
O O13 0.795559 0.257607 0.736309
O O14 0.771048 0.243086 0.908830
O O15 0.764160 0.000000 0.804739
O O16 0.595613 0.500000 0.189655
O O17 0.621483 0.758949 0.265086
O O18 0.649774 0.675583 0.104087
O O19 0.819990 0.000000 0.282503
O O20 0.163412 0.500000 0.327409
O O21 0.298850 0.500000 0.993781
#
# Coordination Sequence:
#
# PCOD9171507 Si02
#       8
#     8   8   8   8   8   8   8   8
#     4  11  21  33  48  68  95 132 179 224 263 299
#     4  10  20  34  54  82 111 134 159 195 240 296
#     4   9  18  34  51  68  96 132 168 205 247 298
#     4  10  18  28  44  65  91 128 171 209 248 297
#     4   9  17  31  51  75 101 130 165 203 246 298
#     4  10  21  33  46  66  94 129 172 219 258 293
#     4  11  20  31  48  70  98 131 170 217 262 299
#     4   7  13  26  43  63  88 120 158 197 235 280
#
# _framework density 16.596067999999999
#
# number of rings (size 3 to 8) (size 9 to 14) (size 15 to 20)
#    0.000    2.375    1.250    4.125    0.000    2.500 
#    0.000    0.625    0.000    0.000    0.000    0.875 
#    0.000    7.000    0.000    0.000    0.000    0.000 
#
# Total GULP energy -178344.591623 kJ/mol
# GULP energy per Si atom -5573.268488 kJ/mol
# Density = 1.655829 g / cm^3
# Si number density = 16.596068 Si / 1000 Ang^3
#
#
#
# Elastic Constant Matrix: (Units=GPa)
#
#
# Indices 1 2 3 4 5 6 
#
# 1 83.5017 33.3106 64.2525 0.0000 10.8694 0.0000
# 2 33.3106 29.6653 50.8625 0.0000 1.5818 0.0000
# 3 64.2525 50.8625 157.8207 0.0000 4.2372 0.0000
# 4 0.0000 0.0000 0.0000 19.1478 0.0000 6.4743
# 5 10.8694 1.5818 4.2372 0.0000 17.6684 0.0000
# 6 0.0000 0.0000 0.0000 6.4743 0.0000 19.6109
#
#
#
# Elastic Compliance Matrix: (Units=1/GPa)
#
#
# Indices 1 2 3 4 5 6 
#
# 1 0.024496 -0.023056 -0.002207 0.000000 -0.012476 0.000000
# 2 -0.023056 0.097056 -0.022183 0.000000 0.010815 0.000000
# 3 -0.002207 -0.022183 0.014387 0.000000 -0.000106 0.000000
# 4 0.000000 0.000000 0.000000 0.058788 0.000000 -0.019408
# 5 -0.012476 0.010815 -0.000106 0.000000 0.063331 0.000000
# 6 0.000000 0.000000 0.000000 -0.019408 0.000000 0.057399
#
#
# Mechanical properties :
#
#
# Convention : Reuss Voigt Hill
#
# Bulk Modulus (GPa) = 24.36307 63.09321 43.72814
# Shear Modulus (GPa) = 11.79161 19.45622 15.62391
#
# Velocity S-wave (km/s) = 2.66842 3.42766 3.07159
# Velocity P-wave (km/s) = 4.91995 7.33244 6.24382
#
# Compressibility (1/GPa) = 0.04104573
#
# Stress axis : x y z
#
# Youngs Moduli (GPa) = 40.82306 10.30338 69.50787
#
# Poissons Ratio (x) = 0.23756 0.15343
# Poissons Ratio (y) = 0.94123 1.54187
# Poissons Ratio (z) = 0.09011 0.22856
#
# Static dielectric constant tensor:
#      x y z
#    x 1.564090 0.000000 -0.000010 
#    y 0.000000 1.565840 0.000000 
#    z -0.000010 0.000000 1.598720 
# 
# From -- ./inp_files/248414.got.cif
#   From: 2010.05.17/outbox.cif.g08.bks.cpg/sg12_125_cif.got.tgz:248414.got - 2010.06.03 13:09:07.
