data_PCOD9171441
_publ_section_title
;
Structure prediction by ZEFSAII (Michael W. Deem and Ramdas Pophale) SiO2 
 PCOD9171441
Probable space group: C 2/M
;
_chemical_formula_sum "Si O2"
_cell_formula_units_Z 64
_cell_length_a 30.660387
_cell_length_b 7.926188
_cell_length_c 14.685931
_cell_angle_alpha 90.000000
_cell_angle_beta 91.559071
_cell_angle_gamma 90.000000
_cell_volume 3567.653613
_symmetry_space_group_name_H-M "C 2/M"
_symmetry_group_IT_number 12
_symmetry_cell_setting 'monoclinic'
loop_
_space_group_symop_operation_xyz
x,y,z
-x,y,-z
-x,-y,-z
x,-y,z
1/2+x,1/2+y,z
1/2-x,1/2+y,-z
1/2-x,1/2-y,-z
1/2+x,1/2-y,z
loop_
_atom_site_type_symbol
_atom_site_label
_atom_site_fract_x
_atom_site_fract_y
_atom_site_fract_z
Si Si1 0.877357 0.201463 0.610083
Si Si2 0.050775 0.293280 0.015259
Si Si3 0.440257 0.303894 0.465641
Si Si4 0.914874 0.296217 0.174925
Si Si5 0.298943 0.298883 0.478805
Si Si6 0.418317 0.194151 0.789035
Si Si7 0.861461 0.699685 0.334815
Si Si8 0.504407 0.300072 0.693631
O O1 0.919798 0.269759 0.556860
O O2 0.833900 0.265118 0.556707
O O3 0.882954 0.233443 0.716979
O O4 0.878259 0.000000 0.597640
O O5 0.049977 0.500000 0.019175
O O6 0.071854 0.230962 0.110772
O O7 0.078443 0.241203 0.928356
O O8 0.000000 0.241550 0.000000
O O9 0.450734 0.500000 0.482117
O O10 0.397954 0.294040 0.396940
O O11 0.479335 0.235782 0.404640
O O12 0.918929 0.500000 0.174887
O O13 0.871457 0.254106 0.230555
O O14 0.954957 0.225359 0.236170
O O15 0.301560 0.500000 0.478049
O O16 0.250000 0.250000 0.500000
O O17 0.315979 0.236613 0.381414
O O18 0.463952 0.210632 0.737873
O O19 0.406958 0.000000 0.801713
O O20 0.870073 0.500000 0.344393
O O21 0.494596 0.500000 0.685943
#
# Coordination Sequence:
#
# PCOD9171441 Si02
#       8
#     8   8   8   8   8   8   8   8
#     4   9  19  35  49  65  93 124 151 187 234 282
#     4   9  16  29  47  64  89 126 168 210 247 279
#     4   8  16  30  45  60  86 126 161 190 234 284
#     4   9  16  29  47  66  91 126 165 204 241 280
#     4  10  20  35  56  78 102 127 150 180 228 286
#     4  11  21  31  45  64  89 125 166 204 240 279
#     4   9  16  26  46  74  99 121 153 194 234 278
#     4  10  18  28  43  63  88 121 162 204 242 280
#
# _framework density 17.938960999999999
#
# number of rings (size 3 to 8) (size 9 to 14) (size 15 to 20)
#    0.000    2.625    1.250    2.250    0.000    4.000 
#    0.000    4.375    0.000    0.000    0.000    0.875 
#    0.000    0.000    0.000    0.000    0.000    0.000 
#
# Total GULP energy -178284.225833 kJ/mol
# GULP energy per Si atom -5571.382057 kJ/mol
# Density = 1.789813 g / cm^3
# Si number density = 17.938961 Si / 1000 Ang^3
#
#
#
# Elastic Constant Matrix: (Units=GPa)
#
#
# Indices 1 2 3 4 5 6 
#
# 1 87.5330 8.1112 54.5675 0.0000 -15.2363 0.0000
# 2 8.1112 24.1152 12.4849 0.0000 -0.7142 0.0000
# 3 54.5675 12.4849 168.3947 0.0000 -11.6109 0.0000
# 4 0.0000 0.0000 0.0000 18.5765 0.0000 -4.3093
# 5 -15.2363 -0.7142 -11.6109 0.0000 21.4791 0.0000
# 6 0.0000 0.0000 0.0000 -4.3093 0.0000 20.9358
#
#
#
# Elastic Compliance Matrix: (Units=1/GPa)
#
#
# Indices 1 2 3 4 5 6 
#
# 1 0.015938 -0.002850 -0.004342 0.000000 0.008864 0.000000
# 2 -0.002850 0.043634 -0.002442 0.000000 -0.001891 0.000000
# 3 -0.004342 -0.002442 0.007592 0.000000 0.000942 0.000000
# 4 0.000000 0.000000 0.000000 0.056531 0.000000 0.011636
# 5 0.008864 -0.001891 0.000942 0.000000 0.053291 0.000000
# 6 0.000000 0.000000 0.000000 0.011636 0.000000 0.050160
#
#
# Mechanical properties :
#
#
# Convention : Reuss Voigt Hill
#
# Bulk Modulus (GPa) = 20.87881 47.81891 34.34886
# Shear Modulus (GPa) = 19.05635 25.85689 22.45662
#
# Velocity S-wave (km/s) = 3.26281 3.80067 3.54197
# Velocity P-wave (km/s) = 5.08514 6.78045 5.99304
#
# Compressibility (1/GPa) = 0.04789544
#
# Stress axis : x y z
#
# Youngs Moduli (GPa) = 62.74256 22.91769 131.72597
#
# Poissons Ratio (x) = 0.06532 0.57198
# Poissons Ratio (y) = 0.17883 0.32165
# Poissons Ratio (z) = 0.27244 0.05596
#
# Static dielectric constant tensor:
#      x y z
#    x 1.616760 0.000000 -0.009570 
#    y 0.000000 1.651090 0.000000 
#    z -0.009570 0.000000 1.673000 
# 
# From -- ./inp_files/248405.got.cif
#   From: 2010.05.17/outbox.cif.g08.bks.cpg/sg12_125_cif.got.tgz:248405.got - 2010.06.03 13:09:07.
