data_PCOD9171281
_publ_section_title
;
Structure prediction by ZEFSAII (Michael W. Deem and Ramdas Pophale) SiO2 
 PCOD9171281
Probable space group: C 2/M
;
_chemical_formula_sum "Si O2"
_cell_formula_units_Z 48
_cell_length_a 10.355253
_cell_length_b 14.946136
_cell_length_c 15.454691
_cell_angle_alpha 90.000000
_cell_angle_beta 67.999331
_cell_angle_gamma 90.000000
_cell_volume 2217.756096
_symmetry_space_group_name_H-M "C 2/M"
_symmetry_group_IT_number 12
_symmetry_cell_setting 'monoclinic'
loop_
_space_group_symop_operation_xyz
x,y,z
-x,y,-z
-x,-y,-z
x,-y,z
1/2+x,1/2+y,z
1/2-x,1/2+y,-z
1/2-x,1/2-y,-z
1/2+x,1/2-y,z
loop_
_atom_site_type_symbol
_atom_site_label
_atom_site_fract_x
_atom_site_fract_y
_atom_site_fract_z
Si Si1 0.873266 0.640383 0.805444
Si Si2 0.175276 0.657756 0.676101
Si Si3 0.338302 0.630743 0.285176
Si Si4 0.154681 0.665061 0.996198
Si Si5 0.152766 0.141737 0.205089
Si Si6 0.351819 0.897775 0.503547
O O1 0.750801 0.604919 0.776066
O O2 0.864055 0.615014 0.908116
O O3 0.861641 0.749423 0.800057
O O4 0.023415 0.615970 0.730045
O O5 0.163495 0.761521 0.705236
O O6 0.285127 0.619293 0.716574
O O7 0.206261 0.650131 0.567071
O O8 0.498177 0.604121 0.235839
O O9 0.257650 0.600922 0.391184
O O10 0.760831 0.617329 0.101945
O O11 0.250000 0.750000 0.000000
O O12 0.000000 0.690407 0.000000
O O13 0.500000 0.858592 0.500000
O O14 0.380944 0.000000 0.469867
#
# Coordination Sequence:
#
# PCOD9171281 Si02
#       6
#     8   8   8   8   8   8
#     4   9  17  29  50  74 111 145 175 215 259 320
#     4  10  18  35  54  78 108 143 178 219 265 318
#     4  10  20  35  53  80 109 142 182 220 267 319
#     4  10  18  27  44  76 115 147 174 214 268 320
#     4   9  19  29  49  77 109 141 175 217 268 312
#     4  11  23  38  57  80 105 140 184 227 273 326
#
# _framework density 21.643498999999998
#
# number of rings (size 3 to 8) (size 9 to 14) (size 15 to 20)
#    0.000    2.167    3.333    0.500    7.000    0.667 
#    0.000    1.667    0.000    0.000    0.000    7.000 
#    0.000    0.000    0.000    0.000    0.000    0.000 
#
# Total GULP energy -133961.131169 kJ/mol
# GULP energy per Si atom -5581.713799 kJ/mol
# Density = 2.159424 g / cm^3
# Si number density = 21.643499 Si / 1000 Ang^3
#
#
#
# Elastic Constant Matrix: (Units=GPa)
#
#
# Indices 1 2 3 4 5 6 
#
# 1 198.6424 19.1890 88.4475 0.0000 12.2353 0.0000
# 2 19.1890 45.8984 -0.5374 0.0000 2.7833 0.0000
# 3 88.4475 -0.5374 154.7088 0.0000 12.0967 0.0000
# 4 0.0000 0.0000 0.0000 -40.6406 0.0000 10.5522
# 5 12.2353 2.7833 12.0967 0.0000 46.4942 0.0000
# 6 0.0000 0.0000 0.0000 10.5522 0.0000 -13.3605
#
#
#
# Elastic Compliance Matrix: (Units=1/GPa)
#
#
# Indices 1 2 3 4 5 6 
#
# 1 0.007173 -0.003007 -0.004060 0.000000 -0.000651 0.000000
# 2 -0.003007 0.023132 0.001884 0.000000 -0.001084 0.000000
# 3 -0.004060 0.001884 0.008898 0.000000 -0.001359 0.000000
# 4 0.000000 0.000000 0.000000 -0.030954 0.000000 -0.024447
# 5 -0.000651 -0.001084 -0.001359 0.000000 0.022098 0.000000
# 6 0.000000 0.000000 0.000000 -0.024447 0.000000 -0.094156
#
#
# Mechanical properties :
#
#
# Convention : Reuss Voigt Hill
#
# Bulk Modulus (GPa) = 34.67787 68.16087 51.41937
# Shear Modulus (GPa) = -114.07282 17.97531 -48.04875
#
# Velocity S-wave (km/s) = -7.26772 2.88500 -4.71681
# Velocity P-wave (km/s) = 7.37355 6.53135 2.41979
#
# Compressibility (1/GPa) = 0.02883683
#
# Stress axis : x y z
#
# Youngs Moduli (GPa) = 139.42089 43.23003 112.38792
#
# Poissons Ratio (x) = 0.12998 0.45630
# Poissons Ratio (y) = 0.41920 -0.21174
# Poissons Ratio (z) = 0.56606 -0.08145
#
# Static dielectric constant tensor:
#      x y z
#    x 1.801650 0.000000 -0.004360 
#    y 0.000000 1.845780 0.000000 
#    z -0.004360 0.000000 1.770930 
# 
# From -- ./inp_files/196937.got.cif
#   From: 2010.05.17/outbox.cif.g08.bks.cpg/sg12_99_cif.got.tgz:196937.got - 2010.06.03 13:09:07.
