data_PCOD9171610
_publ_section_title
;
Structure prediction by ZEFSAII (Michael W. Deem and Ramdas Pophale) SiO2 
 PCOD9171610
Probable space group: C 2/M
;
_chemical_formula_sum "Si O2"
_cell_formula_units_Z 64
_cell_length_a 8.705096
_cell_length_b 20.113103
_cell_length_c 31.594749
_cell_angle_alpha 90.000000
_cell_angle_beta 152.974505
_cell_angle_gamma 90.000000
_cell_volume 2513.583868
_symmetry_space_group_name_H-M "C 2/M"
_symmetry_group_IT_number 12
_symmetry_cell_setting 'monoclinic'
loop_
_space_group_symop_operation_xyz
x,y,z
-x,y,-z
-x,-y,-z
x,-y,z
1/2+x,1/2+y,z
1/2-x,1/2+y,-z
1/2-x,1/2-y,-z
1/2+x,1/2-y,z
loop_
_atom_site_type_symbol
_atom_site_label
_atom_site_fract_x
_atom_site_fract_y
_atom_site_fract_z
Si Si1 0.808977 0.928340 0.209140
Si Si2 0.562834 0.698189 0.082336
Si Si3 0.900795 0.675548 0.339650
Si Si4 0.471056 0.831803 0.447642
Si Si5 0.919131 0.781406 0.821460
Si Si6 0.371104 0.421106 0.406079
Si Si7 0.823136 0.075992 0.302944
Si Si8 0.993381 0.602438 0.951816
O O1 0.626732 0.921899 0.210097
O O2 0.599521 0.930793 0.114899
O O3 0.067234 0.868430 0.266152
O O4 0.995988 0.000000 0.257486
O O5 0.852690 0.714960 0.120570
O O6 0.735525 0.710538 0.170421
O O7 0.367039 0.630321 0.035644
O O8 0.250000 0.750000 0.000000
O O9 0.968212 0.707060 0.402355
O O10 0.825521 0.717757 0.278903
O O11 0.181205 0.621845 0.394611
O O12 0.500000 0.795157 0.500000
O O13 0.769335 0.886406 0.514918
O O14 0.128492 0.873744 0.369869
O O15 0.204469 0.839389 0.886550
O O16 0.392961 0.500000 0.420871
O O17 0.167357 0.412168 0.311094
O O18 0.954359 0.000000 0.339364
O O19 0.000000 0.570409 0.000000
#
# Coordination Sequence:
#
# PCOD9171610 Si02
#       8
#     8   8   8   8   8   8   8   8
#     4   9  16  27  43  65 100 141 170 195 233 285
#     4   9  16  32  54  74  95 118 151 202 252 294
#     4  10  19  30  44  70 103 129 161 204 245 289
#     4   9  17  29  45  66  94 132 171 205 236 273
#     4   9  18  32  50  73  99 120 150 202 255 297
#     4  10  18  28  45  69  98 135 173 205 238 276
#     4   8  15  27  41  61  93 132 174 210 236 272
#     4   8  15  27  46  71  99 125 159 203 242 286
#
# _framework density 25.461653999999999
#
# number of rings (size 3 to 8) (size 9 to 14) (size 15 to 20)
#    0.000    3.000    0.000    2.250    0.000    3.750 
#    0.000    7.500    0.000    0.000    0.000    6.125 
#    0.000   47.000    0.000    0.000    0.000    0.000 
#
# Total GULP energy -178558.160258 kJ/mol
# GULP energy per Si atom -5579.942508 kJ/mol
# Density = 2.540370 g / cm^3
# Si number density = 25.461654 Si / 1000 Ang^3
#
#
#
# Elastic Constant Matrix: (Units=GPa)
#
#
# Indices 1 2 3 4 5 6 
#
# 1 129.3209 17.4533 55.8774 0.0437 -43.1040 0.0346
# 2 17.4533 52.6788 16.6066 -0.0317 8.7458 0.0016
# 3 55.8774 16.6066 97.2699 0.0268 -44.6440 0.0206
# 4 0.0437 -0.0317 0.0268 16.1621 0.0007 -2.6836
# 5 -43.1040 8.7458 -44.6440 0.0007 58.9657 0.0012
# 6 0.0346 0.0016 0.0206 -2.6836 0.0012 6.6991
#
#
#
# Elastic Compliance Matrix: (Units=1/GPa)
#
#
# Indices 1 2 3 4 5 6 
#
# 1 0.011931 -0.004268 -0.002807 -0.000048 0.007230 -0.000073
# 2 -0.004268 0.024848 -0.007531 0.000086 -0.012507 0.000076
# 3 -0.002807 -0.007531 0.019540 -0.000051 0.013859 -0.000067
# 4 -0.000048 0.000086 -0.000051 0.066283 -0.000088 0.026553
# 5 0.007230 -0.012507 0.013859 -0.000088 0.034592 -0.000118
# 6 -0.000073 0.000076 -0.000067 0.026553 -0.000118 0.159912
#
#
# Mechanical properties :
#
#
# Convention : Reuss Voigt Hill
#
# Bulk Modulus (GPa) = 36.89156 51.01602 43.95379
# Shear Modulus (GPa) = 14.07051 28.98753 21.52902
#
# Velocity S-wave (km/s) = 2.35333 3.37779 2.91098
# Velocity P-wave (km/s) = 4.68025 5.94075 5.34777
#
# Compressibility (1/GPa) = 0.02710647
#
# Stress axis : x y z
#
# Youngs Moduli (GPa) = 83.81214 40.24533 51.17783
#
# Poissons Ratio (x) = 0.17179 0.14366
# Poissons Ratio (y) = 0.35775 0.38540
# Poissons Ratio (z) = 0.23527 0.30307
#
# Static dielectric constant tensor:
#      x y z
#    x 1.988470 -0.000010 -0.077770 
#    y -0.000010 2.002920 -0.000020 
#    z -0.077770 -0.000020 2.080260 
# 
# From -- ./inp_files/373340.got.cif
#   From: 2010.05.17/outbox.cif.g08.bks.cpg/sg12_187_cif.got.tgz:373340.got - 2010.06.03 13:09:07.
