data_PCOD9171356
_publ_section_title
;
Structure prediction by ZEFSAII (Michael W. Deem and Ramdas Pophale) SiO2 
 PCOD9171356
Probable space group: C 2/M
;
_chemical_formula_sum "Si O2"
_cell_formula_units_Z 64
_cell_length_a 28.200389
_cell_length_b 8.619708
_cell_length_c 20.160748
_cell_angle_alpha 90.000000
_cell_angle_beta 59.137269
_cell_angle_gamma 90.000000
_cell_volume 4206.717796
_symmetry_space_group_name_H-M "C 2/M"
_symmetry_group_IT_number 12
_symmetry_cell_setting 'monoclinic'
loop_
_space_group_symop_operation_xyz
x,y,z
-x,y,-z
-x,-y,-z
x,-y,z
1/2+x,1/2+y,z
1/2-x,1/2+y,-z
1/2-x,1/2-y,-z
1/2+x,1/2-y,z
loop_
_atom_site_type_symbol
_atom_site_label
_atom_site_fract_x
_atom_site_fract_y
_atom_site_fract_z
Si Si1 0.967511 0.686708 0.178942
Si Si2 0.636096 0.186353 0.660247
Si Si3 0.803279 0.814898 0.501323
Si Si4 0.742906 0.315579 0.662467
Si Si5 0.591643 0.684309 0.906205
Si Si6 0.416738 0.812926 0.944431
Si Si7 0.785829 0.685100 0.180634
Si Si8 0.209454 0.686817 0.973528
O O1 0.963535 0.500000 0.174949
O O2 0.923042 0.731596 0.266695
O O3 0.947166 0.762830 0.125418
O O4 0.032285 0.725076 0.140527
O O5 0.646617 0.253029 0.579283
O O6 0.685642 0.248212 0.672179
O O7 0.640565 0.000000 0.655317
O O8 0.750000 0.750000 0.500000
O O9 0.792962 0.751116 0.582298
O O10 0.802374 0.000000 0.501964
O O11 0.746359 0.265438 0.736384
O O12 0.900453 0.000000 0.100887
O O13 0.740856 0.500000 0.657478
O O14 0.650204 0.769615 0.854874
O O15 0.571063 0.737590 0.992964
O O16 0.415436 0.000000 0.953895
O O17 0.354596 0.764349 0.969624
O O18 0.779740 0.500000 0.190089
O O19 0.773408 0.734013 0.113761
O O20 0.210497 0.500000 0.974329
O O21 0.250000 0.750000 0.000000
#
# Coordination Sequence:
#
# PCOD9171356 Si02
#       8
#     8   8   8   8   8   8   8   8
#     4  10  19  30  45  60  85 122 155 183 216 261
#     4  10  18  28  42  60  85 120 156 188 220 259
#     4  10  18  28  41  57  83 119 154 188 221 260
#     4  11  19  28  43  64  88 115 150 192 224 259
#     4  11  20  28  41  63  89 116 148 188 224 255
#     4   9  19  34  47  62  84 117 152 181 219 270
#     4  10  19  32  47  65  88 119 152 183 222 272
#     4   9  19  34  52  68  88 113 145 185 228 273
#
# _framework density 15.213761
#
# number of rings (size 3 to 8) (size 9 to 14) (size 15 to 20)
#    0.000    2.000    1.250    6.750    0.000    5.000 
#    0.000    0.000    0.000    0.000    0.000    0.000 
#    0.000    1.000    0.000   11.500    0.000    2.875 
#
# Total GULP energy -178389.391409 kJ/mol
# GULP energy per Si atom -5574.668482 kJ/mol
# Density = 1.517913 g / cm^3
# Si number density = 15.213761 Si / 1000 Ang^3
#
#
#
# Elastic Constant Matrix: (Units=GPa)
#
#
# Indices 1 2 3 4 5 6 
#
# 1 57.0496 20.4302 57.1403 0.0000 4.7471 0.0000
# 2 20.4302 58.4918 43.1209 0.0002 -1.5895 -0.0003
# 3 57.1403 43.1209 142.1923 0.0000 -7.8518 0.0000
# 4 0.0000 0.0002 0.0000 22.6336 0.0000 4.4462
# 5 4.7471 -1.5895 -7.8518 0.0000 14.1564 0.0000
# 6 0.0000 -0.0003 0.0000 4.4462 0.0000 15.4962
#
#
#
# Elastic Compliance Matrix: (Units=1/GPa)
#
#
# Indices 1 2 3 4 5 6 
#
# 1 0.034034 -0.001985 -0.014150 0.000000 -0.019484 0.000000
# 2 -0.001985 0.022157 -0.005929 0.000000 -0.000135 0.000000
# 3 -0.014150 -0.005929 0.015208 0.000000 0.012514 0.000000
# 4 0.000000 0.000000 0.000000 0.046821 0.000000 -0.013434
# 5 -0.019484 -0.000135 0.012514 0.000000 0.084099 0.000000
# 6 0.000000 0.000000 0.000000 -0.013434 0.000000 0.068386
#
#
# Mechanical properties :
#
#
# Convention : Reuss Voigt Hill
#
# Bulk Modulus (GPa) = 36.67042 55.45737 46.06390
# Shear Modulus (GPa) = 15.43572 19.59340 17.51456
#
# Velocity S-wave (km/s) = 3.18872 3.59259 3.39666
# Velocity P-wave (km/s) = 6.14109 7.33077 6.76214
#
# Compressibility (1/GPa) = 0.02726993
#
# Stress axis : x y z
#
# Youngs Moduli (GPa) = 29.38271 45.13230 65.75405
#
# Poissons Ratio (x) = 0.08959 0.93045
# Poissons Ratio (y) = 0.05832 0.38986
# Poissons Ratio (z) = 0.41578 0.26759
#
# Static dielectric constant tensor:
#      x y z
#    x 1.942180 0.000000 0.107620 
#    y 0.000000 1.505470 0.000000 
#    z 0.107620 0.000000 1.596000 
# 
# From -- ./inp_files/323638.got.cif
#   From: 2010.05.17/outbox.cif.g08.bks.cpg/sg12_162_cif.got.tgz:323638.got - 2010.06.03 13:09:07.
