data_PCOD9171649
_publ_section_title
;
Structure prediction by ZEFSAII (Michael W. Deem and Ramdas Pophale) SiO2 
 PCOD9171649
Probable space group: C 2/M
;
_chemical_formula_sum "Si O2"
_cell_formula_units_Z 40
_cell_length_a 9.814167
_cell_length_b 13.610551
_cell_length_c 10.713372
_cell_angle_alpha 90.000000
_cell_angle_beta 77.670996
_cell_angle_gamma 90.000000
_cell_volume 1398.048267
_symmetry_space_group_name_H-M "C 2/M"
_symmetry_group_IT_number 12
_symmetry_cell_setting 'monoclinic'
loop_
_space_group_symop_operation_xyz
x,y,z
-x,y,-z
-x,-y,-z
x,-y,z
1/2+x,1/2+y,z
1/2-x,1/2+y,-z
1/2-x,1/2-y,-z
1/2+x,1/2-y,z
loop_
_atom_site_type_symbol
_atom_site_label
_atom_site_fract_x
_atom_site_fract_y
_atom_site_fract_z
Si Si1 0.972017 0.883601 0.838310
Si Si2 0.323917 0.681059 0.615046
Si Si3 0.286142 0.883509 0.968752
Si Si4 0.264422 0.386297 0.364327
Si Si5 0.558780 0.115228 0.793412
O O1 0.897803 0.863577 0.720457
O O2 0.868083 0.843460 0.967093
O O3 0.133562 0.863667 0.773560
O O4 0.968834 0.000000 0.859942
O O5 0.347964 0.627807 0.478981
O O6 0.345552 0.797975 0.603897
O O7 0.158379 0.666530 0.675700
O O8 0.364515 0.877107 0.087548
O O9 0.273970 0.000000 0.944381
O O10 0.402017 0.846990 0.847729
O O11 0.218730 0.500000 0.365831
O O12 0.553450 0.000000 0.763070
#
# Coordination Sequence:
#
# PCOD9171649 Si02
#       5
#     8   8   8   8   8
#     4   9  16  29  49  69  88 112 143 180 219 256
#     4  10  18  28  46  66  87 115 148 178 214 258
#     4   7  11  20  38  64  88 107 134 175 218 254
#     4  10  20  31  44  65  91 116 145 180 215 255
#     4   8  12  21  39  64  89 110 136 176 220 253
#
# _framework density 28.611315000000001
#
# number of rings (size 3 to 8) (size 9 to 14) (size 15 to 20)
#    0.000    3.200    0.000    4.800    0.000    1.600 
#    0.000    1.000    0.000   12.000    0.000   11.200 
#    0.000    0.000    0.000    0.000    0.000    0.000 
#
# Total GULP energy -111960.323513 kJ/mol
# GULP energy per Si atom -5598.016176 kJ/mol
# Density = 2.854619 g / cm^3
# Si number density = 28.611315 Si / 1000 Ang^3
#
#
#
# Elastic Constant Matrix: (Units=GPa)
#
#
# Indices 1 2 3 4 5 6 
#
# 1 122.5487 11.8472 33.9408 0.0000 -20.4045 0.0000
# 2 11.8472 149.1227 47.8290 0.0000 -10.3935 0.0000
# 3 33.9408 47.8290 204.7485 0.0000 -13.7833 0.0000
# 4 0.0000 0.0000 0.0000 9.8747 0.0000 12.0275
# 5 -20.4045 -10.3935 -13.7833 0.0000 71.8439 0.0000
# 6 0.0000 0.0000 0.0000 12.0275 0.0000 14.2059
#
#
#
# Elastic Compliance Matrix: (Units=1/GPa)
#
#
# Indices 1 2 3 4 5 6 
#
# 1 0.008908 -0.000135 -0.001293 0.000000 0.002262 0.000000
# 2 -0.000135 0.007289 -0.001633 0.000000 0.000703 0.000000
# 3 -0.001293 -0.001633 0.005510 0.000000 0.000454 0.000000
# 4 0.000000 0.000000 0.000000 -3.241355 0.000000 2.744315
# 5 0.002262 0.000703 0.000454 0.000000 0.014750 0.000000
# 6 0.000000 0.000000 0.000000 2.744315 0.000000 -2.253101
#
#
# Mechanical properties :
#
#
# Convention : Reuss Voigt Hill
#
# Bulk Modulus (GPa) = 64.16307 73.73932 68.95119
# Shear Modulus (GPa) = -0.91799 44.70510 21.89356
#
# Velocity S-wave (km/s) = -0.56705 3.95713 2.76924
# Velocity P-wave (km/s) = 4.69529 6.83427 5.86315
#
# Compressibility (1/GPa) = 0.01558529
#
# Stress axis : x y z
#
# Youngs Moduli (GPa) = 112.26093 137.18544 181.47647
#
# Poissons Ratio (x) = 0.01857 0.23460
# Poissons Ratio (y) = 0.01520 0.29636
# Poissons Ratio (z) = 0.14512 0.22403
#
# Static dielectric constant tensor:
#      x y z
#    x 2.383290 0.000000 -0.052250 
#    y 0.000000 2.108100 0.000000 
#    z -0.052250 0.000000 2.174210 
# 
# From -- ./inp_files/203991.got.cif
#   From: 2010.05.17/outbox.cif.g08.bks.cpg/sg12_102_cif.got.tgz:203991.got - 2010.06.03 13:09:07.
