data_PCOD9171645
_publ_section_title
;
Structure prediction by ZEFSAII (Michael W. Deem and Ramdas Pophale) SiO2 
 PCOD9171645
Probable space group: C 2/M
;
_chemical_formula_sum "Si O2"
_cell_formula_units_Z 64
_cell_length_a 14.589972
_cell_length_b 21.223129
_cell_length_c 11.584421
_cell_angle_alpha 90.000000
_cell_angle_beta 124.485806
_cell_angle_gamma 90.000000
_cell_volume 2956.690348
_symmetry_space_group_name_H-M "C 2/M"
_symmetry_group_IT_number 12
_symmetry_cell_setting 'monoclinic'
loop_
_space_group_symop_operation_xyz
x,y,z
-x,y,-z
-x,-y,-z
x,-y,z
1/2+x,1/2+y,z
1/2-x,1/2+y,-z
1/2-x,1/2-y,-z
1/2+x,1/2-y,z
loop_
_atom_site_type_symbol
_atom_site_label
_atom_site_fract_x
_atom_site_fract_y
_atom_site_fract_z
Si Si1 0.537749 0.750246 0.735495
Si Si2 0.419833 0.177913 0.841770
Si Si3 0.224168 0.278698 0.716243
Si Si4 0.312203 0.073894 0.895670
Si Si5 0.497419 0.431158 0.135462
Si Si6 0.128671 0.072798 0.580152
Si Si7 0.838725 0.150986 0.608802
Si Si8 0.795376 0.837169 0.008629
O O1 0.482326 0.807452 0.766909
O O2 0.598381 0.763043 0.658654
O O3 0.438754 0.700079 0.657851
O O4 0.642851 0.721825 0.884902
O O5 0.306167 0.218534 0.767119
O O6 0.394036 0.106206 0.859922
O O7 0.500000 0.204799 0.000000
O O8 0.241462 0.314634 0.608387
O O9 0.265724 0.320000 0.856031
O O10 0.193326 0.075933 0.745988
O O11 0.301723 0.125714 0.990889
O O12 0.335888 0.000000 0.940344
O O13 0.482022 0.500000 0.176459
O O14 0.606459 0.399779 0.265855
O O15 0.393158 0.387813 0.082717
O O16 0.500000 0.435692 0.000000
O O17 0.187813 0.116400 0.528293
O O18 0.000000 0.091758 0.500000
O O19 0.130785 0.000000 0.543107
#
# Coordination Sequence:
#
# PCOD9171645 Si02
#       8
#     8   8   8   8   8   8   8   8
#     4  10  20  32  56  84 115 154 187 237 294 350
#     4  11  21  36  59  86 121 158 196 236 295 358
#     4  11  20  35  56  89 116 153 194 241 297 352
#     4  11  24  39  60  85 117 161 202 243 288 349
#     4  10  18  28  45  78 117 142 171 230 296 348
#     4  10  21  40  62  84 114 156 203 241 288 348
#     4  10  21  34  58  81 115 149 194 240 292 349
#     4  11  18  33  55  82 114 147 192 233 294 352
#
# _framework density 21.645823
#
# number of rings (size 3 to 8) (size 9 to 14) (size 15 to 20)
#    0.000    1.500    3.750    3.375    0.000    1.250 
#    0.000    2.500    2.750    1.500    0.000    1.750 
#    0.000    0.000    0.000    0.000    0.000    0.000 
#
# Total GULP energy -178801.035006 kJ/mol
# GULP energy per Si atom -5587.532344 kJ/mol
# Density = 2.159656 g / cm^3
# Si number density = 21.645823 Si / 1000 Ang^3
#
#
#
# Elastic Constant Matrix: (Units=GPa)
#
#
# Indices 1 2 3 4 5 6 
#
# 1 122.7997 47.3910 21.8296 0.0000 -24.3492 0.0000
# 2 47.3910 88.8112 21.7481 0.0000 -16.0514 0.0000
# 3 21.8296 21.7481 68.3973 0.0000 -11.5733 0.0000
# 4 0.0000 0.0000 0.0000 26.8635 0.0000 -7.7618
# 5 -24.3492 -16.0514 -11.5733 0.0000 27.2996 0.0000
# 6 0.0000 0.0000 0.0000 -7.7618 0.0000 25.1651
#
#
#
# Elastic Compliance Matrix: (Units=1/GPa)
#
#
# Indices 1 2 3 4 5 6 
#
# 1 0.011515 -0.004610 -0.001002 0.000000 0.007136 0.000000
# 2 -0.004610 0.015028 -0.002702 0.000000 0.003579 0.000000
# 3 -0.001002 -0.002702 0.016568 0.000000 0.004541 0.000000
# 4 0.000000 0.000000 0.000000 0.040867 0.000000 0.012605
# 5 0.007136 0.003579 0.004541 0.000000 0.047025 0.000000
# 6 0.000000 0.000000 0.000000 0.012605 0.000000 0.043625
#
#
# Mechanical properties :
#
#
# Convention : Reuss Voigt Hill
#
# Bulk Modulus (GPa) = 37.75804 51.32730 44.54267
# Shear Modulus (GPa) = 24.98956 28.46827 26.72892
#
# Velocity S-wave (km/s) = 3.40144 3.63048 3.51783
# Velocity P-wave (km/s) = 5.73654 6.42944 6.09285
#
# Compressibility (1/GPa) = 0.02648443
#
# Stress axis : x y z
#
# Youngs Moduli (GPa) = 86.84062 66.54197 60.35833
#
# Poissons Ratio (x) = 0.30674 0.06048
# Poissons Ratio (y) = 0.40031 0.16306
# Poissons Ratio (z) = 0.08702 0.17977
#
# Static dielectric constant tensor:
#      x y z
#    x 1.830630 0.000000 0.003910 
#    y 0.000000 1.828560 0.000000 
#    z 0.003910 0.000000 1.800330 
# 
# From -- ./inp_files/147671.got.cif
#   From: 2010.05.17/outbox.cif.g08.bks.cpg/sg12_74_cif.got.tgz:147671.got - 2010.06.03 13:09:07.
