data_PCOD9171262
_publ_section_title
;
Structure prediction by ZEFSAII (Michael W. Deem and Ramdas Pophale) SiO2 
 PCOD9171262
Probable space group: C 2/M
;
_chemical_formula_sum "Si O2"
_cell_formula_units_Z 56
_cell_length_a 13.877802
_cell_length_b 25.521067
_cell_length_c 14.475135
_cell_angle_alpha 90.000000
_cell_angle_beta 140.528516
_cell_angle_gamma 90.000000
_cell_volume 3259.044735
_symmetry_space_group_name_H-M "C 2/M"
_symmetry_group_IT_number 12
_symmetry_cell_setting 'monoclinic'
loop_
_space_group_symop_operation_xyz
x,y,z
-x,y,-z
-x,-y,-z
x,-y,z
1/2+x,1/2+y,z
1/2-x,1/2+y,-z
1/2-x,1/2-y,-z
1/2+x,1/2-y,z
loop_
_atom_site_type_symbol
_atom_site_label
_atom_site_fract_x
_atom_site_fract_y
_atom_site_fract_z
Si Si1 0.055708 0.755291 0.634205
Si Si2 0.783963 0.443586 0.348073
Si Si3 0.560604 0.337158 0.313311
Si Si4 0.894441 0.353278 0.566572
Si Si5 0.698538 0.100116 0.829342
Si Si6 0.560711 0.440237 0.845774
Si Si7 0.858702 0.804553 0.837800
O O1 0.225880 0.737383 0.742005
O O2 0.000000 0.782872 0.500000
O O3 0.030168 0.791765 0.702880
O O4 0.958018 0.701690 0.574963
O O5 0.828969 0.500000 0.421177
O O6 0.857337 0.395540 0.458224
O O7 0.825000 0.440209 0.271544
O O8 0.600885 0.440808 0.219689
O O9 0.727179 0.343230 0.482901
O O10 0.471044 0.392241 0.247560
O O11 0.593640 0.320916 0.230642
O O12 0.032195 0.376670 0.729137
O O13 0.793542 0.146012 0.847756
O O14 0.800706 0.076473 0.985668
O O15 0.582780 0.500000 0.827706
O O16 0.000000 0.784549 0.000000
#
# Coordination Sequence:
#
# PCOD9171262 Si02
#       7
#     8   8   8   8   8   8   8
#     4  11  22  36  57  77 105 146 185 223 272 315
#     4  10  18  27  44  69 102 142 178 209 255 321
#     4  11  21  37  55  78 109 145 182 224 267 318
#     4  10  20  32  48  72 105 140 177 219 262 306
#     4  11  17  29  47  73 106 140 175 208 258 326
#     4  10  20  33  50  73 106 145 179 217 270 327
#     4  11  20  35  52  80 111 141 176 218 264 323
#
# _framework density 17.182950000000002
#
# number of rings (size 3 to 8) (size 9 to 14) (size 15 to 20)
#    0.000    1.429    5.714    2.571    0.000    3.429 
#    0.000    0.000    0.000    0.429    0.000    0.000 
#    0.000    1.714    0.000    0.000    0.000    0.000 
#
# Total GULP energy -156020.821387 kJ/mol
# GULP energy per Si atom -5572.172192 kJ/mol
# Density = 1.714384 g / cm^3
# Si number density = 17.182950 Si / 1000 Ang^3
#
#
#
# Elastic Constant Matrix: (Units=GPa)
#
#
# Indices 1 2 3 4 5 6 
#
# 1 31.5191 35.2081 25.0598 0.0000 0.2224 0.0000
# 2 35.2081 96.9443 35.2506 0.0000 -2.7571 0.0000
# 3 25.0598 35.2506 95.6651 0.0000 20.0321 0.0000
# 4 0.0000 0.0000 0.0000 17.3326 0.0000 4.7556
# 5 0.2224 -2.7571 20.0321 0.0000 12.2308 0.0000
# 6 0.0000 0.0000 0.0000 4.7556 0.0000 6.4525
#
#
#
# Elastic Compliance Matrix: (Units=1/GPa)
#
#
# Indices 1 2 3 4 5 6 
#
# 1 0.060994 -0.016828 -0.013318 0.000000 0.016910 0.000000
# 2 -0.016828 0.018695 -0.005216 0.000000 0.013063 0.000000
# 3 -0.013318 -0.005216 0.024442 0.000000 -0.040965 0.000000
# 4 0.000000 0.000000 0.000000 0.072319 0.000000 -0.053301
# 5 0.016910 0.013063 -0.040965 0.000000 0.151493 0.000000
# 6 0.000000 0.000000 0.000000 -0.053301 0.000000 0.194262
#
#
# Mechanical properties :
#
#
# Convention : Reuss Voigt Hill
#
# Bulk Modulus (GPa) = 29.93368 46.12951 38.03160
# Shear Modulus (GPa) = 8.27728 15.77718 12.02723
#
# Velocity S-wave (km/s) = 2.19718 3.03345 2.64853
# Velocity P-wave (km/s) = 4.88827 6.25887 5.61554
#
# Compressibility (1/GPa) = 0.03340718
#
# Stress axis : x y z
#
# Youngs Moduli (GPa) = 16.39510 53.49035 40.91362
#
# Poissons Ratio (x) = 0.90015 0.54487
# Poissons Ratio (y) = 0.27590 0.21340
# Poissons Ratio (z) = 0.21834 0.27900
#
# Static dielectric constant tensor:
#      x y z
#    x 1.574820 0.000000 0.029120 
#    y 0.000000 1.641410 0.000000 
#    z 0.029120 0.000000 1.616230 
# 
# From -- ./inp_files/218304.got.cif
#   From: 2010.05.17/outbox.cif.g08.bks.cpg/sg12_110_cif.got.tgz:218304.got - 2010.06.03 13:09:07.
