data_PCOD9171182
_publ_section_title
;
Structure prediction by ZEFSAII (Michael W. Deem and Ramdas Pophale) SiO2 
 PCOD9171182
Probable space group: C 2/M
;
_chemical_formula_sum "Si O2"
_cell_formula_units_Z 56
_cell_length_a 19.705157
_cell_length_b 7.415208
_cell_length_c 26.061701
_cell_angle_alpha 90.000000
_cell_angle_beta 137.878076
_cell_angle_gamma 90.000000
_cell_volume 2554.118777
_symmetry_space_group_name_H-M "C 2/M"
_symmetry_group_IT_number 12
_symmetry_cell_setting 'monoclinic'
loop_
_space_group_symop_operation_xyz
x,y,z
-x,y,-z
-x,-y,-z
x,-y,z
1/2+x,1/2+y,z
1/2-x,1/2+y,-z
1/2-x,1/2-y,-z
1/2+x,1/2-y,z
loop_
_atom_site_type_symbol
_atom_site_label
_atom_site_fract_x
_atom_site_fract_y
_atom_site_fract_z
Si Si1 0.767903 0.217902 0.672617
Si Si2 0.503017 0.718600 0.820524
Si Si3 0.222884 0.287330 0.755820
Si Si4 0.809256 0.215527 0.585301
Si Si5 0.159311 0.785186 0.987815
Si Si6 0.038941 0.217401 0.728375
Si Si7 0.883488 0.779606 0.926113
O O1 0.709115 0.283955 0.690156
O O2 0.754162 0.283335 0.606434
O O3 0.885138 0.260692 0.750895
O O4 0.755264 0.000000 0.663036
O O5 0.508397 0.500000 0.824460
O O6 0.559680 0.784588 0.902762
O O7 0.554953 0.778269 0.796328
O O8 0.242743 0.500000 0.760724
O O9 0.125523 0.270291 0.737420
O O10 0.320187 0.214831 0.841623
O O11 0.750000 0.250000 0.500000
O O12 0.925834 0.280209 0.649642
O O13 0.816590 0.000000 0.594905
O O14 0.147914 0.000000 0.986288
O O15 0.250000 0.750000 0.000000
O O16 0.172488 0.719883 0.052994
O O17 0.038061 0.000000 0.728689
O O18 0.884027 0.000000 0.923151
O O19 0.000000 0.726135 0.000000
#
# Coordination Sequence:
#
# PCOD9171182 Si02
#       7
#     8   8   8   8   8   8   8
#     4   8  15  29  49  70  90 117 155 190 220 265
#     4   8  14  27  46  63  83 120 163 191 218 268
#     4  10  18  29  48  72  96 123 157 196 233 270
#     4   9  18  34  55  75  94 119 152 189 228 274
#     4  10  18  27  42  64  89 118 153 194 235 270
#     4   9  18  32  49  69  95 126 155 186 230 281
#     4   9  17  28  44  68  95 123 159 202 239 267
#
# _framework density 21.925367999999999
#
# number of rings (size 3 to 8) (size 9 to 14) (size 15 to 20)
#    0.000    3.000    0.000    3.429    0.000    4.000 
#    0.000    1.429    0.000   10.286    0.000    0.000 
#    0.000    0.000    0.000    0.000    0.000    0.000 
#
# Total GULP energy -156175.971455 kJ/mol
# GULP energy per Si atom -5577.713266 kJ/mol
# Density = 2.187547 g / cm^3
# Si number density = 21.925368 Si / 1000 Ang^3
#
#
#
# Elastic Constant Matrix: (Units=GPa)
#
#
# Indices 1 2 3 4 5 6 
#
# 1 115.3161 -1.6940 30.6672 0.0000 -32.0292 0.0000
# 2 -1.6940 67.3689 7.1206 0.0001 -6.2752 -0.0002
# 3 30.6672 7.1206 103.5934 0.0000 -31.8575 0.0000
# 4 0.0000 0.0001 0.0000 -0.5760 0.0000 1.5914
# 5 -32.0292 -6.2752 -31.8575 0.0000 34.3863 0.0000
# 6 0.0000 -0.0002 0.0000 1.5914 0.0000 17.8907
#
#
#
# Elastic Compliance Matrix: (Units=1/GPa)
#
#
# Indices 1 2 3 4 5 6 
#
# 1 0.011819 0.001349 -0.000182 0.000000 0.011087 0.000000
# 2 0.001349 0.015260 -0.000287 0.000002 0.003775 0.000000
# 3 -0.000182 -0.000287 0.013507 0.000000 0.012291 0.000000
# 4 0.000000 0.000002 0.000000 -1.393579 0.000001 0.123961
# 5 0.011087 0.003775 0.012291 0.000001 0.051484 0.000000
# 6 0.000000 0.000000 0.000000 0.123961 0.000000 0.044869
#
#
# Mechanical properties :
#
#
# Convention : Reuss Voigt Hill
#
# Bulk Modulus (GPa) = 23.61567 39.82954 31.72260
# Shear Modulus (GPa) = -4.01837 27.01916 11.50039
#
# Velocity S-wave (km/s) = -1.35526 3.51426 2.29273
# Velocity P-wave (km/s) = 2.88883 5.88830 4.63775
#
# Compressibility (1/GPa) = 0.04234477
#
# Stress axis : x y z
#
# Youngs Moduli (GPa) = 84.60653 65.53251 74.03751
#
# Poissons Ratio (x) = -0.08841 0.01350
# Poissons Ratio (y) = -0.11415 0.02127
# Poissons Ratio (z) = 0.01542 0.01883
#
# Static dielectric constant tensor:
#      x y z
#    x 1.815440 0.000000 -0.012940 
#    y 0.000000 1.959740 0.000000 
#    z -0.012940 0.000000 1.768140 
# 
# From -- ./inp_files/280369.got.cif
#   From: 2010.05.17/outbox.cif.g08.bks.cpg/sg12_141_cif.got.tgz:280369.got - 2010.06.03 13:09:07.
