data_PCOD9171478
_publ_section_title
;
Structure prediction by ZEFSAII (Michael W. Deem and Ramdas Pophale) SiO2 
 PCOD9171478
Probable space group: C 2/M
;
_chemical_formula_sum "Si O2"
_cell_formula_units_Z 64
_cell_length_a 30.657374
_cell_length_b 7.510747
_cell_length_c 15.614120
_cell_angle_alpha 90.000000
_cell_angle_beta 119.297379
_cell_angle_gamma 90.000000
_cell_volume 3135.434482
_symmetry_space_group_name_H-M "C 2/M"
_symmetry_group_IT_number 12
_symmetry_cell_setting 'monoclinic'
loop_
_space_group_symop_operation_xyz
x,y,z
-x,y,-z
-x,-y,-z
x,-y,z
1/2+x,1/2+y,z
1/2-x,1/2+y,-z
1/2-x,1/2-y,-z
1/2+x,1/2-y,z
loop_
_atom_site_type_symbol
_atom_site_label
_atom_site_fract_x
_atom_site_fract_y
_atom_site_fract_z
Si Si1 0.424113 0.285843 0.765598
Si Si2 0.962997 0.218099 0.147891
Si Si3 0.791810 0.219432 0.213065
Si Si4 0.121090 0.798158 0.812281
Si Si5 0.323505 0.789383 0.583293
Si Si6 0.892361 0.784657 0.923017
Si Si7 0.192303 0.293460 0.032724
Si Si8 0.756564 0.795290 0.362456
O O1 0.426919 0.500000 0.773692
O O2 0.479828 0.222675 0.797570
O O3 0.381450 0.240174 0.656684
O O4 0.406087 0.221088 0.841667
O O5 0.928776 0.282331 0.194109
O O6 0.962124 0.000000 0.149295
O O7 0.934616 0.268483 0.032856
O O8 0.845738 0.281969 0.231736
O O9 0.747762 0.272944 0.105473
O O10 0.775605 0.281664 0.291489
O O11 0.793001 0.000000 0.213408
O O12 0.108437 0.000000 0.774724
O O13 0.159970 0.803213 0.929627
O O14 0.291253 0.717061 0.633324
O O15 0.300695 0.709748 0.475134
O O16 0.313581 0.000000 0.568528
O O17 0.839686 0.720700 0.910216
O O18 0.890732 0.000000 0.920398
O O19 0.194426 0.500000 0.010159
O O20 0.743520 0.000000 0.330590
#
# Coordination Sequence:
#
# PCOD9171478 Si02
#       8
#     8   8   8   8   8   8   8   8
#     4  10  18  29  48  70  91 120 156 189 226 270
#     4   8  15  28  46  67  91 120 155 193 224 255
#     4   9  17  29  48  70  91 119 153 190 229 267
#     4   9  17  31  48  66  91 123 158 191 223 261
#     4  10  20  33  49  71  97 120 144 181 229 277
#     4   9  17  29  45  66  93 124 157 190 222 262
#     4  10  18  28  43  67  99 127 151 183 226 271
#     4   9  18  34  52  69  92 120 149 183 226 274
#
# _framework density 20.411845
#
# number of rings (size 3 to 8) (size 9 to 14) (size 15 to 20)
#    0.000    2.750    0.000    3.000    0.000    3.500 
#    0.000    5.000    0.000    4.500    0.000    5.250 
#    0.000    0.000    0.000    0.000    0.000    0.000 
#
# Total GULP energy -178584.417246 kJ/mol
# GULP energy per Si atom -5580.763039 kJ/mol
# Density = 2.036539 g / cm^3
# Si number density = 20.411845 Si / 1000 Ang^3
#
#
#
# Elastic Constant Matrix: (Units=GPa)
#
#
# Indices 1 2 3 4 5 6 
#
# 1 106.9267 -2.7053 32.8286 0.0000 7.5078 0.0000
# 2 -2.7053 61.1915 -5.7987 0.0000 -2.4610 0.0000
# 3 32.8286 -5.7987 42.4244 0.0000 3.1223 0.0000
# 4 0.0000 0.0000 0.0000 9.3613 0.0000 4.3242
# 5 7.5078 -2.4610 3.1223 0.0000 33.9840 0.0000
# 6 0.0000 0.0000 0.0000 4.3242 0.0000 7.1072
#
#
#
# Elastic Compliance Matrix: (Units=1/GPa)
#
#
# Indices 1 2 3 4 5 6 
#
# 1 0.012394 -0.000429 -0.009510 0.000000 -0.001895 0.000000
# 2 -0.000429 0.016605 0.002524 0.000000 0.001066 0.000000
# 3 -0.009510 0.002524 0.031319 0.000000 -0.000594 0.000000
# 4 0.000000 0.000000 0.000000 0.148581 0.000000 -0.090400
# 5 -0.001895 0.001066 -0.000594 0.000000 0.029976 0.000000
# 6 0.000000 0.000000 0.000000 -0.090400 0.000000 0.195704
#
#
# Mechanical properties :
#
#
# Convention : Reuss Voigt Hill
#
# Bulk Modulus (GPa) = 21.98458 28.79909 25.39183
# Shear Modulus (GPa) = 10.76257 22.50503 16.63380
#
# Velocity S-wave (km/s) = 2.29873 3.32407 2.85776
# Velocity P-wave (km/s) = 4.22367 5.37328 4.83278
#
# Compressibility (1/GPa) = 0.04548643
#
# Stress axis : x y z
#
# Youngs Moduli (GPa) = 80.68306 60.22230 31.92957
#
# Poissons Ratio (x) = 0.02586 0.30365
# Poissons Ratio (y) = 0.03465 -0.08058
# Poissons Ratio (z) = 0.76729 -0.15197
#
# Static dielectric constant tensor:
#      x y z
#    x 1.759320 0.000000 -0.027040 
#    y 0.000000 1.788240 0.000000 
#    z -0.027040 0.000000 1.688500 
# 
# From -- ./inp_files/248995.got.cif
#   From: 2010.05.17/outbox.cif.g08.bks.cpg/sg12_125_cif.got.tgz:248995.got - 2010.06.03 13:09:07.
