data_PCOD9171526
_publ_section_title
;
Structure prediction by ZEFSAII (Michael W. Deem and Ramdas Pophale) SiO2 
 PCOD9171526
Probable space group: C 2/M
;
_chemical_formula_sum "Si O2"
_cell_formula_units_Z 48
_cell_length_a 16.720652
_cell_length_b 24.216448
_cell_length_c 14.484584
_cell_angle_alpha 90.000000
_cell_angle_beta 150.736108
_cell_angle_gamma 90.000000
_cell_volume 2867.015181
_symmetry_space_group_name_H-M "C 2/M"
_symmetry_group_IT_number 12
_symmetry_cell_setting 'monoclinic'
loop_
_space_group_symop_operation_xyz
x,y,z
-x,y,-z
-x,-y,-z
x,-y,z
1/2+x,1/2+y,z
1/2-x,1/2+y,-z
1/2-x,1/2-y,-z
1/2+x,1/2-y,z
loop_
_atom_site_type_symbol
_atom_site_label
_atom_site_fract_x
_atom_site_fract_y
_atom_site_fract_z
Si Si1 0.531456 0.156689 0.247867
Si Si2 0.360086 0.675532 0.480743
Si Si3 0.162445 0.284937 0.106478
Si Si4 0.560768 0.063965 0.961458
Si Si5 0.047799 0.061845 0.655181
Si Si6 0.561093 0.212715 0.662829
O O1 0.707823 0.180377 0.397065
O O2 0.481150 0.169779 0.300531
O O3 0.396123 0.182064 0.041953
O O4 0.531404 0.093811 0.214313
O O5 0.282410 0.681865 0.298354
O O6 0.453746 0.617603 0.592049
O O7 0.474926 0.729040 0.604104
O O8 0.251748 0.230026 0.162049
O O9 0.000000 0.272138 0.000000
O O10 0.755712 0.068474 0.143970
O O11 0.516886 0.000000 0.918389
O O12 0.500000 0.087378 0.000000
O O13 0.000000 0.058584 0.500000
O O14 0.007935 0.000000 0.654878
O O15 0.500000 0.196128 0.500000
#
# Coordination Sequence:
#
# PCOD9171526 Si02
#       6
#     8   8   8   8   8   8
#     4  11  19  30  49  70  92 123 159 190 229 277
#     4  10  19  31  45  67  97 124 154 190 230 275
#     4   9  18  30  46  68  94 123 154 189 229 276
#     4  10  20  32  47  70  97 122 151 188 230 279
#     4  10  18  28  44  67  97 128 151 177 223 280
#     4  10  20  33  47  65  94 125 158 196 231 270
#
# _framework density 16.742149999999999
#
# number of rings (size 3 to 8) (size 9 to 14) (size 15 to 20)
#    0.000    2.000    0.000    7.000    0.000    2.000 
#    0.000    0.000    0.000    1.000    0.000    0.000 
#    0.000    3.333    0.000    0.000    0.000    0.000 
#
# Total GULP energy -133781.900197 kJ/mol
# GULP energy per Si atom -5574.245842 kJ/mol
# Density = 1.670404 g / cm^3
# Si number density = 16.742150 Si / 1000 Ang^3
#
#
#
# Elastic Constant Matrix: (Units=GPa)
#
#
# Indices 1 2 3 4 5 6 
#
# 1 89.2698 45.7724 23.7057 0.0000 -10.5634 0.0000
# 2 45.7724 70.7164 19.4238 0.0000 -5.7671 0.0000
# 3 23.7057 19.4238 33.9807 0.0000 6.6720 0.0000
# 4 0.0000 0.0000 0.0000 3.4868 0.0000 -5.5803
# 5 -10.5634 -5.7671 6.6720 0.0000 15.5582 0.0000
# 6 0.0000 0.0000 0.0000 -5.5803 0.0000 16.8510
#
#
#
# Elastic Compliance Matrix: (Units=1/GPa)
#
#
# Indices 1 2 3 4 5 6 
#
# 1 0.021104 -0.008727 -0.013007 0.000000 0.016671 0.000000
# 2 -0.008727 0.022416 -0.007854 0.000000 0.005752 0.000000
# 3 -0.013007 -0.007854 0.049463 0.000000 -0.032954 0.000000
# 4 0.000000 0.000000 0.000000 0.610195 0.000000 0.202069
# 5 0.016671 0.005752 -0.032954 0.000000 0.091858 0.000000
# 6 0.000000 0.000000 0.000000 0.202069 0.000000 0.126259
#
#
# Mechanical properties :
#
#
# Convention : Reuss Voigt Hill
#
# Bulk Modulus (GPa) = 29.58157 41.30787 35.44472
# Shear Modulus (GPa) = 5.04163 14.18353 9.61258
#
# Velocity S-wave (km/s) = 1.73720 2.91379 2.39875
# Velocity P-wave (km/s) = 4.66166 6.00389 5.37484
#
# Compressibility (1/GPa) = 0.03380484
#
# Stress axis : x y z
#
# Youngs Moduli (GPa) = 47.38501 44.61004 20.21732
#
# Poissons Ratio (x) = 0.38933 0.26297
# Poissons Ratio (y) = 0.41355 0.15880
# Poissons Ratio (z) = 0.61634 0.35039
#
# Static dielectric constant tensor:
#      x y z
#    x 1.563990 0.000000 0.042200 
#    y 0.000000 1.630230 0.000000 
#    z 0.042200 0.000000 1.602930 
# 
# From -- ./inp_files/227834.got.cif
#   From: 2010.05.17/outbox.cif.g08.bks.cpg/sg12_114_cif.got.tgz:227834.got - 2010.06.03 13:09:07.
