data_PCOD9171855
_publ_section_title
;
Structure prediction by ZEFSAII (Michael W. Deem and Ramdas Pophale) SiO2 
 PCOD9171855
Probable space group: C 2/M
;
_chemical_formula_sum "Si O2"
_cell_formula_units_Z 56
_cell_length_a 9.140933
_cell_length_b 20.282496
_cell_length_c 20.019096
_cell_angle_alpha 90.000000
_cell_angle_beta 47.359168
_cell_angle_gamma 90.000000
_cell_volume 2730.276817
_symmetry_space_group_name_H-M "C 2/M"
_symmetry_group_IT_number 12
_symmetry_cell_setting 'monoclinic'
loop_
_space_group_symop_operation_xyz
x,y,z
-x,y,-z
-x,-y,-z
x,-y,z
1/2+x,1/2+y,z
1/2-x,1/2+y,-z
1/2-x,1/2-y,-z
1/2+x,1/2-y,z
loop_
_atom_site_type_symbol
_atom_site_label
_atom_site_fract_x
_atom_site_fract_y
_atom_site_fract_z
Si Si1 0.093697 0.573222 0.802330
Si Si2 0.074174 0.901145 0.404249
Si Si3 0.729396 0.924480 0.906091
Si Si4 0.175110 0.288680 0.619796
Si Si5 0.706490 0.850731 0.462842
Si Si6 0.914468 0.204138 0.912186
Si Si7 0.644490 0.193126 0.176720
O O1 0.011214 0.500000 0.840321
O O2 0.238773 0.570311 0.693163
O O3 0.218878 0.591588 0.830000
O O4 0.926365 0.627318 0.839483
O O5 0.149930 0.826028 0.393768
O O6 0.000000 0.925564 0.500000
O O7 0.884734 0.901787 0.415002
O O8 0.839046 0.868203 0.914521
O O9 0.804114 0.000000 0.891313
O O10 0.500000 0.923447 0.000000
O O11 0.224257 0.211975 0.601611
O O12 0.176550 0.320861 0.546234
O O13 0.966071 0.305195 0.718289
O O14 0.500000 0.877626 0.500000
O O15 0.946726 0.245319 0.834697
O O16 0.119965 0.199593 0.888697
O O17 0.750000 0.250000 0.000000
#
# Coordination Sequence:
#
# PCOD9171855 Si02
#       7
#     8   8   8   8   8   8   8
#     4  10  22  41  63  88 120 166 218 257 306 374
#     4   9  19  34  51  80 117 158 205 251 305 363
#     4  10  22  42  66  89 120 163 205 250 306 369
#     4   9  19  31  46  78 111 155 192 237 307 357
#     4  10  18  28  50  76 116 149 191 247 294 365
#     4  12  25  41  62  94 128 159 199 254 313 370
#     4  11  24  36  61  88 121 160 201 255 308 364
#
# _framework density 20.510739999999998
#
# number of rings (size 3 to 8) (size 9 to 14) (size 15 to 20)
#    0.000    1.857    0.000    5.143    8.000    0.857 
#    0.000    0.000    0.000    4.714    0.000    0.000 
#    0.000    0.000    0.000    0.000    0.000    0.000 
#
# Total GULP energy -156294.312869 kJ/mol
# GULP energy per Si atom -5581.939745 kJ/mol
# Density = 2.046406 g / cm^3
# Si number density = 20.510740 Si / 1000 Ang^3
#
#
#
# Elastic Constant Matrix: (Units=GPa)
#
#
# Indices 1 2 3 4 5 6 
#
# 1 121.3365 51.8810 13.1868 0.0000 -26.9094 0.0000
# 2 51.8810 101.1582 8.7820 0.0000 -7.0915 0.0000
# 3 13.1868 8.7820 77.9289 0.0000 0.1371 0.0000
# 4 0.0000 0.0000 0.0000 7.0573 0.0000 2.1567
# 5 -26.9094 -7.0915 0.1371 0.0000 30.5317 0.0000
# 6 0.0000 0.0000 0.0000 2.1567 0.0000 21.0494
#
#
#
# Elastic Compliance Matrix: (Units=1/GPa)
#
#
# Indices 1 2 3 4 5 6 
#
# 1 0.013231 -0.005926 -0.001589 0.000000 0.010292 0.000000
# 2 -0.005926 0.012805 -0.000436 0.000000 -0.002247 0.000000
# 3 -0.001589 -0.000436 0.013153 0.000000 -0.001561 0.000000
# 4 0.000000 0.000000 0.000000 0.146277 0.000000 -0.014987
# 5 0.010292 -0.002247 -0.001561 0.000000 0.041309 0.000000
# 6 0.000000 0.000000 0.000000 -0.014987 0.000000 0.049043
#
#
# Mechanical properties :
#
#
# Convention : Reuss Voigt Hill
#
# Bulk Modulus (GPa) = 42.94473 49.79144 46.36808
# Shear Modulus (GPa) = 16.69549 26.83260 21.76404
#
# Velocity S-wave (km/s) = 2.85614 3.62086 3.26099
# Velocity P-wave (km/s) = 5.64445 6.46601 6.06915
#
# Compressibility (1/GPa) = 0.02328574
#
# Stress axis : x y z
#
# Youngs Moduli (GPa) = 75.58261 78.09321 76.02810
#
# Poissons Ratio (x) = 0.46279 0.12082
# Poissons Ratio (y) = 0.44791 0.03317
# Poissons Ratio (z) = 0.12011 0.03407
#
# Static dielectric constant tensor:
#      x y z
#    x 1.732150 0.000000 0.032370 
#    y 0.000000 1.741560 0.000000 
#    z 0.032370 0.000000 1.802790 
# 
# From -- ./inp_files/301638.got.cif
#   From: 2010.05.17/outbox.cif.g08.bks.cpg/sg12_151_cif.got.tgz:301638.got - 2010.06.03 13:09:07.
