data_PCOD9171602
_publ_section_title
;
Structure prediction by ZEFSAII (Michael W. Deem and Ramdas Pophale) SiO2 
 PCOD9171602
Probable space group: C 2/M
;
_chemical_formula_sum "Si O2"
_cell_formula_units_Z 64
_cell_length_a 25.281360
_cell_length_b 7.886822
_cell_length_c 18.529654
_cell_angle_alpha 90.000000
_cell_angle_beta 76.791705
_cell_angle_gamma 90.000000
_cell_volume 3596.881949
_symmetry_space_group_name_H-M "C 2/M"
_symmetry_group_IT_number 12
_symmetry_cell_setting 'monoclinic'
loop_
_space_group_symop_operation_xyz
x,y,z
-x,y,-z
-x,-y,-z
x,-y,z
1/2+x,1/2+y,z
1/2-x,1/2+y,-z
1/2-x,1/2-y,-z
1/2+x,1/2-y,z
loop_
_atom_site_type_symbol
_atom_site_label
_atom_site_fract_x
_atom_site_fract_y
_atom_site_fract_z
Si Si1 0.312449 0.796183 0.497689
Si Si2 0.799563 0.196779 0.808658
Si Si3 0.656744 0.801210 0.662664
Si Si4 0.012927 0.205072 0.077554
Si Si5 0.865083 0.792041 0.925168
Si Si6 0.278436 0.801109 0.657027
Si Si7 0.901218 0.701835 0.178093
Si Si8 0.186955 0.198841 0.910247
O O1 0.250000 0.750000 0.500000
O O2 0.345525 0.728288 0.418147
O O3 0.317567 0.740751 0.579439
O O4 0.318688 0.000000 0.494072
O O5 0.839074 0.266381 0.858369
O O6 0.801335 0.279331 0.729648
O O7 0.738556 0.211945 0.858847
O O8 0.812588 0.000000 0.794141
O O9 0.719601 0.786958 0.668607
O O10 0.619916 0.729698 0.738311
O O11 0.643021 0.000000 0.661591
O O12 0.072776 0.261246 0.082605
O O13 0.964060 0.263781 0.143445
O O14 0.012960 0.000000 0.076918
O O15 0.000000 0.262746 0.000000
O O16 0.864032 0.000000 0.926111
O O17 0.829390 0.737747 0.005281
O O18 0.267618 0.000000 0.648220
O O19 0.891220 0.500000 0.178837
O O20 0.864988 0.780956 0.125604
O O21 0.200438 0.000000 0.910907
#
# Coordination Sequence:
#
# PCOD9171602 Si02
#       8
#     8   8   8   8   8   8   8   8
#     4   8  15  27  43  64  91 126 158 189 227 282
#     4  11  21  33  48  70 100 129 161 198 242 289
#     4   9  17  30  46  66  98 129 155 191 241 286
#     4  10  19  36  56  69  89 125 166 205 243 284
#     4   9  20  36  52  69  91 127 167 202 242 288
#     4  10  18  28  45  69  96 126 163 193 229 283
#     4  11  21  31  48  76 102 126 156 196 245 289
#     4  11  20  34  52  70  95 128 166 199 235 284
#
# _framework density 17.793189999999999
#
# number of rings (size 3 to 8) (size 9 to 14) (size 15 to 20)
#    0.000    2.125    2.500    1.875    0.000    1.250 
#    0.000    3.125    0.000    0.000    0.000    0.875 
#    0.000    7.000    0.000    0.000    0.000    0.000 
#
# Total GULP energy -178424.538716 kJ/mol
# GULP energy per Si atom -5575.766835 kJ/mol
# Density = 1.775269 g / cm^3
# Si number density = 17.793190 Si / 1000 Ang^3
#
#
#
# Elastic Constant Matrix: (Units=GPa)
#
#
# Indices 1 2 3 4 5 6 
#
# 1 48.2785 -4.6553 42.7081 0.0000 12.0537 0.0000
# 2 -4.6553 19.2241 -0.2372 0.0000 -1.2891 0.0000
# 3 42.7081 -0.2372 181.4107 0.0000 3.4523 0.0000
# 4 0.0000 0.0000 0.0000 -4.6221 0.0000 -0.4373
# 5 12.0537 -1.2891 3.4523 0.0000 18.8509 0.0000
# 6 0.0000 0.0000 0.0000 -0.4373 0.0000 11.8569
#
#
#
# Elastic Compliance Matrix: (Units=1/GPa)
#
#
# Indices 1 2 3 4 5 6 
#
# 1 0.032541 0.006514 -0.007290 0.000000 -0.019027 0.000000
# 2 0.006514 0.053562 -0.001459 0.000000 -0.000235 0.000000
# 3 -0.007290 -0.001459 0.007165 0.000000 0.003250 0.000000
# 4 0.000000 0.000000 0.000000 -0.215599 0.000000 -0.007952
# 5 -0.019027 -0.000235 0.003250 0.000000 0.064603 0.000000
# 6 0.000000 0.000000 0.000000 -0.007952 0.000000 0.084046
#
#
# Mechanical properties :
#
#
# Convention : Reuss Voigt Hill
#
# Bulk Modulus (GPa) = 11.26160 36.06049 23.66105
# Shear Modulus (GPa) = 82.80082 19.29033 51.04557
#
# Velocity S-wave (km/s) = 6.82907 3.29620 5.36195
# Velocity P-wave (km/s) = 8.27795 5.89890 7.18754
#
# Compressibility (1/GPa) = 0.08879732
#
# Stress axis : x y z
#
# Youngs Moduli (GPa) = 30.73074 18.67003 139.56969
#
# Poissons Ratio (x) = -0.12162 1.01749
# Poissons Ratio (y) = -0.20019 0.20365
# Poissons Ratio (z) = 0.22403 0.02724
#
# Static dielectric constant tensor:
#      x y z
#    x 1.562370 0.000000 0.004130 
#    y 0.000000 1.665740 0.000000 
#    z 0.004130 0.000000 1.663350 
# 
# From -- ./inp_files/287519.got.cif
#   From: 2010.05.17/outbox.cif.g08.bks.cpg/sg12_144_cif.got.tgz:287519.got - 2010.06.03 13:09:07.
