data_PCOD9171195
_publ_section_title
;
Structure prediction by ZEFSAII (Michael W. Deem and Ramdas Pophale) SiO2 
 PCOD9171195
Probable space group: C 2/M
;
_chemical_formula_sum "Si O2"
_cell_formula_units_Z 56
_cell_length_a 31.019778
_cell_length_b 7.324600
_cell_length_c 14.716586
_cell_angle_alpha 90.000000
_cell_angle_beta 47.478553
_cell_angle_gamma 90.000000
_cell_volume 2464.401902
_symmetry_space_group_name_H-M "C 2/M"
_symmetry_group_IT_number 12
_symmetry_cell_setting 'monoclinic'
loop_
_space_group_symop_operation_xyz
x,y,z
-x,y,-z
-x,-y,-z
x,-y,z
1/2+x,1/2+y,z
1/2-x,1/2+y,-z
1/2-x,1/2-y,-z
1/2+x,1/2-y,z
loop_
_atom_site_type_symbol
_atom_site_label
_atom_site_fract_x
_atom_site_fract_y
_atom_site_fract_z
Si Si1 0.683258 0.281532 0.129291
Si Si2 0.269229 0.279361 0.254540
Si Si3 0.357130 0.292189 0.617567
Si Si4 0.365290 0.722053 0.984838
Si Si5 0.582980 0.723530 0.642121
Si Si6 0.184907 0.783901 0.626989
Si Si7 0.980497 0.222422 0.925770
O O1 0.679426 0.500000 0.140836
O O2 0.662934 0.209638 0.257092
O O3 0.638513 0.219395 0.114123
O O4 0.750000 0.250000 0.000000
O O5 0.264290 0.500000 0.265811
O O6 0.204086 0.204739 0.350908
O O7 0.311397 0.217442 0.275558
O O8 0.302802 0.226406 0.116149
O O9 0.375884 0.500000 0.609177
O O10 0.404459 0.213867 0.479082
O O11 0.367793 0.500000 0.981785
O O12 0.417714 0.781759 0.975735
O O13 0.583589 0.500000 0.637128
O O14 0.636680 0.789060 0.628265
O O15 0.526262 0.773665 0.781253
O O16 0.250000 0.750000 0.500000
O O17 0.173772 0.000000 0.647618
O O18 0.979660 0.000000 0.931708
O O19 0.000000 0.281877 0.000000
#
# Coordination Sequence:
#
# PCOD9171195 Si02
#       7
#     8   8   8   8   8   8   8
#     4  10  19  31  48  71  99 129 160 197 242 290
#     4  10  18  28  45  69  95 123 157 197 237 280
#     4  10  19  30  45  68  98 127 153 189 243 294
#     4   9  17  29  45  68  96 123 161 206 238 275
#     4   9  17  29  43  64  97 128 157 196 238 285
#     4  10  18  27  42  66  94 122 153 190 236 287
#     4   9  16  28  47  68  93 129 165 198 240 287
#
# _framework density 22.723566000000002
#
# number of rings (size 3 to 8) (size 9 to 14) (size 15 to 20)
#    0.000    2.429    2.857    0.857    0.000    3.429 
#    0.000    0.714    0.000    4.286    0.000    4.000 
#    0.000    9.143    0.000    0.000    0.000    0.000 
#
# Total GULP energy -156138.811333 kJ/mol
# GULP energy per Si atom -5576.386119 kJ/mol
# Density = 2.267185 g / cm^3
# Si number density = 22.723566 Si / 1000 Ang^3
#
#
#
# Elastic Constant Matrix: (Units=GPa)
#
#
# Indices 1 2 3 4 5 6 
#
# 1 99.1468 -0.6477 49.3952 0.0010 23.5473 -0.0020
# 2 -0.6477 90.4922 -0.7631 0.0011 6.7229 -0.0017
# 3 49.3952 -0.7631 154.5135 0.0001 26.3735 -0.0002
# 4 0.0010 0.0011 0.0001 2.6594 -0.0001 -4.2954
# 5 23.5473 6.7229 26.3735 -0.0001 44.5810 0.0003
# 6 -0.0020 -0.0017 -0.0002 -4.2954 0.0003 1.3171
#
#
#
# Elastic Compliance Matrix: (Units=1/GPa)
#
#
# Indices 1 2 3 4 5 6 
#
# 1 0.012894 0.000431 -0.003277 -0.000007 -0.004937 -0.000001
# 2 0.000431 0.011211 0.000272 -0.000005 -0.002080 0.000000
# 3 -0.003277 0.000272 0.008045 0.000001 -0.003069 0.000000
# 4 -0.000007 -0.000005 0.000001 -0.088119 0.000005 -0.287366
# 5 -0.004937 -0.002080 -0.003069 0.000005 0.027168 0.000001
# 6 -0.000001 0.000000 0.000000 -0.287366 0.000001 -0.177915
#
#
# Mechanical properties :
#
#
# Convention : Reuss Voigt Hill
#
# Bulk Modulus (GPa) = 37.03333 48.90237 42.96785
# Shear Modulus (GPa) = -25.96469 29.45605 1.74568
#
# Velocity S-wave (km/s) = -3.38395 3.60429 0.87743
# Velocity P-wave (km/s) = 1.03176 6.23606 4.46951
#
# Compressibility (1/GPa) = 0.02700270
#
# Stress axis : x y z
#
# Youngs Moduli (GPa) = 77.55486 89.20162 124.30343
#
# Poissons Ratio (x) = -0.03848 0.40737
# Poissons Ratio (y) = -0.03346 -0.03386
# Poissons Ratio (z) = 0.25417 -0.02430
#
# Static dielectric constant tensor:
#      x y z
#    x 1.847160 0.000000 0.066890 
#    y 0.000000 1.967590 0.000000 
#    z 0.066890 0.000000 1.864320 
# 
# From -- ./inp_files/250515.got.cif
#   From: 2010.05.17/outbox.cif.g08.bks.cpg/sg12_126_cif.got.tgz:250515.got - 2010.06.03 13:09:07.
