data_PCOD9171247
_publ_section_title
;
Structure prediction by ZEFSAII (Michael W. Deem and Ramdas Pophale) SiO2 
 PCOD9171247
Probable space group: C 2/M
;
_chemical_formula_sum "Si O2"
_cell_formula_units_Z 36
_cell_length_a 18.857613
_cell_length_b 19.410044
_cell_length_c 5.446150
_cell_angle_alpha 90.000000
_cell_angle_beta 65.173967
_cell_angle_gamma 90.000000
_cell_volume 1809.218455
_symmetry_space_group_name_H-M "C 2/M"
_symmetry_group_IT_number 12
_symmetry_cell_setting 'monoclinic'
loop_
_space_group_symop_operation_xyz
x,y,z
-x,y,-z
-x,-y,-z
x,-y,z
1/2+x,1/2+y,z
1/2-x,1/2+y,-z
1/2-x,1/2-y,-z
1/2+x,1/2-y,z
loop_
_atom_site_type_symbol
_atom_site_label
_atom_site_fract_x
_atom_site_fract_y
_atom_site_fract_z
Si Si1 0.266147 0.376905 0.178128
Si Si2 0.192282 0.100280 0.387610
Si Si3 0.140667 0.742170 0.399911
Si Si4 0.918259 0.216755 0.018473
Si Si5 0.449342 0.500000 0.326935
O O1 0.255061 0.414231 0.452886
O O2 0.203260 0.316173 0.249530
O O3 0.351793 0.341304 0.087147
O O4 0.272049 0.420803 0.924360
O O5 0.182429 0.183099 0.368909
O O6 0.109277 0.064816 0.560153
O O7 0.105400 0.732363 0.723466
O O8 0.082928 0.749523 0.250325
O O9 0.000000 0.187575 0.000000
O O10 0.500000 0.500000 0.500000
O O11 0.500000 0.500000 0.000000
#
# Coordination Sequence:
#
# PCOD9171247 Si02
#       5
#     8   8   8   8   4
#     4  10  19  34  54  73  95 134 179 228 279 315
#     4  10  20  33  51  69  93 134 180 222 253 298
#     4  10  19  33  51  73  98 134 176 225 278 319
#     4  10  18  27  43  71 102 129 160 201 257 329
#     4  12  26  40  50  72 112 156 193 220 249 302
#
# _framework density 19.898094
#
# number of rings (size 3 to 8) (size 9 to 14) (size 15 to 20)
#    0.000    1.778    0.000    8.667    0.000   10.667 
#    0.000    0.000    0.000    0.000    0.000    0.000 
#    0.000    0.000    0.000  195.000    0.000    0.000 
#
# Total GULP energy -100308.686264 kJ/mol
# GULP energy per Si atom -5572.704792 kJ/mol
# Density = 1.985281 g / cm^3
# Si number density = 19.898094 Si / 1000 Ang^3
#
#
#
# Elastic Constant Matrix: (Units=GPa)
#
#
# Indices 1 2 3 4 5 6 
#
# 1 52.2162 16.6723 21.1364 0.0000 25.0130 0.0000
# 2 16.6723 64.4098 31.9060 0.0000 -0.0503 0.0000
# 3 21.1364 31.9060 184.7727 0.0000 46.1358 0.0000
# 4 0.0000 0.0000 0.0000 -7.3300 0.0000 -2.6386
# 5 25.0130 -0.0503 46.1358 0.0000 46.6562 0.0000
# 6 0.0000 0.0000 0.0000 -2.6386 0.0000 20.8210
#
#
#
# Elastic Compliance Matrix: (Units=1/GPa)
#
#
# Indices 1 2 3 4 5 6 
#
# 1 0.030001 -0.009213 0.002891 0.000000 -0.018953 0.000000
# 2 -0.009213 0.020351 -0.004912 0.000000 0.009818 0.000000
# 3 0.002891 -0.004912 0.008389 0.000000 -0.009851 0.000000
# 4 0.000000 0.000000 0.000000 -0.130474 0.000000 -0.016535
# 5 -0.018953 0.009818 -0.009851 0.000000 0.041346 0.000000
# 6 0.000000 0.000000 0.000000 -0.016535 0.000000 0.045933
#
#
# Mechanical properties :
#
#
# Convention : Reuss Voigt Hill
#
# Bulk Modulus (GPa) = 27.56709 48.98091 38.27400
# Shear Modulus (GPa) = 99.79186 27.47506 63.63346
#
# Velocity S-wave (km/s) = 7.08945 3.71993 5.66119
# Velocity P-wave (km/s) = 8.99433 6.56657 7.87457
#
# Compressibility (1/GPa) = 0.03627514
#
# Stress axis : x y z
#
# Youngs Moduli (GPa) = 33.33177 49.13760 119.20208
#
# Poissons Ratio (x) = 0.45270 -0.34465
# Poissons Ratio (y) = 0.30708 0.58549
# Poissons Ratio (z) = -0.09637 0.24135
#
# Static dielectric constant tensor:
#      x y z
#    x 1.726950 0.000000 0.035570 
#    y 0.000000 1.710700 0.000000 
#    z 0.035570 0.000000 1.871580 
# 
# From -- ./inp_files/15045.got.cif
#   From: 2010.05.17/outbox.cif.g08.bks.cpg/sg12_8_cif.got.tgz:15045.got - 2010.06.03 13:09:07.
