data_PCOD9171040
_publ_section_title
;
Structure prediction by ZEFSAII (Michael W. Deem and Ramdas Pophale) SiO2 
 PCOD9171040
Probable space group: C 2/M
;
_chemical_formula_sum "Si O2"
_cell_formula_units_Z 64
_cell_length_a 19.842992
_cell_length_b 7.497147
_cell_length_c 20.623708
_cell_angle_alpha 90.000000
_cell_angle_beta 90.303749
_cell_angle_gamma 90.000000
_cell_volume 3068.059881
_symmetry_space_group_name_H-M "C 2/M"
_symmetry_group_IT_number 12
_symmetry_cell_setting 'monoclinic'
loop_
_space_group_symop_operation_xyz
x,y,z
-x,y,-z
-x,-y,-z
x,-y,z
1/2+x,1/2+y,z
1/2-x,1/2+y,-z
1/2-x,1/2-y,-z
1/2+x,1/2-y,z
loop_
_atom_site_type_symbol
_atom_site_label
_atom_site_fract_x
_atom_site_fract_y
_atom_site_fract_z
Si Si1 0.612638 0.292190 0.097758
Si Si2 0.675210 0.713441 0.971509
Si Si3 0.955830 0.784972 0.776838
Si Si4 0.434900 0.788617 0.322836
Si Si5 0.465484 0.704075 0.562816
Si Si6 0.642216 0.719222 0.340697
Si Si7 0.739721 0.715013 0.845924
Si Si8 0.286263 0.209661 0.303465
O O1 0.594540 0.500000 0.089096
O O2 0.562191 0.216320 0.151601
O O3 0.686907 0.283304 0.131231
O O4 0.623605 0.214906 0.025498
O O5 0.665517 0.500000 0.969477
O O6 0.683095 0.775990 0.897624
O O7 0.750000 0.750000 0.000000
O O8 0.899463 0.725926 0.723899
O O9 0.027212 0.738431 0.745455
O O10 0.951703 0.000000 0.779307
O O11 0.480544 0.703434 0.378704
O O12 0.359205 0.716495 0.321802
O O13 0.434197 0.000000 0.335428
O O14 0.500000 0.788124 0.500000
O O15 0.448170 0.500000 0.544736
O O16 0.398958 0.781356 0.596530
O O17 0.641315 0.500000 0.340577
O O18 0.718755 0.781856 0.336226
O O19 0.742922 0.500000 0.848201
O O20 0.724014 0.772739 0.773540
O O21 0.288413 0.000000 0.319169
#
# Coordination Sequence:
#
# PCOD9171040 Si02
#       8
#     8   8   8   8   8   8   8   8
#     4   9  15  27  46  65  90 127 164 197 242 301
#     4   8  15  25  38  61  92 122 156 198 245 290
#     4   9  16  29  50  70  91 125 165 203 241 287
#     4  10  21  33  49  73 101 128 157 200 242 281
#     4   9  18  35  58  78  97 125 160 194 229 279
#     4   8  14  28  50  72  91 120 162 193 220 273
#     4  10  18  26  41  69  99 124 156 206 250 278
#     4  10  19  33  49  67  96 134 167 192 235 294
#
# _framework density 20.860088999999999
#
# number of rings (size 3 to 8) (size 9 to 14) (size 15 to 20)
#    0.000    2.875    1.250    1.500    0.000    2.250 
#    0.000    0.625    0.000    0.750    0.000    5.250 
#    0.000    0.000    0.000    0.000    0.000    0.000 
#
# Total GULP energy -178322.096116 kJ/mol
# GULP energy per Si atom -5572.565504 kJ/mol
# Density = 2.081261 g / cm^3
# Si number density = 20.860089 Si / 1000 Ang^3
#
#
#
# Elastic Constant Matrix: (Units=GPa)
#
#
# Indices 1 2 3 4 5 6 
#
# 1 125.8804 0.7383 60.1914 0.0000 -39.6258 0.0000
# 2 0.7383 62.7001 -5.3289 0.0000 -7.1540 0.0000
# 3 60.1914 -5.3289 109.7152 0.0000 -56.0641 0.0000
# 4 0.0000 0.0000 0.0000 5.3917 0.0000 -0.6917
# 5 -39.6258 -7.1540 -56.0641 0.0000 36.2738 0.0000
# 6 0.0000 0.0000 0.0000 -0.6917 0.0000 9.4936
#
#
#
# Elastic Compliance Matrix: (Units=1/GPa)
#
#
# Indices 1 2 3 4 5 6 
#
# 1 0.012298 0.001938 0.001939 0.000000 0.016814 0.000000
# 2 0.001938 0.020447 0.014616 0.000000 0.028740 0.000000
# 3 0.001939 0.014616 0.053831 0.000000 0.088200 0.000000
# 4 0.000000 0.000000 0.000000 0.187219 0.000000 0.013640
# 5 0.016814 0.028740 0.088200 0.000000 0.187925 0.000000
# 6 0.000000 0.000000 0.000000 0.013640 0.000000 0.106328
#
#
# Mechanical properties :
#
#
# Convention : Reuss Voigt Hill
#
# Bulk Modulus (GPa) = 8.09305 45.49969 26.79637
# Shear Modulus (GPa) = 8.73744 26.41149 17.57447
#
# Velocity S-wave (km/s) = 2.04883 3.56213 2.90572
# Velocity P-wave (km/s) = 3.07978 6.22716 4.91236
#
# Compressibility (1/GPa) = 0.12356282
#
# Stress axis : x y z
#
# Youngs Moduli (GPa) = 81.31134 48.90575 18.57675
#
# Poissons Ratio (x) = -0.09480 -0.03602
# Poissons Ratio (y) = -0.15762 -0.27151
# Poissons Ratio (z) = -0.15766 -0.71479
#
# Static dielectric constant tensor:
#      x y z
#    x 1.748180 0.000000 -0.055450 
#    y 0.000000 1.601410 0.000000 
#    z -0.055450 0.000000 1.766080 
# 
# From -- ./inp_files/319156.got.cif
#   From: 2010.05.17/outbox.cif.g08.bks.cpg/sg12_160_cif.got.tgz:319156.got - 2010.06.03 13:09:07.
