data_PCOD9171710
_publ_section_title
;
Structure prediction by ZEFSAII (Michael W. Deem and Ramdas Pophale) SiO2 
 PCOD9171710
Probable space group: C 2/M
;
_chemical_formula_sum "Si O2"
_cell_formula_units_Z 56
_cell_length_a 27.239797
_cell_length_b 9.073832
_cell_length_c 13.148435
_cell_angle_alpha 90.000000
_cell_angle_beta 59.457725
_cell_angle_gamma 90.000000
_cell_volume 2798.982228
_symmetry_space_group_name_H-M "C 2/M"
_symmetry_group_IT_number 12
_symmetry_cell_setting 'monoclinic'
loop_
_space_group_symop_operation_xyz
x,y,z
-x,y,-z
-x,-y,-z
x,-y,z
1/2+x,1/2+y,z
1/2-x,1/2+y,-z
1/2-x,1/2-y,-z
1/2+x,1/2-y,z
loop_
_atom_site_type_symbol
_atom_site_label
_atom_site_fract_x
_atom_site_fract_y
_atom_site_fract_z
Si Si1 0.834180 0.177386 0.767422
Si Si2 0.233068 0.328955 0.746801
Si Si3 0.132998 0.828248 0.745856
Si Si4 0.032273 0.325519 0.755501
Si Si5 0.836326 0.328246 0.968377
Si Si6 0.063398 0.828685 0.029980
Si Si7 0.967376 0.171592 0.640449
O O1 0.797523 0.216927 0.706080
O O2 0.811961 0.265483 0.889240
O O3 0.901271 0.210557 0.691128
O O4 0.827019 0.000000 0.789662
O O5 0.232125 0.500000 0.716428
O O6 0.194677 0.237252 0.709348
O O7 0.202905 0.320261 0.890150
O O8 0.094958 0.743433 0.703611
O O9 0.137110 0.000000 0.716349
O O10 0.096021 0.812845 0.889043
O O11 0.035456 0.500000 0.754120
O O12 0.991967 0.267659 0.889750
O O13 0.000117 0.267500 0.689299
O O14 0.852718 0.500000 0.939184
O O15 0.890373 0.225572 0.936583
O O16 0.048193 0.000000 0.057947
O O17 0.000000 0.182739 0.500000
O O18 0.968907 0.000000 0.672532
#
# Coordination Sequence:
#
# PCOD9171710 Si02
#       7
#     8   8   8   8   8   8   8
#     4  10  19  33  54  76 106 145 180 223 275 325
#     4   9  19  33  49  76 112 147 182 218 263 321
#     4  10  21  35  53  78 110 149 186 220 262 321
#     4  12  23  35  55  80 109 143 179 228 279 324
#     4  10  18  28  46  75 110 145 182 220 263 318
#     4  10  19  32  50  75 109 147 186 221 263 322
#     4  10  22  40  61  83 107 140 184 231 279 329
#
# _framework density 20.007273000000001
#
# number of rings (size 3 to 8) (size 9 to 14) (size 15 to 20)
#    0.000    1.857    1.429    3.429    0.000    4.857 
#    0.000    0.000    0.000    0.857    0.000    0.000 
#    0.000    0.000    0.000    0.000    0.000    0.000 
#
# Total GULP energy -156312.098927 kJ/mol
# GULP energy per Si atom -5582.574962 kJ/mol
# Density = 1.996174 g / cm^3
# Si number density = 20.007273 Si / 1000 Ang^3
#
#
#
# Elastic Constant Matrix: (Units=GPa)
#
#
# Indices 1 2 3 4 5 6 
#
# 1 173.5681 84.5368 9.9869 0.0000 -5.4250 0.0000
# 2 84.5368 109.5537 6.1814 0.0000 0.3319 0.0000
# 3 9.9869 6.1814 21.4886 0.0000 -4.6998 0.0000
# 4 0.0000 0.0000 0.0000 9.7565 0.0000 -1.4511
# 5 -5.4250 0.3319 -4.6998 0.0000 11.1410 0.0000
# 6 0.0000 0.0000 0.0000 -1.4511 0.0000 25.2035
#
#
#
# Elastic Compliance Matrix: (Units=1/GPa)
#
#
# Indices 1 2 3 4 5 6 
#
# 1 0.009521 -0.007281 -0.001398 0.000000 0.004264 0.000000
# 2 -0.007281 0.014871 -0.001946 0.000000 -0.004809 0.000000
# 3 -0.001398 -0.001946 0.052449 0.000000 0.021502 0.000000
# 4 0.000000 0.000000 0.000000 0.103382 0.000000 0.005952
# 5 0.004264 -0.004809 0.021502 0.000000 0.101049 0.000000
# 6 0.000000 0.000000 0.000000 0.005952 0.000000 0.040020
#
#
# Mechanical properties :
#
#
# Convention : Reuss Voigt Hill
#
# Bulk Modulus (GPa) = 17.98855 56.22451 37.10653
# Shear Modulus (GPa) = 13.84769 22.81388 18.33079
#
# Velocity S-wave (km/s) = 2.63370 3.38047 3.03017
# Velocity P-wave (km/s) = 4.27305 6.58785 5.55242
#
# Compressibility (1/GPa) = 0.05559093
#
# Stress axis : x y z
#
# Youngs Moduli (GPa) = 105.02551 67.24561 19.06628
#
# Poissons Ratio (x) = 0.48963 0.02666
# Poissons Ratio (y) = 0.76472 0.03710
# Poissons Ratio (z) = 0.14684 0.13083
#
# Static dielectric constant tensor:
#      x y z
#    x 1.758440 0.000000 -0.012920 
#    y 0.000000 1.671010 0.000000 
#    z -0.012920 0.000000 1.703700 
# 
# From -- ./inp_files/243614.got.cif
#   From: 2010.05.17/outbox.cif.g08.bks.cpg/sg12_122_cif.got.tgz:243614.got - 2010.06.03 13:09:07.
