data_PCOD9171714
_publ_section_title
;
Structure prediction by ZEFSAII (Michael W. Deem and Ramdas Pophale) SiO2 
 PCOD9171714
Probable space group: C 2/M
;
_chemical_formula_sum "Si O2"
_cell_formula_units_Z 64
_cell_length_a 24.423992
_cell_length_b 7.915715
_cell_length_c 19.902459
_cell_angle_alpha 90.000000
_cell_angle_beta 59.382177
_cell_angle_gamma 90.000000
_cell_volume 3311.361697
_symmetry_space_group_name_H-M "C 2/M"
_symmetry_group_IT_number 12
_symmetry_cell_setting 'monoclinic'
loop_
_space_group_symop_operation_xyz
x,y,z
-x,y,-z
-x,-y,-z
x,-y,z
1/2+x,1/2+y,z
1/2-x,1/2+y,-z
1/2-x,1/2-y,-z
1/2+x,1/2-y,z
loop_
_atom_site_type_symbol
_atom_site_label
_atom_site_fract_x
_atom_site_fract_y
_atom_site_fract_z
Si Si1 0.188818 0.193595 0.660504
Si Si2 0.321673 0.802296 0.739115
Si Si3 0.827002 0.706724 0.580548
Si Si4 0.948562 0.207776 0.235958
Si Si5 0.555858 0.703677 0.916732
Si Si6 0.550180 0.695771 0.275493
Si Si7 0.689079 0.192397 0.810543
Si Si8 0.535669 0.204180 0.547793
O O1 0.257812 0.267909 0.598093
O O2 0.118896 0.267537 0.689929
O O3 0.190465 0.196775 0.741443
O O4 0.188381 0.000000 0.637127
O O5 0.191428 0.500000 0.257102
O O6 0.334627 0.742050 0.654216
O O7 0.383270 0.776506 0.745706
O O8 0.256730 0.716112 0.803452
O O9 0.825616 0.500000 0.580366
O O10 0.890700 0.758632 0.502412
O O11 0.952493 0.257965 0.155620
O O12 0.009559 0.266651 0.238993
O O13 0.946765 0.000000 0.239195
O O14 0.554490 0.500000 0.918344
O O15 0.626972 0.760079 0.891259
O O16 0.500000 0.765781 0.000000
O O17 0.563105 0.500000 0.253971
O O18 0.503174 0.713592 0.368149
O O19 0.683183 0.000000 0.791325
O O20 0.500000 0.241554 0.500000
O O21 0.533465 0.000000 0.557424
#
# Coordination Sequence:
#
# PCOD9171714 Si02
#       8
#     8   8   8   8   8   8   8   8
#     4   8  14  29  50  67  88 128 172 202 237 291
#     4  10  18  32  50  68  92 129 172 206 239 287
#     4   8  14  26  47  67  83 114 163 215 248 275
#     4   8  16  31  49  71 100 128 158 199 246 295
#     4   9  17  33  58  81  99 129 169 198 227 283
#     4  11  21  31  45  69 100 131 160 202 259 299
#     4  10  18  28  46  77 108 127 151 199 253 288
#     4  10  18  31  46  64  92 126 169 214 252 290
#
# _framework density 19.327397000000001
#
# number of rings (size 3 to 8) (size 9 to 14) (size 15 to 20)
#    0.000    2.750    1.250    3.375    0.000    0.500 
#    0.000    6.250    0.000    0.750    0.000    0.000 
#    0.000    0.000    0.000    0.000    0.000    0.000 
#
# Total GULP energy -178335.877165 kJ/mol
# GULP energy per Si atom -5572.996161 kJ/mol
# Density = 1.928341 g / cm^3
# Si number density = 19.327397 Si / 1000 Ang^3
#
#
#
# Elastic Constant Matrix: (Units=GPa)
#
#
# Indices 1 2 3 4 5 6 
#
# 1 112.3892 4.1733 36.1127 -0.6529 -25.0311 0.5439
# 2 4.1733 28.1190 1.7075 -2.9151 -1.4998 2.4279
# 3 36.1127 1.7075 54.0423 0.2094 -27.5907 -0.1745
# 4 -0.6529 -2.9151 0.2094********** -0.062117500.1032
# 5 -25.0311 -1.4998 -27.5907 -0.0621 31.7703 0.0518
# 6 0.5439 2.4279 -0.174517500.1032 0.0518**********
#
#
#
# Elastic Compliance Matrix: (Units=1/GPa)
#
#
# Indices 1 2 3 4 5 6 
#
# 1 0.011693 -0.001167 -0.005572 0.000000 0.004319 0.000000
# 2 -0.001167 0.035776 0.000076 -0.000003 0.000836 0.000003
# 3 -0.005572 0.000076 0.035905 0.000000 0.026795 0.000000
# 4 0.000000 -0.000003 0.000000 0.042141 0.000000 0.050628
# 5 0.004319 0.000836 0.026795 0.000000 0.058188 0.000000
# 6 0.000000 0.000003 0.000000 0.050628 0.000000 0.060756
#
#
# Mechanical properties :
#
#
# Convention : Reuss Voigt Hill
#
# Bulk Modulus (GPa) = 14.27595 30.94861 22.61228
# Shear Modulus (GPa) = 17.78518 -7096.93519 -3539.57501
#
# Velocity S-wave (km/s) = 3.03678 -60.66241 -42.84102
# Velocity P-wave (km/s) = 4.43829 69.93227 49.34989
#
# Compressibility (1/GPa) = 0.07004790
#
# Stress axis : x y z
#
# Youngs Moduli (GPa) = 85.51953 27.95194 27.85155
#
# Poissons Ratio (x) = 0.03261 0.15519
# Poissons Ratio (y) = 0.09978 -0.00211
# Poissons Ratio (z) = 0.47651 -0.00212
#
# Static dielectric constant tensor:
#      x y z
#    x 1.723190 0.000000 -0.025590 
#    y 0.000000 1.703600 0.000000 
#    z -0.025590 0.000000 1.658360 
# 
# From -- ./inp_files/323678.got.cif
#   From: 2010.05.17/outbox.cif.g08.bks.cpg/sg12_162_cif.got.tgz:323678.got - 2010.06.03 13:09:07.
