data_PCOD9171255
_publ_section_title
;
Structure prediction by ZEFSAII (Michael W. Deem and Ramdas Pophale) SiO2 
 PCOD9171255
Probable space group: C 2/M
;
_chemical_formula_sum "Si O2"
_cell_formula_units_Z 56
_cell_length_a 13.728766
_cell_length_b 30.112604
_cell_length_c 15.615842
_cell_angle_alpha 90.000000
_cell_angle_beta 32.007830
_cell_angle_gamma 90.000000
_cell_volume 3421.762762
_symmetry_space_group_name_H-M "C 2/M"
_symmetry_group_IT_number 12
_symmetry_cell_setting 'monoclinic'
loop_
_space_group_symop_operation_xyz
x,y,z
-x,y,-z
-x,-y,-z
x,-y,z
1/2+x,1/2+y,z
1/2-x,1/2+y,-z
1/2-x,1/2-y,-z
1/2+x,1/2-y,z
loop_
_atom_site_type_symbol
_atom_site_label
_atom_site_fract_x
_atom_site_fract_y
_atom_site_fract_z
Si Si1 0.822694 0.449684 0.569465
Si Si2 0.500769 0.124889 0.339129
Si Si3 0.860782 0.877060 0.183587
Si Si4 0.202625 0.780323 0.348591
Si Si5 0.078672 0.315831 0.138293
Si Si6 0.197472 0.807924 0.631056
Si Si7 0.154733 0.227806 0.189934
O O1 0.764886 0.500000 0.593845
O O2 0.899528 0.421844 0.431175
O O3 0.669389 0.420562 0.733997
O O4 0.000000 0.451907 0.500000
O O5 0.661923 0.129994 0.288433
O O6 0.583732 0.137984 0.185477
O O7 0.348051 0.161397 0.475248
O O8 0.896406 0.835989 0.221470
O O9 0.000000 0.881362 0.000000
O O10 0.371754 0.807987 0.259350
O O11 0.205790 0.734804 0.400023
O O12 0.228968 0.768301 0.229766
O O13 0.000000 0.801477 0.500000
O O14 0.139298 0.276407 0.158537
O O15 0.212254 0.305617 0.960211
O O16 0.047836 0.792280 0.673898
#
# Coordination Sequence:
#
# PCOD9171255 Si02
#       7
#     8   8   8   8   8   8   8
#     4   8  16  30  46  65  89 116 144 178 220 266
#     4  10  18  31  47  64  88 117 152 185 218 264
#     4  10  18  27  44  67  91 119 147 179 218 263
#     4  11  20  30  44  61  86 120 156 190 222 257
#     4  10  20  31  44  63  88 119 152 188 226 263
#     4  10  19  30  45  62  85 119 157 187 216 260
#     4  10  20  31  43  62  90 119 151 191 226 256
#
# _framework density 16.365832999999999
#
# number of rings (size 3 to 8) (size 9 to 14) (size 15 to 20)
#    0.000    2.143    0.000    6.000    0.000    4.857 
#    0.000    0.000    0.000    0.000    0.000    0.000 
#    0.000   16.571    0.000    0.000    0.000    3.714 
#
# Total GULP energy -156117.619400 kJ/mol
# GULP energy per Si atom -5575.629264 kJ/mol
# Density = 1.632858 g / cm^3
# Si number density = 16.365833 Si / 1000 Ang^3
#
#
#
# Elastic Constant Matrix: (Units=GPa)
#
#
# Indices 1 2 3 4 5 6 
#
# 1 66.6639 16.8215 2.9457 0.0000 6.0957 0.0000
# 2 16.8215 60.1697 15.8738 0.0000 1.7840 0.0000
# 3 2.9457 15.8738 61.4839 0.0000 6.8763 0.0000
# 4 0.0000 0.0000 0.0000 15.2078 0.0000 3.4794
# 5 6.0957 1.7840 6.8763 0.0000 19.6317 0.0000
# 6 0.0000 0.0000 0.0000 3.4794 0.0000 12.2753
#
#
#
# Elastic Compliance Matrix: (Units=1/GPa)
#
#
# Indices 1 2 3 4 5 6 
#
# 1 0.016622 -0.004760 0.001001 0.000000 -0.005079 0.000000
# 2 -0.004760 0.019198 -0.004890 0.000000 0.001446 0.000000
# 3 0.001001 -0.004890 0.018176 0.000000 -0.006233 0.000000
# 4 0.000000 0.000000 0.000000 0.070316 0.000000 -0.019931
# 5 -0.005079 0.001446 -0.006233 0.000000 0.054567 0.000000
# 6 0.000000 0.000000 0.000000 -0.019931 0.000000 0.087114
#
#
# Mechanical properties :
#
#
# Convention : Reuss Voigt Hill
#
# Bulk Modulus (GPa) = 27.25075 28.84438 28.04756
# Shear Modulus (GPa) = 16.91909 19.60138 18.26024
#
# Velocity S-wave (km/s) = 3.21877 3.46454 3.34391
# Velocity P-wave (km/s) = 5.52278 5.80233 5.66428
#
# Compressibility (1/GPa) = 0.03669624
#
# Stress axis : x y z
#
# Youngs Moduli (GPa) = 60.16104 52.08954 55.01741
#
# Poissons Ratio (x) = 0.24797 -0.05506
# Poissons Ratio (y) = 0.28639 0.26904
# Poissons Ratio (z) = -0.06020 0.25472
#
# Static dielectric constant tensor:
#      x y z
#    x 1.541400 0.000000 0.020640 
#    y 0.000000 1.542590 0.000000 
#    z 0.020640 0.000000 1.636700 
# 
# From -- ./inp_files/209668.got.cif
#   From: 2010.05.17/outbox.cif.g08.bks.cpg/sg12_105_cif.got.tgz:209668.got - 2010.06.03 13:09:07.
