data_PCOD9171282
_publ_section_title
;
Structure prediction by ZEFSAII (Michael W. Deem and Ramdas Pophale) SiO2 
 PCOD9171282
Probable space group: C 2/M
;
_chemical_formula_sum "Si O2"
_cell_formula_units_Z 64
_cell_length_a 11.381164
_cell_length_b 25.185899
_cell_length_c 8.723137
_cell_angle_alpha 90.000000
_cell_angle_beta 105.271118
_cell_angle_gamma 90.000000
_cell_volume 2412.152431
_symmetry_space_group_name_H-M "C 2/M"
_symmetry_group_IT_number 12
_symmetry_cell_setting 'monoclinic'
loop_
_space_group_symop_operation_xyz
x,y,z
-x,y,-z
-x,-y,-z
x,-y,z
1/2+x,1/2+y,z
1/2-x,1/2+y,-z
1/2-x,1/2-y,-z
1/2+x,1/2-y,z
loop_
_atom_site_type_symbol
_atom_site_label
_atom_site_fract_x
_atom_site_fract_y
_atom_site_fract_z
Si Si1 0.617101 0.057660 0.240293
Si Si2 0.307935 0.305802 0.473010
Si Si3 0.197775 0.648342 0.860395
Si Si4 0.837302 0.059665 0.094935
Si Si5 0.825680 0.402490 0.436270
Si Si6 0.948784 0.936789 0.646353
Si Si7 0.855406 0.323578 0.832969
Si Si8 0.426918 0.708722 0.813177
O O1 0.756849 0.055369 0.223964
O O2 0.610440 0.059943 0.420965
O O3 0.588138 0.117135 0.171455
O O4 0.562542 0.000000 0.172841
O O5 0.250000 0.250000 0.500000
O O6 0.206787 0.349415 0.483006
O O7 0.285093 0.314779 0.281358
O O8 0.424789 0.311510 0.629502
O O9 0.119882 0.618967 0.702153
O O10 0.293674 0.686235 0.810538
O O11 0.267011 0.598870 0.961982
O O12 0.147769 0.680606 0.985213
O O13 0.966916 0.082911 0.186824
O O14 0.846460 0.000000 0.033744
O O15 0.691042 0.426538 0.367437
O O16 0.000000 0.917192 0.500000
O O17 0.968901 0.000000 0.652149
O O18 0.926749 0.272494 0.795919
O O19 0.500000 0.696785 0.000000
#
# Coordination Sequence:
#
# PCOD9171282 Si02
#       8
#     8   8   8   8   8   8   8   8
#     4   9  16  30  50  71  92 127 177 212 242 304
#     4   8  17  33  50  68  92 128 168 207 251 296
#     4  10  21  31  46  71 103 136 168 207 259 309
#     4   9  18  29  41  61  93 133 169 202 243 295
#     4  10  18  27  45  65  90 122 165 209 246 294
#     4  10  18  28  42  61  93 133 169 206 248 288
#     4   9  18  36  54  72 103 142 167 206 264 314
#     4  10  20  34  54  77 102 129 175 225 258 298
#
# _framework density 26.532319000000001
#
# number of rings (size 3 to 8) (size 9 to 14) (size 15 to 20)
#    0.000    2.625    1.250    0.750    3.500    1.000 
#    0.000    1.875    0.000    0.375    0.000    0.000 
#    0.000    1.000    0.000    0.000    0.000    0.000 
#
# Total GULP energy -178228.687038 kJ/mol
# GULP energy per Si atom -5569.646470 kJ/mol
# Density = 2.647193 g / cm^3
# Si number density = 26.532319 Si / 1000 Ang^3
#
#
#
# Elastic Constant Matrix: (Units=GPa)
#
#
# Indices 1 2 3 4 5 6 
#
# 1 52.2343 -4.6128 22.3420 0.0000 9.7525 0.0000
# 2 -4.6128 129.7645 25.7916 0.0000 13.3782 0.0000
# 3 22.3420 25.7916 144.6833 0.0000 9.5892 0.0000
# 4 0.0000 0.0000 0.0000 17.4835 0.0000 6.3599
# 5 9.7525 13.3782 9.5892 0.0000 35.2081 0.0000
# 6 0.0000 0.0000 0.0000 6.3599 0.0000 11.1267
#
#
#
# Elastic Compliance Matrix: (Units=1/GPa)
#
#
# Indices 1 2 3 4 5 6 
#
# 1 0.021865 0.002054 -0.003350 0.000000 -0.005925 0.000000
# 2 0.002054 0.008442 -0.001601 0.000000 -0.003341 0.000000
# 3 -0.003350 -0.001601 0.007752 0.000000 -0.000575 0.000000
# 4 0.000000 0.000000 0.000000 0.072212 0.000000 -0.041276
# 5 -0.005925 -0.003341 -0.000575 0.000000 0.031470 0.000000
# 6 0.000000 0.000000 0.000000 -0.041276 0.000000 0.113467
#
#
# Mechanical properties :
#
#
# Convention : Reuss Voigt Hill
#
# Bulk Modulus (GPa) = 30.99252 45.96930 38.48091
# Shear Modulus (GPa) = 18.39889 31.64107 25.01998
#
# Velocity S-wave (km/s) = 2.63620 3.45708 3.07416
# Velocity P-wave (km/s) = 4.57957 5.77049 5.20918
#
# Compressibility (1/GPa) = 0.03226585
#
# Stress axis : x y z
#
# Youngs Moduli (GPa) = 45.73554 118.45793 128.99244
#
# Poissons Ratio (x) = -0.24329 0.43210
# Poissons Ratio (y) = -0.09393 0.20647
# Poissons Ratio (z) = 0.15321 0.18960
#
# Static dielectric constant tensor:
#      x y z
#    x 2.189290 0.000000 0.028340 
#    y 0.000000 2.103280 0.000000 
#    z 0.028340 0.000000 2.291310 
# 
# From -- ./inp_files/66984.got.cif
#   From: 2010.05.17/outbox.cif.g08.bks.cpg/sg12_34_cif.got.tgz:66984.got - 2010.06.03 13:09:07.
