data_PCOD9171475
_publ_section_title
;
Structure prediction by ZEFSAII (Michael W. Deem and Ramdas Pophale) SiO2 
 PCOD9171475
Probable space group: C 2/M
;
_chemical_formula_sum "Si O2"
_cell_formula_units_Z 56
_cell_length_a 27.938427
_cell_length_b 8.149578
_cell_length_c 17.996741
_cell_angle_alpha 90.000000
_cell_angle_beta 54.915301
_cell_angle_gamma 90.000000
_cell_volume 3353.090007
_symmetry_space_group_name_H-M "C 2/M"
_symmetry_group_IT_number 12
_symmetry_cell_setting 'monoclinic'
loop_
_space_group_symop_operation_xyz
x,y,z
-x,y,-z
-x,-y,-z
x,-y,z
1/2+x,1/2+y,z
1/2-x,1/2+y,-z
1/2-x,1/2-y,-z
1/2+x,1/2-y,z
loop_
_atom_site_type_symbol
_atom_site_label
_atom_site_fract_x
_atom_site_fract_y
_atom_site_fract_z
Si Si1 0.280352 0.305535 0.206972
Si Si2 0.089572 0.310243 0.887052
Si Si3 0.421730 0.699262 0.936497
Si Si4 0.733525 0.695815 0.395856
Si Si5 0.657715 0.699362 0.599967
Si Si6 0.541480 0.691598 0.777262
Si Si7 0.210662 0.803278 0.966699
O O1 0.293456 0.500000 0.194608
O O2 0.340460 0.214258 0.173904
O O3 0.234635 0.269606 0.312699
O O4 0.264896 0.255139 0.136612
O O5 0.074897 0.500000 0.887928
O O6 0.064141 0.207519 0.841703
O O7 0.068825 0.254618 0.986875
O O8 0.422072 0.500000 0.936031
O O9 0.475667 0.759914 0.838255
O O10 0.356954 0.755127 0.970215
O O11 0.731321 0.500000 0.391946
O O12 0.682097 0.750566 0.497683
O O13 0.793859 0.744234 0.383589
O O14 0.657287 0.500000 0.602715
O O15 0.593600 0.761770 0.680104
O O16 0.536703 0.500000 0.761802
O O17 0.208639 0.000000 0.969727
O O18 0.250000 0.750000 0.000000
#
# Coordination Sequence:
#
# PCOD9171475 Si02
#       7
#     8   8   8   8   8   8   8
#     4  10  19  32  48  66  91 124 156 186 228 280
#     4  11  20  28  41  65  93 121 155 192 223 258
#     4   9  19  33  47  64  88 121 155 182 221 279
#     4  10  18  28  43  67  93 121 158 196 227 258
#     4   9  18  29  43  63  92 128 160 189 223 263
#     4  10  18  30  46  62  88 128 160 182 216 267
#     4   9  19  34  51  70  90 112 145 189 235 282
#
# _framework density 16.701013
#
# number of rings (size 3 to 8) (size 9 to 14) (size 15 to 20)
#    0.000    2.286    1.429    3.429    0.000    5.714 
#    0.000    0.000    0.000    0.000    0.000    1.000 
#    0.000    8.000    0.000    0.000    0.000    0.000 
#
# Total GULP energy -156085.306672 kJ/mol
# GULP energy per Si atom -5574.475238 kJ/mol
# Density = 1.666300 g / cm^3
# Si number density = 16.701013 Si / 1000 Ang^3
#
#
#
# Elastic Constant Matrix: (Units=GPa)
#
#
# Indices 1 2 3 4 5 6 
#
# 1 62.4353 0.5522 63.2972 0.0000 0.7206 -0.0003
# 2 0.5522 18.5867 8.9347 0.0001 -2.3427 -0.0003
# 3 63.2972 8.9347 152.8196 0.0001 -18.3427 0.0000
# 4 0.0000 0.0001 0.0001 20.4834 0.0000 2.4116
# 5 0.7206 -2.3427 -18.3427 0.0000 23.8984 0.0000
# 6 -0.0003 -0.0003 0.0000 2.4116 0.0000 16.0116
#
#
#
# Elastic Compliance Matrix: (Units=1/GPa)
#
#
# Indices 1 2 3 4 5 6 
#
# 1 0.030642 0.004533 -0.014335 0.000000 -0.011482 0.000001
# 2 0.004533 0.056257 -0.004980 0.000000 0.001556 0.000001
# 3 -0.014335 -0.004980 0.014061 0.000000 0.010736 0.000000
# 4 0.000000 0.000000 0.000000 0.049701 0.000000 -0.007486
# 5 -0.011482 0.001556 0.010736 0.000000 0.050583 0.000000
# 6 0.000001 0.000001 0.000000 -0.007486 0.000000 0.063582
#
#
# Mechanical properties :
#
#
# Convention : Reuss Voigt Hill
#
# Bulk Modulus (GPa) = 14.00624 42.15665 28.08144
# Shear Modulus (GPa) = 15.71394 22.81584 19.26489
#
# Velocity S-wave (km/s) = 3.07073 3.70014 3.40003
# Velocity P-wave (km/s) = 4.58009 6.59935 5.68017
#
# Compressibility (1/GPa) = 0.07139674
#
# Stress axis : x y z
#
# Youngs Moduli (GPa) = 32.63516 17.77547 71.11898
#
# Poissons Ratio (x) = -0.08058 1.01948
# Poissons Ratio (y) = -0.14795 0.35418
# Poissons Ratio (z) = 0.46782 0.08852
#
# Static dielectric constant tensor:
#      x y z
#    x 1.544980 0.000000 -0.038260 
#    y 0.000000 1.588140 0.000000 
#    z -0.038260 0.000000 1.614580 
# 
# From -- ./inp_files/243648.got.cif
#   From: 2010.05.17/outbox.cif.g08.bks.cpg/sg12_122_cif.got.tgz:243648.got - 2010.06.03 13:09:07.
