data_PCOD9171862
_publ_section_title
;
Structure prediction by ZEFSAII (Michael W. Deem and Ramdas Pophale) SiO2 
 PCOD9171862
Probable space group: C 2/M
;
_chemical_formula_sum "Si O2"
_cell_formula_units_Z 56
_cell_length_a 20.041803
_cell_length_b 20.880300
_cell_length_c 12.919500
_cell_angle_alpha 90.000000
_cell_angle_beta 144.763033
_cell_angle_gamma 90.000000
_cell_volume 3119.352781
_symmetry_space_group_name_H-M "C 2/M"
_symmetry_group_IT_number 12
_symmetry_cell_setting 'monoclinic'
loop_
_space_group_symop_operation_xyz
x,y,z
-x,y,-z
-x,-y,-z
x,-y,z
1/2+x,1/2+y,z
1/2-x,1/2+y,-z
1/2-x,1/2-y,-z
1/2+x,1/2-y,z
loop_
_atom_site_type_symbol
_atom_site_label
_atom_site_fract_x
_atom_site_fract_y
_atom_site_fract_z
Si Si1 0.120059 0.768448 0.698927
Si Si2 0.462449 0.921820 0.838094
Si Si3 0.517926 0.576025 0.900093
Si Si4 0.792747 0.073164 0.501569
Si Si5 0.306858 0.670044 0.992719
Si Si6 0.669427 0.071679 0.950690
Si Si7 0.630729 0.407927 0.634177
O O1 0.231891 0.723007 0.837692
O O2 0.136766 0.831302 0.650272
O O3 0.000000 0.740009 0.500000
O O4 0.122366 0.796304 0.821533
O O5 0.334209 0.897487 0.651323
O O6 0.557801 0.906215 0.873643
O O7 0.458598 0.000000 0.837605
O O8 0.500000 0.900358 0.000000
O O9 0.538254 0.500000 0.896620
O O10 0.398276 0.600583 0.698989
O O11 0.500000 0.577896 0.000000
O O12 0.614669 0.623319 0.977036
O O13 0.832754 0.071787 0.433295
O O14 0.781349 0.000000 0.524831
O O15 0.210503 0.624021 0.922025
O O16 0.649219 0.000000 0.882914
O O17 0.775653 0.067546 0.165996
O O18 0.500000 0.426219 0.500000
#
# Coordination Sequence:
#
# PCOD9171862 Si02
#       7
#     8   8   8   8   8   8   8
#     4   9  19  36  57  78 104 137 176 221 270 310
#     4   9  16  28  45  72 113 145 160 192 256 328
#     4  10  21  37  57  80 107 141 180 222 268 315
#     4  10  18  30  51  78 111 143 168 206 266 325
#     4  10  20  36  59  78 105 140 178 223 269 310
#     4  10  18  29  49  80 112 138 169 211 261 322
#     4  10  18  28  50  81 106 136 168 215 267 321
#
# _framework density 17.952442999999999
#
# number of rings (size 3 to 8) (size 9 to 14) (size 15 to 20)
#    0.000    2.286    1.429    3.429    0.000    2.286 
#    2.571    0.000    9.429    3.000    0.000    0.000 
#    0.000    0.000    0.000    0.000    0.000    0.000 
#
# Total GULP energy -155947.123514 kJ/mol
# GULP energy per Si atom -5569.540125 kJ/mol
# Density = 1.791158 g / cm^3
# Si number density = 17.952443 Si / 1000 Ang^3
#
#
#
# Elastic Constant Matrix: (Units=GPa)
#
#
# Indices 1 2 3 4 5 6 
#
# 1 87.9324 32.4274 34.7014 0.0000 33.0771 0.0000
# 2 32.4274 50.9215 42.7167 0.0000 10.7034 0.0000
# 3 34.7014 42.7167 79.4180 0.0000 26.5976 0.0000
# 4 0.0000 0.0000 0.0000 65.9343 0.0000 -16.3556
# 5 33.0771 10.7034 26.5976 0.0000 29.0865 0.0000
# 6 0.0000 0.0000 0.0000 -16.3556 0.0000 15.7521
#
#
#
# Elastic Compliance Matrix: (Units=1/GPa)
#
#
# Indices 1 2 3 4 5 6 
#
# 1 0.025893 -0.016685 0.007879 0.000000 -0.030510 0.000000
# 2 -0.016685 0.047379 -0.026968 0.000000 0.026200 0.000000
# 3 0.007879 -0.026968 0.033631 0.000000 -0.029789 0.000000
# 4 0.000000 0.000000 0.000000 0.020428 0.000000 0.021211
# 5 -0.030510 0.026200 -0.029789 0.000000 0.086675 0.000000
# 6 0.000000 0.000000 0.000000 0.021211 0.000000 0.085507
#
#
# Mechanical properties :
#
#
# Convention : Reuss Voigt Hill
#
# Bulk Modulus (GPa) = 28.28515 48.66253 38.47384
# Shear Modulus (GPa) = 13.06006 29.38301 21.22154
#
# Velocity S-wave (km/s) = 2.70011 4.05002 3.44189
# Velocity P-wave (km/s) = 5.05080 7.00253 6.10516
#
# Compressibility (1/GPa) = 0.03535424
#
# Stress axis : x y z
#
# Youngs Moduli (GPa) = 38.62020 21.10647 29.73478
#
# Poissons Ratio (x) = 0.35217 -0.23427
# Poissons Ratio (y) = 0.64439 0.80188
# Poissons Ratio (z) = -0.30428 0.56919
#
# Static dielectric constant tensor:
#      x y z
#    x 1.607470 0.000000 0.015430 
#    y 0.000000 1.652240 0.000000 
#    z 0.015430 0.000000 1.640000 
# 
# From -- ./inp_files/160333.got.cif
#   From: 2010.05.17/outbox.cif.g08.bks.cpg/sg12_81_cif.got.tgz:160333.got - 2010.06.03 13:09:07.
