data_PCOD9171129
_publ_section_title
;
Structure prediction by ZEFSAII (Michael W. Deem and Ramdas Pophale) SiO2 
 PCOD9171129
Probable space group: C 2/M
;
_chemical_formula_sum "Si O2"
_cell_formula_units_Z 56
_cell_length_a 23.585707
_cell_length_b 7.635129
_cell_length_c 22.556707
_cell_angle_alpha 90.000000
_cell_angle_beta 49.202535
_cell_angle_gamma 90.000000
_cell_volume 3075.038833
_symmetry_space_group_name_H-M "C 2/M"
_symmetry_group_IT_number 12
_symmetry_cell_setting 'monoclinic'
loop_
_space_group_symop_operation_xyz
x,y,z
-x,y,-z
-x,-y,-z
x,-y,z
1/2+x,1/2+y,z
1/2-x,1/2+y,-z
1/2-x,1/2-y,-z
1/2+x,1/2-y,z
loop_
_atom_site_type_symbol
_atom_site_label
_atom_site_fract_x
_atom_site_fract_y
_atom_site_fract_z
Si Si1 0.758356 0.214410 0.405551
Si Si2 0.156924 0.793307 0.113185
Si Si3 0.876984 0.790703 0.234261
Si Si4 0.916535 0.214778 0.076398
Si Si5 0.817574 0.796087 0.035991
Si Si6 0.509003 0.209355 0.737500
Si Si7 0.626358 0.796836 0.568171
O O1 0.798802 0.269655 0.317293
O O2 0.674508 0.274170 0.479859
O O3 0.813745 0.284632 0.418837
O O4 0.759505 0.000000 0.408035
O O5 0.227824 0.715858 0.099196
O O6 0.076188 0.765978 0.196691
O O7 0.171776 0.000000 0.099511
O O8 0.158431 0.720998 0.044533
O O9 0.896181 0.721859 0.156164
O O10 0.942696 0.757300 0.237183
O O11 0.870984 0.000000 0.233247
O O12 0.858943 0.276438 0.065211
O O13 0.914954 0.000000 0.079564
O O14 0.000000 0.264851 0.000000
O O15 0.839717 0.000000 0.018858
O O16 0.552262 0.280607 0.649504
O O17 0.510542 0.000000 0.732520
O O18 0.610685 0.000000 0.565292
#
# Coordination Sequence:
#
# PCOD9171129 Si02
#       7
#     8   8   8   8   8   8   8
#     4   8  13  22  36  55  80 108 138 170 202 240
#     4  10  19  31  47  64  83 108 140 178 213 246
#     4   9  16  26  42  63  86 114 145 173 203 244
#     4   9  16  27  44  65  88 113 139 166 200 246
#     4   9  18  32  48  64  84 111 140 170 207 249
#     4  10  18  27  41  62  88 115 141 171 210 252
#     4   8  14  23  35  54  81 110 136 166 206 247
#
# _framework density 18.211151000000001
#
# number of rings (size 3 to 8) (size 9 to 14) (size 15 to 20)
#    0.000    3.000    0.000    1.714    0.000    3.429 
#    0.000    0.714    0.000    1.714    0.000    1.000 
#    0.000    8.000    0.000    0.000    0.000    0.000 
#
# Total GULP energy -155875.466371 kJ/mol
# GULP energy per Si atom -5566.980942 kJ/mol
# Density = 1.816970 g / cm^3
# Si number density = 18.211151 Si / 1000 Ang^3
#
#
#
# Elastic Constant Matrix: (Units=GPa)
#
#
# Indices 1 2 3 4 5 6 
#
# 1 67.6221 -0.7294 46.7665 0.0027 -2.4211 -0.0026
# 2 -0.7294 33.9578 5.4577 0.0002 7.0080 -0.0019
# 3 46.7665 5.4577 143.3009 0.0017 -11.3239 0.0010
# 4 0.0027 0.0002 0.0017 9.2771 -0.0004 -4.1967
# 5 -2.4211 7.0080 -11.3239 -0.0004 22.0325 0.0007
# 6 -0.0026 -0.0019 0.0010 -4.1967 0.0007 13.3018
#
#
#
# Elastic Compliance Matrix: (Units=1/GPa)
#
#
# Indices 1 2 3 4 5 6 
#
# 1 0.019230 0.001828 -0.006488 -0.000003 -0.001803 0.000004
# 2 0.001828 0.032295 -0.002733 0.000002 -0.011476 0.000006
# 3 -0.006488 -0.002733 0.009602 -0.000001 0.005092 -0.000003
# 4 -0.000003 0.000002 -0.000001 0.125737 0.000000 0.039669
# 5 -0.001803 -0.011476 0.005092 0.000000 0.051457 -0.000005
# 6 0.000004 0.000006 -0.000003 0.039669 -0.000005 0.087693
#
#
# Mechanical properties :
#
#
# Convention : Reuss Voigt Hill
#
# Bulk Modulus (GPa) = 21.57926 38.65226 30.11576
# Shear Modulus (GPa) = 14.03516 21.81470 17.92493
#
# Velocity S-wave (km/s) = 2.77914 3.46479 3.14073
# Velocity P-wave (km/s) = 4.70886 6.10548 5.45208
#
# Compressibility (1/GPa) = 0.04634080
#
# Stress axis : x y z
#
# Youngs Moduli (GPa) = 52.00164 30.96421 104.14381
#
# Poissons Ratio (x) = -0.05660 0.67567
# Poissons Ratio (y) = -0.09505 0.28467
# Poissons Ratio (z) = 0.33738 0.08464
#
# Static dielectric constant tensor:
#      x y z
#    x 1.590310 0.000000 -0.000350 
#    y 0.000000 1.686810 0.000000 
#    z -0.000350 0.000000 1.701990 
# 
# From -- ./inp_files/345458.got.cif
#   From: 2010.05.17/outbox.cif.g08.bks.cpg/sg12_173_cif.got.tgz:345458.got - 2010.06.03 13:09:07.
