data_PCOD9171350
_publ_section_title
;
Structure prediction by ZEFSAII (Michael W. Deem and Ramdas Pophale) SiO2 
 PCOD9171350
Probable space group: C 2/M
;
_chemical_formula_sum "Si O2"
_cell_formula_units_Z 64
_cell_length_a 34.981583
_cell_length_b 9.094179
_cell_length_c 19.957288
_cell_angle_alpha 90.000000
_cell_angle_beta 42.674951
_cell_angle_gamma 90.000000
_cell_volume 4303.587045
_symmetry_space_group_name_H-M "C 2/M"
_symmetry_group_IT_number 12
_symmetry_cell_setting 'monoclinic'
loop_
_space_group_symop_operation_xyz
x,y,z
-x,y,-z
-x,-y,-z
x,-y,z
1/2+x,1/2+y,z
1/2-x,1/2+y,-z
1/2-x,1/2-y,-z
1/2+x,1/2-y,z
loop_
_atom_site_type_symbol
_atom_site_label
_atom_site_fract_x
_atom_site_fract_y
_atom_site_fract_z
Si Si1 0.217382 0.322665 0.372115
Si Si2 0.961135 0.822647 0.113075
Si Si3 0.668685 0.676285 0.717756
Si Si4 0.379540 0.324415 0.584610
Si Si5 0.467719 0.171078 0.244079
Si Si6 0.168127 0.330153 0.580346
Si Si7 0.443186 0.830808 0.618503
Si Si8 0.490929 0.675717 0.352171
O O1 0.212334 0.500000 0.370582
O O2 0.283295 0.280446 0.291008
O O3 0.178046 0.242752 0.369517
O O4 0.193431 0.284199 0.476793
O O5 0.895724 0.778298 0.184974
O O6 0.981046 0.747453 0.156151
O O7 0.962326 0.000000 0.119883
O O8 0.000000 0.784112 0.000000
O O9 0.669722 0.500000 0.713234
O O10 0.684349 0.736395 0.624092
O O11 0.376381 0.500000 0.594852
O O12 0.397674 0.251896 0.631425
O O13 0.430476 0.291007 0.466091
O O14 0.399622 0.177789 0.337985
O O15 0.491582 0.254854 0.277757
O O16 0.484193 0.000000 0.223137
O O17 0.184209 0.500000 0.571242
O O18 0.500000 0.831812 0.500000
O O19 0.461290 0.745907 0.662087
O O20 0.427612 0.000000 0.651657
O O21 0.496424 0.500000 0.342562
#
# Coordination Sequence:
#
# PCOD9171350 Si02
#       8
#     8   8   8   8   8   8   8   8
#     4  10  18  28  40  57  84 114 146 180 212 253
#     4   9  18  33  49  64  86 113 142 181 228 269
#     4   9  18  29  43  61  80 108 145 180 216 259
#     4  10  19  28  40  59  84 117 152 182 213 251
#     4  10  18  28  44  65  87 112 146 181 217 261
#     4   9  17  27  39  56  82 112 140 176 216 251
#     4   9  17  28  42  58  81 115 150 183 217 250
#     4  10  18  28  42  61  86 114 148 184 214 252
#
# _framework density 14.871316999999999
#
# number of rings (size 3 to 8) (size 9 to 14) (size 15 to 20)
#    0.000    2.500    1.250    1.875    0.000    4.250 
#    0.000    0.000    0.000    0.000    0.000    0.000 
#    0.000    1.000    0.000    2.750    0.000    4.000 
#
# Total GULP energy -178345.821530 kJ/mol
# GULP energy per Si atom -5573.306923 kJ/mol
# Density = 1.483747 g / cm^3
# Si number density = 14.871317 Si / 1000 Ang^3
#
#
#
# Elastic Constant Matrix: (Units=GPa)
#
#
# Indices 1 2 3 4 5 6 
#
# 1 139.6313 59.3227 44.7531 -0.0077 24.3896 0.0034
# 2 59.3227 56.1638 34.0912 -0.0205 14.8585 0.0143
# 3 44.7531 34.0912 62.1299 -0.0141 14.6512 0.0108
# 4 -0.0077 -0.0205 -0.0141 15.2747 0.0102 7.8875
# 5 24.3896 14.8585 14.6512 0.0102 17.1894 -0.0055
# 6 0.0034 0.0143 0.0108 7.8875 -0.0055 26.7888
#
#
#
# Elastic Compliance Matrix: (Units=1/GPa)
#
#
# Indices 1 2 3 4 5 6 
#
# 1 0.014161 -0.011595 -0.001832 -0.000007 -0.008509 0.000006
# 2 -0.011595 0.038843 -0.011168 0.000058 -0.007605 -0.000034
# 3 -0.001832 -0.011168 0.025849 0.000021 -0.009779 -0.000012
# 4 -0.000007 0.000058 0.000021 0.077206 -0.000111 -0.022732
# 5 -0.008509 -0.007605 -0.009779 -0.000111 0.085159 0.000059
# 6 0.000006 -0.000034 -0.000012 -0.022732 0.000059 0.044022
#
#
# Mechanical properties :
#
#
# Convention : Reuss Voigt Hill
#
# Bulk Modulus (GPa) = 33.71105 59.36212 46.53659
# Shear Modulus (GPa) = 14.52150 19.83444 17.17797
#
# Velocity S-wave (km/s) = 3.12825 3.65600 3.40237
# Velocity P-wave (km/s) = 5.98044 7.60432 6.84073
#
# Compressibility (1/GPa) = 0.02966386
#
# Stress axis : x y z
#
# Youngs Moduli (GPa) = 70.61579 25.74474 38.68619
#
# Poissons Ratio (x) = 0.29850 0.07087
# Poissons Ratio (y) = 0.81876 0.43206
# Poissons Ratio (z) = 0.12936 0.28752
#
# Static dielectric constant tensor:
#      x y z
#    x 1.500000 0.000000 -0.010420 
#    y 0.000000 1.498170 0.000000 
#    z -0.010420 0.000000 1.464500 
# 
# From -- ./inp_files/249126.got.cif
#   From: 2010.05.17/outbox.cif.g08.bks.cpg/sg12_125_cif.got.tgz:249126.got - 2010.06.03 13:09:07.
