data_PCOD9171910
_publ_section_title
;
Structure prediction by ZEFSAII (Michael W. Deem and Ramdas Pophale) SiO2 
 PCOD9171910
Probable space group: C 2/M
;
_chemical_formula_sum "Si O2"
_cell_formula_units_Z 40
_cell_length_a 5.247412
_cell_length_b 18.876255
_cell_length_c 19.994229
_cell_angle_alpha 90.000000
_cell_angle_beta 119.911904
_cell_angle_gamma 90.000000
_cell_volume 1716.647552
_symmetry_space_group_name_H-M "C 2/M"
_symmetry_group_IT_number 12
_symmetry_cell_setting 'monoclinic'
loop_
_space_group_symop_operation_xyz
x,y,z
-x,y,-z
-x,-y,-z
x,-y,z
1/2+x,1/2+y,z
1/2-x,1/2+y,-z
1/2-x,1/2-y,-z
1/2+x,1/2-y,z
loop_
_atom_site_type_symbol
_atom_site_label
_atom_site_fract_x
_atom_site_fract_y
_atom_site_fract_z
Si Si1 0.711087 0.158015 0.085060
Si Si2 0.070258 0.336811 0.585571
Si Si3 0.330264 0.000000 0.193139
Si Si4 0.402250 0.160447 0.188134
Si Si5 0.313708 0.319893 0.352947
Si Si6 0.316216 0.000000 0.890290
O O1 0.564283 0.167377 0.138416
O O2 0.056942 0.176668 0.132507
O O3 0.710461 0.073000 0.073806
O O4 0.500000 0.189847 0.000000
O O5 0.407062 0.357125 0.644027
O O6 0.054499 0.251832 0.597267
O O7 0.000000 0.352846 0.500000
O O8 0.836702 0.364759 0.608148
O O9 0.443621 0.079385 0.220482
O O10 0.399230 0.000000 0.120531
O O11 0.008524 0.000000 0.185640
O O12 0.568374 0.203039 0.267383
#
# Coordination Sequence:
#
# PCOD9171910 Si02
#       6
#     8   8   4   8   8   4
#     4  10  18  29  43  63  91 125 163 203 231 261
#     4  10  19  33  53  79  96 110 140 186 239 286
#     4   8  16  28  41  62  95 122 154 190 216 270
#     4  10  19  30  45  69  94 126 160 187 230 272
#     4  10  18  30  49  74 100 120 141 182 236 283
#     4   8  15  26  42  60  84 118 157 200 243 262
#
# _framework density 23.301231999999999
#
# number of rings (size 3 to 8) (size 9 to 14) (size 15 to 20)
#    0.000    2.400    0.000    5.100    0.000    0.000 
#    0.000    6.000    0.000    0.000    0.000   63.700 
#    0.000    0.000    0.000    0.000    0.000    0.000 
#
# Total GULP energy -111404.556167 kJ/mol
# GULP energy per Si atom -5570.227808 kJ/mol
# Density = 2.324820 g / cm^3
# Si number density = 23.301232 Si / 1000 Ang^3
#
#
#
# Elastic Constant Matrix: (Units=GPa)
#
#
# Indices 1 2 3 4 5 6 
#
# 1 149.5139 -5.8766 5.0803 0.0000 14.1203 0.0000
# 2 -5.8766 66.9018 -3.3931 0.0000 7.5243 0.0000
# 3 5.0803 -3.3931 87.9967 0.0000 11.2191 0.0000
# 4 0.0000 0.0000 0.0000 6.4524 0.0000 -1.9577
# 5 14.1203 7.5243 11.2191 0.0000 24.3268 0.0000
# 6 0.0000 0.0000 0.0000 -1.9577 0.0000 -6.7859
#
#
#
# Elastic Compliance Matrix: (Units=1/GPa)
#
#
# Indices 1 2 3 4 5 6 
#
# 1 0.007163 0.001160 0.000220 0.000000 -0.004618 0.000000
# 2 0.001160 0.015811 0.001330 0.000000 -0.006177 0.000000
# 3 0.000220 0.001330 0.012188 0.000000 -0.006160 0.000000
# 4 0.000000 0.000000 0.000000 0.142506 0.000000 -0.041113
# 5 -0.004618 -0.006177 -0.006160 0.000000 0.048539 0.000000
# 6 0.000000 0.000000 0.000000 -0.041113 0.000000 -0.135503
#
#
# Mechanical properties :
#
#
# Convention : Reuss Voigt Hill
#
# Bulk Modulus (GPa) = 24.64180 32.89264 28.76722
# Shear Modulus (GPa) = 50.60145 25.37211 37.98678
#
# Velocity S-wave (km/s) = 4.66512 3.30339 4.04201
# Velocity P-wave (km/s) = 6.29413 5.35694 5.84435
#
# Compressibility (1/GPa) = 0.04058145
#
# Stress axis : x y z
#
# Youngs Moduli (GPa) = 139.61538 63.24583 82.04781
#
# Poissons Ratio (x) = -0.07334 -0.01804
# Poissons Ratio (y) = -0.16190 -0.10914
# Poissons Ratio (z) = -0.03070 -0.08413
#
# Static dielectric constant tensor:
#      x y z
#    x 1.974680 0.000000 0.030690 
#    y 0.000000 1.983290 0.000000 
#    z 0.030690 0.000000 1.873640 
# 
# From -- ./inp_files/116180.got.cif
#   From: 2010.05.17/outbox.cif.g08.bks.cpg/sg12_59_cif.got.tgz:116180.got - 2010.06.03 13:09:07.
