data_PCOD9171402
_publ_section_title
;
Structure prediction by ZEFSAII (Michael W. Deem and Ramdas Pophale) SiO2 
 PCOD9171402
Probable space group: C 2/M
;
_chemical_formula_sum "Si O2"
_cell_formula_units_Z 56
_cell_length_a 28.090878
_cell_length_b 7.851168
_cell_length_c 22.654096
_cell_angle_alpha 90.000000
_cell_angle_beta 139.372968
_cell_angle_gamma 90.000000
_cell_volume 3253.236265
_symmetry_space_group_name_H-M "C 2/M"
_symmetry_group_IT_number 12
_symmetry_cell_setting 'monoclinic'
loop_
_space_group_symop_operation_xyz
x,y,z
-x,y,-z
-x,-y,-z
x,-y,z
1/2+x,1/2+y,z
1/2-x,1/2+y,-z
1/2-x,1/2-y,-z
1/2+x,1/2-y,z
loop_
_atom_site_type_symbol
_atom_site_label
_atom_site_fract_x
_atom_site_fract_y
_atom_site_fract_z
Si Si1 0.255952 0.204924 0.100603
Si Si2 0.362916 0.298327 0.443611
Si Si3 0.132477 0.793571 0.897331
Si Si4 0.482460 0.800945 0.378505
Si Si5 0.328418 0.205571 0.285949
Si Si6 0.675387 0.294769 0.461903
Si Si7 0.479853 0.302824 0.716344
O O1 0.323532 0.247113 0.120821
O O2 0.273702 0.266354 0.183137
O O3 0.250978 0.000000 0.098302
O O4 0.183022 0.268030 0.998955
O O5 0.373961 0.500000 0.458511
O O6 0.443477 0.216667 0.514322
O O7 0.316692 0.261935 0.341787
O O8 0.328812 0.237224 0.473617
O O9 0.049479 0.727688 0.816126
O O10 0.129814 0.000000 0.896937
O O11 0.409790 0.738516 0.342388
O O12 0.497275 0.705332 0.331119
O O13 0.471557 0.000000 0.353731
O O14 0.327720 0.000000 0.285132
O O15 0.669814 0.500000 0.457534
O O16 0.750000 0.250000 0.500000
O O17 0.601891 0.227922 0.360167
O O18 0.473882 0.500000 0.729048
#
# Coordination Sequence:
#
# PCOD9171402 Si02
#       7
#     8   8   8   8   8   8   8
#     4   9  17  28  41  62  92 123 155 187 212 246
#     4  10  21  33  45  63  87 114 148 185 219 266
#     4   9  16  27  44  63  88 123 155 183 218 253
#     4  10  18  28  42  62  90 122 152 182 214 253
#     4  10  19  29  41  62  92 123 153 182 213 251
#     4   9  19  34  49  67  88 108 139 184 229 273
#     4   9  17  29  45  67  92 118 150 184 220 264
#
# _framework density 17.213628
#
# number of rings (size 3 to 8) (size 9 to 14) (size 15 to 20)
#    0.000    2.571    1.429    2.143    0.000    6.286 
#    0.000    0.000    0.000    0.000    0.000    1.000 
#    0.000    8.000    0.000    0.000    0.000    0.000 
#
# Total GULP energy -156029.051048 kJ/mol
# GULP energy per Si atom -5572.466109 kJ/mol
# Density = 1.717445 g / cm^3
# Si number density = 17.213628 Si / 1000 Ang^3
#
#
#
# Elastic Constant Matrix: (Units=GPa)
#
#
# Indices 1 2 3 4 5 6 
#
# 1 74.8968 2.4504 66.2195 0.0000 12.4304 0.0000
# 2 2.4504 22.5323 4.6038 -0.0001 0.4096 0.0001
# 3 66.2195 4.6038 158.5663 0.0000 5.1964 0.0000
# 4 0.0000 -0.0001 0.0000 13.5722 0.0000 -3.1654
# 5 12.4304 0.4096 5.1964 0.0000 21.8909 0.0000
# 6 0.0000 0.0001 0.0000 -3.1654 0.0000 16.9126
#
#
#
# Elastic Compliance Matrix: (Units=1/GPa)
#
#
# Indices 1 2 3 4 5 6 
#
# 1 0.023591 -0.000427 -0.009475 0.000000 -0.011139 0.000000
# 2 -0.000427 0.044660 -0.001107 0.000000 -0.000330 0.000000
# 3 -0.009475 -0.001107 0.010198 0.000000 0.002980 0.000000
# 4 0.000000 0.000000 0.000000 0.077043 0.000000 0.014420
# 5 -0.011139 -0.000330 0.002980 0.000000 0.051305 0.000000
# 6 0.000000 0.000000 0.000000 0.014420 0.000000 0.061826
#
#
# Mechanical properties :
#
#
# Convention : Reuss Voigt Hill
#
# Bulk Modulus (GPa) = 17.72104 44.72698 31.22401
# Shear Modulus (GPa) = 16.15763 22.65659 19.40711
#
# Velocity S-wave (km/s) = 3.06707 3.63188 3.36136
# Velocity P-wave (km/s) = 4.78118 6.60510 5.76572
#
# Compressibility (1/GPa) = 0.05643011
#
# Stress axis : x y z
#
# Youngs Moduli (GPa) = 42.38853 22.39162 98.06097
#
# Poissons Ratio (x) = 0.00957 0.92909
# Poissons Ratio (y) = 0.01811 0.10860
# Poissons Ratio (z) = 0.40161 0.02480
#
# Static dielectric constant tensor:
#      x y z
#    x 1.549210 0.000000 0.005020 
#    y 0.000000 1.657850 0.000000 
#    z 0.005020 0.000000 1.649390 
# 
# From -- ./inp_files/291481.got.cif
#   From: 2010.05.17/outbox.cif.g08.bks.cpg/sg12_146_cif.got.tgz:291481.got - 2010.06.03 13:09:07.
