data_PCOD9171421
_publ_section_title
;
Structure prediction by ZEFSAII (Michael W. Deem and Ramdas Pophale) SiO2 
 PCOD9171421
Probable space group: C 2/M
;
_chemical_formula_sum "Si O2"
_cell_formula_units_Z 56
_cell_length_a 20.130349
_cell_length_b 7.944730
_cell_length_c 18.697063
_cell_angle_alpha 90.000000
_cell_angle_beta 80.993674
_cell_angle_gamma 90.000000
_cell_volume 2953.358499
_symmetry_space_group_name_H-M "C 2/M"
_symmetry_group_IT_number 12
_symmetry_cell_setting 'monoclinic'
loop_
_space_group_symop_operation_xyz
x,y,z
-x,y,-z
-x,-y,-z
x,-y,z
1/2+x,1/2+y,z
1/2-x,1/2+y,-z
1/2-x,1/2-y,-z
1/2+x,1/2-y,z
loop_
_atom_site_type_symbol
_atom_site_label
_atom_site_fract_x
_atom_site_fract_y
_atom_site_fract_z
Si Si1 0.526111 0.303766 0.600881
Si Si2 0.766947 0.200596 0.916794
Si Si3 0.957335 0.205903 0.238444
Si Si4 0.187786 0.703892 0.314206
Si Si5 0.684105 0.702183 0.794349
Si Si6 0.105040 0.202500 0.189348
Si Si7 0.105518 0.694821 0.457762
O O1 0.506307 0.500000 0.607052
O O2 0.543986 0.248048 0.677502
O O3 0.587078 0.285039 0.534627
O O4 0.462599 0.207055 0.578451
O O5 0.711783 0.257680 0.868276
O O6 0.839130 0.267012 0.875899
O O7 0.769834 0.000000 0.912863
O O8 0.750000 0.250000 0.000000
O O9 0.890290 0.266043 0.210356
O O10 0.028791 0.264423 0.195023
O O11 0.957239 0.000000 0.235676
O O12 0.188459 0.500000 0.316673
O O13 0.259557 0.763545 0.271820
O O14 0.133619 0.755366 0.263144
O O15 0.163762 0.763589 0.396069
O O16 0.682601 0.500000 0.787932
O O17 0.102967 0.000000 0.183881
O O18 0.118923 0.500000 0.471717
#
# Coordination Sequence:
#
# PCOD9171421 Si02
#       7
#     8   8   8   8   8   8   8
#     4  10  18  28  45  68  93 126 166 208 247 282
#     4  10  20  35  56  79 102 127 158 195 236 285
#     4   9  17  31  51  74  98 126 163 205 245 285
#     4   9  17  29  47  70  95 128 165 202 245 290
#     4   9  18  34  54  74  99 129 161 198 242 291
#     4   9  17  31  52  75  96 124 164 203 235 278
#     4  10  18  28  42  66  97 128 164 205 248 289
#
# _framework density 18.961462999999998
#
# number of rings (size 3 to 8) (size 9 to 14) (size 15 to 20)
#    0.000    2.571    1.429    2.143    0.000    1.143 
#    0.000    3.571    0.000    4.286    0.000    0.000 
#    0.000    0.000    0.000    0.000    0.000    0.000 
#
# Total GULP energy -156115.333240 kJ/mol
# GULP energy per Si atom -5575.547616 kJ/mol
# Density = 1.891831 g / cm^3
# Si number density = 18.961463 Si / 1000 Ang^3
#
#
#
# Elastic Constant Matrix: (Units=GPa)
#
#
# Indices 1 2 3 4 5 6 
#
# 1 149.8451 5.7356 68.9000 0.0000 -7.6196 0.0000
# 2 5.7356 17.3881 -1.7899 0.0000 -0.4378 0.0000
# 3 68.9000 -1.7899 123.2855 0.0000 -16.7527 0.0000
# 4 0.0000 0.0000 0.0000 14.4033 0.0000 2.8956
# 5 -7.6196 -0.4378 -16.7527 0.0000 17.9045 0.0000
# 6 0.0000 0.0000 0.0000 2.8956 0.0000 13.4305
#
#
#
# Elastic Compliance Matrix: (Units=1/GPa)
#
#
# Indices 1 2 3 4 5 6 
#
# 1 0.009219 -0.003623 -0.005366 0.000000 -0.001186 0.000000
# 2 -0.003623 0.059119 0.003288 0.000000 0.002980 0.000000
# 3 -0.005366 0.003288 0.012440 0.000000 0.009437 0.000000
# 4 0.000000 0.000000 0.000000 0.072574 0.000000 -0.015647
# 5 -0.001186 0.002980 0.009437 0.000000 0.064249 0.000000
# 6 0.000000 0.000000 0.000000 -0.015647 0.000000 0.077831
#
#
# Mechanical properties :
#
#
# Convention : Reuss Voigt Hill
#
# Bulk Modulus (GPa) = 14.41412 48.46778 31.44095
# Shear Modulus (GPa) = 15.15329 23.65920 19.40624
#
# Velocity S-wave (km/s) = 2.83001 3.53618 3.20262
# Velocity P-wave (km/s) = 4.27749 6.50304 5.50393
#
# Compressibility (1/GPa) = 0.06937643
#
# Stress axis : x y z
#
# Youngs Moduli (GPa) = 108.46775 16.91496 80.38429
#
# Poissons Ratio (x) = 0.06129 0.43135
# Poissons Ratio (y) = 0.39301 -0.26432
# Poissons Ratio (z) = 0.58205 -0.05562
#
# Static dielectric constant tensor:
#      x y z
#    x 1.674980 0.000000 -0.060930 
#    y 0.000000 1.686210 0.000000 
#    z -0.060930 0.000000 1.495050 
# 
# From -- ./inp_files/280168.got.cif
#   From: 2010.05.17/outbox.cif.g08.bks.cpg/sg12_141_cif.got.tgz:280168.got - 2010.06.03 13:09:07.
