data_PCOD9171263
_publ_section_title
;
Structure prediction by ZEFSAII (Michael W. Deem and Ramdas Pophale) SiO2 
 PCOD9171263
Probable space group: C 2/M
;
_chemical_formula_sum "Si O2"
_cell_formula_units_Z 40
_cell_length_a 11.138330
_cell_length_b 22.140586
_cell_length_c 7.859056
_cell_angle_alpha 90.000000
_cell_angle_beta 77.328029
_cell_angle_gamma 90.000000
_cell_volume 1890.906490
_symmetry_space_group_name_H-M "C 2/M"
_symmetry_group_IT_number 12
_symmetry_cell_setting 'monoclinic'
loop_
_space_group_symop_operation_xyz
x,y,z
-x,y,-z
-x,-y,-z
x,-y,z
1/2+x,1/2+y,z
1/2-x,1/2+y,-z
1/2-x,1/2-y,-z
1/2+x,1/2-y,z
loop_
_atom_site_type_symbol
_atom_site_label
_atom_site_fract_x
_atom_site_fract_y
_atom_site_fract_z
Si Si1 0.314937 0.692036 0.890483
Si Si2 0.565003 0.300443 0.640581
Si Si3 0.798601 0.568703 0.976314
Si Si4 0.308025 0.824571 0.446905
Si Si5 0.049164 0.433266 0.714897
O O1 0.461137 0.702482 0.816081
O O2 0.288420 0.627431 0.988110
O O3 0.254832 0.684995 0.720376
O O4 0.250000 0.750000 0.000000
O O5 0.500000 0.332342 0.500000
O O6 0.607595 0.234214 0.565021
O O7 0.699451 0.329398 0.619519
O O8 0.746417 0.500000 0.972683
O O9 0.873658 0.568498 0.131927
O O10 0.907369 0.577218 0.805888
O O11 0.390574 0.882840 0.417383
O O12 0.065794 0.500000 0.640196
#
# Coordination Sequence:
#
# PCOD9171263 Si02
#       5
#     8   8   8   8   8
#     4  10  18  27  44  69  88 109 146 179 210 257
#     4   9  18  30  43  61  86 116 144 173 214 255
#     4   8  14  24  38  60  89 112 135 174 215 249
#     4   9  17  30  44  61  89 115 138 178 218 248
#     4   8  13  23  41  61  81 110 142 171 210 252
#
# _framework density 21.153873999999998
#
# number of rings (size 3 to 8) (size 9 to 14) (size 15 to 20)
#    0.000    3.200    0.000    2.400    0.000    2.400 
#    0.000    1.000    0.000    6.600    0.000   14.000 
#    0.000    0.000    0.000    0.000    0.000    0.000 
#
# Total GULP energy -111458.971581 kJ/mol
# GULP energy per Si atom -5572.948579 kJ/mol
# Density = 2.110573 g / cm^3
# Si number density = 21.153874 Si / 1000 Ang^3
#
#
#
# Elastic Constant Matrix: (Units=GPa)
#
#
# Indices 1 2 3 4 5 6 
#
# 1 73.5962 46.8825 53.2204 0.0000 -28.4941 0.0000
# 2 46.8825 149.0739 69.3215 0.0000 -56.6681 0.0000
# 3 53.2204 69.3215 94.5834 0.0000 -28.9396 0.0000
# 4 0.0000 0.0000 0.0000 32.5543 0.0000 -12.4432
# 5 -28.4941 -56.6681 -28.9396 0.0000 55.8708 0.0000
# 6 0.0000 0.0000 0.0000 -12.4432 0.0000 11.3175
#
#
#
# Elastic Compliance Matrix: (Units=1/GPa)
#
#
# Indices 1 2 3 4 5 6 
#
# 1 0.024719 0.000460 -0.012176 0.000000 0.006767 0.000000
# 2 0.000460 0.013989 -0.007247 0.000000 0.010670 0.000000
# 3 -0.012176 -0.007247 0.022087 0.000000 -0.002120 0.000000
# 4 0.000000 0.000000 0.000000 0.052985 0.000000 0.058255
# 5 0.006767 0.010670 -0.002120 0.000000 0.031073 0.000000
# 6 0.000000 0.000000 0.000000 0.058255 0.000000 0.152408
#
#
# Mechanical properties :
#
#
# Convention : Reuss Voigt Hill
#
# Bulk Modulus (GPa) = 43.72644 72.90024 58.31334
# Shear Modulus (GPa) = 14.58526 29.80380 22.19453
#
# Velocity S-wave (km/s) = 2.62865 3.75761 3.24264
# Velocity P-wave (km/s) = 5.47070 7.30499 6.45335
#
# Compressibility (1/GPa) = 0.02286946
#
# Stress axis : x y z
#
# Youngs Moduli (GPa) = 40.45413 71.48239 45.27559
#
# Poissons Ratio (x) = -0.03291 0.55128
# Poissons Ratio (y) = -0.01862 0.32813
# Poissons Ratio (z) = 0.49257 0.51807
#
# Static dielectric constant tensor:
#      x y z
#    x 1.840800 0.000000 0.047460 
#    y 0.000000 1.761280 0.000000 
#    z 0.047460 0.000000 1.815630 
# 
# From -- ./inp_files/48906.got.cif
#   From: 2010.05.17/outbox.cif.g08.bks.cpg/sg12_25_cif.got.tgz:48906.got - 2010.06.03 13:09:07.
