data_PCOD9171881
_publ_section_title
;
Structure prediction by ZEFSAII (Michael W. Deem and Ramdas Pophale) SiO2 
 PCOD9171881
Probable space group: C 2/M
;
_chemical_formula_sum "Si O2"
_cell_formula_units_Z 52
_cell_length_a 18.946011
_cell_length_b 19.135825
_cell_length_c 14.384862
_cell_angle_alpha 90.000000
_cell_angle_beta 144.284743
_cell_angle_gamma 90.000000
_cell_volume 3044.409732
_symmetry_space_group_name_H-M "C 2/M"
_symmetry_group_IT_number 12
_symmetry_cell_setting 'monoclinic'
loop_
_space_group_symop_operation_xyz
x,y,z
-x,y,-z
-x,-y,-z
x,-y,z
1/2+x,1/2+y,z
1/2-x,1/2+y,-z
1/2-x,1/2-y,-z
1/2+x,1/2-y,z
loop_
_atom_site_type_symbol
_atom_site_label
_atom_site_fract_x
_atom_site_fract_y
_atom_site_fract_z
Si Si1 0.996605 0.500000 0.885499
Si Si2 0.864280 0.359879 0.395022
Si Si3 0.425658 0.151436 0.823719
Si Si4 0.554872 0.000000 0.453994
Si Si5 0.551975 0.250061 0.806903
Si Si6 0.677574 0.000000 0.929178
Si Si7 0.693674 0.730045 0.539931
Si Si8 0.741722 0.144657 0.916312
O O1 0.129356 0.500000 0.982463
O O2 0.935064 0.573100 0.793014
O O3 0.000000 0.500000 0.000000
O O4 0.872646 0.427890 0.469780
O O5 0.813333 0.295856 0.398882
O O6 0.783251 0.372842 0.217725
O O7 0.000000 0.346073 0.500000
O O8 0.490312 0.205354 0.822982
O O9 0.285746 0.174069 0.681922
O O10 0.500000 0.153628 0.000000
O O11 0.500000 0.000000 0.500000
O O12 0.445526 0.000000 0.264851
O O13 0.446512 0.285246 0.632613
O O14 0.631211 0.193888 0.833663
O O15 0.640327 0.308862 0.941315
O O16 0.743235 0.071912 0.973743
O O17 0.750000 0.750000 0.500000
#
# Coordination Sequence:
#
# PCOD9171881 Si02
#       8
#     4   8   8   4   8   4   8   8
#     4  10  22  36  55  79 103 140 195 230 273 317
#     4  11  18  33  52  85 112 138 177 234 274 322
#     4  10  20  37  56  77 104 141 183 229 271 318
#     4  10  18  28  54  83 113 129 186 220 282 317
#     4  10  20  34  50  83 105 146 178 218 270 327
#     4  12  18  34  55  82 111 144 174 240 275 328
#     4  10  21  35  53  77 113 143 181 220 269 330
#     4  11  20  31  56  79 114 138 181 221 278 329
#
# _framework density 17.080486000000001
#
# number of rings (size 3 to 8) (size 9 to 14) (size 15 to 20)
#    0.000    1.538    6.154    0.923    2.154    0.000 
#    0.000    0.769    0.000    2.769    0.000   12.385 
#    0.000    0.000    0.000    0.000    0.000    0.000 
#
# Total GULP energy -144922.539332 kJ/mol
# GULP energy per Si atom -5573.943820 kJ/mol
# Density = 1.704161 g / cm^3
# Si number density = 17.080486 Si / 1000 Ang^3
#
#
#
# Elastic Constant Matrix: (Units=GPa)
#
#
# Indices 1 2 3 4 5 6 
#
# 1 55.1160 32.4442 13.1693 0.0000 0.7397 0.0000
# 2 32.4442 130.3534 38.0475 0.0000 19.0478 0.0000
# 3 13.1693 38.0475 81.5473 0.0000 13.2260 0.0000
# 4 0.0000 0.0000 0.0000 4.3568 0.0000 2.7729
# 5 0.7397 19.0478 13.2260 0.0000 25.4895 0.0000
# 6 0.0000 0.0000 0.0000 2.7729 0.0000 31.6690
#
#
#
# Elastic Compliance Matrix: (Units=1/GPa)
#
#
# Indices 1 2 3 4 5 6 
#
# 1 0.021758 -0.005583 -0.001619 0.000000 0.004381 0.000000
# 2 -0.005583 0.010911 -0.003159 0.000000 -0.006353 0.000000
# 3 -0.001619 -0.003159 0.014858 0.000000 -0.005302 0.000000
# 4 0.000000 0.000000 0.000000 0.243073 0.000000 -0.021283
# 5 0.004381 -0.006353 -0.005302 0.000000 0.046603 0.000000
# 6 0.000000 0.000000 0.000000 -0.021283 0.000000 0.033440
#
#
# Mechanical properties :
#
#
# Convention : Reuss Voigt Hill
#
# Bulk Modulus (GPa) = 37.30671 48.25986 42.78329
# Shear Modulus (GPa) = 12.49057 24.52677 18.50867
#
# Velocity S-wave (km/s) = 2.70715 3.79351 3.29540
# Velocity P-wave (km/s) = 5.62678 6.89227 6.29142
#
# Compressibility (1/GPa) = 0.02680483
#
# Stress axis : x y z
#
# Youngs Moduli (GPa) = 45.95980 91.64780 67.30317
#
# Poissons Ratio (x) = 0.51167 0.10900
# Poissons Ratio (y) = 0.25659 0.21261
# Poissons Ratio (z) = 0.07443 0.28951
#
# Static dielectric constant tensor:
#      x y z
#    x 1.589650 0.000000 -0.015940 
#    y 0.000000 1.589970 0.000000 
#    z -0.015940 0.000000 1.597230 
# 
# From -- ./inp_files/234461.got.cif
#   From: 2010.05.17/outbox.cif.g08.bks.cpg/sg12_118_cif.got.tgz:234461.got - 2010.06.03 13:09:07.
