data_PCOD9171430
_publ_section_title
;
Structure prediction by ZEFSAII (Michael W. Deem and Ramdas Pophale) SiO2 
 PCOD9171430
Probable space group: C 2/M
;
_chemical_formula_sum "Si O2"
_cell_formula_units_Z 48
_cell_length_a 29.285839
_cell_length_b 7.455065
_cell_length_c 20.781608
_cell_angle_alpha 90.000000
_cell_angle_beta 33.690622
_cell_angle_gamma 90.000000
_cell_volume 2516.824177
_symmetry_space_group_name_H-M "C 2/M"
_symmetry_group_IT_number 12
_symmetry_cell_setting 'monoclinic'
loop_
_space_group_symop_operation_xyz
x,y,z
-x,y,-z
-x,-y,-z
x,-y,z
1/2+x,1/2+y,z
1/2-x,1/2+y,-z
1/2-x,1/2-y,-z
1/2+x,1/2-y,z
loop_
_atom_site_type_symbol
_atom_site_label
_atom_site_fract_x
_atom_site_fract_y
_atom_site_fract_z
Si Si1 0.801996 0.786489 0.716206
Si Si2 0.883283 0.785352 0.091973
Si Si3 0.941359 0.780597 0.162547
Si Si4 0.345707 0.714574 0.400054
Si Si5 0.598640 0.279553 0.525170
Si Si6 0.945519 0.207174 0.629549
O O1 0.705108 0.758353 0.833160
O O2 0.838174 0.721836 0.605208
O O3 0.858695 0.713737 0.707902
O O4 0.816360 0.000000 0.699511
O O5 0.892933 0.723154 0.154726
O O6 0.889013 0.000000 0.087452
O O7 0.963947 0.723720 0.958633
O O8 0.898857 0.717108 0.277517
O O9 0.939981 0.000000 0.165066
O O10 0.356684 0.500000 0.388722
O O11 0.250000 0.750000 0.500000
O O12 0.373970 0.781615 0.436747
O O13 0.598260 0.500000 0.525290
O O14 0.507460 0.217998 0.610364
O O15 0.000000 0.207574 0.500000
O O16 0.931173 0.000000 0.665191
#
# Coordination Sequence:
#
# PCOD9171430 Si02
#       6
#     8   8   8   8   8   8
#     4   9  15  24  41  64  83  98 125 165 202 230
#     4   9  16  28  43  56  76 107 138 162 187 226
#     4   8  16  29  42  56  77 108 138 159 185 229
#     4  10  18  28  43  62  82 103 130 161 194 233
#     4   8  14  24  40  61  82 104 129 158 193 236
#     4   7  11  21  37  57  80 103 126 155 192 232
#
# _framework density 19.071653000000001
#
# number of rings (size 3 to 8) (size 9 to 14) (size 15 to 20)
#    0.000    3.500    0.000    4.000    0.000    0.000 
#    0.000    2.500    0.000    6.500    0.000    0.000 
#    0.000    0.000    0.000    0.000    0.000    0.000 
#
# Total GULP energy -133690.576295 kJ/mol
# GULP energy per Si atom -5570.440679 kJ/mol
# Density = 1.902825 g / cm^3
# Si number density = 19.071653 Si / 1000 Ang^3
#
#
#
# Elastic Constant Matrix: (Units=GPa)
#
#
# Indices 1 2 3 4 5 6 
#
# 1 172.0948 3.4908 90.2629 0.0111 -24.5743 -0.0024
# 2 3.4908 54.2457 -0.4295 0.0027 3.2292 -0.0079
# 3 90.2629 -0.4295 111.9830 0.0168 -20.3960 -0.0022
# 4 0.0111 0.0027 0.0168 20.2916 -0.0021 -11.2441
# 5 -24.5743 3.2292 -20.3960 -0.0021 36.9300 -0.0039
# 6 -0.0024 -0.0079 -0.0022 -11.2441 -0.0039 4.5221
#
#
#
# Elastic Compliance Matrix: (Units=1/GPa)
#
#
# Indices 1 2 3 4 5 6 
#
# 1 0.010314 -0.000881 -0.007842 -0.000007 0.002610 -0.000014
# 2 -0.000881 0.018613 0.000421 -0.000038 -0.001982 -0.000064
# 3 -0.007842 0.000421 0.015894 0.000012 0.003523 0.000037
# 4 -0.000007 -0.000038 0.000012 -0.130438 -0.000037 -0.324330
# 5 0.002610 -0.001982 0.003523 -0.000037 0.030934 -0.000065
# 6 -0.000014 -0.000064 0.000037 -0.324330 -0.000065 -0.585301
#
#
# Mechanical properties :
#
#
# Convention : Reuss Voigt Hill
#
# Bulk Modulus (GPa) = 35.44031 58.33020 46.88526
# Shear Modulus (GPa) = -8.14366 28.68203 10.26918
#
# Velocity S-wave (km/s) = -2.06865 3.88223 2.32298
# Velocity P-wave (km/s) = 3.59407 7.12368 5.64199
#
# Compressibility (1/GPa) = 0.02821646
#
# Stress axis : x y z
#
# Youngs Moduli (GPa) = 96.95341 53.72696 62.91672
#
# Poissons Ratio (x) = 0.04734 0.49338
# Poissons Ratio (y) = 0.08543 -0.02647
# Poissons Ratio (z) = 0.76029 -0.02261
#
# Static dielectric constant tensor:
#      x y z
#    x 1.682460 -0.000010 -0.027090 
#    y -0.000010 1.749070 0.000010 
#    z -0.027090 0.000010 1.647940 
# 
# From -- ./inp_files/164006.got.cif
#   From: 2010.05.17/outbox.cif.g08.bks.cpg/sg12_83_cif.got.tgz:164006.got - 2010.06.03 13:09:07.
