data_PCOD9171381
_publ_section_title
;
Structure prediction by ZEFSAII (Michael W. Deem and Ramdas Pophale) SiO2 
 PCOD9171381
Probable space group: C 2/M
;
_chemical_formula_sum "Si O2"
_cell_formula_units_Z 64
_cell_length_a 27.528214
_cell_length_b 8.865166
_cell_length_c 24.358602
_cell_angle_alpha 90.000000
_cell_angle_beta 45.349936
_cell_angle_gamma 90.000000
_cell_volume 4229.008947
_symmetry_space_group_name_H-M "C 2/M"
_symmetry_group_IT_number 12
_symmetry_cell_setting 'monoclinic'
loop_
_space_group_symop_operation_xyz
x,y,z
-x,y,-z
-x,-y,-z
x,-y,z
1/2+x,1/2+y,z
1/2-x,1/2+y,-z
1/2-x,1/2-y,-z
1/2+x,1/2-y,z
loop_
_atom_site_type_symbol
_atom_site_label
_atom_site_fract_x
_atom_site_fract_y
_atom_site_fract_z
Si Si1 0.888171 0.181191 0.947475
Si Si2 0.441673 0.326252 0.498999
Si Si3 0.925734 0.680254 0.034309
Si Si4 0.211208 0.818747 0.826121
Si Si5 0.749863 0.319493 0.088047
Si Si6 0.407208 0.319393 0.812394
Si Si7 0.457111 0.820082 0.662060
Si Si8 0.845218 0.680775 0.659301
O O1 0.924350 0.223469 0.861491
O O2 0.888668 0.000000 0.952295
O O3 0.918518 0.254805 0.978336
O O4 0.809663 0.237104 0.007181
O O5 0.500000 0.319511 0.500000
O O6 0.430030 0.500000 0.494128
O O7 0.474759 0.239164 0.421780
O O8 0.376067 0.254714 0.580386
O O9 0.915241 0.500000 0.041128
O O10 0.865329 0.756170 0.117889
O O11 0.000000 0.711983 0.000000
O O12 0.239336 0.740553 0.858878
O O13 0.266778 0.783140 0.735306
O O14 0.209746 0.000000 0.834575
O O15 0.673015 0.283636 0.131924
O O16 0.740480 0.000000 0.922293
O O17 0.414541 0.500000 0.801665
O O18 0.446878 0.243295 0.731006
O O19 0.393245 0.772903 0.673182
O O20 0.457289 0.000000 0.663312
O O21 0.851799 0.500000 0.649492
#
# Coordination Sequence:
#
# PCOD9171381 Si02
#       8
#     8   8   8   8   8   8   8   8
#     4  10  20  32  46  64  86 113 148 185 222 264
#     4   9  17  27  40  58  82 116 154 188 221 258
#     4  10  21  36  51  67  88 113 144 185 231 275
#     4  10  18  29  46  68  90 115 150 186 222 265
#     4  10  18  28  42  60  87 119 149 182 219 256
#     4  10  20  30  41  61  89 119 151 186 217 257
#     4  10  18  28  42  59  85 121 155 187 221 256
#     4   9  17  28  41  61  87 115 150 188 220 256
#
# _framework density 15.133570000000001
#
# number of rings (size 3 to 8) (size 9 to 14) (size 15 to 20)
#    0.000    2.250    1.250    4.125    0.000    5.500 
#    0.000    0.000    0.000    0.000    0.000    0.000 
#    0.000    1.000    0.000    3.250    0.000    4.750 
#
# Total GULP energy -178363.951753 kJ/mol
# GULP energy per Si atom -5573.873492 kJ/mol
# Density = 1.509913 g / cm^3
# Si number density = 15.133570 Si / 1000 Ang^3
#
#
#
# Elastic Constant Matrix: (Units=GPa)
#
#
# Indices 1 2 3 4 5 6 
#
# 1 44.5028 22.2868 40.1505 -0.0019 -7.1054 0.0023
# 2 22.2868 36.1622 40.5078 -0.0060 -0.7463 0.0139
# 3 40.1505 40.5078 142.1516 0.0016 0.4812 -0.0004
# 4 -0.0019 -0.0060 0.0016 29.5468 -0.0015 -2.0251
# 5 -7.1054 -0.7463 0.4812 -0.0015 14.5955 -0.0004
# 6 0.0023 0.0139 -0.0004 -2.0251 -0.0004 13.9119
#
#
#
# Elastic Compliance Matrix: (Units=1/GPa)
#
#
# Indices 1 2 3 4 5 6 
#
# 1 0.039745 -0.016838 -0.006491 0.000001 0.018702 0.000011
# 2 -0.016838 0.047841 -0.008859 0.000006 -0.005459 -0.000045
# 3 -0.006491 -0.008859 0.011406 -0.000002 -0.003989 0.000010
# 4 0.000001 0.000006 -0.000002 0.034186 0.000005 0.004976
# 5 0.018702 -0.005459 -0.003989 0.000005 0.077471 0.000005
# 6 0.000011 -0.000045 0.000010 0.004976 0.000005 0.072606
#
#
# Mechanical properties :
#
#
# Convention : Reuss Voigt Hill
#
# Bulk Modulus (GPa) = 28.88756 47.63409 38.26083
# Shear Modulus (GPa) = 13.92107 19.60227 16.76167
#
# Velocity S-wave (km/s) = 3.03624 3.60291 3.33165
# Velocity P-wave (km/s) = 5.60549 6.98942 6.33536
#
# Compressibility (1/GPa) = 0.03461698
#
# Stress axis : x y z
#
# Youngs Moduli (GPa) = 25.16039 20.90267 87.67314
#
# Poissons Ratio (x) = 0.35195 0.56910
# Poissons Ratio (y) = 0.42364 0.77666
# Poissons Ratio (z) = 0.16332 0.18517
#
# Static dielectric constant tensor:
#      x y z
#    x 1.483840 0.000000 -0.001360 
#    y 0.000000 1.505310 0.000000 
#    z -0.001360 0.000000 1.518360 
# 
# From -- ./inp_files/326827.got.cif
#   From: 2010.05.17/outbox.cif.g08.bks.cpg/sg12_164_cif.got.tgz:326827.got - 2010.06.03 13:09:07.
