data_PCOD9171594
_publ_section_title
;
Structure prediction by ZEFSAII (Michael W. Deem and Ramdas Pophale) SiO2 
 PCOD9171594
Probable space group: C 2/M
;
_chemical_formula_sum "Si O2"
_cell_formula_units_Z 56
_cell_length_a 14.053481
_cell_length_b 14.956088
_cell_length_c 19.039495
_cell_angle_alpha 90.000000
_cell_angle_beta 136.841779
_cell_angle_gamma 90.000000
_cell_volume 2737.305126
_symmetry_space_group_name_H-M "C 2/M"
_symmetry_group_IT_number 12
_symmetry_cell_setting 'monoclinic'
loop_
_space_group_symop_operation_xyz
x,y,z
-x,y,-z
-x,-y,-z
x,-y,z
1/2+x,1/2+y,z
1/2-x,1/2+y,-z
1/2-x,1/2-y,-z
1/2+x,1/2-y,z
loop_
_atom_site_type_symbol
_atom_site_label
_atom_site_fract_x
_atom_site_fract_y
_atom_site_fract_z
Si Si1 0.267311 0.792813 0.335999
Si Si2 0.037601 0.105208 0.132327
Si Si3 0.778931 0.104194 0.911665
Si Si4 0.315124 0.896754 0.504402
Si Si5 0.450354 0.796329 0.290987
Si Si6 0.992932 0.903178 0.321576
Si Si7 0.655535 0.597786 0.614402
O O1 0.124189 0.838218 0.234427
O O2 0.323019 0.847283 0.433177
O O3 0.366788 0.798618 0.320939
O O4 0.259632 0.688162 0.350962
O O5 0.127416 0.110014 0.108665
O O6 0.034103 0.000000 0.148542
O O7 0.881625 0.136142 0.028987
O O8 0.638587 0.154194 0.816164
O O9 0.749766 0.000000 0.908701
O O10 0.407683 0.844588 0.610225
O O11 0.151416 0.897226 0.435820
O O12 0.360838 0.000000 0.522747
O O13 0.468283 0.694176 0.277113
O O14 0.878964 0.907811 0.321544
O O15 0.986582 0.000000 0.280374
O O16 0.500000 0.609857 0.500000
O O17 0.710169 0.500000 0.620428
#
# Coordination Sequence:
#
# PCOD9171594 Si02
#       7
#     8   8   8   8   8   8   8
#     4  10  18  28  45  69  92 118 149 184 227 271
#     4   8  14  25  41  63  92 120 147 181 223 271
#     4   8  14  25  42  64  88 117 151 186 223 262
#     4  11  21  30  43  68 100 125 144 176 228 283
#     4  10  18  29  46  66  91 119 152 191 225 262
#     4   9  19  33  46  63  90 124 157 184 218 268
#     4   9  17  31  49  66  87 120 161 195 220 255
#
# _framework density 20.458078
#
# number of rings (size 3 to 8) (size 9 to 14) (size 15 to 20)
#    0.000    2.714    0.000    4.286    0.000    2.286 
#    0.000    0.000    0.000    2.571    0.000    6.000 
#    0.000    0.000    0.000    0.000    0.000    0.000 
#
# Total GULP energy -156142.140872 kJ/mol
# GULP energy per Si atom -5576.505031 kJ/mol
# Density = 2.041151 g / cm^3
# Si number density = 20.458078 Si / 1000 Ang^3
#
#
#
# Elastic Constant Matrix: (Units=GPa)
#
#
# Indices 1 2 3 4 5 6 
#
# 1 67.4337 13.8618 7.3615 0.0000 -6.0841 0.0000
# 2 13.8618 160.5201 72.2793 0.0000 8.3391 0.0000
# 3 7.3615 72.2793 121.7457 0.0000 11.6901 -0.0001
# 4 0.0000 0.0000 0.0000 111.8885 0.0000 123.4072
# 5 -6.0841 8.3391 11.6901 0.0000 11.7327 0.0000
# 6 0.0000 0.0000 -0.0001 123.4072 0.0000 144.0110
#
#
#
# Elastic Compliance Matrix: (Units=1/GPa)
#
#
# Indices 1 2 3 4 5 6 
#
# 1 0.016201 -0.001433 -0.001143 0.000000 0.010558 0.000000
# 2 -0.001433 0.008643 -0.004847 0.000000 -0.002057 0.000000
# 3 -0.001143 -0.004847 0.012038 0.000000 -0.009142 0.000000
# 4 0.000000 0.000000 0.000000 0.162939 0.000000 -0.139627
# 5 0.010558 -0.002057 -0.009142 0.000000 0.101278 0.000000
# 6 0.000000 0.000000 0.000000 -0.139627 0.000000 0.126594
#
#
# Mechanical properties :
#
#
# Convention : Reuss Voigt Hill
#
# Bulk Modulus (GPa) = 45.37815 59.63387 52.50601
# Shear Modulus (GPa) = 11.11397 70.60624 40.86010
#
# Velocity S-wave (km/s) = 2.33331 5.88112 4.47392
# Velocity P-wave (km/s) = 5.43032 8.67925 7.23939
#
# Compressibility (1/GPa) = 0.02203704
#
# Stress axis : x y z
#
# Youngs Moduli (GPa) = 61.72342 115.70193 83.06725
#
# Poissons Ratio (x) = 0.16581 0.09492
# Poissons Ratio (y) = 0.08845 0.40263
# Poissons Ratio (z) = 0.07053 0.56082
#
# Static dielectric constant tensor:
#      x y z
#    x 1.783910 0.000000 -0.008220 
#    y 0.000000 1.739270 0.000000 
#    z -0.008220 0.000000 1.711760 
# 
# From -- ./inp_files/310834.got.cif
#   From: 2010.05.17/outbox.cif.g08.bks.cpg/sg12_156_cif.got.tgz:310834.got - 2010.06.03 13:09:07.
