data_PCOD9171401
_publ_section_title
;
Structure prediction by ZEFSAII (Michael W. Deem and Ramdas Pophale) SiO2 
 PCOD9171401
Probable space group: C 2/M
;
_chemical_formula_sum "Si O2"
_cell_formula_units_Z 64
_cell_length_a 25.557578
_cell_length_b 8.427051
_cell_length_c 16.929368
_cell_angle_alpha 90.000000
_cell_angle_beta 111.391333
_cell_angle_gamma 90.000000
_cell_volume 3394.982341
_symmetry_space_group_name_H-M "C 2/M"
_symmetry_group_IT_number 12
_symmetry_cell_setting 'monoclinic'
loop_
_space_group_symop_operation_xyz
x,y,z
-x,y,-z
-x,-y,-z
x,-y,z
1/2+x,1/2+y,z
1/2-x,1/2+y,-z
1/2-x,1/2-y,-z
1/2+x,1/2-y,z
loop_
_atom_site_type_symbol
_atom_site_label
_atom_site_fract_x
_atom_site_fract_y
_atom_site_fract_z
Si Si1 0.233127 0.179871 0.260651
Si Si2 0.349602 0.191753 0.270119
Si Si3 0.496318 0.308983 0.908263
Si Si4 0.613947 0.692622 0.250970
Si Si5 0.793181 0.320912 0.462586
Si Si6 0.559487 0.191384 0.798620
Si Si7 0.548728 0.810622 0.361704
Si Si8 0.596736 0.317596 0.541036
O O1 0.285588 0.254649 0.241944
O O2 0.171942 0.252202 0.243662
O O3 0.260375 0.167418 0.362240
O O4 0.223559 0.000000 0.224300
O O5 0.382920 0.243230 0.210759
O O6 0.387906 0.234967 0.367524
O O7 0.345359 0.000000 0.268701
O O8 0.497055 0.500000 0.910092
O O9 0.438260 0.261070 0.833539
O O10 0.545884 0.252045 0.878198
O O11 0.500000 0.250745 0.000000
O O12 0.617241 0.500000 0.257566
O O13 0.598673 0.753728 0.330273
O O14 0.812327 0.500000 0.494177
O O15 0.750000 0.250000 0.500000
O O16 0.845504 0.207441 0.476230
O O17 0.508199 0.244743 0.713333
O O18 0.450851 0.000000 0.636747
O O19 0.552558 0.751827 0.453939
O O20 0.441399 0.000000 0.200777
O O21 0.584513 0.500000 0.549385
#
# Coordination Sequence:
#
# PCOD9171401 Si02
#       8
#     8   8   8   8   8   8   8   8
#     4   8  15  27  45  65  86 117 156 196 233 273
#     4   9  18  34  50  66  91 124 164 205 244 283
#     4   9  18  32  52  78 104 126 148 182 233 290
#     4   9  16  29  49  72  96 122 156 196 238 286
#     4  10  18  28  42  62  89 122 163 210 254 289
#     4   9  19  34  53  73  93 122 158 197 243 293
#     4  10  19  31  46  67  94 124 160 204 252 290
#     4  11  21  31  43  63  92 129 170 204 240 285
#
# _framework density 18.85135
#
# number of rings (size 3 to 8) (size 9 to 14) (size 15 to 20)
#    0.000    2.625    0.000    3.375    0.000    2.750 
#    0.000    5.000    0.000    0.750    0.000    0.000 
#    0.000    0.000    0.000    0.000    0.000    0.000 
#
# Total GULP energy -178306.619845 kJ/mol
# GULP energy per Si atom -5572.081870 kJ/mol
# Density = 1.880844 g / cm^3
# Si number density = 18.851350 Si / 1000 Ang^3
#
#
#
# Elastic Constant Matrix: (Units=GPa)
#
#
# Indices 1 2 3 4 5 6 
#
# 1 107.1317 7.7038 34.2046 0.0000 -30.7996 0.0000
# 2 7.7038 18.0798 4.8093 0.0000 -0.8228 0.0000
# 3 34.2046 4.8093 70.3223 0.0000 -18.3643 0.0000
# 4 0.0000 0.0000 0.0000 17.9146 0.0000 -4.0113
# 5 -30.7996 -0.8228 -18.3643 0.0000 24.6915 0.0000
# 6 0.0000 0.0000 0.0000 -4.0113 0.0000 16.0004
#
#
#
# Elastic Compliance Matrix: (Units=1/GPa)
#
#
# Indices 1 2 3 4 5 6 
#
# 1 0.015495 -0.005101 -0.002711 0.000000 0.017141 0.000000
# 2 -0.005101 0.058044 -0.003283 0.000000 -0.006870 0.000000
# 3 -0.002711 -0.003283 0.018432 0.000000 0.010217 0.000000
# 4 0.000000 0.000000 0.000000 0.059140 0.000000 0.014827
# 5 0.017141 -0.006870 0.010217 0.000000 0.069251 0.000000
# 6 0.000000 0.000000 0.000000 0.014827 0.000000 0.066216
#
#
# Mechanical properties :
#
#
# Convention : Reuss Voigt Hill
#
# Bulk Modulus (GPa) = 14.33059 32.10770 23.21915
# Shear Modulus (GPa) = 15.05895 21.64235 18.35065
#
# Velocity S-wave (km/s) = 2.82942 3.39197 3.12338
# Velocity P-wave (km/s) = 4.27698 5.69295 5.03499
#
# Compressibility (1/GPa) = 0.06978078
#
# Stress axis : x y z
#
# Youngs Moduli (GPa) = 64.53773 17.22821 54.25439
#
# Poissons Ratio (x) = 0.08788 0.14711
# Poissons Ratio (y) = 0.32921 0.17809
# Poissons Ratio (z) = 0.17499 0.05655
#
# Static dielectric constant tensor:
#      x y z
#    x 1.743900 0.000000 -0.015260 
#    y 0.000000 1.663780 0.000000 
#    z -0.015260 0.000000 1.650660 
# 
# From -- ./inp_files/244058.got.cif
#   From: 2010.05.17/outbox.cif.g08.bks.cpg/sg12_123_cif.got.tgz:244058.got - 2010.06.03 13:09:07.
