data_PCOD9171718
_publ_section_title
;
Structure prediction by ZEFSAII (Michael W. Deem and Ramdas Pophale) SiO2 
 PCOD9171718
Probable space group: C 2/M
;
_chemical_formula_sum "Si O2"
_cell_formula_units_Z 48
_cell_length_a 21.942004
_cell_length_b 25.563503
_cell_length_c 18.229350
_cell_angle_alpha 90.000000
_cell_angle_beta 161.759857
_cell_angle_gamma 90.000000
_cell_volume 3200.462602
_symmetry_space_group_name_H-M "C 2/M"
_symmetry_group_IT_number 12
_symmetry_cell_setting 'monoclinic'
loop_
_space_group_symop_operation_xyz
x,y,z
-x,y,-z
-x,-y,-z
x,-y,z
1/2+x,1/2+y,z
1/2-x,1/2+y,-z
1/2-x,1/2-y,-z
1/2+x,1/2-y,z
loop_
_atom_site_type_symbol
_atom_site_label
_atom_site_fract_x
_atom_site_fract_y
_atom_site_fract_z
Si Si1 0.490974 0.833813 0.624668
Si Si2 0.071113 0.218365 0.501834
Si Si3 0.500000 0.088530 0.500000
Si Si4 0.000000 0.757424 0.000000
Si Si5 0.137987 0.194516 0.879376
Si Si6 0.924072 0.831200 0.779167
Si Si7 0.932275 0.942728 0.007065
O O1 0.502449 0.778022 0.596202
O O2 0.462640 0.876027 0.528987
O O3 0.304572 0.830146 0.464204
O O4 0.686697 0.843113 0.894663
O O5 0.304949 0.223675 0.766814
O O6 0.000000 0.200774 0.500000
O O7 0.975555 0.185999 0.326178
O O8 0.301324 0.058170 0.259051
O O9 0.022096 0.795880 0.955194
O O10 0.985443 0.192852 0.771786
O O11 0.250000 0.250000 0.000000
O O12 0.994575 0.891086 0.867508
O O13 0.002028 0.000000 0.112994
O O14 0.000000 0.936941 0.000000
#
# Coordination Sequence:
#
# PCOD9171718 Si02
#       7
#     8   8   4   4   8   8   8
#     4  10  19  29  50  66  91 130 163 197 235 288
#     4  10  19  30  44  65  90 122 158 202 234 278
#     4  12  17  32  50  68  92 138 166 194 237 278
#     4  10  18  28  47  64  88 130 159 194 232 286
#     4  10  21  31  46  68  94 123 166 207 235 285
#     4  11  19  33  47  68  95 130 164 199 241 277
#     4  11  21  31  47  72  96 127 170 204 233 280
#
# _framework density 14.997832000000001
#
# number of rings (size 3 to 8) (size 9 to 14) (size 15 to 20)
#    0.000    1.500    5.000    3.250    0.000    7.333 
#    0.000    0.000    0.000    0.000    0.000    0.000 
#    0.000    0.667    0.000    2.750    0.000    0.333 
#
# Total GULP energy -133766.855565 kJ/mol
# GULP energy per Si atom -5573.618982 kJ/mol
# Density = 1.496370 g / cm^3
# Si number density = 14.997832 Si / 1000 Ang^3
#
#
#
# Elastic Constant Matrix: (Units=GPa)
#
#
# Indices 1 2 3 4 5 6 
#
# 1 125.3442 24.0131 43.4194 -0.0003 -0.8236 0.0000
# 2 24.0131 30.8421 1.6256 -0.0001 -2.8045 0.0000
# 3 43.4194 1.6256 87.1945 -0.0014 -6.4788 -0.0002
# 4 -0.0003 -0.0001 -0.0014 7.5773 -0.0003 -2.5351
# 5 -0.8236 -2.8045 -6.4788 -0.0003 28.4104 0.0000
# 6 0.0000 0.0000 -0.0002 -2.5351 0.0000 -7.6622
#
#
#
# Elastic Compliance Matrix: (Units=1/GPa)
#
#
# Indices 1 2 3 4 5 6 
#
# 1 0.011690 -0.008966 -0.005793 -0.000001 -0.001867 0.000000
# 2 -0.008966 0.039606 0.004066 0.000001 0.004577 -0.000001
# 3 -0.005793 0.004066 0.014541 0.000002 0.003550 -0.000001
# 4 -0.000001 0.000001 0.000002 0.118820 0.000002 -0.039313
# 5 -0.001867 0.004577 0.003550 0.000002 0.036406 -0.000001
# 6 0.000000 -0.000001 -0.000001 -0.039313 -0.000001 -0.117504
#
#
# Mechanical properties :
#
#
# Convention : Reuss Voigt Hill
#
# Bulk Modulus (GPa) = 22.49603 42.38856 32.44230
# Shear Modulus (GPa) = 35.77524 17.28660 26.53092
#
# Velocity S-wave (km/s) = 4.88931 3.39869 4.21049
# Velocity P-wave (km/s) = 6.84879 6.61256 6.73171
#
# Compressibility (1/GPa) = 0.04445228
#
# Stress axis : x y z
#
# Youngs Moduli (GPa) = 85.54236 25.24870 68.77047
#
# Poissons Ratio (x) = 0.22638 0.39837
# Poissons Ratio (y) = 0.76699 -0.27965
# Poissons Ratio (z) = 0.49553 -0.10267
#
# Static dielectric constant tensor:
#      x y z
#    x 1.503570 0.000000 0.002570 
#    y 0.000000 1.487650 0.000000 
#    z 0.002570 0.000000 1.548790 
# 
# From -- ./inp_files/286582.got.cif
#   From: 2010.05.17/outbox.cif.g08.bks.cpg/sg12_144_cif.got.tgz:286582.got - 2010.06.03 13:09:07.
