data_PCOD9171361
_publ_section_title
;
Structure prediction by ZEFSAII (Michael W. Deem and Ramdas Pophale) SiO2 
 PCOD9171361
Probable space group: C 2/M
;
_chemical_formula_sum "Si O2"
_cell_formula_units_Z 64
_cell_length_a 28.039740
_cell_length_b 9.014719
_cell_length_c 20.211732
_cell_angle_alpha 90.000000
_cell_angle_beta 122.148948
_cell_angle_gamma 90.000000
_cell_volume 4325.563246
_symmetry_space_group_name_H-M "C 2/M"
_symmetry_group_IT_number 12
_symmetry_cell_setting 'monoclinic'
loop_
_space_group_symop_operation_xyz
x,y,z
-x,y,-z
-x,-y,-z
x,-y,z
1/2+x,1/2+y,z
1/2-x,1/2+y,-z
1/2-x,1/2-y,-z
1/2+x,1/2-y,z
loop_
_atom_site_type_symbol
_atom_site_label
_atom_site_fract_x
_atom_site_fract_y
_atom_site_fract_z
Si Si1 0.545230 0.320651 0.977644
Si Si2 0.440204 0.170756 0.494874
Si Si3 0.536713 0.322106 0.822207
Si Si4 0.666934 0.823908 0.066155
Si Si5 0.843751 0.674570 0.094803
Si Si6 0.000153 0.178202 0.344003
Si Si7 0.617290 0.323031 0.666741
Si Si8 0.720497 0.176734 0.818856
O O1 0.551784 0.500000 0.982408
O O2 0.524644 0.274529 0.888667
O O3 0.500000 0.280932 0.000000
O O4 0.605990 0.247538 0.034933
O O5 0.500000 0.173209 0.500000
O O6 0.454472 0.243622 0.575726
O O7 0.398134 0.262120 0.417254
O O8 0.422533 0.000000 0.488008
O O9 0.535015 0.500000 0.820041
O O10 0.600120 0.269714 0.854833
O O11 0.499591 0.272170 0.732339
O O12 0.718274 0.749443 0.142950
O O13 0.665423 0.000000 0.076246
O O14 0.677276 0.798273 0.995077
O O15 0.858611 0.500000 0.110121
O O16 0.800809 0.706727 0.121822
O O17 0.937702 0.210517 0.327988
O O18 0.007360 0.000000 0.353291
O O19 0.624169 0.500000 0.671164
O O20 0.672464 0.245736 0.736877
O O21 0.723484 0.000000 0.811944
#
# Coordination Sequence:
#
# PCOD9171361 Si02
#       8
#     8   8   8   8   8   8   8   8
#     4   9  18  33  51  68  88 114 144 182 227 269
#     4   9  17  27  39  56  80 113 149 184 217 253
#     4   9  16  27  44  65  87 114 148 182 219 262
#     4  10  20  32  45  63  85 113 148 183 220 262
#     4   9  18  29  41  59  85 115 147 182 218 254
#     4   9  16  26  40  59  83 113 148 184 217 254
#     4  10  18  28  41  58  83 117 151 183 217 255
#     4  11  20  29  42  61  87 117 149 184 217 256
#
# _framework density 14.79576
#
# number of rings (size 3 to 8) (size 9 to 14) (size 15 to 20)
#    0.000    2.500    1.250    1.875    0.000    3.750 
#    0.000    0.000    0.000    0.000    0.000    0.000 
#    0.000    1.000    0.000    2.750    0.000    4.000 
#
# Total GULP energy -178284.601544 kJ/mol
# GULP energy per Si atom -5571.393798 kJ/mol
# Density = 1.476208 g / cm^3
# Si number density = 14.795760 Si / 1000 Ang^3
#
#
#
# Elastic Constant Matrix: (Units=GPa)
#
#
# Indices 1 2 3 4 5 6 
#
# 1 64.1679 34.4368 57.4892 0.0000 -2.8442 0.0000
# 2 34.4368 37.5105 55.1573 0.0000 2.8218 0.0000
# 3 57.4892 55.1573 117.5676 0.0000 3.9046 0.0000
# 4 0.0000 0.0000 0.0000 26.7759 0.0000 3.3997
# 5 -2.8442 2.8218 3.9046 0.0000 13.1024 0.0000
# 6 0.0000 0.0000 0.0000 3.3997 0.0000 13.8762
#
#
#
# Elastic Compliance Matrix: (Units=1/GPa)
#
#
# Indices 1 2 3 4 5 6 
#
# 1 0.034468 -0.023346 -0.006380 0.000000 0.014412 0.000000
# 2 -0.023346 0.102335 -0.036052 0.000000 -0.016364 0.000000
# 3 -0.006380 -0.036052 0.028611 0.000000 -0.002147 0.000000
# 4 0.000000 0.000000 0.000000 0.038546 0.000000 -0.009444
# 5 0.014412 -0.016364 -0.002147 0.000000 0.083614 0.000000
# 6 0.000000 0.000000 0.000000 -0.009444 0.000000 0.074379
#
#
# Mechanical properties :
#
#
# Convention : Reuss Voigt Hill
#
# Bulk Modulus (GPa) = 29.53478 57.04583 43.29031
# Shear Modulus (GPa) = 9.90499 15.56176 12.73338
#
# Velocity S-wave (km/s) = 2.59018 3.24662 2.93680
# Velocity P-wave (km/s) = 5.38055 7.25901 6.38920
#
# Compressibility (1/GPa) = 0.03385838
#
# Stress axis : x y z
#
# Youngs Moduli (GPa) = 29.01228 9.77179 34.95188
#
# Poissons Ratio (x) = 0.22813 0.22300
# Poissons Ratio (y) = 0.67732 1.26007
# Poissons Ratio (z) = 0.18511 0.35229
#
# Static dielectric constant tensor:
#      x y z
#    x 1.459430 0.000000 -0.020930 
#    y 0.000000 1.490290 0.000000 
#    z -0.020930 0.000000 1.502300 
# 
# From -- ./inp_files/326858.got.cif
#   From: 2010.05.17/outbox.cif.g08.bks.cpg/sg12_164_cif.got.tgz:326858.got - 2010.06.03 13:09:07.
