data_PCOD9171936
_publ_section_title
;
Structure prediction by ZEFSAII (Michael W. Deem and Ramdas Pophale) SiO2 
 PCOD9171936
Probable space group: C 2/M
;
_chemical_formula_sum "Si O2"
_cell_formula_units_Z 64
_cell_length_a 19.393495
_cell_length_b 7.393239
_cell_length_c 21.468493
_cell_angle_alpha 90.000000
_cell_angle_beta 61.172005
_cell_angle_gamma 90.000000
_cell_volume 2696.694727
_symmetry_space_group_name_H-M "C 2/M"
_symmetry_group_IT_number 12
_symmetry_cell_setting 'monoclinic'
loop_
_space_group_symop_operation_xyz
x,y,z
-x,y,-z
-x,-y,-z
x,-y,z
1/2+x,1/2+y,z
1/2-x,1/2+y,-z
1/2-x,1/2-y,-z
1/2+x,1/2-y,z
loop_
_atom_site_type_symbol
_atom_site_label
_atom_site_fract_x
_atom_site_fract_y
_atom_site_fract_z
Si Si1 0.116696 0.705195 0.537803
Si Si2 0.671479 0.278103 0.921305
Si Si3 0.964215 0.204676 0.100209
Si Si4 0.886869 0.286501 0.257490
Si Si5 0.132177 0.780119 0.072098
Si Si6 0.239322 0.216110 0.593393
Si Si7 0.992995 0.277722 0.685432
Si Si8 0.172003 0.294396 0.195881
O O1 0.097161 0.500000 0.527897
O O2 0.178477 0.703340 0.569168
O O3 0.172481 0.783813 0.459454
O O4 0.037972 0.783614 0.603103
O O5 0.672035 0.500000 0.919159
O O6 0.586647 0.216677 0.933659
O O7 0.741095 0.211706 0.846083
O O8 0.681521 0.227193 0.989124
O O9 0.904472 0.199788 0.184164
O O10 0.044199 0.282794 0.092224
O O11 0.985550 0.000000 0.073529
O O12 0.897468 0.500000 0.245843
O O13 0.800807 0.252368 0.323307
O O14 0.951628 0.222992 0.280380
O O15 0.151197 0.702986 0.131191
O O16 0.134277 0.000000 0.077240
O O17 0.239682 0.000000 0.583320
O O18 0.993314 0.500000 0.684923
O O19 0.903825 0.216220 0.735972
O O20 0.180072 0.500000 0.215444
#
# Coordination Sequence:
#
# PCOD9171936 Si02
#       8
#     8   8   8   8   8   8   8   8
#     4   8  14  24  37  58  90 123 151 185 228 271
#     4   9  19  33  49  69  93 123 156 193 234 278
#     4  10  19  32  49  68  91 122 160 195 232 277
#     4  10  18  29  44  64  92 121 152 190 235 279
#     4  10  19  32  50  70  93 120 154 196 238 276
#     4   9  15  23  38  61  89 120 153 186 226 274
#     4   8  14  25  42  63  88 118 149 183 224 269
#     4  10  18  31  50  70  94 124 157 188 228 281
#
# _framework density 23.732756999999999
#
# number of rings (size 3 to 8) (size 9 to 14) (size 15 to 20)
#    0.000    2.750    1.250    2.250    0.000    2.000 
#    0.000    1.250    0.000    1.500    0.000    0.875 
#    0.000    7.000    0.000    0.000    0.000    0.000 
#
# Total GULP energy -178517.176209 kJ/mol
# GULP energy per Si atom -5578.661757 kJ/mol
# Density = 2.367874 g / cm^3
# Si number density = 23.732757 Si / 1000 Ang^3
#
#
#
# Elastic Constant Matrix: (Units=GPa)
#
#
# Indices 1 2 3 4 5 6 
#
# 1 46.4680 -6.6330 -6.7641 -0.0014 -23.9337 -0.0019
# 2 -6.6330 96.7649 -4.0842 -0.0024 -0.3821 -0.0041
# 3 -6.7641 -4.0842 143.8851 -0.0003 -37.5397 -0.0001
# 4 -0.0014 -0.0024 -0.0003 5.5206 0.0004 5.9717
# 5 -23.9337 -0.3821 -37.5397 0.0004 36.3113 0.0000
# 6 -0.0019 -0.0041 -0.0001 5.9717 0.0000 -0.6349
#
#
#
# Elastic Compliance Matrix: (Units=1/GPa)
#
#
# Indices 1 2 3 4 5 6 
#
# 1 0.048676 0.004147 0.014773 0.000018 0.047400 -0.000006
# 2 0.004147 0.010709 0.001700 0.000008 0.004604 -0.000003
# 3 0.014773 0.001700 0.014019 0.000006 0.024248 -0.000002
# 4 0.000018 0.000008 0.000006 0.016211 0.000018 0.152469
# 5 0.047400 0.004604 0.024248 0.000018 0.083899 -0.000008
# 6 -0.000006 -0.000003 -0.000002 0.152469 -0.000008 -0.140951
#
#
# Mechanical properties :
#
#
# Convention : Reuss Voigt Hill
#
# Bulk Modulus (GPa) = 8.72268 28.01728 18.36998
# Shear Modulus (GPa) = 169.27572 28.54600 98.91086
#
# Velocity S-wave (km/s) = 8.45462 3.47192 6.46277
# Velocity P-wave (km/s) = 9.94941 5.28235 7.96536
#
# Compressibility (1/GPa) = 0.11464362
#
# Stress axis : x y z
#
# Youngs Moduli (GPa) = 20.54395 93.38338 71.33139
#
# Poissons Ratio (x) = -0.38729 -1.05375
# Poissons Ratio (y) = -0.08520 -0.12127
# Poissons Ratio (z) = -0.30349 -0.15876
#
# Static dielectric constant tensor:
#      x y z
#    x 1.878650 0.000000 -0.050610 
#    y 0.000000 2.941630 0.000000 
#    z -0.050610 0.000000 1.957250 
# 
# From -- ./inp_files/365175.got.cif
#   From: 2010.05.17/outbox.cif.g08.bks.cpg/sg12_183_cif.got.tgz:365175.got - 2010.06.03 13:09:07.
