data_PCOD9171723
_publ_section_title
;
Structure prediction by ZEFSAII (Michael W. Deem and Ramdas Pophale) SiO2 
 PCOD9171723
Probable space group: C 2/M
;
_chemical_formula_sum "Si O2"
_cell_formula_units_Z 48
_cell_length_a 23.544442
_cell_length_b 17.002474
_cell_length_c 9.187993
_cell_angle_alpha 90.000000
_cell_angle_beta 43.994309
_cell_angle_gamma 90.000000
_cell_volume 2554.746285
_symmetry_space_group_name_H-M "C 2/M"
_symmetry_group_IT_number 12
_symmetry_cell_setting 'monoclinic'
loop_
_space_group_symop_operation_xyz
x,y,z
-x,y,-z
-x,-y,-z
x,-y,z
1/2+x,1/2+y,z
1/2-x,1/2+y,-z
1/2-x,1/2-y,-z
1/2+x,1/2-y,z
loop_
_atom_site_type_symbol
_atom_site_label
_atom_site_fract_x
_atom_site_fract_y
_atom_site_fract_z
Si Si1 0.316206 0.285816 0.642124
Si Si2 0.520864 0.409892 0.122275
Si Si3 0.093726 0.700820 0.779068
Si Si4 0.411568 0.587423 0.588126
Si Si5 0.675102 0.323256 0.852271
Si Si6 0.764404 0.591021 0.435571
O O1 0.384307 0.239155 0.419139
O O2 0.354760 0.336408 0.701733
O O3 0.246233 0.221685 0.807730
O O4 0.273281 0.351486 0.617611
O O5 0.547928 0.500000 0.055267
O O6 0.439293 0.411000 0.367170
O O7 0.500000 0.378558 0.000000
O O8 0.593819 0.362931 0.065449
O O9 0.139086 0.758516 0.808118
O O10 0.142892 0.619257 0.704863
O O11 0.000000 0.694480 0.000000
O O12 0.500000 0.592569 0.500000
O O13 0.377520 0.500000 0.685709
O O14 0.716433 0.388681 0.672699
O O15 0.757434 0.500000 0.409752
#
# Coordination Sequence:
#
# PCOD9171723 Si02
#       6
#     8   8   8   8   8   8
#     4   9  17  28  42  59  84 117 144 173 217 262
#     4  10  18  28  47  70  90 116 148 181 215 256
#     4   9  16  25  39  60  86 114 143 177 212 249
#     4  10  20  32  46  66  91 115 141 179 223 263
#     4   9  16  26  41  62  85 109 144 183 213 248
#     4   9  16  25  39  61  88 115 142 175 214 255
#
# _framework density 18.78856
#
# number of rings (size 3 to 8) (size 9 to 14) (size 15 to 20)
#    0.000    2.667    0.000    6.500    0.000    1.667 
#    0.000    0.833    0.000    0.500    0.000    0.000 
#    0.000   16.667    0.000    0.000    0.000    0.833 
#
# Total GULP energy -133675.023953 kJ/mol
# GULP energy per Si atom -5569.792665 kJ/mol
# Density = 1.874580 g / cm^3
# Si number density = 18.788560 Si / 1000 Ang^3
#
#
#
# Elastic Constant Matrix: (Units=GPa)
#
#
# Indices 1 2 3 4 5 6 
#
# 1 55.7845 16.6598 10.2091 0.0000 -14.7082 0.0000
# 2 16.6598 84.1703 28.3065 0.0000 -17.3358 0.0000
# 3 10.2091 28.3065 77.8271 0.0000 -24.3100 0.0000
# 4 0.0000 0.0000 0.0000 18.3742 0.0000 -17.3059
# 5 -14.7082 -17.3358 -24.3100 0.0000 25.9322 0.0000
# 6 0.0000 0.0000 0.0000 -17.3059 0.0000 20.1719
#
#
#
# Elastic Compliance Matrix: (Units=1/GPa)
#
#
# Indices 1 2 3 4 5 6 
#
# 1 0.021560 -0.002346 0.001916 0.000000 0.012456 0.000000
# 2 -0.002346 0.014553 -0.003340 0.000000 0.005267 0.000000
# 3 0.001916 -0.003340 0.019026 0.000000 0.016689 0.000000
# 4 0.000000 0.000000 0.000000 0.283518 0.000000 0.243236
# 5 0.012456 0.005267 0.016689 0.000000 0.064793 0.000000
# 6 0.000000 0.000000 0.000000 0.243236 0.000000 0.258252
#
#
# Mechanical properties :
#
#
# Convention : Reuss Voigt Hill
#
# Bulk Modulus (GPa) = 21.00929 36.45918 28.73423
# Shear Modulus (GPa) = 7.29811 23.73609 15.51710
#
# Velocity S-wave (km/s) = 1.97301 3.55819 2.87693
# Velocity P-wave (km/s) = 4.04927 6.02727 5.13442
#
# Compressibility (1/GPa) = 0.04759800
#
# Stress axis : x y z
#
# Youngs Moduli (GPa) = 46.38128 68.71370 52.56091
#
# Poissons Ratio (x) = 0.16122 -0.10070
# Poissons Ratio (y) = 0.10882 0.17556
# Poissons Ratio (z) = -0.08886 0.22952
#
# Static dielectric constant tensor:
#      x y z
#    x 1.733380 0.000000 0.024620 
#    y 0.000000 1.687100 0.000000 
#    z 0.024620 0.000000 1.711060 
# 
# From -- ./inp_files/157417.got.cif
#   From: 2010.05.17/outbox.cif.g08.bks.cpg/sg12_79_cif.got.tgz:157417.got - 2010.06.03 13:09:07.
