data_PCOD9171271
_publ_section_title
;
Structure prediction by ZEFSAII (Michael W. Deem and Ramdas Pophale) SiO2 
 PCOD9171271
Probable space group: C 2/M
;
_chemical_formula_sum "Si O2"
_cell_formula_units_Z 56
_cell_length_a 19.534509
_cell_length_b 13.994889
_cell_length_c 19.637683
_cell_angle_alpha 90.000000
_cell_angle_beta 37.424605
_cell_angle_gamma 90.000000
_cell_volume 3262.597826
_symmetry_space_group_name_H-M "C 2/M"
_symmetry_group_IT_number 12
_symmetry_cell_setting 'monoclinic'
loop_
_space_group_symop_operation_xyz
x,y,z
-x,y,-z
-x,-y,-z
x,-y,z
1/2+x,1/2+y,z
1/2-x,1/2+y,-z
1/2-x,1/2-y,-z
1/2+x,1/2-y,z
loop_
_atom_site_type_symbol
_atom_site_label
_atom_site_fract_x
_atom_site_fract_y
_atom_site_fract_z
Si Si1 0.767490 0.713257 0.777281
Si Si2 0.885016 0.801258 0.237121
Si Si3 0.876057 0.890444 0.624662
Si Si4 0.996278 0.385684 0.582072
Si Si5 0.223175 0.614913 0.475201
Si Si6 0.081115 0.890363 0.002245
Si Si7 0.685368 0.108852 0.661294
O O1 0.702459 0.687973 0.757545
O O2 0.818314 0.818970 0.724300
O O3 0.877324 0.649686 0.702736
O O4 0.678510 0.685002 0.905825
O O5 0.824923 0.844979 0.350451
O O6 0.897291 0.688512 0.242680
O O7 0.000133 0.852784 0.125880
O O8 0.793737 0.889584 0.624535
O O9 0.000000 0.861855 0.500000
O O10 0.883667 0.000000 0.643769
O O11 0.999414 0.500000 0.582788
O O12 0.000000 0.357723 0.500000
O O13 0.105932 0.349228 0.534862
O O14 0.226077 0.500000 0.466342
O O15 0.221923 0.636251 0.556145
O O16 0.120769 0.000000 0.981944
O O17 0.000000 0.893297 0.000000
O O18 0.640934 0.000000 0.694996
#
# Coordination Sequence:
#
# PCOD9171271 Si02
#       7
#     8   8   8   8   8   8   8
#     4  10  18  29  47  69  99 127 158 196 240 284
#     4  10  18  30  48  68  96 129 162 197 239 285
#     4   9  18  32  51  73  97 126 162 205 247 283
#     4  10  18  27  44  71 100 127 155 191 240 295
#     4  10  19  30  47  73 100 127 157 196 245 295
#     4   9  18  30  46  70  98 129 161 196 237 285
#     4   9  19  33  48  71  98 125 162 202 244 289
#
# _framework density 17.164235999999999
#
# number of rings (size 3 to 8) (size 9 to 14) (size 15 to 20)
#    0.000    2.429    1.429    1.714    2.000    1.143 
#    0.000    0.714    0.000    5.143    0.000    0.000 
#    0.000    0.000    0.000    0.000    0.000    0.000 
#
# Total GULP energy -155982.720542 kJ/mol
# GULP energy per Si atom -5570.811448 kJ/mol
# Density = 1.712517 g / cm^3
# Si number density = 17.164236 Si / 1000 Ang^3
#
#
#
# Elastic Constant Matrix: (Units=GPa)
#
#
# Indices 1 2 3 4 5 6 
#
# 1 20.1669 18.7650 24.2031 0.0000 4.0071 0.0000
# 2 18.7650 91.6073 57.8621 0.0000 -1.4362 0.0000
# 3 24.2031 57.8621 114.9498 0.0000 -9.9396 0.0000
# 4 0.0000 0.0000 0.0000 26.4416 0.0000 -4.0652
# 5 4.0071 -1.4362 -9.9396 0.0000 17.6665 0.0000
# 6 0.0000 0.0000 0.0000 -4.0652 0.0000 10.6084
#
#
#
# Elastic Compliance Matrix: (Units=1/GPa)
#
#
# Indices 1 2 3 4 5 6 
#
# 1 0.080619 -0.006906 -0.015902 0.000000 -0.027794 0.000000
# 2 -0.006906 0.016793 -0.007090 0.000000 -0.001058 0.000000
# 3 -0.015902 -0.007090 0.016691 0.000000 0.012421 0.000000
# 4 0.000000 0.000000 0.000000 0.040187 0.000000 0.015400
# 5 -0.027794 -0.001058 0.012421 0.000000 0.069811 0.000000
# 6 0.000000 0.000000 0.000000 0.015400 0.000000 0.100167
#
#
# Mechanical properties :
#
#
# Convention : Reuss Voigt Hill
#
# Bulk Modulus (GPa) = 18.41392 47.59827 33.00609
# Shear Modulus (GPa) = 12.43269 19.33620 15.88444
#
# Velocity S-wave (km/s) = 2.69427 3.36004 3.04540
# Velocity P-wave (km/s) = 4.51997 6.54556 5.62470
#
# Compressibility (1/GPa) = 0.05430675
#
# Stress axis : x y z
#
# Youngs Moduli (GPa) = 12.40397 59.54995 59.91352
#
# Poissons Ratio (x) = 0.41124 0.95274
# Poissons Ratio (y) = 0.08566 0.42480
# Poissons Ratio (z) = 0.19725 0.42223
#
# Static dielectric constant tensor:
#      x y z
#    x 1.570970 0.000000 -0.004620 
#    y 0.000000 1.639340 0.000000 
#    z -0.004620 0.000000 1.568570 
# 
# From -- ./inp_files/156127.got.cif
#   From: 2010.05.17/outbox.cif.g08.bks.cpg/sg12_79_cif.got.tgz:156127.got - 2010.06.03 13:09:07.
