data_PCOD9171334
_publ_section_title
;
Structure prediction by ZEFSAII (Michael W. Deem and Ramdas Pophale) SiO2 
 PCOD9171334
Probable space group: C 2/M
;
_chemical_formula_sum "Si O2"
_cell_formula_units_Z 58
_cell_length_a 21.211847
_cell_length_b 7.590914
_cell_length_c 17.300890
_cell_angle_alpha 90.000000
_cell_angle_beta 94.046135
_cell_angle_gamma 90.000000
_cell_volume 2778.799404
_symmetry_space_group_name_H-M "C 2/M"
_symmetry_group_IT_number 12
_symmetry_cell_setting 'monoclinic'
loop_
_space_group_symop_operation_xyz
x,y,z
-x,y,-z
-x,-y,-z
x,-y,z
1/2+x,1/2+y,z
1/2-x,1/2+y,-z
1/2-x,1/2-y,-z
1/2+x,1/2-y,z
loop_
_atom_site_type_symbol
_atom_site_label
_atom_site_fract_x
_atom_site_fract_y
_atom_site_fract_z
Si Si1 0.211505 0.212137 0.735508
Si Si2 0.699129 0.289037 0.560952
Si Si3 0.348247 0.203727 0.036966
Si Si4 0.943268 0.215133 0.440470
Si Si5 0.500000 0.500000 0.000000
Si Si6 0.776992 0.793022 0.891270
Si Si7 0.517774 0.794524 0.893436
Si Si8 0.567524 0.287108 0.737673
O O1 0.219540 0.274336 0.648099
O O2 0.265408 0.267305 0.799956
O O3 0.140907 0.270633 0.755695
O O4 0.210465 0.000000 0.735421
O O5 0.694851 0.500000 0.566224
O O6 0.750000 0.250000 0.500000
O O7 0.627156 0.227000 0.539977
O O8 0.287120 0.281804 0.074462
O O9 0.413176 0.280475 0.072884
O O10 0.351855 0.000000 0.060365
O O11 0.334047 0.212383 0.944719
O O12 0.950790 0.265283 0.351065
O O13 0.000000 0.276279 0.500000
O O14 0.943800 0.000000 0.442266
O O15 0.523856 0.656477 0.063859
O O16 0.780470 0.000000 0.907367
O O17 0.522627 0.781039 0.801512
O O18 0.508040 0.000000 0.913237
O O19 0.566847 0.500000 0.740993
#
# Coordination Sequence:
#
# PCOD9171334 Si02
#       8
#     8   8   8   8   2   8   8   8
#     4   9  17  29  48  74 106 142 183 221 271 339
#     4   9  18  32  52  78 109 148 184 225 286 344
#     4   9  19  32  48  74 106 137 169 219 276 325
#     4   8  15  30  56  87 113 143 192 245 289 348
#     4  12  26  40  60  78 106 152 194 244 292 348
#     4  10  18  27  47  78 106 133 170 214 272 330
#     4  11  22  38  59  81 108 145 194 243 289 345
#     4   9  16  30  55  82 106 140 182 240 299 335
#
# _framework density 20.872322
#
# number of rings (size 3 to 8) (size 9 to 14) (size 15 to 20)
#    0.000    2.621    2.069    2.276    0.966    1.103 
#    0.000    2.069    3.034    1.655    0.000    0.000 
#    0.000    0.000    0.000    0.000    0.000    0.000 
#
# Total GULP energy -161454.646255 kJ/mol
# GULP energy per Si atom -5567.401595 kJ/mol
# Density = 2.082482 g / cm^3
# Si number density = 20.872322 Si / 1000 Ang^3
#
#
#
# Elastic Constant Matrix: (Units=GPa)
#
#
# Indices 1 2 3 4 5 6 
#
# 1 59.2281 3.4555 52.0846 0.0000 7.5795 0.0000
# 2 3.4555 82.4206 11.0115 0.0000 -7.5057 0.0000
# 3 52.0846 11.0115 150.5909 0.0000 -1.5865 0.0000
# 4 0.0000 0.0000 0.0000 22.1236 0.0000 -3.2434
# 5 7.5795 -7.5057 -1.5865 0.0000 39.3464 0.0000
# 6 0.0000 0.0000 0.0000 -3.2434 0.0000 -0.6332
#
#
#
# Elastic Compliance Matrix: (Units=1/GPa)
#
#
# Indices 1 2 3 4 5 6 
#
# 1 0.025306 -0.000370 -0.008781 0.000000 -0.005299 0.000000
# 2 -0.000370 0.012470 -0.000758 0.000000 0.002420 0.000000
# 3 -0.008781 -0.000758 0.009754 0.000000 0.001940 0.000000
# 4 0.000000 0.000000 0.000000 0.025816 0.000000 -0.132226
# 5 -0.005299 0.002420 0.001940 0.000000 0.026976 0.000000
# 6 0.000000 0.000000 0.000000 -0.132226 0.000000 -0.901937
#
#
# Mechanical properties :
#
#
# Convention : Reuss Voigt Hill
#
# Bulk Modulus (GPa) = 36.08845 47.26032 41.67438
# Shear Modulus (GPa) = -6.47199 27.21323 10.37062
#
# Velocity S-wave (km/s) = -1.76281 3.61473 2.23145
# Velocity P-wave (km/s) = 3.63102 6.33351 5.16225
#
# Compressibility (1/GPa) = 0.02770970
#
# Stress axis : x y z
#
# Youngs Moduli (GPa) = 39.51672 80.19210 102.52704
#
# Poissons Ratio (x) = 0.02970 0.90031
# Poissons Ratio (y) = 0.01464 0.07774
# Poissons Ratio (z) = 0.34700 0.06080
#
# Static dielectric constant tensor:
#      x y z
#    x 1.831840 0.000000 -0.042970 
#    y 0.000000 1.795570 0.000000 
#    z -0.042970 0.000000 1.797420 
# 
# From -- ./inp_files/243148.got.cif
#   From: 2010.05.17/outbox.cif.g08.bks.cpg/sg12_122_cif.got.tgz:243148.got - 2010.06.03 13:09:07.
