data_PCOD9171023
_publ_section_title
;
Structure prediction by ZEFSAII (Michael W. Deem and Ramdas Pophale) SiO2 
 PCOD9171023
Probable space group: C 2/M
;
_chemical_formula_sum "Si O2"
_cell_formula_units_Z 64
_cell_length_a 25.464570
_cell_length_b 8.062114
_cell_length_c 35.102605
_cell_angle_alpha 90.000000
_cell_angle_beta 153.055539
_cell_angle_gamma 90.000000
_cell_volume 3265.458630
_symmetry_space_group_name_H-M "C 2/M"
_symmetry_group_IT_number 12
_symmetry_cell_setting 'monoclinic'
loop_
_space_group_symop_operation_xyz
x,y,z
-x,y,-z
-x,-y,-z
x,-y,z
1/2+x,1/2+y,z
1/2-x,1/2+y,-z
1/2-x,1/2-y,-z
1/2+x,1/2-y,z
loop_
_atom_site_type_symbol
_atom_site_label
_atom_site_fract_x
_atom_site_fract_y
_atom_site_fract_z
Si Si1 0.791043 0.688915 0.566897
Si Si2 0.881768 0.802912 0.735274
Si Si3 0.012061 0.811182 0.747263
Si Si4 0.649880 0.195759 0.202394
Si Si5 0.365428 0.303825 0.246295
Si Si6 0.606973 0.694598 0.094084
Si Si7 0.141683 0.189588 0.544609
Si Si8 0.584817 0.703165 0.637840
O O1 0.836219 0.500000 0.594187
O O2 0.750000 0.750000 0.500000
O O3 0.890126 0.808932 0.646156
O O4 0.689012 0.687189 0.531802
O O5 0.971342 0.734353 0.761215
O O6 0.901692 0.731512 0.789810
O O7 0.748306 0.767521 0.636599
O O8 0.895511 0.000000 0.744892
O O9 0.095901 0.732533 0.769637
O O10 0.051607 0.000000 0.780365
O O11 0.587969 0.281773 0.126847
O O12 0.785169 0.250250 0.290134
O O13 0.649720 0.000000 0.194753
O O14 0.392623 0.500000 0.262402
O O15 0.228683 0.281380 0.163629
O O16 0.425613 0.241161 0.324461
O O17 0.621593 0.500000 0.095250
O O18 0.500000 0.758448 0.000000
O O19 0.013253 0.262198 0.455255
O O20 0.131273 0.000000 0.552182
O O21 0.577639 0.500000 0.633153
#
# Coordination Sequence:
#
# PCOD9171023 Si02
#       8
#     8   8   8   8   8   8   8   8
#     4  10  18  26  40  62  90 127 171 219 265 306
#     4  10  20  33  48  70 102 138 175 215 257 294
#     4   9  18  32  49  69  97 134 172 210 253 302
#     4  10  20  35  55  76  99 133 174 209 246 299
#     4   9  17  32  54  78 103 133 170 208 250 304
#     4  10  21  37  58  85 112 131 150 190 251 308
#     4   9  17  30  45  62  90 131 177 217 253 298
#     4   8  15  28  47  69  93 126 169 216 258 293
#
# _framework density 19.599084999999999
#
# number of rings (size 3 to 8) (size 9 to 14) (size 15 to 20)
#    0.000    2.625    0.000    3.000    0.000    5.000 
#    0.000    5.625    0.000    0.750    0.000    0.000 
#    0.000    0.000    0.000    0.000    0.000    0.000 
#
# Total GULP energy -178296.900752 kJ/mol
# GULP energy per Si atom -5571.778149 kJ/mol
# Density = 1.955448 g / cm^3
# Si number density = 19.599085 Si / 1000 Ang^3
#
#
#
# Elastic Constant Matrix: (Units=GPa)
#
#
# Indices 1 2 3 4 5 6 
#
# 1 102.2632 -6.0535 22.1804 0.0007 -22.8031 -0.0018
# 2 -6.0535 25.8038 -8.9879 0.0005 1.1167 -0.0067
# 3 22.1804 -8.9879 53.0146 0.0002 -11.9923 -0.0002
# 4 0.0007 0.0005 0.0002 15.3360 0.0004 -0.2224
# 5 -22.8031 1.1167 -11.9923 0.0004 17.3849 0.0000
# 6 -0.0018 -0.0067 -0.0002 -0.2224 0.0000 12.9367
#
#
#
# Elastic Compliance Matrix: (Units=1/GPa)
#
#
# Indices 1 2 3 4 5 6 
#
# 1 0.014095 0.001981 -0.001668 -0.000001 0.017210 0.000003
# 2 0.001981 0.041562 0.007348 -0.000001 0.004997 0.000022
# 3 -0.001668 0.007348 0.023940 -0.000001 0.013854 0.000004
# 4 -0.000001 -0.000001 -0.000001 0.065222 -0.000004 0.001121
# 5 0.017210 0.004997 0.013854 -0.000004 0.089331 0.000005
# 6 0.000003 0.000022 0.000004 0.001121 0.000005 0.077319
#
#
# Mechanical properties :
#
#
# Convention : Reuss Voigt Hill
#
# Bulk Modulus (GPa) = 10.53536 21.70661 16.12099
# Shear Modulus (GPa) = 15.25374 20.72770 17.99072
#
# Velocity S-wave (km/s) = 2.79281 3.25558 3.03303
# Velocity P-wave (km/s) = 3.97326 5.02306 4.52868
#
# Compressibility (1/GPa) = 0.09491843
#
# Stress axis : x y z
#
# Youngs Moduli (GPa) = 70.94491 24.06051 41.77049
#
# Poissons Ratio (x) = -0.04766 0.06969
# Poissons Ratio (y) = -0.14053 -0.30693
# Poissons Ratio (z) = 0.11836 -0.17679
#
# Static dielectric constant tensor:
#      x y z
#    x 1.759940 0.000000 -0.004040 
#    y 0.000000 1.723580 0.000000 
#    z -0.004040 0.000000 1.665860 
# 
# From -- ./inp_files/243964.got.cif
#   From: 2010.05.17/outbox.cif.g08.bks.cpg/sg12_122_cif.got.tgz:243964.got - 2010.06.03 13:09:07.
