data_PCOD9171312
_publ_section_title
;
Structure prediction by ZEFSAII (Michael W. Deem and Ramdas Pophale) SiO2 
 PCOD9171312
Probable space group: C 2/M
;
_chemical_formula_sum "Si O2"
_cell_formula_units_Z 56
_cell_length_a 11.752601
_cell_length_b 16.280950
_cell_length_c 17.423641
_cell_angle_alpha 90.000000
_cell_angle_beta 42.712168
_cell_angle_gamma 90.000000
_cell_volume 2261.437227
_symmetry_space_group_name_H-M "C 2/M"
_symmetry_group_IT_number 12
_symmetry_cell_setting 'monoclinic'
loop_
_space_group_symop_operation_xyz
x,y,z
-x,y,-z
-x,-y,-z
x,-y,z
1/2+x,1/2+y,z
1/2-x,1/2+y,-z
1/2-x,1/2-y,-z
1/2+x,1/2-y,z
loop_
_atom_site_type_symbol
_atom_site_label
_atom_site_fract_x
_atom_site_fract_y
_atom_site_fract_z
Si Si1 0.842400 0.868690 0.429545
Si Si2 0.137389 0.648715 0.196163
Si Si3 0.463288 0.592954 0.817130
Si Si4 0.600342 0.091812 0.052003
Si Si5 0.250980 0.793954 0.381110
Si Si6 0.868138 0.752213 0.172324
Si Si7 0.521929 0.912843 0.410025
O O1 0.871552 0.847027 0.504313
O O2 0.786079 0.786511 0.413483
O O3 0.669205 0.918278 0.521431
O O4 0.972080 0.903202 0.303309
O O5 0.941703 0.670902 0.282825
O O6 0.132661 0.611762 0.283683
O O7 0.174081 0.596966 0.102717
O O8 0.276084 0.718782 0.140281
O O9 0.505186 0.500000 0.825682
O O10 0.262726 0.598813 0.918359
O O11 0.535350 0.670649 0.832231
O O12 0.523482 0.000000 0.080957
O O13 0.482796 0.171866 0.102070
O O14 0.222205 0.773732 0.306253
O O15 0.500000 0.862978 0.500000
O O16 0.598247 0.000000 0.395781
#
# Coordination Sequence:
#
# PCOD9171312 Si02
#       7
#     8   8   8   8   8   8   8
#     4   9  16  30  49  73 113 158 198 243 306 370
#     4  10  20  34  56  84 115 155 204 256 307 367
#     4  10  20  34  56  87 124 166 209 257 312 372
#     4  10  22  40  61  88 124 167 216 262 311 372
#     4   8  17  32  52  80 112 151 200 251 308 372
#     4  10  20  37  60  85 122 165 208 262 321 374
#     4  10  18  27  45  76 111 145 184 236 299 362
#
# _framework density 24.763012
#
# number of rings (size 3 to 8) (size 9 to 14) (size 15 to 20)
#    0.000    2.429    0.000    3.000    0.000    2.857 
#    0.000    2.143    0.000    8.571    0.000   19.000 
#    0.000   66.857    0.000    0.000    0.000    0.000 
#
# Total GULP energy -155898.629985 kJ/mol
# GULP energy per Si atom -5567.808214 kJ/mol
# Density = 2.470665 g / cm^3
# Si number density = 24.763012 Si / 1000 Ang^3
#
#
#
# Elastic Constant Matrix: (Units=GPa)
#
#
# Indices 1 2 3 4 5 6 
#
# 1 57.6007 14.6486 39.8101 0.0002 13.7609 0.0000
# 2 14.6486 103.9839 72.7942 0.0002 -1.1767 0.0000
# 3 39.8101 72.7942 128.6803 0.0003 -12.3891 0.0003
# 4 0.0002 0.0002 0.0003 3.5243 -0.0001 25.9575
# 5 13.7609 -1.1767 -12.3891 -0.0001 31.2809 -0.0002
# 6 0.0000 0.0000 0.0003 25.9575 -0.0002 -19.3210
#
#
#
# Elastic Compliance Matrix: (Units=1/GPa)
#
#
# Indices 1 2 3 4 5 6 
#
# 1 0.030365 0.005555 -0.014349 0.000000 -0.018832 0.000000
# 2 0.005555 0.017230 -0.012100 0.000000 -0.006588 0.000000
# 3 -0.014349 -0.012100 0.020397 0.000000 0.013936 0.000000
# 4 0.000000 0.000000 0.000000 0.026043 0.000000 0.034989
# 5 -0.018832 -0.006588 0.013936 0.000000 0.045525 0.000000
# 6 0.000000 0.000000 0.000000 0.034989 0.000000 -0.004751
#
#
# Mechanical properties :
#
#
# Convention : Reuss Voigt Hill
#
# Bulk Modulus (GPa) = 38.16367 60.53007 49.34687
# Shear Modulus (GPa) = 26.97848 13.96432 20.47140
#
# Velocity S-wave (km/s) = 3.30429 2.37727 2.87835
# Velocity P-wave (km/s) = 5.47748 5.65969 5.56933
#
# Compressibility (1/GPa) = 0.02620293
#
# Stress axis : x y z
#
# Youngs Moduli (GPa) = 32.93297 58.03694 49.02660
#
# Poissons Ratio (x) = -0.32237 0.70350
# Poissons Ratio (y) = -0.18293 0.59322
# Poissons Ratio (z) = 0.47257 0.70224
#
# Static dielectric constant tensor:
#      x y z
#    x 2.055200 0.000000 0.031920 
#    y 0.000000 2.072130 0.000000 
#    z 0.031920 0.000000 2.047750 
# 
# From -- ./inp_files/322292.got.cif
#   From: 2010.05.17/outbox.cif.g08.bks.cpg/sg12_162_cif.got.tgz:322292.got - 2010.06.03 13:09:07.
