data_PCOD9171084
_publ_section_title
;
Structure prediction by ZEFSAII (Michael W. Deem and Ramdas Pophale) SiO2 
 PCOD9171084
Probable space group: C 2/M
;
_chemical_formula_sum "Si O2"
_cell_formula_units_Z 64
_cell_length_a 28.004643
_cell_length_b 9.026664
_cell_length_c 17.517210
_cell_angle_alpha 90.000000
_cell_angle_beta 101.072484
_cell_angle_gamma 90.000000
_cell_volume 4345.719328
_symmetry_space_group_name_H-M "C 2/M"
_symmetry_group_IT_number 12
_symmetry_cell_setting 'monoclinic'
loop_
_space_group_symop_operation_xyz
x,y,z
-x,y,-z
-x,-y,-z
x,-y,z
1/2+x,1/2+y,z
1/2-x,1/2+y,-z
1/2-x,1/2-y,-z
1/2+x,1/2-y,z
loop_
_atom_site_type_symbol
_atom_site_label
_atom_site_fract_x
_atom_site_fract_y
_atom_site_fract_z
Si Si1 0.034689 0.176908 0.335546
Si Si2 0.077469 0.821797 0.656934
Si Si3 0.125648 0.177735 0.822154
Si Si4 0.453432 0.174581 0.096959
Si Si5 0.939871 0.321795 0.815835
Si Si6 0.057515 0.670460 0.496487
Si Si7 0.118850 0.676381 0.060629
Si Si8 0.697355 0.678260 0.975578
O O1 0.055904 0.246096 0.264882
O O2 0.061080 0.241565 0.418487
O O3 0.976913 0.214044 0.327538
O O4 0.038399 0.000000 0.334940
O O5 0.116866 0.773818 0.732394
O O6 0.083046 0.745856 0.576748
O O7 0.079100 0.000000 0.648338
O O8 0.078982 0.232703 0.854715
O O9 0.171791 0.224451 0.887281
O O10 0.125705 0.000000 0.821269
O O11 0.509578 0.212369 0.124785
O O12 0.448116 0.000000 0.113459
O O13 0.429174 0.196088 0.007003
O O14 0.937598 0.500000 0.805788
O O15 0.895871 0.277811 0.858433
O O16 0.072196 0.500000 0.491717
O O17 0.000000 0.673044 0.500000
O O18 0.129992 0.500000 0.063601
O O19 0.161731 0.763700 0.031659
O O20 0.700151 0.500000 0.978533
O O21 0.750000 0.750000 0.000000
#
# Coordination Sequence:
#
# PCOD9171084 Si02
#       8
#     8   8   8   8   8   8   8   8
#     4  10  18  27  40  57  83 119 153 182 216 254
#     4   9  16  27  41  58  83 113 147 182 217 256
#     4   9  17  29  44  64  87 114 146 181 220 262
#     4   9  16  26  41  60  85 116 148 180 214 252
#     4  10  18  27  41  61  88 118 149 183 215 252
#     4   9  17  27  39  56  80 111 149 186 218 252
#     4   9  18  31  45  63  86 114 147 181 219 261
#     4  10  20  34  51  67  87 113 144 183 227 269
#
# _framework density 14.727136
#
# number of rings (size 3 to 8) (size 9 to 14) (size 15 to 20)
#    0.000    2.625    1.250    1.500    0.000    5.000 
#    0.000    0.000    0.000    3.750    0.000    0.000 
#    0.000    1.000    0.000    3.000    0.000    4.000 
#
# Total GULP energy -178217.567253 kJ/mol
# GULP energy per Si atom -5569.298977 kJ/mol
# Density = 1.469362 g / cm^3
# Si number density = 14.727136 Si / 1000 Ang^3
#
#
#
# Elastic Constant Matrix: (Units=GPa)
#
#
# Indices 1 2 3 4 5 6 
#
# 1 62.8727 30.3171 58.7743 0.0000 4.3876 0.0000
# 2 30.3171 32.6470 48.2561 0.0000 0.1131 0.0000
# 3 58.7743 48.2561 126.7513 0.0000 -2.3499 0.0000
# 4 0.0000 0.0000 0.0000 25.7310 0.0000 -1.8605
# 5 4.3876 0.1131 -2.3499 0.0000 13.8762 0.0000
# 6 0.0000 0.0000 0.0000 -1.8605 0.0000 12.0218
#
#
#
# Elastic Compliance Matrix: (Units=1/GPa)
#
#
# Indices 1 2 3 4 5 6 
#
# 1 0.033961 -0.018035 -0.009106 0.000000 -0.012134 0.000000
# 2 -0.018035 0.079991 -0.022067 0.000000 0.001314 0.000000
# 3 -0.009106 -0.022067 0.020635 0.000000 0.006554 0.000000
# 4 0.000000 0.000000 0.000000 0.039303 0.000000 0.006083
# 5 -0.012134 0.001314 0.006554 0.000000 0.077002 0.000000
# 6 0.000000 0.000000 0.000000 0.006083 0.000000 0.084123
#
#
# Mechanical properties :
#
#
# Convention : Reuss Voigt Hill
#
# Bulk Modulus (GPa) = 27.64661 55.21843 41.43252
# Shear Modulus (GPa) = 11.22362 15.98738 13.60550
#
# Velocity S-wave (km/s) = 2.76362 3.29838 3.04277
# Velocity P-wave (km/s) = 5.38487 7.21675 6.36703
#
# Compressibility (1/GPa) = 0.03617080
#
# Stress axis : x y z
#
# Youngs Moduli (GPa) = 29.44531 12.50136 48.46201
#
# Poissons Ratio (x) = 0.22546 0.44132
# Poissons Ratio (y) = 0.53105 1.06939
# Poissons Ratio (z) = 0.26814 0.27586
#
# Static dielectric constant tensor:
#      x y z
#    x 1.456000 0.000000 0.012080 
#    y 0.000000 1.491270 0.000000 
#    z 0.012080 0.000000 1.507420 
# 
# From -- ./inp_files/244086.got.cif
#   From: 2010.05.17/outbox.cif.g08.bks.cpg/sg12_123_cif.got.tgz:244086.got - 2010.06.03 13:09:07.
