data_PCOD9171699
_publ_section_title
;
Structure prediction by ZEFSAII (Michael W. Deem and Ramdas Pophale) SiO2 
 PCOD9171699
Probable space group: C 2/M
;
_chemical_formula_sum "Si O2"
_cell_formula_units_Z 56
_cell_length_a 23.684082
_cell_length_b 12.861844
_cell_length_c 12.007147
_cell_angle_alpha 90.000000
_cell_angle_beta 127.783300
_cell_angle_gamma 90.000000
_cell_volume 2890.746974
_symmetry_space_group_name_H-M "C 2/M"
_symmetry_group_IT_number 12
_symmetry_cell_setting 'monoclinic'
loop_
_space_group_symop_operation_xyz
x,y,z
-x,y,-z
-x,-y,-z
x,-y,z
1/2+x,1/2+y,z
1/2-x,1/2+y,-z
1/2-x,1/2-y,-z
1/2+x,1/2-y,z
loop_
_atom_site_type_symbol
_atom_site_label
_atom_site_fract_x
_atom_site_fract_y
_atom_site_fract_z
Si Si1 0.863378 0.190177 0.915537
Si Si2 0.046816 0.879756 0.768280
Si Si3 0.299578 0.123247 0.966943
Si Si4 0.346839 0.749244 0.234065
Si Si5 0.245498 0.111426 0.545067
Si Si6 0.586108 0.379919 0.251000
Si Si7 0.279359 0.182312 0.360091
O O1 0.846997 0.305825 0.940942
O O2 0.909380 0.182631 0.858585
O O3 0.787008 0.138253 0.791263
O O4 0.900106 0.130551 0.061534
O O5 0.081171 0.807823 0.715492
O O6 0.971192 0.844073 0.727616
O O7 0.041501 0.000000 0.726549
O O8 0.218236 0.165216 0.854099
O O9 0.304245 0.000000 0.958672
O O10 0.326129 0.161420 0.120596
O O11 0.343082 0.794670 0.353559
O O12 0.164463 0.118543 0.400688
O O13 0.292864 0.122332 0.490748
O O14 0.252579 0.208075 0.633863
O O15 0.256550 0.000000 0.612735
O O16 0.567762 0.500000 0.200581
#
# Coordination Sequence:
#
# PCOD9171699 Si02
#       7
#     8   8   8   8   8   8   8
#     4   9  17  28  45  68  94 123 154 189 230 269
#     4  10  18  28  46  73 102 128 151 179 226 288
#     4   9  17  29  44  66  95 123 154 190 230 279
#     4   9  18  29  44  67  95 125 151 186 233 278
#     4   9  18  32  49  68  91 119 154 195 232 270
#     4   9  17  30  48  70  97 127 156 187 226 277
#     4   9  18  31  45  66  92 118 153 191 231 271
#
# _framework density 19.372154999999999
#
# number of rings (size 3 to 8) (size 9 to 14) (size 15 to 20)
#    0.000    2.857    0.000    2.143    0.000    5.143 
#    0.000    4.286    0.000    9.429    0.000    0.000 
#    0.000   14.857    0.000    0.000    0.000    0.000 
#
# Total GULP energy -156080.761756 kJ/mol
# GULP energy per Si atom -5574.312920 kJ/mol
# Density = 1.932806 g / cm^3
# Si number density = 19.372155 Si / 1000 Ang^3
#
#
#
# Elastic Constant Matrix: (Units=GPa)
#
#
# Indices 1 2 3 4 5 6 
#
# 1 123.0382 24.0311 17.5365 0.0000 -39.0836 0.0000
# 2 24.0311 81.9754 -1.5305 0.0000 -6.3418 0.0000
# 3 17.5365 -1.5305 39.7635 0.0000 -17.4884 0.0000
# 4 0.0000 0.0000 0.0000 5.9679 0.0000 -0.9794
# 5 -39.0836 -6.3418 -17.4884 0.0000 19.2476 0.0000
# 6 0.0000 0.0000 0.0000 -0.9794 0.0000 21.6608
#
#
#
# Elastic Compliance Matrix: (Units=1/GPa)
#
#
# Indices 1 2 3 4 5 6 
#
# 1 0.033636 -0.002453 0.024576 0.000000 0.089822 0.000000
# 2 -0.002453 0.013056 0.002141 0.000000 0.001267 0.000000
# 3 0.024576 0.002141 0.061045 0.000000 0.106074 0.000000
# 4 0.000000 0.000000 0.000000 0.168815 0.000000 0.007633
# 5 0.089822 0.001267 0.106074 0.000000 0.331140 0.000000
# 6 0.000000 0.000000 0.000000 0.007633 0.000000 0.046511
#
#
# Mechanical properties :
#
#
# Convention : Reuss Voigt Hill
#
# Bulk Modulus (GPa) = 6.39935 36.09460 21.24698
# Shear Modulus (GPa) = 7.60152 23.02461 15.31306
#
# Velocity S-wave (km/s) = 1.98304 3.45126 2.81458
# Velocity P-wave (km/s) = 2.92469 5.87829 4.64263
#
# Compressibility (1/GPa) = 0.15626592
#
# Stress axis : x y z
#
# Youngs Moduli (GPa) = 29.72995 76.59430 16.38135
#
# Poissons Ratio (x) = 0.18787 -0.40259
# Poissons Ratio (y) = 0.07292 -0.03508
# Poissons Ratio (z) = -0.73064 -0.16402
#
# Static dielectric constant tensor:
#      x y z
#    x 1.709480 0.000000 -0.023080 
#    y 0.000000 1.676940 0.000000 
#    z -0.023080 0.000000 1.708120 
# 
# From -- ./inp_files/173995.got.cif
#   From: 2010.05.17/outbox.cif.g08.bks.cpg/sg12_87_cif.got.tgz:173995.got - 2010.06.03 13:09:07.
