data_PCOD9171287
_publ_section_title
;
Structure prediction by ZEFSAII (Michael W. Deem and Ramdas Pophale) SiO2 
 PCOD9171287
Probable space group: C 2/M
;
_chemical_formula_sum "Si O2"
_cell_formula_units_Z 56
_cell_length_a 10.522352
_cell_length_b 23.978765
_cell_length_c 20.407260
_cell_angle_alpha 90.000000
_cell_angle_beta 38.246177
_cell_angle_gamma 90.000000
_cell_volume 3187.455526
_symmetry_space_group_name_H-M "C 2/M"
_symmetry_group_IT_number 12
_symmetry_cell_setting 'monoclinic'
loop_
_space_group_symop_operation_xyz
x,y,z
-x,y,-z
-x,-y,-z
x,-y,z
1/2+x,1/2+y,z
1/2-x,1/2+y,-z
1/2-x,1/2-y,-z
1/2+x,1/2-y,z
loop_
_atom_site_type_symbol
_atom_site_label
_atom_site_fract_x
_atom_site_fract_y
_atom_site_fract_z
Si Si1 0.696328 0.699642 0.889296
Si Si2 0.245030 0.119555 0.540045
Si Si3 0.227016 0.282130 0.384074
Si Si4 0.253244 0.000000 0.332968
Si Si5 0.240983 0.000000 0.490559
Si Si6 0.062031 0.677475 0.654947
Si Si7 0.774447 0.878253 0.687390
Si Si8 0.078418 0.727169 0.819921
O O1 0.601200 0.747600 0.881936
O O2 0.847917 0.666629 0.778693
O O3 0.851151 0.723872 0.881218
O O4 0.500000 0.669486 0.000000
O O5 0.243863 0.153139 0.608709
O O6 0.401476 0.154337 0.431294
O O7 0.014869 0.123480 0.604855
O O8 0.298808 0.054905 0.508302
O O9 0.384438 0.243093 0.361909
O O10 0.285693 0.264269 0.286565
O O11 0.000000 0.265194 0.500000
O O12 0.318154 0.000000 0.383577
O O13 0.312220 0.941056 0.277127
O O14 0.004961 0.000000 0.423797
O O15 0.227828 0.646454 0.634325
O O16 0.664531 0.835390 0.780476
#
# Coordination Sequence:
#
# PCOD9171287 Si02
#       8
#     8   8   8   4   4   8   8   8
#     4  10  20  34  50  69  97 124 157 201 241 284
#     4  11  17  28  43  66  98 130 154 193 229 279
#     4  10  19  28  42  64  95 128 155 189 222 284
#     4   9  14  26  40  64  97 126 154 193 231 262
#     4   9  18  24  41  64  92 130 164 184 228 271
#     4  10  18  27  45  69  94 125 156 187 236 286
#     4   9  16  26  44  69  98 123 157 190 234 278
#     4  10  20  33  49  75  97 128 160 189 240 291
#
# _framework density 17.568871999999999
#
# number of rings (size 3 to 8) (size 9 to 14) (size 15 to 20)
#    0.000    2.429    1.429    5.571    0.000    0.000 
#    0.000    0.357    0.000    0.000    0.000   13.000 
#    0.000   11.429    0.000    0.571    0.000    0.000 
#
# Total GULP energy -155972.567497 kJ/mol
# GULP energy per Si atom -5570.448839 kJ/mol
# Density = 1.752888 g / cm^3
# Si number density = 17.568872 Si / 1000 Ang^3
#
#
#
# Elastic Constant Matrix: (Units=GPa)
#
#
# Indices 1 2 3 4 5 6 
#
# 1 53.7854 18.7274 20.1336 -0.0001 -10.1291 -0.0002
# 2 18.7274 107.2126 16.2265 -0.0003 7.7128 0.0001
# 3 20.1336 16.2265 85.5750 -0.0013 -16.3871 -0.0001
# 4 -0.0001 -0.0003 -0.0013 10.3528 0.0003 -0.6244
# 5 -10.1291 7.7128 -16.3871 0.0003 15.7743 0.0002
# 6 -0.0002 0.0001 -0.0001 -0.6244 0.0002 17.6499
#
#
#
# Elastic Compliance Matrix: (Units=1/GPa)
#
#
# Indices 1 2 3 4 5 6 
#
# 1 0.024040 -0.005139 -0.001553 -0.000001 0.016336 0.000000
# 2 -0.005139 0.011639 -0.003395 0.000000 -0.012518 0.000000
# 3 -0.001553 -0.003395 0.016006 0.000001 0.017290 0.000000
# 4 -0.000001 0.000000 0.000001 0.096799 -0.000001 0.003425
# 5 0.016336 -0.012518 0.017290 -0.000001 0.097967 -0.000001
# 6 0.000000 0.000000 0.000000 0.003425 -0.000001 0.056779
#
#
# Mechanical properties :
#
#
# Convention : Reuss Voigt Hill
#
# Bulk Modulus (GPa) = 31.73606 39.63868 35.68737
# Shear Modulus (GPa) = 14.97419 21.52109 18.24764
#
# Velocity S-wave (km/s) = 2.92261 3.50373 3.22628
# Velocity P-wave (km/s) = 5.43064 6.24332 5.85111
#
# Compressibility (1/GPa) = 0.03150989
#
# Stress axis : x y z
#
# Youngs Moduli (GPa) = 41.59788 85.91559 62.47722
#
# Poissons Ratio (x) = 0.44154 0.09704
# Poissons Ratio (y) = 0.21378 0.21211
# Poissons Ratio (z) = 0.06461 0.29168
#
# Static dielectric constant tensor:
#      x y z
#    x 1.662950 0.000000 -0.026240 
#    y 0.000000 1.626450 0.000000 
#    z -0.026240 0.000000 1.606980 
# 
# From -- ./inp_files/337024.got.cif
#   From: 2010.05.17/outbox.cif.g08.bks.cpg/sg12_169_cif.got.tgz:337024.got - 2010.06.03 13:09:07.
