data_PCOD9171024
_publ_section_title
;
Structure prediction by ZEFSAII (Michael W. Deem and Ramdas Pophale) SiO2 
 PCOD9171024
Probable space group: C 2/M
;
_chemical_formula_sum "Si O2"
_cell_formula_units_Z 56
_cell_length_a 29.291564
_cell_length_b 8.971400
_cell_length_c 18.314853
_cell_angle_alpha 90.000000
_cell_angle_beta 128.509939
_cell_angle_gamma 90.000000
_cell_volume 3766.089643
_symmetry_space_group_name_H-M "C 2/M"
_symmetry_group_IT_number 12
_symmetry_cell_setting 'monoclinic'
loop_
_space_group_symop_operation_xyz
x,y,z
-x,y,-z
-x,-y,-z
x,-y,z
1/2+x,1/2+y,z
1/2-x,1/2+y,-z
1/2-x,1/2-y,-z
1/2+x,1/2-y,z
loop_
_atom_site_type_symbol
_atom_site_label
_atom_site_fract_x
_atom_site_fract_y
_atom_site_fract_z
Si Si1 0.850810 0.321799 0.972274
Si Si2 0.812514 0.678266 0.542952
Si Si3 0.716784 0.677911 0.796854
Si Si4 0.688935 0.821328 0.913259
Si Si5 0.349312 0.678813 0.720128
Si Si6 0.932839 0.179812 0.934938
Si Si7 0.217970 0.321943 0.644858
O O1 0.856187 0.500000 0.969629
O O2 0.785188 0.281594 0.879689
O O3 0.897992 0.242353 0.969355
O O4 0.853928 0.286353 0.061852
O O5 0.808846 0.500000 0.545968
O O6 0.750000 0.750000 0.500000
O O7 0.854540 0.743811 0.646616
O O8 0.820652 0.712926 0.465359
O O9 0.712299 0.500000 0.797607
O O10 0.679220 0.753380 0.823814
O O11 0.701513 0.736117 0.701513
O O12 0.694542 0.000000 0.914570
O O13 0.750000 0.750000 0.000000
O O14 0.350889 0.500000 0.711959
O O15 0.397888 0.724391 0.826977
O O16 0.285346 0.714475 0.690389
O O17 0.931332 0.000000 0.936582
O O18 0.000000 0.228179 0.000000
O O19 0.215718 0.500000 0.655356
#
# Coordination Sequence:
#
# PCOD9171024 Si02
#       7
#     8   8   8   8   8   8   8
#     4   9  18  30  42  59  82 110 143 178 215 250
#     4   9  17  27  40  59  81 109 142 173 210 254
#     4  10  18  26  40  63  86 112 143 171 207 253
#     4   9  17  28  41  59  82 109 141 173 209 253
#     4   9  17  29  42  58  81 111 144 178 217 252
#     4  10  20  32  46  63  83 112 150 186 218 252
#     4   9  16  26  40  59  83 113 142 171 208 249
#
# _framework density 14.869535000000001
#
# number of rings (size 3 to 8) (size 9 to 14) (size 15 to 20)
#    0.000    2.714    1.429    3.000    0.000    6.571 
#    0.000    0.000    0.000    0.000    0.000    0.000 
#    0.000    1.143    0.000   12.857    0.000    5.714 
#
# Total GULP energy -155878.029277 kJ/mol
# GULP energy per Si atom -5567.072474 kJ/mol
# Density = 1.483569 g / cm^3
# Si number density = 14.869535 Si / 1000 Ang^3
#
#
#
# Elastic Constant Matrix: (Units=GPa)
#
#
# Indices 1 2 3 4 5 6 
#
# 1 72.2406 33.2292 63.2604 0.0000 -22.5772 0.0000
# 2 33.2292 34.9221 42.2419 0.0000 -18.1070 0.0000
# 3 63.2604 42.2419 111.5575 0.0000 -34.1123 0.0000
# 4 0.0000 0.0000 0.0000 23.7451 0.0000 -9.6768
# 5 -22.5772 -18.1070 -34.1123 0.0000 29.1339 0.0000
# 6 0.0000 0.0000 0.0000 -9.6768 0.0000 20.1684
#
#
#
# Elastic Compliance Matrix: (Units=1/GPa)
#
#
# Indices 1 2 3 4 5 6 
#
# 1 0.031452 -0.015069 -0.011745 0.000000 0.001256 0.000000
# 2 -0.015069 0.064406 -0.011174 0.000000 0.015268 0.000000
# 3 -0.011745 -0.011174 0.023286 0.000000 0.011218 0.000000
# 4 0.000000 0.000000 0.000000 0.052350 0.000000 0.025118
# 5 0.001256 0.015268 0.011218 0.000000 0.057922 0.000000
# 6 0.000000 0.000000 0.000000 0.025118 0.000000 0.061634
#
#
# Mechanical properties :
#
#
# Convention : Reuss Voigt Hill
#
# Bulk Modulus (GPa) = 23.16578 55.13148 39.14863
# Shear Modulus (GPa) = 13.10909 19.94204 16.52556
#
# Velocity S-wave (km/s) = 2.97241 3.66612 3.33734
# Velocity P-wave (km/s) = 5.23388 7.42145 6.42150
#
# Compressibility (1/GPa) = 0.04316711
#
# Stress axis : x y z
#
# Youngs Moduli (GPa) = 31.79490 15.52647 42.94460
#
# Poissons Ratio (x) = 0.23396 0.50440
# Poissons Ratio (y) = 0.47911 0.47987
# Poissons Ratio (z) = 0.37344 0.17349
#
# Static dielectric constant tensor:
#      x y z
#    x 1.474930 0.000000 -0.031000 
#    y 0.000000 1.493720 0.000000 
#    z -0.031000 0.000000 1.522370 
# 
# From -- ./inp_files/291674.got.cif
#   From: 2010.05.17/outbox.cif.g08.bks.cpg/sg12_146_cif.got.tgz:291674.got - 2010.06.03 13:09:07.
