data_PCOD9171557
_publ_section_title
;
Structure prediction by ZEFSAII (Michael W. Deem and Ramdas Pophale) SiO2 
 PCOD9171557
Probable space group: C 2/M
;
_chemical_formula_sum "Si O2"
_cell_formula_units_Z 34
_cell_length_a 10.282107
_cell_length_b 20.754044
_cell_length_c 6.875353
_cell_angle_alpha 90.000000
_cell_angle_beta 74.690226
_cell_angle_gamma 90.000000
_cell_volume 1415.101738
_symmetry_space_group_name_H-M "C 2/M"
_symmetry_group_IT_number 12
_symmetry_cell_setting 'monoclinic'
loop_
_space_group_symop_operation_xyz
x,y,z
-x,y,-z
-x,-y,-z
x,-y,z
1/2+x,1/2+y,z
1/2-x,1/2+y,-z
1/2-x,1/2-y,-z
1/2+x,1/2-y,z
loop_
_atom_site_type_symbol
_atom_site_label
_atom_site_fract_x
_atom_site_fract_y
_atom_site_fract_z
Si Si1 0.243070 0.210462 0.207557
Si Si2 0.949097 0.189530 0.247606
Si Si3 0.233867 0.068558 0.667360
Si Si4 0.837505 0.570850 0.070492
Si Si5 0.000000 0.500000 0.500000
O O1 0.346959 0.250883 0.292908
O O2 0.291994 0.136990 0.181801
O O3 0.085180 0.205701 0.306886
O O4 0.250000 0.250000 0.000000
O O5 0.862812 0.127183 0.342041
O O6 0.000000 0.178982 0.000000
O O7 0.159379 0.000000 0.673233
O O8 0.381146 0.055631 0.514868
O O9 0.278346 0.074487 0.875694
O O10 0.794287 0.500000 0.163290
O O11 0.000000 0.569492 0.000000
#
# Coordination Sequence:
#
# PCOD9171557 Si02
#       5
#     8   8   8   8   2
#     4  10  18  28  44  76 112 134 152 198 267 316
#     4  10  18  29  48  77 108 133 159 207 262 312
#     4   9  18  32  50  72 100 135 176 204 242 300
#     4  10  18  28  46  76 107 130 164 202 262 312
#     4   8  20  36  48  72  94 144 180 212 234 280
#
# _framework density 24.026541000000002
#
# number of rings (size 3 to 8) (size 9 to 14) (size 15 to 20)
#    0.706    1.647    4.706    2.118    0.000    1.412 
#    0.000    0.000    0.000    1.412    0.000    1.647 
#    0.000    0.000    0.000    0.000    0.000    0.000 
#
# Total GULP energy -94647.531179 kJ/mol
# GULP energy per Si atom -5567.501834 kJ/mol
# Density = 2.397186 g / cm^3
# Si number density = 24.026541 Si / 1000 Ang^3
#
#
#
# Elastic Constant Matrix: (Units=GPa)
#
#
# Indices 1 2 3 4 5 6 
#
# 1 206.7910 139.3969 33.0611 0.0000 -27.1371 0.0000
# 2 139.3969 236.1879 39.5559 0.0000 -19.0282 0.0000
# 3 33.0611 39.5559 76.2035 0.0000 -11.8405 0.0000
# 4 0.0000 0.0000 0.0000 18.7578 0.0000 -3.4309
# 5 -27.1371 -19.0282 -11.8405 0.0000 36.0639 0.0000
# 6 0.0000 0.0000 0.0000 -3.4309 0.0000 79.2352
#
#
#
# Elastic Compliance Matrix: (Units=1/GPa)
#
#
# Indices 1 2 3 4 5 6 
#
# 1 0.008569 -0.004632 -0.000728 0.000000 0.003765 0.000000
# 2 -0.004632 0.007248 -0.001791 0.000000 -0.000250 0.000000
# 3 -0.000728 -0.001791 0.014896 0.000000 0.003398 0.000000
# 4 0.000000 0.000000 0.000000 0.053737 0.000000 0.002327
# 5 0.003765 -0.000250 0.003398 0.000000 0.031545 0.000000
# 6 0.000000 0.000000 0.000000 0.002327 0.000000 0.012721
#
#
# Mechanical properties :
#
#
# Convention : Reuss Voigt Hill
#
# Bulk Modulus (GPa) = 60.93921 104.80114 82.87018
# Shear Modulus (GPa) = 33.67261 47.28929 40.48095
#
# Velocity S-wave (km/s) = 3.74769 4.44126 4.10914
# Velocity P-wave (km/s) = 6.64419 8.36740 7.55509
#
# Compressibility (1/GPa) = 0.01640980
#
# Stress axis : x y z
#
# Youngs Moduli (GPa) = 116.70536 137.97816 67.13004
#
# Poissons Ratio (x) = 0.63910 0.04889
# Poissons Ratio (y) = 0.54057 0.12025
# Poissons Ratio (z) = 0.08499 0.24716
#
# Static dielectric constant tensor:
#      x y z
#    x 1.843480 0.000000 0.007750 
#    y 0.000000 1.850190 0.000000 
#    z 0.007750 0.000000 2.223620 
# 
# From -- ./inp_files/130031.got.cif
#   From: 2010.05.17/outbox.cif.g08.bks.cpg/sg12_66_cif.got.tgz:130031.got - 2010.06.03 13:09:07.
