data_PCOD9171322
_publ_section_title
;
Structure prediction by ZEFSAII (Michael W. Deem and Ramdas Pophale) SiO2 
 PCOD9171322
Probable space group: C 2/M
;
_chemical_formula_sum "Si O2"
_cell_formula_units_Z 56
_cell_length_a 11.518988
_cell_length_b 29.895148
_cell_length_c 7.918190
_cell_angle_alpha 90.000000
_cell_angle_beta 98.997101
_cell_angle_gamma 90.000000
_cell_volume 2693.173665
_symmetry_space_group_name_H-M "C 2/M"
_symmetry_group_IT_number 12
_symmetry_cell_setting 'monoclinic'
loop_
_space_group_symop_operation_xyz
x,y,z
-x,y,-z
-x,-y,-z
x,-y,z
1/2+x,1/2+y,z
1/2-x,1/2+y,-z
1/2-x,1/2-y,-z
1/2+x,1/2-y,z
loop_
_atom_site_type_symbol
_atom_site_label
_atom_site_fract_x
_atom_site_fract_y
_atom_site_fract_z
Si Si1 0.342522 0.185262 0.170891
Si Si2 0.966074 0.625706 0.676426
Si Si3 0.917192 0.775522 0.327225
Si Si4 0.024609 0.132880 0.256669
Si Si5 0.769894 0.155390 0.490836
Si Si6 0.098259 0.449432 0.877125
Si Si7 0.807941 0.116306 0.021395
O O1 0.466987 0.159431 0.185237
O O2 0.370228 0.237119 0.195220
O O3 0.282320 0.170591 0.337788
O O4 0.259322 0.164115 0.008867
O O5 0.826326 0.628128 0.638369
O O6 0.000000 0.642477 0.500000
O O7 0.031976 0.578830 0.717943
O O8 0.811332 0.801391 0.396655
O O9 0.000000 0.757341 0.500000
O O10 0.993117 0.813950 0.250955
O O11 0.111534 0.128360 0.435485
O O12 0.105239 0.117369 0.119957
O O13 0.896810 0.111250 0.197425
O O14 0.129688 0.500000 0.836474
O O15 0.209896 0.421417 0.968933
O O16 0.000000 0.450711 0.000000
#
# Coordination Sequence:
#
# PCOD9171322 Si02
#       7
#     8   8   8   8   8   8   8
#     4   9  17  30  48  73 109 144 186 225 259 299
#     4   9  18  33  54  80 108 138 174 220 271 317
#     4  10  18  27  46  75 106 146 190 222 255 297
#     4   9  19  33  50  74 107 148 183 213 256 311
#     4   9  17  29  49  77 106 145 184 220 260 306
#     4  10  22  39  62  86 105 130 170 223 283 340
#     4   9  19  37  55  71 107 143 175 220 268 324
#
# _framework density 20.793310999999999
#
# number of rings (size 3 to 8) (size 9 to 14) (size 15 to 20)
#    0.000    2.714    0.000    2.571    2.000    3.143 
#    0.000    1.429   12.571    0.857    0.000    2.000 
#    0.000    0.000    0.000    0.000    0.000    0.000 
#
# Total GULP energy -156005.627425 kJ/mol
# GULP energy per Si atom -5571.629551 kJ/mol
# Density = 2.074598 g / cm^3
# Si number density = 20.793311 Si / 1000 Ang^3
#
#
#
# Elastic Constant Matrix: (Units=GPa)
#
#
# Indices 1 2 3 4 5 6 
#
# 1 137.1928 46.9463 49.2968 0.0000 43.8837 0.0000
# 2 46.9463 97.5475 30.3147 0.0000 29.5711 0.0000
# 3 49.2968 30.3147 77.3695 0.0000 29.7168 0.0000
# 4 0.0000 0.0000 0.0000 15.8497 0.0000 -1.2580
# 5 43.8837 29.5711 29.7168 0.0000 51.6230 0.0000
# 6 0.0000 0.0000 0.0000 -1.2580 0.0000 26.6291
#
#
#
# Elastic Compliance Matrix: (Units=1/GPa)
#
#
# Indices 1 2 3 4 5 6 
#
# 1 0.011522 -0.002448 -0.004055 0.000000 -0.006057 0.000000
# 2 -0.002448 0.013394 -0.001978 0.000000 -0.004453 0.000000
# 3 -0.004055 -0.001978 0.018648 0.000000 -0.006154 0.000000
# 4 0.000000 0.000000 0.000000 0.063330 0.000000 0.002992
# 5 -0.006057 -0.004453 -0.006154 0.000000 0.030614 0.000000
# 6 0.000000 0.000000 0.000000 0.002992 0.000000 0.037694
#
#
# Mechanical properties :
#
#
# Convention : Reuss Voigt Hill
#
# Bulk Modulus (GPa) = 37.59336 62.80281 50.19809
# Shear Modulus (GPa) = 24.87175 31.19048 28.03111
#
# Velocity S-wave (km/s) = 3.46228 3.87722 3.67561
# Velocity P-wave (km/s) = 5.83969 7.09314 6.49672
#
# Compressibility (1/GPa) = 0.02660044
#
# Stress axis : x y z
#
# Youngs Moduli (GPa) = 86.79416 74.65900 53.62641
#
# Poissons Ratio (x) = 0.18280 0.21746
# Poissons Ratio (y) = 0.21251 0.10606
# Poissons Ratio (z) = 0.35196 0.14766
#
# Static dielectric constant tensor:
#      x y z
#    x 1.837590 0.000000 -0.004630 
#    y 0.000000 1.714310 0.000000 
#    z -0.004630 0.000000 1.889940 
# 
# From -- ./inp_files/54306.got.cif
#   From: 2010.05.17/outbox.cif.g08.bks.cpg/sg12_28_cif.got.tgz:54306.got - 2010.06.03 13:09:07.
