data_PCOD9171939
_publ_section_title
;
Structure prediction by ZEFSAII (Michael W. Deem and Ramdas Pophale) SiO2 
 PCOD9171939
Probable space group: C 2/M
;
_chemical_formula_sum "Si O2"
_cell_formula_units_Z 56
_cell_length_a 15.360636
_cell_length_b 24.103602
_cell_length_c 7.808196
_cell_angle_alpha 90.000000
_cell_angle_beta 131.141976
_cell_angle_gamma 90.000000
_cell_volume 2177.127579
_symmetry_space_group_name_H-M "C 2/M"
_symmetry_group_IT_number 12
_symmetry_cell_setting 'monoclinic'
loop_
_space_group_symop_operation_xyz
x,y,z
-x,y,-z
-x,-y,-z
x,-y,z
1/2+x,1/2+y,z
1/2-x,1/2+y,-z
1/2-x,1/2-y,-z
1/2+x,1/2-y,z
loop_
_atom_site_type_symbol
_atom_site_label
_atom_site_fract_x
_atom_site_fract_y
_atom_site_fract_z
Si Si1 0.571381 0.581198 0.423843
Si Si2 0.845720 0.801554 0.514942
Si Si3 0.645184 0.560349 0.013959
Si Si4 0.339527 0.059806 0.864493
Si Si5 0.274893 0.156839 0.979787
Si Si6 0.656412 0.813600 0.572317
Si Si7 0.634160 0.062199 0.486856
O O1 0.500000 0.565543 0.500000
O O2 0.570485 0.646990 0.392291
O O3 0.492832 0.559555 0.168580
O O4 0.702783 0.563997 0.631689
O O5 0.767457 0.810112 0.242189
O O6 0.767654 0.810733 0.585117
O O7 0.906062 0.741685 0.578246
O O8 0.678103 0.500000 0.981159
O O9 0.683992 0.613383 0.950360
O O10 0.727640 0.564135 0.286597
O O11 0.363364 0.111438 0.016592
O O12 0.395012 0.062436 0.750347
O O13 0.363543 0.000000 0.973022
O O14 0.314872 0.193233 0.190226
O O15 0.601791 0.875141 0.500024
O O16 0.599149 0.000000 0.505147
#
# Coordination Sequence:
#
# PCOD9171939 Si02
#       7
#     8   8   8   8   8   8   8
#     4  11  19  30  43  63  94 125 164 191 224 272
#     4  10  20  34  47  63  85 121 161 199 235 264
#     4  10  19  29  44  66  98 131 159 188 223 270
#     4  10  18  29  44  64  94 126 155 188 228 268
#     4  10  18  30  47  67  85 120 160 197 228 267
#     4  10  19  34  50  63  85 117 163 199 235 271
#     4   9  18  32  47  68  92 121 159 195 232 272
#
# _framework density 25.721965000000001
#
# number of rings (size 3 to 8) (size 9 to 14) (size 15 to 20)
#    0.000    2.000    5.714    1.286    0.000    1.714 
#    0.000    2.143    0.000    0.000    0.000    0.000 
#    0.000    0.571    0.000    0.000    0.000   32.286 
#
# Total GULP energy -156035.003219 kJ/mol
# GULP energy per Si atom -5572.678686 kJ/mol
# Density = 2.566342 g / cm^3
# Si number density = 25.721965 Si / 1000 Ang^3
#
#
#
# Elastic Constant Matrix: (Units=GPa)
#
#
# Indices 1 2 3 4 5 6 
#
# 1 74.5838 17.3456 45.4905 0.0000 -5.0676 0.0000
# 2 17.3456 191.0960 5.7001 0.0000 -1.4757 0.0000
# 3 45.4905 5.7001 139.7013 0.0000 -16.2852 0.0000
# 4 0.0000 0.0000 0.0000 14.8135 0.0000 -2.8773
# 5 -5.0676 -1.4757 -16.2852 0.0000 45.4950 0.0000
# 6 0.0000 0.0000 0.0000 -2.8773 0.0000 -9.0823
#
#
#
# Elastic Compliance Matrix: (Units=1/GPa)
#
#
# Indices 1 2 3 4 5 6 
#
# 1 0.017091 -0.001387 -0.005522 0.000000 -0.000118 0.000000
# 2 -0.001387 0.005352 0.000246 0.000000 0.000107 0.000000
# 3 -0.005522 0.000246 0.009262 0.000000 0.002708 0.000000
# 4 0.000000 0.000000 0.000000 0.063593 0.000000 -0.020146
# 5 -0.000118 0.000107 0.002708 0.000000 0.022940 0.000000
# 6 0.000000 0.000000 0.000000 -0.020146 0.000000 -0.103722
#
#
# Mechanical properties :
#
#
# Convention : Reuss Voigt Hill
#
# Bulk Modulus (GPa) = 54.41520 60.27260 57.34390
# Shear Modulus (GPa) = 147.18788 32.70155 89.94471
#
# Velocity S-wave (km/s) = 7.57277 3.56946 5.91979
# Velocity P-wave (km/s) = 9.88249 6.36171 8.31068
#
# Compressibility (1/GPa) = 0.01837722
#
# Stress axis : x y z
#
# Youngs Moduli (GPa) = 58.51176 186.83192 107.96784
#
# Poissons Ratio (x) = 0.25923 0.59623
# Poissons Ratio (y) = 0.08118 -0.02655
# Poissons Ratio (z) = 0.32312 -0.04594
#
# Static dielectric constant tensor:
#      x y z
#    x 2.093650 0.000000 0.008260 
#    y 0.000000 2.055050 0.000000 
#    z 0.008260 0.000000 2.047930 
# 
# From -- ./inp_files/99546.got.cif
#   From: 2010.05.17/outbox.cif.g08.bks.cpg/sg12_50_cif.got.tgz:99546.got - 2010.06.03 13:09:07.
