data_PCOD9171427
_publ_section_title
;
Structure prediction by ZEFSAII (Michael W. Deem and Ramdas Pophale) SiO2 
 PCOD9171427
Probable space group: C 2/M
;
_chemical_formula_sum "Si O2"
_cell_formula_units_Z 64
_cell_length_a 32.140109
_cell_length_b 19.142222
_cell_length_c 8.606911
_cell_angle_alpha 90.000000
_cell_angle_beta 57.616281
_cell_angle_gamma 90.000000
_cell_volume 4471.739047
_symmetry_space_group_name_H-M "C 2/M"
_symmetry_group_IT_number 12
_symmetry_cell_setting 'monoclinic'
loop_
_space_group_symop_operation_xyz
x,y,z
-x,y,-z
-x,-y,-z
x,-y,z
1/2+x,1/2+y,z
1/2-x,1/2+y,-z
1/2-x,1/2-y,-z
1/2+x,1/2-y,z
loop_
_atom_site_type_symbol
_atom_site_label
_atom_site_fract_x
_atom_site_fract_y
_atom_site_fract_z
Si Si1 0.945983 0.080867 0.544136
Si Si2 0.255456 0.579267 0.428131
Si Si3 0.146278 0.163888 0.143518
Si Si4 0.798921 0.711839 0.838623
Si Si5 0.255456 0.420733 0.050043
Si Si6 0.146278 0.163888 0.771368
Si Si7 0.298921 0.211839 0.465693
Si Si8 0.054017 0.919133 0.828070
O O1 0.903480 0.130200 0.694219
O O2 0.946535 0.084044 0.356930
O O3 0.000000 0.099113 0.500000
O O4 0.935977 0.000000 0.610878
O O5 0.251416 0.500000 0.492722
O O6 0.256376 0.577494 0.237248
O O7 0.307123 0.615390 0.372737
O O8 0.210749 0.631300 0.560881
O O9 0.156869 0.242171 0.182460
O O10 0.192877 0.115390 0.101229
O O11 0.145965 0.164463 0.958071
O O12 0.789251 0.631300 0.903875
O O13 0.799873 0.715845 0.650255
O O14 0.750000 0.750000 0.000000
O O15 0.251416 0.500000 0.001613
O O16 0.156869 0.242171 0.690066
O O17 0.096520 0.130200 0.808140
O O18 0.250000 0.250000 0.500000
O O19 0.064023 0.000000 0.854784
O O20 0.000000 0.900887 0.000000
#
# Coordination Sequence:
#
# PCOD9171427 Si02
#       8
#     8   8   8   8   8   8   8   8
#     4  10  20  32  45  62  84 109 139 175 211 246
#     4   8  14  24  39  59  81 107 139 172 206 244
#     4  10  18  28  43  60  82 113 144 173 207 248
#     4   9  16  26  40  58  81 108 139 175 211 249
#     4   8  14  24  39  59  81 107 139 172 206 244
#     4  10  18  28  43  60  82 113 144 173 207 248
#     4   9  16  26  40  58  81 108 139 175 211 249
#     4  10  20  32  45  62  84 109 139 175 211 246
#
# _framework density 14.312106
#
# number of rings (size 3 to 8) (size 9 to 14) (size 15 to 20)
#    0.000    2.750    0.000    4.500    0.000    2.500 
#    0.000    0.000    0.000   15.000    0.000    0.000 
#    0.000    1.000    0.000    2.750    0.000    4.000 
#
# Total GULP energy -178180.540818 kJ/mol
# GULP energy per Si atom -5568.141901 kJ/mol
# Density = 1.427953 g / cm^3
# Si number density = 14.312106 Si / 1000 Ang^3
#
#
#
# Elastic Constant Matrix: (Units=GPa)
#
#
# Indices 1 2 3 4 5 6 
#
# 1 76.4959 51.7449 27.6348 0.0000 -12.6255 0.0000
# 2 51.7449 119.4158 41.0153 0.0000 -18.6056 0.0000
# 3 27.6348 41.0153 61.3439 0.0000 -13.6486 0.0000
# 4 0.0000 0.0000 0.0000 21.3941 0.0000 -5.5980
# 5 -12.6255 -18.6056 -13.6486 0.0000 19.0159 0.0000
# 6 0.0000 0.0000 0.0000 -5.5980 0.0000 24.6224
#
#
#
# Elastic Compliance Matrix: (Units=1/GPa)
#
#
# Indices 1 2 3 4 5 6 
#
# 1 0.019457 -0.006629 -0.003453 0.000000 0.003954 0.000000
# 2 -0.006629 0.013837 -0.005037 0.000000 0.005522 0.000000
# 3 -0.003453 -0.005037 0.023346 0.000000 0.009536 0.000000
# 4 0.000000 0.000000 0.000000 0.049698 0.000000 0.011299
# 5 0.003954 0.005522 0.009536 0.000000 0.067460 0.000000
# 6 0.000000 0.000000 0.000000 0.011299 0.000000 0.043182
#
#
# Mechanical properties :
#
#
# Convention : Reuss Voigt Hill
#
# Bulk Modulus (GPa) = 37.87509 55.33840 46.60675
# Shear Modulus (GPa) = 19.52983 22.13054 20.83018
#
# Velocity S-wave (km/s) = 3.69801 3.93654 3.81914
# Velocity P-wave (km/s) = 6.68991 7.70787 7.21686
#
# Compressibility (1/GPa) = 0.02640258
#
# Stress axis : x y z
#
# Youngs Moduli (GPa) = 51.39626 72.27140 42.83310
#
# Poissons Ratio (x) = 0.47907 0.14791
# Poissons Ratio (y) = 0.34070 0.21573
# Poissons Ratio (z) = 0.17748 0.36400
#
# Static dielectric constant tensor:
#      x y z
#    x 1.452920 0.000000 0.020100 
#    y 0.000000 1.499620 0.000000 
#    z 0.020100 0.000000 1.464510 
# 
# From -- ./inp_files/98846.got.cif
#   From: 2010.05.17/outbox.cif.g08.bks.cpg/sg12_50_cif.got.tgz:98846.got - 2010.06.03 13:09:07.
