data_PCOD9171020
_publ_section_title
;
Structure prediction by ZEFSAII (Michael W. Deem and Ramdas Pophale) SiO2 
 PCOD9171020
Probable space group: C 2/M
;
_chemical_formula_sum "Si O2"
_cell_formula_units_Z 48
_cell_length_a 17.976450
_cell_length_b 27.001420
_cell_length_c 8.203381
_cell_angle_alpha 90.000000
_cell_angle_beta 142.764756
_cell_angle_gamma 90.000000
_cell_volume 2409.365296
_symmetry_space_group_name_H-M "C 2/M"
_symmetry_group_IT_number 12
_symmetry_cell_setting 'monoclinic'
loop_
_space_group_symop_operation_xyz
x,y,z
-x,y,-z
-x,-y,-z
x,-y,z
1/2+x,1/2+y,z
1/2-x,1/2+y,-z
1/2-x,1/2-y,-z
1/2+x,1/2-y,z
loop_
_atom_site_type_symbol
_atom_site_label
_atom_site_fract_x
_atom_site_fract_y
_atom_site_fract_z
Si Si1 0.747796 0.370068 0.526852
Si Si2 0.696232 0.306268 0.926306
Si Si3 0.401137 0.137853 0.136008
Si Si4 0.549234 0.682489 0.334677
Si Si5 0.071543 0.556505 0.299769
Si Si6 0.419645 0.791596 0.699812
O O1 0.606558 0.361478 0.327469
O O2 0.799111 0.417240 0.518790
O O3 0.798958 0.323679 0.512946
O O4 0.820749 0.367535 0.828519
O O5 0.596769 0.312505 0.896385
O O6 0.615250 0.318009 0.625092
O O7 0.750000 0.250000 0.000000
O O8 0.805117 0.346917 0.108480
O O9 0.490420 0.090249 0.281009
O O10 0.492727 0.184835 0.283590
O O11 0.598468 0.734127 0.349978
O O12 0.083768 0.500000 0.375315
O O13 0.000000 0.556776 0.000000
O O14 0.500000 0.799973 0.000000
#
# Coordination Sequence:
#
# PCOD9171020 Si02
#       6
#     8   8   8   8   8   8
#     4   8  15  24  36  58  81 102 132 165 208 249
#     4  10  18  28  39  54  83 118 149 166 184 239
#     4   8  14  25  38  55  80 107 136 166 199 237
#     4  10  18  26  40  57  80 120 142 159 205 235
#     4   8  13  23  41  60  78 102 131 170 216 249
#     4   9  15  25  40  57  82 112 133 168 204 242
#
# _framework density 19.922260000000001
#
# number of rings (size 3 to 8) (size 9 to 14) (size 15 to 20)
#    0.000    3.167    1.667    2.500    0.000    0.000 
#    0.000    0.000    0.000    1.000    0.000    7.000 
#    0.000   11.333    0.000    0.000    0.000    0.000 
#
# Total GULP energy -133661.077354 kJ/mol
# GULP energy per Si atom -5569.211556 kJ/mol
# Density = 1.987692 g / cm^3
# Si number density = 19.922260 Si / 1000 Ang^3
#
#
#
# Elastic Constant Matrix: (Units=GPa)
#
#
# Indices 1 2 3 4 5 6 
#
# 1 69.5170 43.4601 39.2169 0.0000 36.4205 0.0000
# 2 43.4601 122.0956 22.8314 0.0000 39.5236 0.0000
# 3 39.2169 22.8314 65.5758 0.0000 8.8655 0.0000
# 4 0.0000 0.0000 0.0000 15.5593 0.0000 3.2655
# 5 36.4205 39.5236 8.8655 0.0000 37.3473 0.0000
# 6 0.0000 0.0000 0.0000 3.2655 0.0000 9.8267
#
#
#
# Elastic Compliance Matrix: (Units=1/GPa)
#
#
# Indices 1 2 3 4 5 6 
#
# 1 0.051964 0.001047 -0.025251 0.000000 -0.045789 0.000000
# 2 0.001047 0.012938 -0.003246 0.000000 -0.013943 0.000000
# 3 -0.025251 -0.003246 0.028605 0.000000 0.021269 0.000000
# 4 0.000000 0.000000 0.000000 0.069089 0.000000 -0.022959
# 5 -0.045789 -0.013943 0.021269 0.000000 0.081135 0.000000
# 6 0.000000 0.000000 0.000000 -0.022959 0.000000 0.109393
#
#
# Mechanical properties :
#
#
# Convention : Reuss Voigt Hill
#
# Bulk Modulus (GPa) = 25.90101 52.02280 38.96190
# Shear Modulus (GPa) = 11.87953 22.65867 17.26910
#
# Velocity S-wave (km/s) = 2.44456 3.37613 2.94738
# Velocity P-wave (km/s) = 4.58226 6.43174 5.58410
#
# Compressibility (1/GPa) = 0.03860853
#
# Stress axis : x y z
#
# Youngs Moduli (GPa) = 19.24399 77.29265 34.95866
#
# Poissons Ratio (x) = -0.08096 0.88274
# Poissons Ratio (y) = -0.02016 0.11347
# Poissons Ratio (z) = 0.48593 0.25089
#
# Static dielectric constant tensor:
#      x y z
#    x 1.899940 0.000000 -0.105110 
#    y 0.000000 1.691050 0.000000 
#    z -0.105110 0.000000 1.852300 
# 
# From -- ./inp_files/134959.got.cif
#   From: 2010.05.17/outbox.cif.g08.bks.cpg/sg12_68_cif.got.tgz:134959.got - 2010.06.03 13:09:07.
