data_PCOD9171726
_publ_section_title
;
Structure prediction by ZEFSAII (Michael W. Deem and Ramdas Pophale) SiO2 
 PCOD9171726
Probable space group: C 2/M
;
_chemical_formula_sum "Si O2"
_cell_formula_units_Z 48
_cell_length_a 15.077665
_cell_length_b 13.718310
_cell_length_c 11.592210
_cell_angle_alpha 90.000000
_cell_angle_beta 104.127485
_cell_angle_gamma 90.000000
_cell_volume 2325.214316
_symmetry_space_group_name_H-M "C 2/M"
_symmetry_group_IT_number 12
_symmetry_cell_setting 'monoclinic'
loop_
_space_group_symop_operation_xyz
x,y,z
-x,y,-z
-x,-y,-z
x,-y,z
1/2+x,1/2+y,z
1/2-x,1/2+y,-z
1/2-x,1/2-y,-z
1/2+x,1/2-y,z
loop_
_atom_site_type_symbol
_atom_site_label
_atom_site_fract_x
_atom_site_fract_y
_atom_site_fract_z
Si Si1 0.903769 0.109934 0.822324
Si Si2 0.125791 0.890682 0.920496
Si Si3 0.436794 0.245411 0.653087
Si Si4 0.357306 0.759180 0.260023
Si Si5 0.873525 0.109479 0.471015
Si Si6 0.184425 0.610594 0.552953
O O1 0.885047 0.209711 0.746502
O O2 0.015454 0.109828 0.864122
O O3 0.878608 0.000000 0.768976
O O4 0.864670 0.117387 0.938753
O O5 0.166988 0.798620 0.864496
O O6 0.158349 0.000000 0.895831
O O7 0.536451 0.207375 0.716800
O O8 0.447444 0.343286 0.579784
O O9 0.382646 0.173847 0.550685
O O10 0.354443 0.673460 0.353851
O O11 0.309940 0.846512 0.315574
O O12 0.781257 0.113655 0.519134
O O13 0.893583 0.000000 0.446118
O O14 0.151836 0.500000 0.547206
#
# Coordination Sequence:
#
# PCOD9171726 Si02
#       6
#     8   8   8   8   8   8
#     4   8  14  25  42  67  97 120 137 169 225 282
#     4   8  14  25  42  67  97 120 137 169 225 282
#     4  10  18  28  47  71  91 113 147 189 224 262
#     4  10  18  28  47  71  91 113 147 189 224 262
#     4  10  19  30  45  65  92 120 145 181 230 279
#     4  10  21  34  45  59  88 130 161 183 218 261
#
# _framework density 20.643259
#
# number of rings (size 3 to 8) (size 9 to 14) (size 15 to 20)
#    0.000    2.667    0.000    6.000    0.000    4.000 
#    0.000    0.000    0.000    5.000    0.000    9.333 
#    0.000    0.000    0.000    0.000    0.000    0.000 
#
# Total GULP energy -133748.263249 kJ/mol
# GULP energy per Si atom -5572.844302 kJ/mol
# Density = 2.059627 g / cm^3
# Si number density = 20.643259 Si / 1000 Ang^3
#
#
#
# Elastic Constant Matrix: (Units=GPa)
#
#
# Indices 1 2 3 4 5 6 
#
# 1 38.3880 8.6360 6.3318 0.0000 -9.2334 0.0000
# 2 8.6360 111.5470 39.9938 0.0000 -9.5482 0.0000
# 3 6.3318 39.9938 90.0056 0.0000 -14.3247 0.0000
# 4 0.0000 0.0000 0.0000 35.7889 0.0000 -9.1001
# 5 -9.2334 -9.5482 -14.3247 0.0000 17.4439 0.0000
# 6 0.0000 0.0000 0.0000 -9.1001 0.0000 19.1275
#
#
#
# Elastic Compliance Matrix: (Units=1/GPa)
#
#
# Indices 1 2 3 4 5 6 
#
# 1 0.030030 -0.001321 0.001023 0.000000 0.016012 0.000000
# 2 -0.001321 0.010798 -0.004459 0.000000 0.001550 0.000000
# 3 0.001023 -0.004459 0.014629 0.000000 0.010114 0.000000
# 4 0.000000 0.000000 0.000000 0.031787 0.000000 0.015123
# 5 0.016012 0.001550 0.010114 0.000000 0.074957 0.000000
# 6 0.000000 0.000000 0.000000 0.015123 0.000000 0.059476
#
#
# Mechanical properties :
#
#
# Convention : Reuss Voigt Hill
#
# Bulk Modulus (GPa) = 21.76567 38.87376 30.31971
# Shear Modulus (GPa) = 20.28358 26.80399 23.54378
#
# Velocity S-wave (km/s) = 3.13801 3.60729 3.38080
# Velocity P-wave (km/s) = 4.86786 6.01849 5.47349
#
# Compressibility (1/GPa) = 0.04594392
#
# Stress axis : x y z
#
# Youngs Moduli (GPa) = 33.30033 92.60666 68.35559
#
# Poissons Ratio (x) = 0.12234 -0.06992
# Poissons Ratio (y) = 0.04399 0.30477
# Poissons Ratio (z) = -0.03406 0.41290
#
# Static dielectric constant tensor:
#      x y z
#    x 1.811920 0.000000 -0.024200 
#    y 0.000000 1.756380 0.000000 
#    z -0.024200 0.000000 1.811430 
# 
# From -- ./inp_files/142892.got.cif
#   From: 2010.05.17/outbox.cif.g08.bks.cpg/sg12_72_cif.got.tgz:142892.got - 2010.06.03 13:09:07.
