data_PCOD9171036
_publ_section_title
;
Structure prediction by ZEFSAII (Michael W. Deem and Ramdas Pophale) SiO2 
 PCOD9171036
Probable space group: C 2/M
;
_chemical_formula_sum "Si O2"
_cell_formula_units_Z 64
_cell_length_a 15.072457
_cell_length_b 30.913371
_cell_length_c 17.063558
_cell_angle_alpha 90.000000
_cell_angle_beta 155.445559
_cell_angle_gamma 90.000000
_cell_volume 3303.933694
_symmetry_space_group_name_H-M "C 2/M"
_symmetry_group_IT_number 12
_symmetry_cell_setting 'monoclinic'
loop_
_space_group_symop_operation_xyz
x,y,z
-x,y,-z
-x,-y,-z
x,-y,z
1/2+x,1/2+y,z
1/2-x,1/2+y,-z
1/2-x,1/2-y,-z
1/2+x,1/2-y,z
loop_
_atom_site_type_symbol
_atom_site_label
_atom_site_fract_x
_atom_site_fract_y
_atom_site_fract_z
Si Si1 0.863230 0.363311 0.212458
Si Si2 0.251767 0.186540 0.272922
Si Si3 0.017021 0.701697 0.816208
Si Si4 0.189346 0.451670 0.762688
Si Si5 0.935094 0.781140 0.249915
Si Si6 0.806736 0.284373 0.791618
Si Si7 0.855280 0.862481 0.662596
Si Si8 0.817335 0.048422 0.688350
O O1 0.747354 0.332913 0.182784
O O2 0.881855 0.339839 0.144743
O O3 0.777206 0.411816 0.152089
O O4 0.108501 0.364360 0.438920
O O5 0.500000 0.189001 0.500000
O O6 0.157293 0.234094 0.200202
O O7 0.137386 0.156359 0.243725
O O8 0.961751 0.737685 0.705386
O O9 0.823681 0.692511 0.721083
O O10 0.203440 0.719451 0.022081
O O11 0.243044 0.500000 0.833918
O O12 0.307778 0.444157 0.774756
O O13 0.935532 0.451793 0.538178
O O14 0.892850 0.781399 0.309104
O O15 0.040545 0.826112 0.308278
O O16 0.000000 0.302139 0.000000
O O17 0.924809 0.912388 0.727068
O O18 0.898938 0.000000 0.738398
#
# Coordination Sequence:
#
# PCOD9171036 Si02
#       8
#     8   8   8   8   8   8   8   8
#     4  10  18  28  44  68  93 118 148 180 215 256
#     4  10  18  26  41  66  94 117 143 180 218 250
#     4  10  20  32  46  63  85 116 152 184 219 261
#     4   8  13  23  41  65  92 119 145 174 211 259
#     4  10  20  32  46  63  85 116 152 184 219 261
#     4  10  20  34  46  59  84 118 154 185 214 259
#     4  10  18  28  44  68  93 118 148 180 215 256
#     4   8  13  23  41  65  92 119 145 174 211 259
#
# _framework density 19.370850000000001
#
# number of rings (size 3 to 8) (size 9 to 14) (size 15 to 20)
#    0.000    2.500    3.750    0.750    0.000    1.500 
#    0.000    0.000    0.000    0.750    0.000    2.625 
#    0.000    7.000    0.000    0.000    0.000    0.000 
#
# Total GULP energy -178560.766178 kJ/mol
# GULP energy per Si atom -5580.023943 kJ/mol
# Density = 1.932676 g / cm^3
# Si number density = 19.370850 Si / 1000 Ang^3
#
#
#
# Elastic Constant Matrix: (Units=GPa)
#
#
# Indices 1 2 3 4 5 6 
#
# 1 124.0005 60.3420 -1.7702 -0.0005 -0.1608 -0.0002
# 2 60.3420 144.4527 -2.0197 -0.0005 8.7313 -0.0002
# 3 -1.7702 -2.0197 56.1927 -0.0013 0.0078 -0.0010
# 4 -0.0005 -0.0005 -0.0013 9.8713 -0.0006 0.2737
# 5 -0.1608 8.7313 0.0078 -0.0006 12.2428 -0.0004
# 6 -0.0002 -0.0002 -0.0010 0.2737 -0.0004 20.8404
#
#
#
# Elastic Compliance Matrix: (Units=1/GPa)
#
#
# Indices 1 2 3 4 5 6 
#
# 1 0.010252 -0.004482 0.000161 0.000000 0.003331 0.000000
# 2 -0.004482 0.009197 0.000190 0.000000 -0.006618 0.000000
# 3 0.000161 0.000190 0.017808 0.000002 -0.000145 0.000001
# 4 0.000000 0.000000 0.000002 0.101341 0.000005 -0.001331
# 5 0.003331 -0.006618 -0.000145 0.000005 0.086445 0.000001
# 6 0.000000 0.000000 0.000001 -0.001331 0.000001 0.048001
#
#
# Mechanical properties :
#
#
# Convention : Reuss Voigt Hill
#
# Bulk Modulus (GPa) = 34.48564 48.63890 41.56227
# Shear Modulus (GPa) = 17.18391 26.46382 21.82386
#
# Velocity S-wave (km/s) = 2.98166 3.70018 3.36018
# Velocity P-wave (km/s) = 5.44933 6.58931 6.04624
#
# Compressibility (1/GPa) = 0.02899757
#
# Stress axis : x y z
#
# Youngs Moduli (GPa) = 97.54212 108.72537 56.15499
#
# Poissons Ratio (x) = 0.48727 -0.00906
# Poissons Ratio (y) = 0.43715 -0.01069
# Poissons Ratio (z) = -0.01575 -0.02069
#
# Static dielectric constant tensor:
#      x y z
#    x 1.706950 0.000000 0.000130 
#    y 0.000000 1.674890 0.000000 
#    z 0.000130 0.000000 1.800830 
# 
# From -- ./inp_files/273193.got.cif
#   From: 2010.05.17/outbox.cif.g08.bks.cpg/sg12_137_cif.got.tgz:273193.got - 2010.06.03 13:09:07.
