data_PCOD9171371
_publ_section_title
;
Structure prediction by ZEFSAII (Michael W. Deem and Ramdas Pophale) SiO2 
 PCOD9171371
Probable space group: C 2/M
;
_chemical_formula_sum "Si O2"
_cell_formula_units_Z 40
_cell_length_a 15.793002
_cell_length_b 29.324120
_cell_length_c 5.402755
_cell_angle_alpha 90.000000
_cell_angle_beta 121.240237
_cell_angle_gamma 90.000000
_cell_volume 2139.297565
_symmetry_space_group_name_H-M "C 2/M"
_symmetry_group_IT_number 12
_symmetry_cell_setting 'monoclinic'
loop_
_space_group_symop_operation_xyz
x,y,z
-x,y,-z
-x,-y,-z
x,-y,z
1/2+x,1/2+y,z
1/2-x,1/2+y,-z
1/2-x,1/2-y,-z
1/2+x,1/2-y,z
loop_
_atom_site_type_symbol
_atom_site_label
_atom_site_fract_x
_atom_site_fract_y
_atom_site_fract_z
Si Si1 0.621179 0.408822 0.935767
Si Si2 0.617315 0.684283 0.700875
Si Si3 0.896400 0.946266 0.593512
Si Si4 0.885120 0.290973 0.246368
Si Si5 0.277812 0.803223 0.578267
O O1 0.640122 0.355607 0.927836
O O2 0.502588 0.420180 0.755287
O O3 0.656976 0.433683 0.741534
O O4 0.659461 0.429859 0.246945
O O5 0.500000 0.682235 0.500000
O O6 0.639620 0.736495 0.804979
O O7 0.677458 0.674885 0.538841
O O8 0.917202 0.000000 0.635986
O O9 0.826188 0.314029 0.386138
O O10 0.000000 0.294260 0.500000
O O11 0.854147 0.308424 0.926853
O O12 0.250000 0.750000 0.500000
#
# Coordination Sequence:
#
# PCOD9171371 Si02
#       5
#     8   8   8   8   8
#     4  10  18  28  41  62  83 116 161 192 221 259
#     4  10  19  32  46  70  96 122 155 208 235 274
#     4  10  18  30  42  57  87 122 165 191 213 270
#     4  10  21  36  52  67  89 126 164 206 255 296
#     4  10  20  35  49  70  93 122 158 202 256 298
#
# _framework density 18.697724999999998
#
# number of rings (size 3 to 8) (size 9 to 14) (size 15 to 20)
#    0.000    2.000    2.000    6.000    0.000    4.800 
#    3.600    0.000    0.000    0.000    0.000    0.000 
#    0.000    0.000    0.000    0.000    0.000  116.000 
#
# Total GULP energy -111431.794508 kJ/mol
# GULP energy per Si atom -5571.589725 kJ/mol
# Density = 1.865517 g / cm^3
# Si number density = 18.697725 Si / 1000 Ang^3
#
#
#
# Elastic Constant Matrix: (Units=GPa)
#
#
# Indices 1 2 3 4 5 6 
#
# 1 91.5426 43.9768 60.9259 0.0000 -10.2223 0.0000
# 2 43.9768 62.4453 25.8891 0.0000 -5.8690 0.0000
# 3 60.9259 25.8891 128.7787 0.0000 -31.0771 0.0000
# 4 0.0000 0.0000 0.0000 15.6745 0.0000 -8.7685
# 5 -10.2223 -5.8690 -31.0771 0.0000 41.5906 0.0000
# 6 0.0000 0.0000 0.0000 -8.7685 0.0000 13.7696
#
#
#
# Elastic Compliance Matrix: (Units=1/GPa)
#
#
# Indices 1 2 3 4 5 6 
#
# 1 0.022423 -0.012411 -0.008792 0.000000 -0.002809 0.000000
# 2 -0.012411 0.024340 0.001307 0.000000 0.001361 0.000000
# 3 -0.008792 0.001307 0.013645 0.000000 0.008220 0.000000
# 4 0.000000 0.000000 0.000000 0.099101 0.000000 0.063107
# 5 -0.002809 0.001361 0.008220 0.000000 0.029687 0.000000
# 6 0.000000 0.000000 0.000000 0.063107 0.000000 0.112811
#
#
# Mechanical properties :
#
#
# Convention : Reuss Voigt Hill
#
# Bulk Modulus (GPa) = 48.50114 60.48335 54.49224
# Shear Modulus (GPa) = 14.34013 24.33860 19.33937
#
# Velocity S-wave (km/s) = 2.77238 3.61181 3.21957
# Velocity P-wave (km/s) = 6.02030 7.05774 6.55956
#
# Compressibility (1/GPa) = 0.02061807
#
# Stress axis : x y z
#
# Youngs Moduli (GPa) = 44.59615 41.08399 73.28431
#
# Poissons Ratio (x) = 0.50988 0.64428
# Poissons Ratio (y) = 0.55347 -0.09576
# Poissons Ratio (z) = 0.39207 -0.05368
#
# Static dielectric constant tensor:
#      x y z
#    x 1.722200 0.000000 -0.046710 
#    y 0.000000 1.658450 0.000000 
#    z -0.046710 0.000000 1.761310 
# 
# From -- ./inp_files/12701.got.cif
#   From: 2010.05.17/outbox.cif.g08.bks.cpg/sg12_7_cif.got.tgz:12701.got - 2010.06.03 13:09:07.
