data_PCOD9171086
_publ_section_title
;
Structure prediction by ZEFSAII (Michael W. Deem and Ramdas Pophale) SiO2 
 PCOD9171086
Probable space group: C 2/M
;
_chemical_formula_sum "Si O2"
_cell_formula_units_Z 64
_cell_length_a 31.491770
_cell_length_b 7.447579
_cell_length_c 14.486483
_cell_angle_alpha 90.000000
_cell_angle_beta 88.870239
_cell_angle_gamma 90.000000
_cell_volume 3396.962230
_symmetry_space_group_name_H-M "C 2/M"
_symmetry_group_IT_number 12
_symmetry_cell_setting 'monoclinic'
loop_
_space_group_symop_operation_xyz
x,y,z
-x,y,-z
-x,-y,-z
x,-y,z
1/2+x,1/2+y,z
1/2-x,1/2+y,-z
1/2-x,1/2-y,-z
1/2+x,1/2-y,z
loop_
_atom_site_type_symbol
_atom_site_label
_atom_site_fract_x
_atom_site_fract_y
_atom_site_fract_z
Si Si1 0.922517 0.710357 0.045340
Si Si2 0.073073 0.779459 0.275303
Si Si3 0.798391 0.215765 0.022966
Si Si4 0.986058 0.215428 0.188887
Si Si5 0.451025 0.280934 0.518718
Si Si6 0.411140 0.280153 0.330828
Si Si7 0.848291 0.795867 0.189073
Si Si8 0.369318 0.293491 0.880390
O O1 0.913417 0.500000 0.041414
O O2 0.968365 0.734375 0.089256
O O3 0.889228 0.797480 0.118791
O O4 0.910184 0.789413 0.947236
O O5 0.066617 0.724128 0.381228
O O6 0.114366 0.717042 0.217020
O O7 0.031524 0.719715 0.220288
O O8 0.073602 0.000000 0.274417
O O9 0.830804 0.285163 0.942639
O O10 0.804848 0.000000 0.027075
O O11 0.750000 0.250000 0.000000
O O12 0.812595 0.285639 0.123536
O O13 0.950877 0.275708 0.265156
O O14 0.987038 0.000000 0.192213
O O15 0.500000 0.224937 0.500000
O O16 0.451843 0.500000 0.518960
O O17 0.421789 0.225003 0.434090
O O18 0.410120 0.500000 0.328944
O O19 0.368139 0.216679 0.281838
O O20 0.835380 0.000000 0.211297
O O21 0.357594 0.500000 0.863514
#
# Coordination Sequence:
#
# PCOD9171086 Si02
#       8
#     8   8   8   8   8   8   8   8
#     4  10  18  27  40  58  81 112 148 182 209 240
#     4   9  16  25  40  60  84 114 146 176 212 250
#     4   9  17  29  46  65  85 106 134 170 210 259
#     4   9  15  25  40  58  81 114 147 175 208 246
#     4   9  13  19  35  65  92 107 137 185 219 234
#     4   8  12  20  37  60  89 113 133 170 214 241
#     4   8  15  28  44  64  88 113 136 167 212 259
#     4   9  18  32  44  59  85 113 138 170 211 259
#
# _framework density 18.840361999999999
#
# number of rings (size 3 to 8) (size 9 to 14) (size 15 to 20)
#    0.000    3.125    1.250    2.625    0.000    2.500 
#    0.000    3.125    0.000    0.000    0.000   11.375 
#    0.000    0.000    0.000    0.000    0.000    0.000 
#
# Total GULP energy -178261.555987 kJ/mol
# GULP energy per Si atom -5570.673625 kJ/mol
# Density = 1.879748 g / cm^3
# Si number density = 18.840362 Si / 1000 Ang^3
#
#
#
# Elastic Constant Matrix: (Units=GPa)
#
#
# Indices 1 2 3 4 5 6 
#
# 1 103.3216 2.4174 80.0601 0.0000 20.5900 0.0000
# 2 2.4174 63.3319 -9.1557 0.0000 -1.9081 0.0000
# 3 80.0601 -9.1557 133.8364 0.0000 9.2614 0.0000
# 4 0.0000 0.0000 0.0000 -24.4643 0.0000 -1.9840
# 5 20.5900 -1.9081 9.2614 0.0000 25.4814 0.0000
# 6 0.0000 0.0000 0.0000 -1.9840 0.0000 0.2829
#
#
#
# Elastic Compliance Matrix: (Units=1/GPa)
#
#
# Indices 1 2 3 4 5 6 
#
# 1 0.022167 -0.003067 -0.012529 0.000000 -0.013587 0.000000
# 2 -0.003067 0.016389 0.002769 0.000000 0.002699 0.000000
# 3 -0.012529 0.002769 0.014814 0.000000 0.004947 0.000000
# 4 0.000000 0.000000 0.000000 -0.026057 0.000000 -0.182724
# 5 -0.013587 0.002699 0.004947 0.000000 0.048627 0.000000
# 6 0.000000 0.000000 0.000000 -0.182724 0.000000 2.253144
#
#
# Mechanical properties :
#
#
# Convention : Reuss Voigt Hill
#
# Bulk Modulus (GPa) = 36.08256 49.68152 42.88204
# Shear Modulus (GPa) = 2.11508 15.40454 8.75981
#
# Velocity S-wave (km/s) = 1.06069 2.86253 2.15861
# Velocity P-wave (km/s) = 4.54900 6.11166 5.38729
#
# Compressibility (1/GPa) = 0.02771422
#
# Stress axis : x y z
#
# Youngs Moduli (GPa) = 45.11296 61.01839 67.50404
#
# Poissons Ratio (x) = 0.18713 0.84579
# Poissons Ratio (y) = 0.13835 -0.18691
# Poissons Ratio (z) = 0.56524 -0.16896
#
# Static dielectric constant tensor:
#      x y z
#    x 1.642740 0.000000 0.023900 
#    y 0.000000 1.770460 0.000000 
#    z 0.023900 0.000000 1.684300 
# 
# From -- ./inp_files/248388.got.cif
#   From: 2010.05.17/outbox.cif.g08.bks.cpg/sg12_125_cif.got.tgz:248388.got - 2010.06.03 13:09:07.
