data_PCOD9171360
_publ_section_title
;
Structure prediction by ZEFSAII (Michael W. Deem and Ramdas Pophale) SiO2 
 PCOD9171360
Probable space group: C 2/M
;
_chemical_formula_sum "Si O2"
_cell_formula_units_Z 64
_cell_length_a 27.663402
_cell_length_b 7.777294
_cell_length_c 20.602873
_cell_angle_alpha 90.000000
_cell_angle_beta 59.557942
_cell_angle_gamma 90.000000
_cell_volume 3821.560011
_symmetry_space_group_name_H-M "C 2/M"
_symmetry_group_IT_number 12
_symmetry_cell_setting 'monoclinic'
loop_
_space_group_symop_operation_xyz
x,y,z
-x,y,-z
-x,-y,-z
x,-y,z
1/2+x,1/2+y,z
1/2-x,1/2+y,-z
1/2-x,1/2-y,-z
1/2+x,1/2-y,z
loop_
_atom_site_type_symbol
_atom_site_label
_atom_site_fract_x
_atom_site_fract_y
_atom_site_fract_z
Si Si1 0.366728 0.208955 0.333549
Si Si2 0.783255 0.209476 0.179432
Si Si3 0.973608 0.696399 0.185252
Si Si4 0.913682 0.799734 0.099979
Si Si5 0.750965 0.793451 0.338306
Si Si6 0.209242 0.204852 0.969188
Si Si7 0.307569 0.793444 0.498175
Si Si8 0.419574 0.795816 0.949878
O O1 0.424697 0.274261 0.263233
O O2 0.312674 0.259388 0.326963
O O3 0.354952 0.267498 0.415605
O O4 0.367807 0.000000 0.331856
O O5 0.848555 0.253882 0.146113
O O6 0.749889 0.272144 0.265238
O O7 0.769577 0.269590 0.115920
O O8 0.780071 0.000000 0.181601
O O9 0.980856 0.500000 0.203088
O O10 0.948114 0.697904 0.129869
O O11 0.035440 0.773210 0.132795
O O12 0.917447 0.000000 0.115369
O O13 0.931228 0.780059 0.013325
O O14 0.704363 0.727284 0.421024
O O15 0.745067 0.000000 0.339872
O O16 0.206206 0.000000 0.966396
O O17 0.250000 0.250000 0.000000
O O18 0.145346 0.265362 0.022513
O O19 0.250000 0.750000 0.500000
O O20 0.313082 0.000000 0.498339
O O21 0.427991 0.000000 0.949361
#
# Coordination Sequence:
#
# PCOD9171360 Si02
#       8
#     8   8   8   8   8   8   8   8
#     4   9  16  25  35  54  81 112 144 174 203 235
#     4   8  15  26  41  61  82 104 135 168 203 245
#     4  10  19  28  39  56  84 116 145 174 206 244
#     4  10  18  28  41  58  82 112 144 179 211 241
#     4   9  14  24  39  56  78 108 141 173 203 239
#     4  10  20  35  51  66  83 105 132 169 213 258
#     4   8  14  22  35  52  75 106 141 173 203 234
#     4  10  20  32  44  60  81 109 141 173 209 250
#
# _framework density 16.747088000000002
#
# number of rings (size 3 to 8) (size 9 to 14) (size 15 to 20)
#    0.000    2.750    1.250    2.250    0.000    2.500 
#    0.000    0.625    0.000    0.000    0.000    0.000 
#    0.000    1.000    0.000   12.750    0.000    1.250 
#
# Total GULP energy -178157.444645 kJ/mol
# GULP energy per Si atom -5567.420145 kJ/mol
# Density = 1.670897 g / cm^3
# Si number density = 16.747088 Si / 1000 Ang^3
#
#
#
# Elastic Constant Matrix: (Units=GPa)
#
#
# Indices 1 2 3 4 5 6 
#
# 1 51.3711 0.3201 54.0959 0.0000 7.0363 0.0007
# 2 0.3201 29.0222 -0.0053 0.0000 0.6329 0.0025
# 3 54.0959 -0.0053 180.4548 -0.0001 -3.7108 0.0000
# 4 0.0000 0.0000 -0.0001 9.6126 -0.0001 -1.7270
# 5 7.0363 0.6329 -3.7108 -0.0001 17.1613 0.0000
# 6 0.0007 0.0025 0.0000 -1.7270 0.0000 12.1852
#
#
#
# Elastic Compliance Matrix: (Units=1/GPa)
#
#
# Indices 1 2 3 4 5 6 
#
# 1 0.031982 -0.000022 -0.009901 -0.000001 -0.015253 -0.000002
# 2 -0.000022 0.034484 -0.000018 -0.000001 -0.001267 -0.000007
# 3 -0.009901 -0.000018 0.008632 0.000000 0.005927 0.000001
# 4 -0.000001 -0.000001 0.000000 0.106748 0.000001 0.015129
# 5 -0.015253 -0.001267 0.005927 0.000001 0.065853 0.000001
# 6 -0.000002 -0.000007 0.000001 0.015129 0.000001 0.084211
#
#
# Mechanical properties :
#
#
# Convention : Reuss Voigt Hill
#
# Bulk Modulus (GPa) = 18.11112 41.07438 29.59275
# Shear Modulus (GPa) = 13.50634 21.55432 17.53033
#
# Velocity S-wave (km/s) = 2.84296 3.59144 3.23889
# Velocity P-wave (km/s) = 4.64914 6.46355 5.62992
#
# Compressibility (1/GPa) = 0.05521469
#
# Stress axis : x y z
#
# Youngs Moduli (GPa) = 31.26783 28.99874 115.85462
#
# Poissons Ratio (x) = 0.00064 1.14708
# Poissons Ratio (y) = 0.00069 0.00214
# Poissons Ratio (z) = 0.30958 0.00053
#
# Static dielectric constant tensor:
#      x y z
#    x 1.481600 0.000000 -0.024870 
#    y 0.000000 1.580670 0.000000 
#    z -0.024870 0.000000 1.654400 
# 
# From -- ./inp_files/323643.got.cif
#   From: 2010.05.17/outbox.cif.g08.bks.cpg/sg12_162_cif.got.tgz:323643.got - 2010.06.03 13:09:07.
