data_PCOD9171840
_publ_section_title
;
Structure prediction by ZEFSAII (Michael W. Deem and Ramdas Pophale) SiO2 
 PCOD9171840
Probable space group: C 2/M
;
_chemical_formula_sum "Si O2"
_cell_formula_units_Z 48
_cell_length_a 12.790444
_cell_length_b 12.486793
_cell_length_c 12.786301
_cell_angle_alpha 90.000000
_cell_angle_beta 87.370406
_cell_angle_gamma 90.000000
_cell_volume 2039.970590
_symmetry_space_group_name_H-M "C 2/M"
_symmetry_group_IT_number 12
_symmetry_cell_setting 'monoclinic'
loop_
_space_group_symop_operation_xyz
x,y,z
-x,y,-z
-x,-y,-z
x,-y,z
1/2+x,1/2+y,z
1/2-x,1/2+y,-z
1/2-x,1/2-y,-z
1/2+x,1/2-y,z
loop_
_atom_site_type_symbol
_atom_site_label
_atom_site_fract_x
_atom_site_fract_y
_atom_site_fract_z
Si Si1 0.311139 0.875683 0.666325
Si Si2 0.103237 0.201751 0.039793
Si Si3 0.216737 0.706067 0.832677
Si Si4 0.497632 0.172395 0.209911
Si Si5 0.508986 0.623415 0.333917
Si Si6 0.822101 0.125291 0.512317
O O1 0.252086 0.794193 0.746420
O O2 0.430584 0.876331 0.702633
O O3 0.282320 0.842006 0.547724
O O4 0.274132 0.000000 0.678475
O O5 0.180842 0.150641 0.121889
O O6 0.062478 0.312308 0.099568
O O7 0.167626 0.231842 0.933857
O O8 0.000000 0.144905 0.000000
O O9 0.120990 0.633494 0.796153
O O10 0.484746 0.296466 0.243210
O O11 0.515605 0.500000 0.304091
O O12 0.414723 0.633671 0.421758
O O13 0.617343 0.659119 0.384976
O O14 0.803065 0.000000 0.535705
#
# Coordination Sequence:
#
# PCOD9171840 Si02
#       6
#     8   8   8   8   8   8
#     4  10  19  31  49  74 100 129 165 199 236 285
#     4   8  16  29  47  69  92 123 160 197 237 283
#     4   9  16  30  49  66  96 130 157 194 243 284
#     4  10  18  28  49  76  98 125 162 202 243 285
#     4   9  16  28  47  71  98 126 158 200 244 282
#     4   8  15  28  46  69  97 126 158 199 240 281
#
# _framework density 23.529751000000001
#
# number of rings (size 3 to 8) (size 9 to 14) (size 15 to 20)
#    0.000    3.000    1.667    1.000    0.000    0.667 
#    0.000    0.833    0.000   57.000    0.000    2.333 
#    0.000    0.000    0.000    0.000    0.000    0.000 
#
# Total GULP energy -133629.493078 kJ/mol
# GULP energy per Si atom -5567.895545 kJ/mol
# Density = 2.347620 g / cm^3
# Si number density = 23.529751 Si / 1000 Ang^3
#
#
#
# Elastic Constant Matrix: (Units=GPa)
#
#
# Indices 1 2 3 4 5 6 
#
# 1 142.8301 10.8782 33.0346 0.0000 57.2555 0.0000
# 2 10.8782 45.1336 23.2572 0.0000 -0.9045 0.0000
# 3 33.0346 23.2572 97.2833 0.0000 41.1682 0.0000
# 4 0.0000 0.0000 0.0000 -0.7925 0.0000 4.8000
# 5 57.2555 -0.9045 41.1682 0.0000 61.1660 0.0000
# 6 0.0000 0.0000 0.0000 4.8000 0.0000 0.8312
#
#
#
# Elastic Compliance Matrix: (Units=1/GPa)
#
#
# Indices 1 2 3 4 5 6 
#
# 1 0.011936 -0.004399 0.002453 0.000000 -0.012888 0.000000
# 2 -0.004399 0.028697 -0.010192 0.000000 0.011402 0.000000
# 3 0.002453 -0.010192 0.018063 0.000000 -0.014604 0.000000
# 4 0.000000 0.000000 0.000000 -0.035075 0.000000 0.202540
# 5 -0.012888 0.011402 -0.014604 0.000000 0.038411 0.000000
# 6 0.000000 0.000000 0.000000 0.202540 0.000000 0.033441
#
#
# Mechanical properties :
#
#
# Convention : Reuss Voigt Hill
#
# Bulk Modulus (GPa) = 29.05302 46.62080 37.83691
# Shear Modulus (GPa) = 38.10332 26.77939 32.44136
#
# Velocity S-wave (km/s) = 4.02850 3.37725 3.71716
# Velocity P-wave (km/s) = 5.83203 5.92151 5.87694
#
# Compressibility (1/GPa) = 0.03441983
#
# Stress axis : x y z
#
# Youngs Moduli (GPa) = 83.78328 34.84696 55.36175
#
# Poissons Ratio (x) = 0.15329 -0.13579
# Poissons Ratio (y) = 0.36856 0.56423
# Poissons Ratio (z) = -0.20550 0.35515
#
# Static dielectric constant tensor:
#      x y z
#    x 2.053410 0.000000 0.030330 
#    y 0.000000 1.912280 0.000000 
#    z 0.030330 0.000000 1.932580 
# 
# From -- ./inp_files/204372.got.cif
#   From: 2010.05.17/outbox.cif.g08.bks.cpg/sg12_103_cif.got.tgz:204372.got - 2010.06.03 13:09:07.
