data_PCOD9171019
_publ_section_title
;
Structure prediction by ZEFSAII (Michael W. Deem and Ramdas Pophale) SiO2 
 PCOD9171019
Probable space group: C 2/M
;
_chemical_formula_sum "Si O2"
_cell_formula_units_Z 44
_cell_length_a 19.153520
_cell_length_b 5.732275
_cell_length_c 24.007355
_cell_angle_alpha 90.000000
_cell_angle_beta 143.225130
_cell_angle_gamma 90.000000
_cell_volume 1578.007720
_symmetry_space_group_name_H-M "C 2/M"
_symmetry_group_IT_number 12
_symmetry_cell_setting 'monoclinic'
loop_
_space_group_symop_operation_xyz
x,y,z
-x,y,-z
-x,-y,-z
x,-y,z
1/2+x,1/2+y,z
1/2-x,1/2+y,-z
1/2-x,1/2-y,-z
1/2+x,1/2-y,z
loop_
_atom_site_type_symbol
_atom_site_label
_atom_site_fract_x
_atom_site_fract_y
_atom_site_fract_z
Si Si1 0.901552 0.000000 0.889145
Si Si2 0.874362 0.249696 0.387892
Si Si3 0.511588 0.000000 0.180515
Si Si4 0.030334 0.749422 0.300445
Si Si5 0.216980 0.500000 0.028094
Si Si6 0.798922 0.749936 0.460583
Si Si7 0.106124 0.500000 0.114886
Si Si8 0.634795 0.500000 0.978440
O O1 0.836361 0.245385 0.852071
O O2 0.995409 0.000000 0.898289
O O3 0.000000 0.000000 0.000000
O O4 0.861610 0.500000 0.350868
O O5 0.789069 0.247307 0.386808
O O6 0.000000 0.249986 0.500000
O O7 0.863161 0.000000 0.351123
O O8 0.535242 0.786866 0.237054
O O9 0.375680 0.000000 0.081309
O O10 0.564095 0.000000 0.152660
O O11 0.978980 0.500000 0.287459
O O12 0.169043 0.751628 0.402903
O O13 0.977382 0.000000 0.281185
O O14 0.333393 0.500000 0.066636
O O15 0.188361 0.246157 0.036706
O O16 0.857016 0.500000 0.509308
O O17 0.856926 0.000000 0.510070
O O18 0.000000 0.500000 0.000000
#
# Coordination Sequence:
#
# PCOD9171019 Si02
#       8
#     4   8   4   8   4   8   4   4
#     4  10  18  30  44  56  72  90 110 133 161 202
#     4   8  12  16  24  34  46  65  87 113 145 180
#     4  10  18  26  40  50  67  86 108 131 158 202
#     4   8  16  22  32  45  58  79 100 126 154 186
#     4  10  20  26  44  52  78  89 110 134 163 200
#     4   8  12  20  26  36  53  68  91 119 148 180
#     4  10  20  28  40  56  70  87 107 136 166 198
#     4  10  18  32  38  60  70  94 107 132 166 200
#
# _framework density 27.88326
#
# number of rings (size 3 to 8) (size 9 to 14) (size 15 to 20)
#    0.545    2.545    1.818    0.000    2.545    0.000 
#    0.000    0.000    0.000    0.000    0.000    0.000 
#    0.000    0.000    0.000    0.000    0.000    0.000 
#
# Total GULP energy -122524.201013 kJ/mol
# GULP energy per Si atom -5569.281864 kJ/mol
# Density = 2.781980 g / cm^3
# Si number density = 27.883260 Si / 1000 Ang^3
#
#
#
# Elastic Constant Matrix: (Units=GPa)
#
#
# Indices 1 2 3 4 5 6 
#
# 1 54.7446 17.9873 14.1244 -0.0028 -5.3819 0.0020
# 2 17.9873 422.0272 15.0723 -0.0039 -3.8120 -0.0006
# 3 14.1244 15.0723 80.7255 0.0005 -21.1625 0.0007
# 4 -0.0028 -0.0039 0.0005 21.2308 0.0000 3.0565
# 5 -5.3819 -3.8120 -21.1625 0.0000 27.4290 -0.0006
# 6 0.0020 -0.0006 0.0007 3.0565 -0.0006 12.5901
#
#
#
# Elastic Compliance Matrix: (Units=1/GPa)
#
#
# Indices 1 2 3 4 5 6 
#
# 1 0.019387 -0.000710 -0.002868 0.000003 0.001492 -0.000004
# 2 -0.000710 0.002411 -0.000344 0.000000 -0.000070 0.000000
# 3 -0.002868 -0.000344 0.016037 -0.000001 0.011763 0.000000
# 4 0.000003 0.000000 -0.000001 0.048807 0.000000 -0.011849
# 5 0.001492 -0.000070 0.011763 0.000000 0.045816 0.000001
# 6 -0.000004 0.000000 0.000000 -0.011849 0.000001 0.082304
#
#
# Mechanical properties :
#
#
# Convention : Reuss Voigt Hill
#
# Bulk Modulus (GPa) = 33.34448 72.42948 52.88698
# Shear Modulus (GPa) = 21.49560 46.27086 33.88323
#
# Velocity S-wave (km/s) = 2.77955 4.07805 3.48973
# Velocity P-wave (km/s) = 4.72078 6.94308 5.93684
#
# Compressibility (1/GPa) = 0.02998997
#
# Stress axis : x y z
#
# Youngs Moduli (GPa) = 51.58153 414.68707 62.35401
#
# Poissons Ratio (x) = 0.29458 0.17885
# Poissons Ratio (y) = 0.03664 0.02147
# Poissons Ratio (z) = 0.14795 0.14276
#
# Static dielectric constant tensor:
#      x y z
#    x 2.439190 0.000000 -0.056870 
#    y 0.000000 2.289020 0.000000 
#    z -0.056870 0.000000 2.152720 
# 
# From -- ./inp_files/381721.got.cif
#   From: 2010.05.17/outbox.cif.g08.bks.cpg/sg12_191_cif.got.tgz:381721.got - 2010.06.03 13:09:07.
