data_PCOD9171966
_publ_section_title
;
Structure prediction by ZEFSAII (Michael W. Deem and Ramdas Pophale) SiO2 
 PCOD9171966
Probable space group: C 2/M
;
_chemical_formula_sum "Si O2"
_cell_formula_units_Z 56
_cell_length_a 22.297367
_cell_length_b 7.281669
_cell_length_c 14.924846
_cell_angle_alpha 90.000000
_cell_angle_beta 83.912915
_cell_angle_gamma 90.000000
_cell_volume 2409.566061
_symmetry_space_group_name_H-M "C 2/M"
_symmetry_group_IT_number 12
_symmetry_cell_setting 'monoclinic'
loop_
_space_group_symop_operation_xyz
x,y,z
-x,y,-z
-x,-y,-z
x,-y,z
1/2+x,1/2+y,z
1/2-x,1/2+y,-z
1/2-x,1/2-y,-z
1/2+x,1/2-y,z
loop_
_atom_site_type_symbol
_atom_site_label
_atom_site_fract_x
_atom_site_fract_y
_atom_site_fract_z
Si Si1 0.863035 0.207409 0.187644
Si Si2 0.241189 0.778452 0.306496
Si Si3 0.657770 0.722939 0.471897
Si Si4 0.321288 0.719751 0.003476
Si Si5 0.415306 0.274937 0.353915
Si Si6 0.869053 0.777664 0.808856
Si Si7 0.951750 0.223044 0.641493
O O1 0.801836 0.200873 0.255887
O O2 0.845449 0.291277 0.094909
O O3 0.908685 0.289489 0.252834
O O4 0.884323 0.000000 0.166276
O O5 0.216754 0.716208 0.407640
O O6 0.188283 0.731543 0.244193
O O7 0.246644 0.000000 0.306689
O O8 0.660202 0.500000 0.471763
O O9 0.640027 0.784417 0.573933
O O10 0.599463 0.776773 0.421137
O O11 0.327912 0.500000 0.005428
O O12 0.250000 0.750000 0.000000
O O13 0.357279 0.788455 0.910931
O O14 0.414239 0.500000 0.353168
O O15 0.479750 0.219093 0.383672
O O16 0.927364 0.720669 0.743249
O O17 0.870732 0.000000 0.812286
O O18 0.952105 0.000000 0.638185
#
# Coordination Sequence:
#
# PCOD9171966 Si02
#       7
#     8   8   8   8   8   8   8
#     4  10  20  29  40  64  95 118 138 172 221 265
#     4   9  16  28  45  64  85 114 149 180 210 248
#     4   8  14  24  42  64  83 111 151 183 207 246
#     4  10  18  29  45  64  87 114 144 176 213 256
#     4   9  16  26  38  59  93 120 138 173 220 259
#     4   8  14  25  42  63  83 105 142 186 212 239
#     4   8  13  23  41  62  84 113 146 177 212 251
#
# _framework density 23.240701000000001
#
# number of rings (size 3 to 8) (size 9 to 14) (size 15 to 20)
#    0.000    3.143    1.429    2.143    0.000    2.286 
#    0.000    0.714    0.000    4.286    0.000    5.000 
#    0.000    8.000    0.000    0.000    0.000    0.000 
#
# Total GULP energy -156282.332704 kJ/mol
# GULP energy per Si atom -5581.511882 kJ/mol
# Density = 2.318780 g / cm^3
# Si number density = 23.240701 Si / 1000 Ang^3
#
#
#
# Elastic Constant Matrix: (Units=GPa)
#
#
# Indices 1 2 3 4 5 6 
#
# 1 37.8148 -8.1680 0.0018 0.0000 -8.0389 0.0000
# 2 -8.1680 101.2489 -0.7586 0.0000 1.9083 0.0000
# 3 0.0018 -0.7586 150.4353 0.0000 -4.4725 0.0000
# 4 0.0000 0.0000 0.0000 -6.1193 0.0000 -5.5285
# 5 -8.0389 1.9083 -4.4725 0.0000 31.3138 0.0000
# 6 0.0000 0.0000 0.0000 -5.5285 0.0000 3.9366
#
#
#
# Elastic Compliance Matrix: (Units=1/GPa)
#
#
# Indices 1 2 3 4 5 6 
#
# 1 0.028442 0.002160 0.000225 0.000000 0.007202 0.000000
# 2 0.002160 0.010052 0.000049 0.000000 -0.000051 0.000000
# 3 0.000225 0.000049 0.006678 0.000000 0.001008 0.000000
# 4 0.000000 0.000000 0.000000 -0.072029 0.000000 -0.101155
# 5 0.007202 -0.000051 0.001008 0.000000 0.033931 0.000000
# 6 0.000000 0.000000 0.000000 -0.101155 0.000000 0.111966
#
#
# Mechanical properties :
#
#
# Convention : Reuss Voigt Hill
#
# Bulk Modulus (GPa) = 19.98365 30.18327 25.08346
# Shear Modulus (GPa) = 38.21117 25.72113 31.96615
#
# Velocity S-wave (km/s) = 4.05921 3.33036 3.71271
# Velocity P-wave (km/s) = 5.53053 5.27294 5.40327
#
# Compressibility (1/GPa) = 0.05004090
#
# Stress axis : x y z
#
# Youngs Moduli (GPa) = 35.15872 99.48002 149.75435
#
# Poissons Ratio (x) = -0.21492 -0.03365
# Poissons Ratio (y) = -0.07596 -0.00736
# Poissons Ratio (z) = -0.00790 -0.00489
#
# Static dielectric constant tensor:
#      x y z
#    x 1.838830 0.000000 0.013510 
#    y 0.000000 1.884220 0.000000 
#    z 0.013510 0.000000 1.892440 
# 
# From -- ./inp_files/173935.got.cif
#   From: 2010.05.17/outbox.cif.g08.bks.cpg/sg12_87_cif.got.tgz:173935.got - 2010.06.03 13:09:07.
