data_PCOD9171809
_publ_section_title
;
Structure prediction by ZEFSAII (Michael W. Deem and Ramdas Pophale) SiO2 
 PCOD9171809
Probable space group: C 2/M
;
_chemical_formula_sum "Si O2"
_cell_formula_units_Z 64
_cell_length_a 25.880338
_cell_length_b 10.445765
_cell_length_c 18.785553
_cell_angle_alpha 90.000000
_cell_angle_beta 140.435145
_cell_angle_gamma 90.000000
_cell_volume 3234.747358
_symmetry_space_group_name_H-M "C 2/M"
_symmetry_group_IT_number 12
_symmetry_cell_setting 'monoclinic'
loop_
_space_group_symop_operation_xyz
x,y,z
-x,y,-z
-x,-y,-z
x,-y,z
1/2+x,1/2+y,z
1/2-x,1/2+y,-z
1/2-x,1/2-y,-z
1/2+x,1/2-y,z
loop_
_atom_site_type_symbol
_atom_site_label
_atom_site_fract_x
_atom_site_fract_y
_atom_site_fract_z
Si Si1 0.281664 0.241379 0.148254
Si Si2 0.921491 0.347277 0.587747
Si Si3 0.850282 0.640939 0.072853
Si Si4 0.058650 0.653663 0.630076
Si Si5 0.246797 0.148661 0.358010
Si Si6 0.863626 0.651755 0.683414
Si Si7 0.351962 0.641737 0.892944
Si Si8 0.035493 0.651917 0.927564
O O1 0.224650 0.358316 0.063046
O O2 0.358657 0.235178 0.282017
O O3 0.212989 0.152337 0.111278
O O4 0.320212 0.201349 0.113706
O O5 0.932182 0.500000 0.602155
O O6 0.003675 0.301294 0.638569
O O7 0.842556 0.323949 0.455062
O O8 0.896516 0.308905 0.640534
O O9 0.875388 0.500000 0.119839
O O10 0.925553 0.692435 0.107574
O O11 0.078966 0.500000 0.656611
O O12 0.000000 0.666997 0.500000
O O13 0.206154 0.252361 0.366340
O O14 0.200940 0.156634 0.234385
O O15 0.238952 0.000000 0.375056
O O16 0.841028 0.500000 0.657200
O O17 0.939499 0.664446 0.818027
O O18 0.389329 0.500000 0.933417
O O19 0.418230 0.753679 0.970252
O O20 0.053537 0.500000 0.958520
#
# Coordination Sequence:
#
# PCOD9171809 Si02
#       8
#     8   8   8   8   8   8   8   8
#     4  10  18  29  49  74 101 132 164 200 242 292
#     4   9  18  33  52  74 101 131 164 207 253 295
#     4   9  17  30  49  72  99 131 165 200 241 292
#     4  10  18  28  48  77 105 131 160 197 243 295
#     4  10  21  36  53  74 101 132 167 208 255 301
#     4  10  20  35  56  77  98 128 169 213 253 295
#     4  10  20  33  50  74 105 136 165 202 247 297
#     4   9  19  34  51  75 103 131 165 205 249 296
#
# _framework density 19.785162
#
# number of rings (size 3 to 8) (size 9 to 14) (size 15 to 20)
#    0.000    2.375    0.000    3.000    0.000    5.500 
#    0.000    2.500    0.000    3.375    0.000    0.000 
#    0.000    0.000    0.000    0.000    0.000    0.000 
#
# Total GULP energy -178192.006593 kJ/mol
# GULP energy per Si atom -5568.500206 kJ/mol
# Density = 1.974013 g / cm^3
# Si number density = 19.785162 Si / 1000 Ang^3
#
#
#
# Elastic Constant Matrix: (Units=GPa)
#
#
# Indices 1 2 3 4 5 6 
#
# 1 47.4772 18.7928 -2.1237 0.0000 5.8086 0.0000
# 2 18.7928 43.5770 28.6891 0.0000 -1.7296 0.0000
# 3 -2.1237 28.6891 92.4021 0.0000 1.7685 0.0000
# 4 0.0000 0.0000 0.0000 16.6723 0.0000 1.9632
# 5 5.8086 -1.7296 1.7685 0.0000 28.4340 0.0000
# 6 0.0000 0.0000 0.0000 1.9632 0.0000 16.6617
#
#
#
# Elastic Compliance Matrix: (Units=1/GPa)
#
#
# Indices 1 2 3 4 5 6 
#
# 1 0.028805 -0.016640 0.005967 0.000000 -0.007268 0.000000
# 2 -0.016640 0.038609 -0.012495 0.000000 0.006525 0.000000
# 3 0.005967 -0.012495 0.014894 0.000000 -0.002905 0.000000
# 4 0.000000 0.000000 0.000000 0.060824 0.000000 -0.007167
# 5 -0.007268 0.006525 -0.002905 0.000000 0.037231 0.000000
# 6 0.000000 0.000000 0.000000 -0.007167 0.000000 0.060862
#
#
# Mechanical properties :
#
#
# Convention : Reuss Voigt Hill
#
# Bulk Modulus (GPa) = 27.79722 30.46364 29.13043
# Shear Modulus (GPa) = 16.69167 21.56015 19.12591
#
# Velocity S-wave (km/s) = 2.90771 3.30466 3.11252
# Velocity P-wave (km/s) = 5.03518 5.47647 5.26045
#
# Compressibility (1/GPa) = 0.03597481
#
# Stress axis : x y z
#
# Youngs Moduli (GPa) = 34.71583 25.90097 67.13953
#
# Poissons Ratio (x) = 0.43098 -0.40065
# Poissons Ratio (y) = 0.57766 0.83888
# Poissons Ratio (z) = -0.20716 0.32362
#
# Static dielectric constant tensor:
#      x y z
#    x 1.755970 0.000000 -0.032530 
#    y 0.000000 1.679990 0.000000 
#    z -0.032530 0.000000 1.742560 
# 
# From -- ./inp_files/327845.got.cif
#   From: 2010.05.17/outbox.cif.g08.bks.cpg/sg12_164_cif.got.tgz:327845.got - 2010.06.03 13:09:07.
