data_PCOD9171101
_publ_section_title
;
Structure prediction by ZEFSAII (Michael W. Deem and Ramdas Pophale) SiO2 
 PCOD9171101
Probable space group: C 2/M
;
_chemical_formula_sum "Si O2"
_cell_formula_units_Z 64
_cell_length_a 20.892224
_cell_length_b 14.340667
_cell_length_c 10.389222
_cell_angle_alpha 90.000000
_cell_angle_beta 91.329641
_cell_angle_gamma 90.000000
_cell_volume 3111.860335
_symmetry_space_group_name_H-M "C 2/M"
_symmetry_group_IT_number 12
_symmetry_cell_setting 'monoclinic'
loop_
_space_group_symop_operation_xyz
x,y,z
-x,y,-z
-x,-y,-z
x,-y,z
1/2+x,1/2+y,z
1/2-x,1/2+y,-z
1/2-x,1/2-y,-z
1/2+x,1/2-y,z
loop_
_atom_site_type_symbol
_atom_site_label
_atom_site_fract_x
_atom_site_fract_y
_atom_site_fract_z
Si Si1 0.366211 0.305148 0.782171
Si Si2 0.813577 0.198443 0.343899
Si Si3 0.188069 0.393447 0.251512
Si Si4 0.380380 0.292823 0.069368
Si Si5 0.434675 0.605013 0.442989
Si Si6 0.334684 0.899267 0.043224
Si Si7 0.741287 0.895178 0.693251
Si Si8 0.498373 0.604402 0.172290
O O1 0.357535 0.197594 0.737415
O O2 0.315995 0.369622 0.705412
O O3 0.439094 0.338466 0.783230
O O4 0.346940 0.315870 0.932696
O O5 0.751488 0.132492 0.334685
O O6 0.840422 0.192476 0.197765
O O7 0.869692 0.163065 0.439351
O O8 0.792963 0.305020 0.371224
O O9 0.166853 0.500000 0.279773
O O10 0.200295 0.391453 0.096608
O O11 0.386669 0.181454 0.060175
O O12 0.447510 0.345931 0.076432
O O13 0.500000 0.648903 0.500000
O O14 0.426860 0.500000 0.498599
O O15 0.453790 0.594785 0.295602
O O16 0.287126 0.894100 0.162069
O O17 0.366290 0.000000 0.047113
O O18 0.730743 0.000000 0.641403
O O19 0.518356 0.500000 0.135240
#
# Coordination Sequence:
#
# PCOD9171101 Si02
#       8
#     8   8   8   8   8   8   8   8
#     4  10  18  27  40  61  92 124 147 169 203 251
#     4   9  16  27  45  67  88 111 143 182 217 247
#     4   9  16  26  41  61  87 117 148 181 212 243
#     4   9  17  27  39  61  91 119 148 178 207 244
#     4   9  18  33  52  70  84 101 133 179 223 258
#     4   8  14  25  40  59  84 117 154 184 207 235
#     4   9  16  25  40  62  89 120 149 175 205 245
#     4  10  20  31  43  61  86 115 144 173 209 256
#
# _framework density 20.566475000000001
#
# number of rings (size 3 to 8) (size 9 to 14) (size 15 to 20)
#    0.000    2.875    0.000    1.875    0.000    5.000 
#    0.000    0.625    0.000    7.125    0.000    1.750 
#    0.000    0.000    0.000    0.000    0.000    0.000 
#
# Total GULP energy -178220.840304 kJ/mol
# GULP energy per Si atom -5569.401259 kJ/mol
# Density = 2.051967 g / cm^3
# Si number density = 20.566475 Si / 1000 Ang^3
#
#
#
# Elastic Constant Matrix: (Units=GPa)
#
#
# Indices 1 2 3 4 5 6 
#
# 1 84.1415 79.4611 18.3394 0.0000 34.0545 0.0000
# 2 79.4611 159.4187 17.8854 0.0000 30.8065 0.0000
# 3 18.3394 17.8854 39.4657 0.0000 3.5076 0.0000
# 4 0.0000 0.0000 0.0000 11.4302 0.0000 3.7195
# 5 34.0545 30.8065 3.5076 0.0000 37.6419 0.0000
# 6 0.0000 0.0000 0.0000 3.7195 0.0000 16.5435
#
#
#
# Elastic Compliance Matrix: (Units=1/GPa)
#
#
# Indices 1 2 3 4 5 6 
#
# 1 0.032108 -0.011442 -0.008052 0.000000 -0.018934 0.000000
# 2 -0.011442 0.011863 -0.000117 0.000000 0.000654 0.000000
# 3 -0.008052 -0.000117 0.028715 0.000000 0.004705 0.000000
# 4 0.000000 0.000000 0.000000 0.094393 0.000000 -0.021223
# 5 -0.018934 0.000654 0.004705 0.000000 0.042722 0.000000
# 6 0.000000 0.000000 0.000000 -0.021223 0.000000 0.065218
#
#
# Mechanical properties :
#
#
# Convention : Reuss Voigt Hill
#
# Bulk Modulus (GPa) = 29.88346 57.15528 43.51937
# Shear Modulus (GPa) = 15.36583 24.27914 19.82249
#
# Velocity S-wave (km/s) = 2.73633 3.43960 3.10792
# Velocity P-wave (km/s) = 4.95430 6.60494 5.83825
#
# Compressibility (1/GPa) = 0.03346333
#
# Stress axis : x y z
#
# Youngs Moduli (GPa) = 31.14460 84.29750 34.82475
#
# Poissons Ratio (x) = 0.96453 0.28042
# Poissons Ratio (y) = 0.35635 0.00408
# Poissons Ratio (z) = 0.25079 0.00988
#
# Static dielectric constant tensor:
#      x y z
#    x 1.702740 0.000000 -0.030940 
#    y 0.000000 1.755880 0.000000 
#    z -0.030940 0.000000 1.844320 
# 
# From -- ./inp_files/224807.got.cif
#   From: 2010.05.17/outbox.cif.g08.bks.cpg/sg12_113_cif.got.tgz:224807.got - 2010.06.03 13:09:07.
