data_PCOD9171823
_publ_section_title
;
Structure prediction by ZEFSAII (Michael W. Deem and Ramdas Pophale) SiO2 
 PCOD9171823
Probable space group: C 2/M
;
_chemical_formula_sum "Si O2"
_cell_formula_units_Z 64
_cell_length_a 20.253040
_cell_length_b 13.306050
_cell_length_c 14.591621
_cell_angle_alpha 90.000000
_cell_angle_beta 56.819172
_cell_angle_gamma 90.000000
_cell_volume 3291.100339
_symmetry_space_group_name_H-M "C 2/M"
_symmetry_group_IT_number 12
_symmetry_cell_setting 'monoclinic'
loop_
_space_group_symop_operation_xyz
x,y,z
-x,y,-z
-x,-y,-z
x,-y,z
1/2+x,1/2+y,z
1/2-x,1/2+y,-z
1/2-x,1/2-y,-z
1/2+x,1/2-y,z
loop_
_atom_site_type_symbol
_atom_site_label
_atom_site_fract_x
_atom_site_fract_y
_atom_site_fract_z
Si Si1 0.407792 0.119166 0.094390
Si Si2 0.089051 0.383830 0.692791
Si Si3 0.921706 0.689654 0.767953
Si Si4 0.741740 0.385767 0.538783
Si Si5 0.806350 0.218241 0.598259
Si Si6 0.092008 0.393034 0.414683
Si Si7 0.696006 0.171966 0.983881
Si Si8 0.162761 0.888683 0.236108
O O1 0.395093 0.136353 0.211997
O O2 0.355270 0.190633 0.069587
O O3 0.389025 0.000000 0.090069
O O4 0.500000 0.132270 0.000000
O O5 0.061859 0.500000 0.706698
O O6 0.170368 0.378821 0.574212
O O7 0.015017 0.319639 0.714156
O O8 0.895243 0.622698 0.702161
O O9 0.895465 0.803093 0.760239
O O10 0.872993 0.647832 0.891632
O O11 0.725130 0.500000 0.577877
O O12 0.740388 0.302498 0.620183
O O13 0.687342 0.351312 0.495498
O O14 0.878664 0.293045 0.559800
O O15 0.802123 0.153144 0.693881
O O16 0.127297 0.500000 0.419128
O O17 0.000000 0.398749 0.500000
O O18 0.764991 0.104162 0.889827
O O19 0.750000 0.250000 0.000000
O O20 0.128365 0.000000 0.275548
#
# Coordination Sequence:
#
# PCOD9171823 Si02
#       8
#     8   8   8   8   8   8   8   8
#     4  10  18  28  48  79 114 140 165 214 276 327
#     4  10  19  32  54  84 113 140 173 222 289 340
#     4  10  20  33  53  82 110 141 183 228 275 327
#     4  10  20  34  55  79 105 141 181 223 278 339
#     4  10  20  34  53  76 106 141 181 223 267 328
#     4  10  20  34  54  80 111 144 177 221 279 333
#     4  10  20  34  52  80 111 143 182 224 273 331
#     4  10  21  36  54  74 107 150 188 225 273 331
#
# _framework density 19.446383999999998
#
# number of rings (size 3 to 8) (size 9 to 14) (size 15 to 20)
#    0.000    2.000    1.250    3.000    0.000    4.500 
#    0.000    0.000    0.000   27.375    0.000    7.875 
#    0.000    0.000    0.000    0.000    0.000    0.000 
#
# Total GULP energy -178163.207063 kJ/mol
# GULP energy per Si atom -5567.600221 kJ/mol
# Density = 1.940212 g / cm^3
# Si number density = 19.446384 Si / 1000 Ang^3
#
#
#
# Elastic Constant Matrix: (Units=GPa)
#
#
# Indices 1 2 3 4 5 6 
#
# 1 93.0454 36.6898 16.8639 0.0000 17.8537 0.0000
# 2 36.6898 120.5027 25.7240 0.0000 11.2382 0.0000
# 3 16.8639 25.7240 75.9078 0.0000 14.7347 0.0000
# 4 0.0000 0.0000 0.0000 15.3761 0.0000 0.5112
# 5 17.8537 11.2382 14.7347 0.0000 31.0365 0.0000
# 6 0.0000 0.0000 0.0000 0.5112 0.0000 20.4237
#
#
#
# Elastic Compliance Matrix: (Units=1/GPa)
#
#
# Indices 1 2 3 4 5 6 
#
# 1 0.013372 -0.003360 -0.000633 0.000000 -0.006175 0.000000
# 2 -0.003360 0.009902 -0.002521 0.000000 -0.000456 0.000000
# 3 -0.000633 -0.002521 0.015334 0.000000 -0.006003 0.000000
# 4 0.000000 0.000000 0.000000 0.065090 0.000000 -0.001629
# 5 -0.006175 -0.000456 -0.006003 0.000000 0.038787 0.000000
# 6 0.000000 0.000000 0.000000 -0.001629 0.000000 0.049004
#
#
# Mechanical properties :
#
#
# Convention : Reuss Voigt Hill
#
# Bulk Modulus (GPa) = 39.09376 49.77902 44.43639
# Shear Modulus (GPa) = 23.46926 27.37915 25.42421
#
# Velocity S-wave (km/s) = 3.47777 3.75631 3.61972
# Velocity P-wave (km/s) = 6.02275 6.66834 6.35375
#
# Compressibility (1/GPa) = 0.02557953
#
# Stress axis : x y z
#
# Youngs Moduli (GPa) = 74.78240 100.98645 65.21437
#
# Poissons Ratio (x) = 0.33935 0.04131
# Poissons Ratio (y) = 0.25130 0.16439
# Poissons Ratio (z) = 0.04737 0.25456
#
# Static dielectric constant tensor:
#      x y z
#    x 1.739660 0.000000 0.028680 
#    y 0.000000 1.709940 0.000000 
#    z 0.028680 0.000000 1.725550 
# 
# From -- ./inp_files/232455.got.cif
#   From: 2010.05.17/outbox.cif.g08.bks.cpg/sg12_117_cif.got.tgz:232455.got - 2010.06.03 13:09:07.
