data_PCOD9171743
_publ_section_title
;
Structure prediction by ZEFSAII (Michael W. Deem and Ramdas Pophale) SiO2 
 PCOD9171743
Probable space group: C 2/M
;
_chemical_formula_sum "Si O2"
_cell_formula_units_Z 64
_cell_length_a 19.328035
_cell_length_b 9.026424
_cell_length_c 23.282613
_cell_angle_alpha 90.000000
_cell_angle_beta 61.589317
_cell_angle_gamma 90.000000
_cell_volume 3572.733004
_symmetry_space_group_name_H-M "C 2/M"
_symmetry_group_IT_number 12
_symmetry_cell_setting 'monoclinic'
loop_
_space_group_symop_operation_xyz
x,y,z
-x,y,-z
-x,-y,-z
x,-y,z
1/2+x,1/2+y,z
1/2-x,1/2+y,-z
1/2-x,1/2-y,-z
1/2+x,1/2-y,z
loop_
_atom_site_type_symbol
_atom_site_label
_atom_site_fract_x
_atom_site_fract_y
_atom_site_fract_z
Si Si1 0.562653 0.829397 0.028238
Si Si2 0.622476 0.823983 0.708962
Si Si3 0.994514 0.824547 0.680758
Si Si4 0.183354 0.176460 0.218850
Si Si5 0.779145 0.325308 0.673954
Si Si6 0.813125 0.173025 0.096474
Si Si7 0.938431 0.827622 0.152031
Si Si8 0.957422 0.675098 0.575760
O O1 0.641490 0.754875 0.972873
O O2 0.575030 0.000000 0.040161
O O3 0.500000 0.829225 0.000000
O O4 0.519431 0.735780 0.094416
O O5 0.562816 0.763992 0.685093
O O6 0.708117 0.751115 0.668978
O O7 0.590000 0.767208 0.783045
O O8 0.627683 0.000000 0.706142
O O9 0.910306 0.796689 0.745050
O O10 0.985284 0.769195 0.619191
O O11 0.009284 0.000000 0.676911
O O12 0.212771 0.249364 0.266812
O O13 0.233113 0.249013 0.148160
O O14 0.196896 0.000000 0.215199
O O15 0.763284 0.500000 0.688258
O O16 0.863120 0.307828 0.609989
O O17 0.873018 0.182146 0.127407
O O18 0.801179 0.000000 0.088541
O O19 0.946272 0.000000 0.165091
O O20 0.972805 0.500000 0.580612
O O21 0.000000 0.716727 0.500000
#
# Coordination Sequence:
#
# PCOD9171743 Si02
#       8
#     8   8   8   8   8   8   8   8
#     4   9  17  28  43  67 101 137 177 225 271 320
#     4  12  23  35  54  79 110 145 183 225 269 320
#     4  10  22  38  56  81 112 144 180 222 269 319
#     4  10  19  32  52  77 105 138 179 226 271 320
#     4  10  19  33  55  82 111 142 177 219 265 314
#     4  10  18  28  47  73 103 138 178 225 272 321
#     4  10  19  31  48  72 104 140 178 221 273 325
#     4   9  19  38  63  88 114 144 178 216 261 315
#
# _framework density 17.913457000000001
#
# number of rings (size 3 to 8) (size 9 to 14) (size 15 to 20)
#    0.000    2.000    1.250    3.375    0.000    4.750 
#    0.000    0.625    0.000    0.750    0.000    0.000 
#    0.000    0.000    0.000    0.000    0.000    0.000 
#
# Total GULP energy -178685.955089 kJ/mol
# GULP energy per Si atom -5583.936097 kJ/mol
# Density = 1.787269 g / cm^3
# Si number density = 17.913457 Si / 1000 Ang^3
#
#
#
# Elastic Constant Matrix: (Units=GPa)
#
#
# Indices 1 2 3 4 5 6 
#
# 1 76.4922 57.8393 18.6667 0.0000 -8.8650 0.0002
# 2 57.8393 118.5357 29.4115 0.0001 -12.3408 0.0004
# 3 18.6667 29.4115 65.1704 0.0000 -21.4030 0.0000
# 4 0.0000 0.0001 0.0000 25.1631 0.0000 -1.9472
# 5 -8.8650 -12.3408 -21.4030 0.0000 15.1766 0.0000
# 6 0.0002 0.0004 0.0000 -1.9472 0.0000 25.3464
#
#
#
# Elastic Compliance Matrix: (Units=1/GPa)
#
#
# Indices 1 2 3 4 5 6 
#
# 1 0.020974 -0.009749 -0.000350 0.000000 0.003831 0.000000
# 2 -0.009749 0.014111 -0.003125 0.000000 0.001373 0.000000
# 3 -0.000350 -0.003125 0.029717 0.000000 0.039162 0.000000
# 4 0.000000 0.000000 0.000000 0.039978 0.000000 0.003071
# 5 0.003831 0.001373 0.039162 0.000000 0.124474 0.000000
# 6 0.000000 0.000000 0.000000 0.003071 0.000000 0.039689
#
#
# Mechanical properties :
#
#
# Convention : Reuss Voigt Hill
#
# Bulk Modulus (GPa) = 26.07268 52.44814 39.26041
# Shear Modulus (GPa) = 16.22448 23.42262 19.82355
#
# Velocity S-wave (km/s) = 3.01277 3.61992 3.33021
# Velocity P-wave (km/s) = 5.16612 6.84207 6.06229
#
# Compressibility (1/GPa) = 0.03835432
#
# Stress axis : x y z
#
# Youngs Moduli (GPa) = 47.67824 70.86436 33.65112
#
# Poissons Ratio (x) = 0.69082 0.01177
# Poissons Ratio (y) = 0.46479 0.10518
# Poissons Ratio (z) = 0.01668 0.22149
#
# Static dielectric constant tensor:
#      x y z
#    x 1.610120 0.000000 -0.014130 
#    y 0.000000 1.595110 0.000000 
#    z -0.014130 0.000000 1.592670 
# 
# From -- ./inp_files/345544.got.cif
#   From: 2010.05.17/outbox.cif.g08.bks.cpg/sg12_173_cif.got.tgz:345544.got - 2010.06.03 13:09:07.
