data_PCOD9171420
_publ_section_title
;
Structure prediction by ZEFSAII (Michael W. Deem and Ramdas Pophale) SiO2 
 PCOD9171420
Probable space group: C 2/M
;
_chemical_formula_sum "Si O2"
_cell_formula_units_Z 56
_cell_length_a 16.794987
_cell_length_b 13.955064
_cell_length_c 14.037890
_cell_angle_alpha 90.000000
_cell_angle_beta 118.495252
_cell_angle_gamma 90.000000
_cell_volume 2891.554506
_symmetry_space_group_name_H-M "C 2/M"
_symmetry_group_IT_number 12
_symmetry_cell_setting 'monoclinic'
loop_
_space_group_symop_operation_xyz
x,y,z
-x,y,-z
-x,-y,-z
x,-y,z
1/2+x,1/2+y,z
1/2-x,1/2+y,-z
1/2-x,1/2-y,-z
1/2+x,1/2-y,z
loop_
_atom_site_type_symbol
_atom_site_label
_atom_site_fract_x
_atom_site_fract_y
_atom_site_fract_z
Si Si1 0.793697 0.384541 0.494115
Si Si2 0.085734 0.810303 0.676986
Si Si3 0.934902 0.389882 0.056469
Si Si4 0.103126 0.115341 0.469286
Si Si5 0.090153 0.392106 0.616956
Si Si6 0.900835 0.382792 0.736605
Si Si7 0.274325 0.115815 0.842585
O O1 0.792517 0.500000 0.501622
O O2 0.694333 0.352841 0.468227
O O3 0.827206 0.367502 0.407006
O O4 0.867264 0.352480 0.614016
O O5 0.101209 0.838905 0.573725
O O6 0.083160 0.696017 0.683047
O O7 0.171552 0.849694 0.782771
O O8 0.987318 0.855379 0.638648
O O9 0.916246 0.500000 0.074409
O O10 0.001959 0.345623 0.172566
O O11 0.840082 0.348308 0.965096
O O12 0.000000 0.393985 0.000000
O O13 0.104188 0.000000 0.482211
O O14 0.099388 0.500000 0.661289
O O15 0.000000 0.392377 0.500000
O O16 0.906359 0.500000 0.740560
O O17 0.824384 0.357643 0.771569
O O18 0.274966 0.000000 0.845861
#
# Coordination Sequence:
#
# PCOD9171420 Si02
#       7
#     8   8   8   8   8   8   8
#     4   9  17  29  46  63  87 122 150 182 220 256
#     4  11  18  28  41  64  88 123 149 174 216 256
#     4   7  11  18  32  55  87 119 142 164 201 264
#     4  10  18  28  42  66  94 117 144 173 213 271
#     4  10  21  36  46  57  83 118 162 200 221 244
#     4   8  12  21  36  59  87 117 146 169 210 265
#     4   9  14  22  37  61  93 123 141 166 211 269
#
# _framework density 19.366745000000002
#
# number of rings (size 3 to 8) (size 9 to 14) (size 15 to 20)
#    0.000    2.857    2.857    3.429    0.000    0.571 
#    0.000    0.000    0.000    0.000    0.000    1.000 
#    0.000    7.429    0.000    6.143    0.000   14.000 
#
# Total GULP energy -156135.737080 kJ/mol
# GULP energy per Si atom -5576.276324 kJ/mol
# Density = 1.932266 g / cm^3
# Si number density = 19.366745 Si / 1000 Ang^3
#
#
#
# Elastic Constant Matrix: (Units=GPa)
#
#
# Indices 1 2 3 4 5 6 
#
# 1 85.6457 13.1880 35.2077 0.0000 20.9628 0.0000
# 2 13.1880 72.8776 19.8275 0.0000 3.7358 0.0000
# 3 35.2077 19.8275 83.7220 0.0000 37.9401 0.0000
# 4 0.0000 0.0000 0.0000 3.4072 0.0000 4.9980
# 5 20.9628 3.7358 37.9401 0.0000 35.0788 0.0000
# 6 0.0000 0.0000 0.0000 4.9980 0.0000 12.0914
#
#
#
# Elastic Compliance Matrix: (Units=1/GPa)
#
#
# Indices 1 2 3 4 5 6 
#
# 1 0.014527 -0.001378 -0.003756 0.000000 -0.004472 0.000000
# 2 -0.001378 0.015136 -0.005193 0.000000 0.004828 0.000000
# 3 -0.003756 -0.005193 0.026450 0.000000 -0.025810 0.000000
# 4 0.000000 0.000000 0.000000 0.745568 0.000000 -0.308182
# 5 -0.004472 0.004828 -0.025810 0.000000 0.058580 0.000000
# 6 0.000000 0.000000 0.000000 -0.308182 0.000000 0.210092
#
#
# Mechanical properties :
#
#
# Convention : Reuss Voigt Hill
#
# Bulk Modulus (GPa) = 28.20192 42.07686 35.13939
# Shear Modulus (GPa) = 4.53381 21.71694 13.12537
#
# Velocity S-wave (km/s) = 1.53170 3.35229 2.60614
# Velocity P-wave (km/s) = 4.20973 6.06278 5.21915
#
# Compressibility (1/GPa) = 0.03545858
#
# Stress axis : x y z
#
# Youngs Moduli (GPa) = 68.83836 66.06610 37.80733
#
# Poissons Ratio (x) = 0.09101 0.14202
# Poissons Ratio (y) = 0.09483 0.19635
# Poissons Ratio (z) = 0.25858 0.34310
#
# Static dielectric constant tensor:
#      x y z
#    x 1.721190 0.000000 0.002230 
#    y 0.000000 1.692270 0.000000 
#    z 0.002230 0.000000 1.697360 
# 
# From -- ./inp_files/269942.got.cif
#   From: 2010.05.17/outbox.cif.g08.bks.cpg/sg12_135_cif.got.tgz:269942.got - 2010.06.03 13:09:07.
