data_PCOD9171613
_publ_section_title
;
Structure prediction by ZEFSAII (Michael W. Deem and Ramdas Pophale) SiO2 
 PCOD9171613
Probable space group: C 2/M
;
_chemical_formula_sum "Si O2"
_cell_formula_units_Z 48
_cell_length_a 5.022996
_cell_length_b 19.924430
_cell_length_c 25.826887
_cell_angle_alpha 90.000000
_cell_angle_beta 67.774211
_cell_angle_gamma 90.000000
_cell_volume 2392.716603
_symmetry_space_group_name_H-M "C 2/M"
_symmetry_group_IT_number 12
_symmetry_cell_setting 'monoclinic'
loop_
_space_group_symop_operation_xyz
x,y,z
-x,y,-z
-x,-y,-z
x,-y,z
1/2+x,1/2+y,z
1/2-x,1/2+y,-z
1/2-x,1/2-y,-z
1/2+x,1/2-y,z
loop_
_atom_site_type_symbol
_atom_site_label
_atom_site_fract_x
_atom_site_fract_y
_atom_site_fract_z
Si Si1 0.816629 0.849768 0.297013
Si Si2 0.053431 0.702657 0.941109
Si Si3 0.260227 0.925417 0.326095
Si Si4 0.651299 0.208451 0.415633
Si Si5 0.790138 0.424092 0.446143
Si Si6 0.912602 0.205671 0.824147
O O1 0.510147 0.871992 0.297075
O O2 0.763748 0.798170 0.347932
O O3 0.974356 0.910189 0.315381
O O4 0.018232 0.827505 0.235565
O O5 0.258338 0.766126 0.941416
O O6 0.228752 0.667507 0.881855
O O7 0.000000 0.666751 0.000000
O O8 0.209632 0.920050 0.391279
O O9 0.364359 0.000000 0.306924
O O10 0.908239 0.234149 0.432173
O O11 0.510803 0.136786 0.439406
O O12 0.500000 0.416972 0.500000
O O13 0.908527 0.500000 0.446300
O O14 0.712269 0.269693 0.825965
#
# Coordination Sequence:
#
# PCOD9171613 Si02
#       6
#     8   8   8   8   8   8
#     4  11  20  34  53  75 104 135 168 205 255 313
#     4   8  14  24  38  59  91 130 166 200 238 281
#     4  10  21  37  56  76  99 128 166 215 262 305
#     4  11  22  37  56  80 109 138 168 210 262 312
#     4   9  20  40  62  82 105 138 179 219 263 319
#     4  10  18  28  45  70 101 135 168 200 240 300
#
# _framework density 20.060879
#
# number of rings (size 3 to 8) (size 9 to 14) (size 15 to 20)
#    0.000    2.167    0.000    4.500    0.000    1.333 
#    0.000    7.500    0.000   23.000    0.000    0.000 
#    0.000    4.000    0.000    0.000    0.000    0.000 
#
# Total GULP energy -134026.280441 kJ/mol
# GULP energy per Si atom -5584.428352 kJ/mol
# Density = 2.001522 g / cm^3
# Si number density = 20.060879 Si / 1000 Ang^3
#
#
#
# Elastic Constant Matrix: (Units=GPa)
#
#
# Indices 1 2 3 4 5 6 
#
# 1 61.5507 3.9278 0.5227 0.0000 0.6583 0.0000
# 2 3.9278 56.2094 25.6749 0.0000 -9.5668 0.0000
# 3 0.5227 25.6749 154.6824 0.0000 -10.2276 0.0000
# 4 0.0000 0.0000 0.0000 9.4275 0.0000 0.1251
# 5 0.6583 -9.5668 -10.2276 0.0000 29.0948 0.0000
# 6 0.0000 0.0000 0.0000 0.1251 0.0000 14.4491
#
#
#
# Elastic Compliance Matrix: (Units=1/GPa)
#
#
# Indices 1 2 3 4 5 6 
#
# 1 0.016338 -0.001324 0.000114 0.000000 -0.000765 0.000000
# 2 -0.001324 0.020200 -0.002976 0.000000 0.005626 0.000000
# 3 0.000114 -0.002976 0.007058 0.000000 0.001500 0.000000
# 4 0.000000 0.000000 0.000000 0.106085 0.000000 -0.000919
# 5 -0.000765 0.005626 0.001500 0.000000 0.036765 0.000000
# 6 0.000000 0.000000 0.000000 -0.000919 0.000000 0.069216
#
#
# Mechanical properties :
#
#
# Convention : Reuss Voigt Hill
#
# Bulk Modulus (GPa) = 28.39019 36.96592 32.67806
# Shear Modulus (GPa) = 18.13064 26.74877 22.43970
#
# Velocity S-wave (km/s) = 3.00956 3.65551 3.34815
# Velocity P-wave (km/s) = 5.12438 6.02361 5.59210
#
# Compressibility (1/GPa) = 0.03522343
#
# Stress axis : x y z
#
# Youngs Moduli (GPa) = 61.20525 49.50451 141.68961
#
# Poissons Ratio (x) = 0.06554 -0.01615
# Poissons Ratio (y) = 0.08103 0.42173
# Poissons Ratio (z) = -0.00698 0.14735
#
# Static dielectric constant tensor:
#      x y z
#    x 1.709440 0.000000 -0.003250 
#    y 0.000000 1.705200 0.000000 
#    z -0.003250 0.000000 1.798310 
# 
# From -- ./inp_files/355004.got.cif
#   From: 2010.05.17/outbox.cif.g08.bks.cpg/sg12_178_cif.got.tgz:355004.got - 2010.06.03 13:09:07.
