data_PCOD9171001
_publ_section_title
;
Structure prediction by ZEFSAII (Michael W. Deem and Ramdas Pophale) SiO2 
 PCOD9171001
Probable space group: C 2/M
;
_chemical_formula_sum "Si O2"
_cell_formula_units_Z 56
_cell_length_a 33.538323
_cell_length_b 7.603600
_cell_length_c 17.010196
_cell_angle_alpha 90.000000
_cell_angle_beta 49.285375
_cell_angle_gamma 90.000000
_cell_volume 3287.916001
_symmetry_space_group_name_H-M "C 2/M"
_symmetry_group_IT_number 12
_symmetry_cell_setting 'monoclinic'
loop_
_space_group_symop_operation_xyz
x,y,z
-x,y,-z
-x,-y,-z
x,-y,z
1/2+x,1/2+y,z
1/2-x,1/2+y,-z
1/2-x,1/2-y,-z
1/2+x,1/2-y,z
loop_
_atom_site_type_symbol
_atom_site_label
_atom_site_fract_x
_atom_site_fract_y
_atom_site_fract_z
Si Si1 0.443055 0.288054 0.480136
Si Si2 0.806572 0.289446 0.388299
Si Si3 0.739634 0.208698 0.885834
Si Si4 0.061403 0.214762 0.333933
Si Si5 0.764731 0.705299 0.283296
Si Si6 0.332397 0.712862 0.880319
Si Si7 0.345185 0.207479 0.497980
O O1 0.443679 0.500000 0.480471
O O2 0.429957 0.231521 0.586298
O O3 0.502669 0.228684 0.385690
O O4 0.398810 0.234057 0.475792
O O5 0.812975 0.500000 0.372726
O O6 0.750000 0.250000 0.500000
O O7 0.801107 0.218277 0.306615
O O8 0.845831 0.226711 0.406493
O O9 0.733000 0.283203 0.806949
O O10 0.789873 0.277528 0.870294
O O11 0.749043 0.000000 0.865051
O O12 0.689685 0.234050 0.006532
O O13 0.109577 0.273545 0.218090
O O14 0.061448 0.000000 0.333209
O O15 0.779375 0.500000 0.257387
O O16 0.704493 0.712437 0.391717
O O17 0.332075 0.500000 0.878680
O O18 0.333980 0.000000 0.509327
#
# Coordination Sequence:
#
# PCOD9171001 Si02
#       7
#     8   8   8   8   8   8   8
#     4   9  16  28  45  61  78 105 140 167 191 231
#     4   8  15  26  39  56  79 106 132 161 196 234
#     4   9  17  27  41  61  80 102 134 164 192 232
#     4   8  15  28  45  61  77 104 141 171 190 224
#     4   9  16  28  44  58  77 109 143 166 188 229
#     4   9  16  27  41  58  82 106 128 160 200 234
#     4  10  18  26  38  61  89 108 127 161 205 243
#
# _framework density 17.032063999999998
#
# number of rings (size 3 to 8) (size 9 to 14) (size 15 to 20)
#    0.000    3.143    0.000    2.143    0.000    3.429 
#    0.000    5.714    0.000    0.000    0.000    1.000 
#    0.000    8.000    0.000    0.000    0.000    0.000 
#
# Total GULP energy -155887.875985 kJ/mol
# GULP energy per Si atom -5567.424142 kJ/mol
# Density = 1.699330 g / cm^3
# Si number density = 17.032064 Si / 1000 Ang^3
#
#
#
# Elastic Constant Matrix: (Units=GPa)
#
#
# Indices 1 2 3 4 5 6 
#
# 1 150.2953 -4.2284 63.7941 0.0004 23.8281 -0.0003
# 2 -4.2284 33.1148 -7.3778 0.0009 5.1249 -0.0012
# 3 63.7941 -7.3778 94.9023 0.0000 17.8081 -0.0002
# 4 0.0004 0.0009 0.0000 11.4632 0.0000 -4.0396
# 5 23.8281 5.1249 17.8081 0.0000 29.2543 0.0001
# 6 -0.0003 -0.0012 -0.0002 -4.0396 0.0001 7.9044
#
#
#
# Elastic Compliance Matrix: (Units=1/GPa)
#
#
# Indices 1 2 3 4 5 6 
#
# 1 0.009821 0.000714 -0.005669 0.000000 -0.004673 0.000000
# 2 0.000714 0.032408 0.003628 -0.000001 -0.008468 0.000005
# 3 -0.005669 0.003628 0.015673 0.000000 -0.005559 0.000001
# 4 0.000000 -0.000001 0.000000 0.106397 0.000000 0.054375
# 5 -0.004673 -0.008468 -0.005559 0.000000 0.042857 -0.000002
# 6 0.000000 0.000005 0.000001 0.054375 -0.000002 0.154301
#
#
# Mechanical properties :
#
#
# Convention : Reuss Voigt Hill
#
# Bulk Modulus (GPa) = 18.09997 42.52090 30.31044
# Shear Modulus (GPa) = 13.07098 24.79936 18.93517
#
# Velocity S-wave (km/s) = 2.77326 3.81995 3.33789
# Velocity P-wave (km/s) = 4.57217 6.66899 5.71752
#
# Compressibility (1/GPa) = 0.05524871
#
# Stress axis : x y z
#
# Youngs Moduli (GPa) = 101.82315 30.85654 63.80314
#
# Poissons Ratio (x) = -0.02204 0.36172
# Poissons Ratio (y) = -0.07272 -0.23150
# Poissons Ratio (z) = 0.57726 -0.11196
#
# Static dielectric constant tensor:
#      x y z
#    x 1.615450 0.000000 0.027190 
#    y 0.000000 1.704230 0.000000 
#    z 0.027190 0.000000 1.556780 
# 
# From -- ./inp_files/291853.got.cif
#   From: 2010.05.17/outbox.cif.g08.bks.cpg/sg12_146_cif.got.tgz:291853.got - 2010.06.03 13:09:07.
