data_PCOD9171834
_publ_section_title
;
Structure prediction by ZEFSAII (Michael W. Deem and Ramdas Pophale) SiO2 
 PCOD9171834
Probable space group: C 2/M
;
_chemical_formula_sum "Si O2"
_cell_formula_units_Z 44
_cell_length_a 15.711707
_cell_length_b 22.506467
_cell_length_c 16.755347
_cell_angle_alpha 90.000000
_cell_angle_beta 26.529881
_cell_angle_gamma 90.000000
_cell_volume 2646.461265
_symmetry_space_group_name_H-M "C 2/M"
_symmetry_group_IT_number 12
_symmetry_cell_setting 'monoclinic'
loop_
_space_group_symop_operation_xyz
x,y,z
-x,y,-z
-x,-y,-z
x,-y,z
1/2+x,1/2+y,z
1/2-x,1/2+y,-z
1/2-x,1/2-y,-z
1/2+x,1/2-y,z
loop_
_atom_site_type_symbol
_atom_site_label
_atom_site_fract_x
_atom_site_fract_y
_atom_site_fract_z
Si Si1 0.701019 0.431072 0.285051
Si Si2 0.279370 0.179789 0.485387
Si Si3 0.000000 0.238809 0.000000
Si Si4 0.458692 0.158973 0.166080
Si Si5 0.119822 0.153314 0.209948
Si Si6 0.585122 0.776835 0.340137
O O1 0.500000 0.425876 0.500000
O O2 0.753691 0.500000 0.235987
O O3 0.654832 0.401624 0.239126
O O4 0.865945 0.392967 0.190186
O O5 0.250000 0.250000 0.500000
O O6 0.341273 0.159222 0.345830
O O7 0.446515 0.178142 0.409819
O O8 0.075022 0.151108 0.676075
O O9 0.805006 0.203187 0.153422
O O10 0.952523 0.282345 0.115090
O O11 0.681175 0.156787 0.003055
O O12 0.096863 0.212418 0.285245
O O13 0.500000 0.767821 0.500000
#
# Coordination Sequence:
#
# PCOD9171834 Si02
#       6
#     8   8   4   8   8   8
#     4  11  20  32  53  73  99 138 166 193 238 292
#     4  10  21  30  46  65  92 126 167 205 239 284
#     4  10  18  28  49  66  92 132 157 202 234 284
#     4  11  19  32  47  68  98 128 164 199 235 281
#     4  10  19  32  48  66  98 129 159 202 233 288
#     4  10  19  31  47  65  91 129 160 207 240 281
#
# _framework density 16.625973999999999
#
# number of rings (size 3 to 8) (size 9 to 14) (size 15 to 20)
#    0.000    1.636    5.455    2.727    0.000    9.455 
#    0.000    0.000    0.000    0.000    0.000    0.000 
#    0.000    2.909    0.000    6.909    0.000    0.000 
#
# Total GULP energy -122549.030631 kJ/mol
# GULP energy per Si atom -5570.410483 kJ/mol
# Density = 1.658813 g / cm^3
# Si number density = 16.625974 Si / 1000 Ang^3
#
#
#
# Elastic Constant Matrix: (Units=GPa)
#
#
# Indices 1 2 3 4 5 6 
#
# 1 75.2794 23.0788 34.2735 -0.0103 -40.4680 -0.0006
# 2 23.0788 35.9256 12.4657 -0.0092 -13.6375 0.0038
# 3 34.2735 12.4657 70.5964 -0.0663 -43.3745 0.0253
# 4 -0.0103 -0.0092 -0.0663 5.0100 0.0058 -2.1989
# 5 -40.4680 -13.6375 -43.3745 0.0058 38.4308 0.0053
# 6 -0.0006 0.0038 0.0253 -2.1989 0.0053 9.1088
#
#
#
# Elastic Compliance Matrix: (Units=1/GPa)
#
#
# Indices 1 2 3 4 5 6 
#
# 1 0.040029 -0.009360 0.019821 0.000246 0.061200 -0.000025
# 2 -0.009360 0.034772 -0.000229 0.000036 0.002224 -0.000007
# 3 0.019821 -0.000229 0.056618 0.000673 0.084692 -0.000043
# 4 0.000246 0.000036 0.000673 0.223262 0.000989 0.053893
# 5 0.061200 0.002224 0.084692 0.000989 0.186840 -0.000102
# 6 -0.000025 -0.000007 -0.000043 0.053893 -0.000102 0.122794
#
#
# Mechanical properties :
#
#
# Convention : Reuss Voigt Hill
#
# Bulk Modulus (GPa) = 6.58407 35.71526 21.14967
# Shear Modulus (GPa) = 7.19963 17.97547 12.58755
#
# Velocity S-wave (km/s) = 2.08321 3.29168 2.75453
# Velocity P-wave (km/s) = 3.12331 5.99792 4.78174
#
# Compressibility (1/GPa) = 0.15188164
#
# Stress axis : x y z
#
# Youngs Moduli (GPa) = 24.98218 28.75857 17.66217
#
# Poissons Ratio (x) = 0.26919 -0.35008
# Poissons Ratio (y) = 0.23384 0.00405
# Poissons Ratio (z) = -0.49517 0.00659
#
# Static dielectric constant tensor:
#      x y z
#    x 1.605220 -0.000080 -0.058250 
#    y -0.000080 1.530270 0.000070 
#    z -0.058250 0.000070 1.627470 
# 
# From -- ./inp_files/218196.got.cif
#   From: 2010.05.17/outbox.cif.g08.bks.cpg/sg12_110_cif.got.tgz:218196.got - 2010.06.03 13:09:07.
