data_PCOD9171075
_publ_section_title
;
Structure prediction by ZEFSAII (Michael W. Deem and Ramdas Pophale) SiO2 
 PCOD9171075
Probable space group: C 2/M
;
_chemical_formula_sum "Si O2"
_cell_formula_units_Z 48
_cell_length_a 37.129510
_cell_length_b 20.537725
_cell_length_c 5.319787
_cell_angle_alpha 90.000000
_cell_angle_beta 106.651538
_cell_angle_gamma 90.000000
_cell_volume 3886.519626
_symmetry_space_group_name_H-M "C 2/M"
_symmetry_group_IT_number 12
_symmetry_cell_setting 'monoclinic'
loop_
_space_group_symop_operation_xyz
x,y,z
-x,y,-z
-x,-y,-z
x,-y,z
1/2+x,1/2+y,z
1/2-x,1/2+y,-z
1/2-x,1/2-y,-z
1/2+x,1/2-y,z
loop_
_atom_site_type_symbol
_atom_site_label
_atom_site_fract_x
_atom_site_fract_y
_atom_site_fract_z
Si Si1 0.811054 0.775145 0.122107
Si Si2 0.232047 0.354154 0.964096
Si Si3 0.543100 0.579008 0.586193
Si Si4 0.833751 0.843784 0.667500
Si Si5 0.088767 0.078733 0.177528
Si Si6 0.755018 0.922518 0.510038
O O1 0.801086 0.698913 0.102172
O O2 0.831500 0.799452 0.414180
O O3 0.770855 0.812564 0.041712
O O4 0.831500 0.799452 0.911814
O O5 0.233978 0.396976 0.716776
O O6 0.233977 0.396976 0.219141
O O7 0.500000 0.602173 0.500000
O O8 0.541709 0.500000 0.583413
O O9 0.565476 0.597523 0.379759
O O10 0.565477 0.597523 0.882128
O O11 0.870787 0.887640 0.741575
O O12 0.796550 0.889647 0.593099
O O13 0.093099 0.000000 0.186191
O O14 0.758429 0.000000 0.516857
#
# Coordination Sequence:
#
# PCOD9171075 Si02
#       6
#     8   8   8   8   8   8
#     4   9  17  28  40  52  68  93 122 148 178 220
#     4   9  17  28  40  52  68  93 122 148 178 220
#     4   9  17  28  40  52  68  93 122 148 178 220
#     4  10  18  27  39  55  74  93 116 150 193 230
#     4  10  18  27  39  55  74  93 116 150 193 230
#     4  10  18  27  39  55  74  93 116 150 193 230
#
# _framework density 12.350383000000001
#
# number of rings (size 3 to 8) (size 9 to 14) (size 15 to 20)
#    0.000    2.500    0.000    3.500    0.000    6.000 
#    0.000    5.000    0.000    0.000    0.000    0.000 
#    0.000    0.000    0.000    0.000    0.000    0.000 
#
# Total GULP energy -133735.509838 kJ/mol
# GULP energy per Si atom -5572.312910 kJ/mol
# Density = 1.232227 g / cm^3
# Si number density = 12.350383 Si / 1000 Ang^3
#
#
#
# Elastic Constant Matrix: (Units=GPa)
#
#
# Indices 1 2 3 4 5 6 
#
# 1 71.0176 38.7730 59.4345 0.0000 -7.0797 0.0000
# 2 38.7730 66.4696 50.6582 0.0000 -5.5238 0.0000
# 3 59.4345 50.6582 132.0445 0.0000 -21.2849 0.0000
# 4 0.0000 0.0000 0.0000 13.6133 0.0000 0.5201
# 5 -7.0797 -5.5238 -21.2849 0.0000 20.0126 0.0000
# 6 0.0000 0.0000 0.0000 0.5201 0.0000 14.7306
#
#
#
# Elastic Compliance Matrix: (Units=1/GPa)
#
#
# Indices 1 2 3 4 5 6 
#
# 1 0.025849 -0.008636 -0.008729 0.000000 -0.002523 0.000000
# 2 -0.008636 0.024338 -0.005865 0.000000 -0.002575 0.000000
# 3 -0.008729 -0.005865 0.015682 0.000000 0.011972 0.000000
# 4 0.000000 0.000000 0.000000 0.073557 0.000000 -0.002597
# 5 -0.002523 -0.002575 0.011972 0.000000 0.061099 0.000000
# 6 0.000000 0.000000 0.000000 -0.002597 0.000000 0.067978
#
#
# Mechanical properties :
#
#
# Convention : Reuss Voigt Hill
#
# Bulk Modulus (GPa) = 51.51947 63.02921 57.27434
# Shear Modulus (GPa) = 15.55541 17.71569 16.63555
#
# Velocity S-wave (km/s) = 3.55280 3.79149 3.67409
# Velocity P-wave (km/s) = 7.65737 8.38524 8.02956
#
# Compressibility (1/GPa) = 0.01941014
#
# Stress axis : x y z
#
# Youngs Moduli (GPa) = 38.68584 41.08821 63.76712
#
# Poissons Ratio (x) = 0.35483 0.55660
# Poissons Ratio (y) = 0.33408 0.37401
# Poissons Ratio (z) = 0.33767 0.24099
#
# Static dielectric constant tensor:
#      x y z
#    x 1.382140 0.000000 -0.013640 
#    y 0.000000 1.376770 0.000000 
#    z -0.013640 0.000000 1.411480 
# 
# From -- ./inp_files/17179.got.cif
#   From: 2010.05.17/outbox.cif.g08.bks.cpg/sg12_9_cif.got.tgz:17179.got - 2010.06.03 13:09:07.
