data_PCOD9171758
_publ_section_title
;
Structure prediction by ZEFSAII (Michael W. Deem and Ramdas Pophale) SiO2 
 PCOD9171758
Probable space group: C 2/M
;
_chemical_formula_sum "Si O2"
_cell_formula_units_Z 48
_cell_length_a 28.785267
_cell_length_b 9.055491
_cell_length_c 11.462319
_cell_angle_alpha 90.000000
_cell_angle_beta 77.665270
_cell_angle_gamma 90.000000
_cell_volume 2918.852150
_symmetry_space_group_name_H-M "C 2/M"
_symmetry_group_IT_number 12
_symmetry_cell_setting 'monoclinic'
loop_
_space_group_symop_operation_xyz
x,y,z
-x,y,-z
-x,-y,-z
x,-y,z
1/2+x,1/2+y,z
1/2-x,1/2+y,-z
1/2-x,1/2-y,-z
1/2+x,1/2-y,z
loop_
_atom_site_type_symbol
_atom_site_label
_atom_site_fract_x
_atom_site_fract_y
_atom_site_fract_z
Si Si1 0.817724 0.824102 0.897471
Si Si2 0.006927 0.670117 0.637227
Si Si3 0.608615 0.177910 0.524882
Si Si4 0.771961 0.175722 0.169201
Si Si5 0.707896 0.822983 0.597061
Si Si6 0.911241 0.824263 0.713129
O O1 0.779996 0.735045 0.839832
O O2 0.871143 0.788336 0.830147
O O3 0.810133 0.000000 0.882149
O O4 0.805253 0.794394 0.038924
O O5 0.002549 0.500000 0.676869
O O6 0.061276 0.721495 0.622940
O O7 0.000000 0.673840 0.500000
O O8 0.963679 0.762843 0.711934
O O9 0.657413 0.211994 0.563913
O O10 0.605567 0.253671 0.400406
O O11 0.605524 0.000000 0.509982
O O12 0.789339 0.258549 0.274601
O O13 0.770176 0.000000 0.190145
O O14 0.750000 0.750000 0.500000
O O15 0.713471 0.000000 0.595613
O O16 0.913630 0.000000 0.698452
#
# Coordination Sequence:
#
# PCOD9171758 Si02
#       6
#     8   8   8   8   8   8
#     4   9  19  34  50  70  98 128 158 196 238 282
#     4   8  15  29  46  65  92 124 156 191 233 278
#     4   9  19  33  47  66  96 130 157 188 233 283
#     4  10  20  34  51  71  96 127 162 197 236 280
#     4  11  22  35  51  72  98 127 160 195 235 284
#     4  10  18  28  47  74  98 120 153 196 237 278
#
# _framework density 16.444818999999999
#
# number of rings (size 3 to 8) (size 9 to 14) (size 15 to 20)
#    0.000    2.500    0.000    3.500    0.000    9.000 
#    0.000    0.000    0.000    1.000    0.000    7.000 
#    0.000    0.000    0.000    0.000    0.000    0.000 
#
# Total GULP energy -133819.028104 kJ/mol
# GULP energy per Si atom -5575.792838 kJ/mol
# Density = 1.640739 g / cm^3
# Si number density = 16.444819 Si / 1000 Ang^3
#
#
#
# Elastic Constant Matrix: (Units=GPa)
#
#
# Indices 1 2 3 4 5 6 
#
# 1 157.2762 60.1223 66.6956 0.0000 -23.2003 0.0000
# 2 60.1223 48.9342 39.7768 0.0000 -8.4855 0.0000
# 3 66.6956 39.7768 63.2562 0.0000 -12.4064 0.0000
# 4 0.0000 0.0000 0.0000 24.1804 0.0000 -1.6357
# 5 -23.2003 -8.4855 -12.4064 0.0000 29.2012 0.0000
# 6 0.0000 0.0000 0.0000 -1.6357 0.0000 28.4261
#
#
#
# Elastic Compliance Matrix: (Units=1/GPa)
#
#
# Indices 1 2 3 4 5 6 
#
# 1 0.014350 -0.010760 -0.007354 0.000000 0.005150 0.000000
# 2 -0.010760 0.049902 -0.020582 0.000000 -0.002792 0.000000
# 3 -0.007354 -0.020582 0.037293 0.000000 0.004021 0.000000
# 4 0.000000 0.000000 0.000000 0.041517 0.000000 0.002389
# 5 0.005150 -0.002792 0.004021 0.000000 0.039234 0.000000
# 6 0.000000 0.000000 0.000000 0.002389 0.000000 0.035316
#
#
# Mechanical properties :
#
#
# Convention : Reuss Voigt Hill
#
# Bulk Modulus (GPa) = 41.40201 66.96176 54.18188
# Shear Modulus (GPa) = 16.49871 23.21967 19.85919
#
# Velocity S-wave (km/s) = 3.17089 3.76170 3.47886
# Velocity P-wave (km/s) = 6.21587 7.72494 7.01112
#
# Compressibility (1/GPa) = 0.02415342
#
# Stress axis : x y z
#
# Youngs Moduli (GPa) = 69.68866 20.03947 26.81440
#
# Poissons Ratio (x) = 0.21562 0.19719
# Poissons Ratio (y) = 0.74983 0.55189
# Poissons Ratio (z) = 0.51248 0.41245
#
# Static dielectric constant tensor:
#      x y z
#    x 1.564120 0.000000 -0.022180 
#    y 0.000000 1.550420 0.000000 
#    z -0.022180 0.000000 1.532820 
# 
# From -- ./inp_files/179155.got.cif
#   From: 2010.05.17/outbox.cif.g08.bks.cpg/sg12_90_cif.got.tgz:179155.got - 2010.06.03 13:09:07.
