data_PCOD9171394
_publ_section_title
;
Structure prediction by ZEFSAII (Michael W. Deem and Ramdas Pophale) SiO2 
 PCOD9171394
Probable space group: C 2/M
;
_chemical_formula_sum "Si O2"
_cell_formula_units_Z 56
_cell_length_a 30.120366
_cell_length_b 7.765359
_cell_length_c 14.077018
_cell_angle_alpha 90.000000
_cell_angle_beta 78.488922
_cell_angle_gamma 90.000000
_cell_volume 3226.324629
_symmetry_space_group_name_H-M "C 2/M"
_symmetry_group_IT_number 12
_symmetry_cell_setting 'monoclinic'
loop_
_space_group_symop_operation_xyz
x,y,z
-x,y,-z
-x,-y,-z
x,-y,z
1/2+x,1/2+y,z
1/2-x,1/2+y,-z
1/2-x,1/2-y,-z
1/2+x,1/2-y,z
loop_
_atom_site_type_symbol
_atom_site_label
_atom_site_fract_x
_atom_site_fract_y
_atom_site_fract_z
Si Si1 0.697560 0.204976 0.132614
Si Si2 0.107040 0.207349 0.873328
Si Si3 0.890436 0.700338 0.742082
Si Si4 0.059653 0.208803 0.087452
Si Si5 0.298769 0.204362 0.084683
Si Si6 0.479083 0.205322 0.606161
Si Si7 0.031159 0.792614 0.773608
O O1 0.659677 0.276250 0.220724
O O2 0.749657 0.231414 0.138066
O O3 0.689368 0.000000 0.130916
O O4 0.692449 0.274654 0.026527
O O5 0.159149 0.254704 0.865992
O O6 0.079336 0.268940 0.793085
O O7 0.104648 0.000000 0.873728
O O8 0.079939 0.266566 0.978974
O O9 0.885616 0.500000 0.716437
O O10 0.911943 0.712513 0.838242
O O11 0.929682 0.777204 0.658105
O O12 0.007510 0.251522 0.131976
O O13 0.063519 0.000000 0.090548
O O14 0.295145 0.000000 0.077734
O O15 0.500000 0.275913 0.500000
O O16 0.512993 0.229402 0.680359
O O17 0.473273 0.000000 0.596589
O O18 0.032172 0.000000 0.766758
#
# Coordination Sequence:
#
# PCOD9171394 Si02
#       7
#     8   8   8   8   8   8   8
#     4   9  17  29  42  59  85 118 152 183 216 254
#     4  10  18  28  42  61  89 122 151 179 214 255
#     4   9  16  28  45  64  88 116 147 181 216 259
#     4   9  16  26  41  61  87 118 150 180 209 248
#     4  10  19  28  41  61  87 118 153 187 215 250
#     4   9  18  32  49  69  91 114 142 180 225 266
#     4   9  18  30  44  64  88 117 150 180 214 259
#
# _framework density 17.357211
#
# number of rings (size 3 to 8) (size 9 to 14) (size 15 to 20)
#    0.000    2.714    1.429    0.857    0.000    3.714 
#    0.000    0.000    0.000    4.286    0.000    1.000 
#    0.000    0.000    0.000    0.000    0.000    0.000 
#
# Total GULP energy -155978.871534 kJ/mol
# GULP energy per Si atom -5570.673983 kJ/mol
# Density = 1.731771 g / cm^3
# Si number density = 17.357211 Si / 1000 Ang^3
#
#
#
# Elastic Constant Matrix: (Units=GPa)
#
#
# Indices 1 2 3 4 5 6 
#
# 1 144.6539 1.1004 62.6078 0.0000 -19.6917 0.0000
# 2 1.1004 22.1223 2.5294 0.0000 -6.0319 0.0000
# 3 62.6078 2.5294 87.4740 0.0000 -23.1227 0.0000
# 4 0.0000 0.0000 0.0000 6.6980 0.0000 9.1223
# 5 -19.6917 -6.0319 -23.1227 0.0000 18.0389 0.0000
# 6 0.0000 0.0000 0.0000 9.1223 0.0000 7.5107
#
#
#
# Elastic Compliance Matrix: (Units=1/GPa)
#
#
# Indices 1 2 3 4 5 6 
#
# 1 0.010123 0.001094 -0.006442 0.000000 0.003159 0.000000
# 2 0.001094 0.051042 0.003884 0.000000 0.023241 0.000000
# 3 -0.006442 0.003884 0.021802 0.000000 0.022213 0.000000
# 4 0.000000 0.000000 0.000000 -0.228217 0.000000 0.277188
# 5 0.003159 0.023241 0.022213 0.000000 0.095129 0.000000
# 6 0.000000 0.000000 0.000000 0.277188 0.000000 -0.203522
#
#
# Mechanical properties :
#
#
# Convention : Reuss Voigt Hill
#
# Bulk Modulus (GPa) = 12.49372 42.96949 27.73161
# Shear Modulus (GPa) = -22.31768 18.98367 -1.66701
#
# Velocity S-wave (km/s) = -3.58968 3.31071 -0.98107
# Velocity P-wave (km/s) = 3.15712 6.27886 3.83775
#
# Compressibility (1/GPa) = 0.08004022
#
# Stress axis : x y z
#
# Youngs Moduli (GPa) = 98.78626 19.59183 45.86732
#
# Poissons Ratio (x) = -0.02144 0.29547
# Poissons Ratio (y) = -0.10811 -0.17816
# Poissons Ratio (z) = 0.63636 -0.07610
#
# Static dielectric constant tensor:
#      x y z
#    x 1.631080 0.000000 -0.028520 
#    y 0.000000 1.637130 0.000000 
#    z -0.028520 0.000000 1.582910 
# 
# From -- ./inp_files/247747.got.cif
#   From: 2010.05.17/outbox.cif.g08.bks.cpg/sg12_124_cif.got.tgz:247747.got - 2010.06.03 13:09:07.
