data_PCOD9171142
_publ_section_title
;
Structure prediction by ZEFSAII (Michael W. Deem and Ramdas Pophale) SiO2 
 PCOD9171142
Probable space group: C 2/M
;
_chemical_formula_sum "Si O2"
_cell_formula_units_Z 64
_cell_length_a 17.077978
_cell_length_b 17.742054
_cell_length_c 13.699867
_cell_angle_alpha 90.000000
_cell_angle_beta 98.211788
_cell_angle_gamma 90.000000
_cell_volume 4108.476740
_symmetry_space_group_name_H-M "C 2/M"
_symmetry_group_IT_number 12
_symmetry_cell_setting 'monoclinic'
loop_
_space_group_symop_operation_xyz
x,y,z
-x,y,-z
-x,-y,-z
x,-y,z
1/2+x,1/2+y,z
1/2-x,1/2+y,-z
1/2-x,1/2-y,-z
1/2+x,1/2-y,z
loop_
_atom_site_type_symbol
_atom_site_label
_atom_site_fract_x
_atom_site_fract_y
_atom_site_fract_z
Si Si1 0.504785 0.312218 0.385656
Si Si2 0.036164 0.654404 0.704070
Si Si3 0.171175 0.150737 0.633764
Si Si4 0.684161 0.825241 0.607840
Si Si5 0.901149 0.415829 0.572928
Si Si6 0.338292 0.588601 0.579430
Si Si7 0.189312 0.586750 0.235215
Si Si8 0.532033 0.908767 0.112230
O O1 0.500000 0.290823 0.500000
O O2 0.504325 0.235749 0.323374
O O3 0.420423 0.351522 0.351371
O O4 0.580084 0.366160 0.386851
O O5 0.127430 0.659644 0.690154
O O6 0.019239 0.626344 0.809527
O O7 0.991203 0.599682 0.619798
O O8 0.192368 0.235344 0.602730
O O9 0.179627 0.098203 0.539900
O O10 0.229966 0.130033 0.731119
O O11 0.634914 0.855201 0.506204
O O12 0.766491 0.869551 0.621440
O O13 0.890123 0.500000 0.531091
O O14 0.855173 0.411093 0.667836
O O15 0.343579 0.500000 0.603248
O O16 0.207579 0.500000 0.215698
O O17 0.123289 0.614669 0.147558
O O18 0.530017 0.000000 0.122700
O O19 0.500000 0.889329 0.000000
#
# Coordination Sequence:
#
# PCOD9171142 Si02
#       8
#     8   8   8   8   8   8   8   8
#     4   9  20  33  46  68  98 134 172 202 232 271
#     4  10  19  32  48  68  95 128 160 193 241 291
#     4  10  19  31  46  65  93 132 171 203 233 265
#     4  11  21  29  43  68 101 130 166 196 233 280
#     4  10  18  27  41  65  95 128 161 189 219 274
#     4  11  21  30  43  67 102 141 173 201 233 271
#     4   9  17  28  47  71  90 119 159 195 234 280
#     4   9  19  34  52  75  98 119 148 191 249 306
#
# _framework density 15.57755
#
# number of rings (size 3 to 8) (size 9 to 14) (size 15 to 20)
#    0.000    2.125    1.250    4.875    3.500    5.250 
#    0.000    0.000    0.000    3.000    0.000    0.000 
#    0.000    0.500    0.000    0.375    0.000    0.000 
#
# Total GULP energy -178445.009065 kJ/mol
# GULP energy per Si atom -5576.406533 kJ/mol
# Density = 1.554209 g / cm^3
# Si number density = 15.577550 Si / 1000 Ang^3
#
#
#
# Elastic Constant Matrix: (Units=GPa)
#
#
# Indices 1 2 3 4 5 6 
#
# 1 97.2167 42.5157 40.8498 0.0000 17.3328 0.0000
# 2 42.5157 74.3463 32.6675 0.0000 6.5844 0.0000
# 3 40.8498 32.6675 85.7704 0.0000 15.9326 0.0000
# 4 0.0000 0.0000 0.0000 15.7347 0.0000 2.5293
# 5 17.3328 6.5844 15.9326 0.0000 18.6916 0.0000
# 6 0.0000 0.0000 0.0000 2.5293 0.0000 15.3020
#
#
#
# Elastic Compliance Matrix: (Units=1/GPa)
#
#
# Indices 1 2 3 4 5 6 
#
# 1 0.016595 -0.007143 -0.003317 0.000000 -0.010045 0.000000
# 2 -0.007143 0.019233 -0.004628 0.000000 0.003793 0.000000
# 3 -0.003317 -0.004628 0.016785 0.000000 -0.009601 0.000000
# 4 0.000000 0.000000 0.000000 0.065289 0.000000 -0.010792
# 5 -0.010045 0.003793 -0.009601 0.000000 0.069662 0.000000
# 6 0.000000 0.000000 0.000000 -0.010792 0.000000 0.067135
#
#
# Mechanical properties :
#
#
# Convention : Reuss Voigt Hill
#
# Bulk Modulus (GPa) = 44.56978 54.37772 49.47375
# Shear Modulus (GPa) = 17.10261 19.36568 18.23415
#
# Velocity S-wave (km/s) = 3.31705 3.52970 3.42503
# Velocity P-wave (km/s) = 6.58363 7.18298 6.88982
#
# Compressibility (1/GPa) = 0.02243673
#
# Stress axis : x y z
#
# Youngs Moduli (GPa) = 60.25999 51.99452 59.57663
#
# Poissons Ratio (x) = 0.37138 0.19763
# Poissons Ratio (y) = 0.43042 0.27572
# Poissons Ratio (z) = 0.19990 0.24063
#
# Static dielectric constant tensor:
#      x y z
#    x 1.570410 0.000000 0.016570 
#    y 0.000000 1.535030 0.000000 
#    z 0.016570 0.000000 1.495340 
# 
# From -- ./inp_files/226111.got.cif
#   From: 2010.05.17/outbox.cif.g08.bks.cpg/sg12_114_cif.got.tgz:226111.got - 2010.06.03 13:09:07.
