data_PCOD9171193
_publ_section_title
;
Structure prediction by ZEFSAII (Michael W. Deem and Ramdas Pophale) SiO2 
 PCOD9171193
Probable space group: C 2/M
;
_chemical_formula_sum "Si O2"
_cell_formula_units_Z 56
_cell_length_a 23.510812
_cell_length_b 8.521570
_cell_length_c 17.154471
_cell_angle_alpha 90.000000
_cell_angle_beta 81.359311
_cell_angle_gamma 90.000000
_cell_volume 3397.872810
_symmetry_space_group_name_H-M "C 2/M"
_symmetry_group_IT_number 12
_symmetry_cell_setting 'monoclinic'
loop_
_space_group_symop_operation_xyz
x,y,z
-x,y,-z
-x,-y,-z
x,-y,z
1/2+x,1/2+y,z
1/2-x,1/2+y,-z
1/2-x,1/2-y,-z
1/2+x,1/2-y,z
loop_
_atom_site_type_symbol
_atom_site_label
_atom_site_fract_x
_atom_site_fract_y
_atom_site_fract_z
Si Si1 0.045500 0.814086 0.602171
Si Si2 0.454264 0.808328 0.074772
Si Si3 0.378235 0.311711 0.735425
Si Si4 0.790975 0.687658 0.879111
Si Si5 0.001637 0.687169 0.765487
Si Si6 0.914476 0.186263 0.565628
Si Si7 0.170883 0.689661 0.956239
O O1 0.044052 0.731675 0.685751
O O2 0.085001 0.751161 0.523028
O O3 0.979981 0.799457 0.583649
O O4 0.056098 0.000000 0.610645
O O5 0.474206 0.758046 0.156395
O O6 0.390196 0.757402 0.064802
O O7 0.453958 0.000000 0.074830
O O8 0.500000 0.758527 0.000000
O O9 0.378174 0.500000 0.732891
O O10 0.326685 0.253037 0.799527
O O11 0.438956 0.258446 0.760171
O O12 0.377070 0.252017 0.645621
O O13 0.791883 0.500000 0.876201
O O14 0.725603 0.746480 0.898161
O O15 0.820691 0.737416 0.955005
O O16 0.994953 0.500000 0.769348
O O17 0.903022 0.000000 0.560554
O O18 0.172534 0.500000 0.953738
#
# Coordination Sequence:
#
# PCOD9171193 Si02
#       7
#     8   8   8   8   8   8   8
#     4   8  13  25  41  57  83 117 148 176 213 262
#     4   9  17  30  47  65  88 120 152 178 208 255
#     4  10  18  29  45  65  90 120 151 179 216 266
#     4  10  19  31  48  69  90 111 143 189 229 256
#     4  10  18  27  42  66  92 117 149 186 220 253
#     4   7  12  23  40  59  81 114 150 177 205 259
#     4   9  18  33  50  65  86 120 153 176 211 265
#
# _framework density 16.480899999999998
#
# number of rings (size 3 to 8) (size 9 to 14) (size 15 to 20)
#    0.000    3.000    0.000    3.857    0.000    2.857 
#    0.000    7.857    0.000    3.000    0.000    1.000 
#    0.000    0.000    0.000    0.000    0.000    0.000 
#
# Total GULP energy -155881.282374 kJ/mol
# GULP energy per Si atom -5567.188656 kJ/mol
# Density = 1.644339 g / cm^3
# Si number density = 16.480900 Si / 1000 Ang^3
#
#
#
# Elastic Constant Matrix: (Units=GPa)
#
#
# Indices 1 2 3 4 5 6 
#
# 1 76.0180 14.5975 69.0495 0.0000 -11.5517 0.0000
# 2 14.5975 17.2675 23.1273 0.0000 -5.2304 0.0000
# 3 69.0495 23.1273 176.3315 0.0000 -24.3255 0.0000
# 4 0.0000 0.0000 0.0000 4.6681 0.0000 -15.5411
# 5 -11.5517 -5.2304 -24.3255 0.0000 24.3777 0.0000
# 6 0.0000 0.0000 0.0000 -15.5411 0.0000 5.3669
#
#
#
# Elastic Compliance Matrix: (Units=1/GPa)
#
#
# Indices 1 2 3 4 5 6 
#
# 1 0.021391 -0.008145 -0.007133 0.000000 0.001271 0.000000
# 2 -0.008145 0.074346 -0.005675 0.000000 0.006429 0.000000
# 3 -0.007133 -0.005675 0.009943 0.000000 0.005324 0.000000
# 4 0.000000 0.000000 0.000000 -0.024792 0.000000 -0.071792
# 5 0.001271 0.006429 0.005324 0.000000 0.048316 0.000000
# 6 0.000000 0.000000 0.000000 -0.071792 0.000000 -0.021564
#
#
# Mechanical properties :
#
#
# Convention : Reuss Voigt Hill
#
# Bulk Modulus (GPa) = 15.68013 53.68506 34.68259
# Shear Modulus (GPa) = 29.27364 17.73871 23.50617
#
# Velocity S-wave (km/s) = 4.21909 3.28429 3.78069
# Velocity P-wave (km/s) = 5.76793 6.85762 6.33624
#
# Compressibility (1/GPa) = 0.06377500
#
# Stress axis : x y z
#
# Youngs Moduli (GPa) = 46.74866 13.45065 100.57295
#
# Poissons Ratio (x) = 0.10956 0.71737
# Poissons Ratio (y) = 0.38077 0.57071
# Poissons Ratio (z) = 0.33345 0.07633
#
# Static dielectric constant tensor:
#      x y z
#    x 1.523780 0.000000 -0.008450 
#    y 0.000000 1.565260 0.000000 
#    z -0.008450 0.000000 1.601630 
# 
# From -- ./inp_files/280202.got.cif
#   From: 2010.05.17/outbox.cif.g08.bks.cpg/sg12_141_cif.got.tgz:280202.got - 2010.06.03 13:09:07.
