data_PCOD9171170
_publ_section_title
;
Structure prediction by ZEFSAII (Michael W. Deem and Ramdas Pophale) SiO2 
 PCOD9171170
Probable space group: C 2/M
;
_chemical_formula_sum "Si O2"
_cell_formula_units_Z 48
_cell_length_a 24.648176
_cell_length_b 9.292801
_cell_length_c 14.437689
_cell_angle_alpha 90.000000
_cell_angle_beta 109.170401
_cell_angle_gamma 90.000000
_cell_volume 3123.577473
_symmetry_space_group_name_H-M "C 2/M"
_symmetry_group_IT_number 12
_symmetry_cell_setting 'monoclinic'
loop_
_space_group_symop_operation_xyz
x,y,z
-x,y,-z
-x,-y,-z
x,-y,z
1/2+x,1/2+y,z
1/2-x,1/2+y,-z
1/2-x,1/2-y,-z
1/2+x,1/2-y,z
loop_
_atom_site_type_symbol
_atom_site_label
_atom_site_fract_x
_atom_site_fract_y
_atom_site_fract_z
Si Si1 0.454123 0.827977 0.552616
Si Si2 0.446174 0.334556 0.041911
Si Si3 0.979942 0.671177 0.778836
Si Si4 0.273180 0.670080 0.650455
Si Si5 0.122016 0.173305 0.168064
Si Si6 0.166723 0.170274 0.514785
O O1 0.500000 0.788149 0.500000
O O2 0.478629 0.798159 0.668954
O O3 0.394195 0.746242 0.507464
O O4 0.443836 0.000000 0.540897
O O5 0.439447 0.500000 0.068469
O O6 0.465024 0.235184 0.136950
O O7 0.500000 0.331179 0.000000
O O8 0.392864 0.291320 0.946864
O O9 0.976816 0.500000 0.791063
O O10 0.924366 0.746165 0.793954
O O11 0.259382 0.500000 0.645993
O O12 0.314678 0.706782 0.759255
O O13 0.215602 0.761163 0.607216
O O14 0.310642 0.694080 0.577917
O O15 0.113381 0.000000 0.173458
O O16 0.162179 0.000000 0.526531
#
# Coordination Sequence:
#
# PCOD9171170 Si02
#       6
#     8   8   8   8   8   8
#     4  10  21  35  48  63  88 124 160 190 225 269
#     4   8  15  26  41  60  87 119 147 175 215 270
#     4  10  18  27  42  63  88 116 149 189 226 260
#     4   9  17  29  46  66  93 123 148 178 221 274
#     4   9  16  28  44  64  90 122 150 173 214 272
#     4  10  19  30  46  68  91 117 152 190 226 265
#
# _framework density 15.366994999999999
#
# number of rings (size 3 to 8) (size 9 to 14) (size 15 to 20)
#    0.000    2.667    1.667    2.000    0.000    5.333 
#    0.000    0.000    0.000    0.000    0.000    1.167 
#    0.000    0.000    0.000    0.000    0.000    0.000 
#
# Total GULP energy -133700.532853 kJ/mol
# GULP energy per Si atom -5570.855536 kJ/mol
# Density = 1.533202 g / cm^3
# Si number density = 15.366995 Si / 1000 Ang^3
#
#
#
# Elastic Constant Matrix: (Units=GPa)
#
#
# Indices 1 2 3 4 5 6 
#
# 1 74.6883 51.0655 66.1530 0.0000 15.5813 0.0000
# 2 51.0655 54.3513 63.7376 0.0000 11.7514 0.0000
# 3 66.1530 63.7376 133.0227 0.0000 34.5302 0.0000
# 4 0.0000 0.0000 0.0000 22.9003 0.0000 8.6360
# 5 15.5813 11.7514 34.5302 0.0000 26.2000 0.0000
# 6 0.0000 0.0000 0.0000 8.6360 0.0000 19.0672
#
#
#
# Elastic Compliance Matrix: (Units=1/GPa)
#
#
# Indices 1 2 3 4 5 6 
#
# 1 0.038898 -0.032751 -0.002219 0.000000 -0.005518 0.000000
# 2 -0.032751 0.072062 -0.022659 0.000000 0.017018 0.000000
# 3 -0.002219 -0.022659 0.025076 0.000000 -0.021566 0.000000
# 4 0.000000 0.000000 0.000000 0.052662 0.000000 -0.023852
# 5 -0.005518 0.017018 -0.021566 0.000000 0.062240 0.000000
# 6 0.000000 0.000000 0.000000 -0.023852 0.000000 0.063249
#
#
# Mechanical properties :
#
#
# Convention : Reuss Voigt Hill
#
# Bulk Modulus (GPa) = 48.12665 69.33048 58.72856
# Shear Modulus (GPa) = 11.45811 19.04057 15.24934
#
# Velocity S-wave (km/s) = 2.73359 3.52384 3.15357
# Velocity P-wave (km/s) = 6.43036 7.85946 7.18055
#
# Compressibility (1/GPa) = 0.02077851
#
# Stress axis : x y z
#
# Youngs Moduli (GPa) = 25.70820 13.87695 39.87810
#
# Poissons Ratio (x) = 0.45448 0.08851
# Poissons Ratio (y) = 0.84196 0.90359
# Poissons Ratio (z) = 0.05706 0.31444
#
# Static dielectric constant tensor:
#      x y z
#    x 1.476780 0.000000 0.024040 
#    y 0.000000 1.511360 0.000000 
#    z 0.024040 0.000000 1.537660 
# 
# From -- ./inp_files/236850.got.cif
#   From: 2010.05.17/outbox.cif.g08.bks.cpg/sg12_119_cif.got.tgz:236850.got - 2010.06.03 13:09:07.
