data_PCOD9171070
_publ_section_title
;
Structure prediction by ZEFSAII (Michael W. Deem and Ramdas Pophale) SiO2 
 PCOD9171070
Probable space group: C 2/M
;
_chemical_formula_sum "Si O2"
_cell_formula_units_Z 64
_cell_length_a 29.270223
_cell_length_b 12.601544
_cell_length_c 10.015597
_cell_angle_alpha 90.000000
_cell_angle_beta 94.736456
_cell_angle_gamma 90.000000
_cell_volume 3681.637293
_symmetry_space_group_name_H-M "C 2/M"
_symmetry_group_IT_number 12
_symmetry_cell_setting 'monoclinic'
loop_
_space_group_symop_operation_xyz
x,y,z
-x,y,-z
-x,-y,-z
x,-y,z
1/2+x,1/2+y,z
1/2-x,1/2+y,-z
1/2-x,1/2-y,-z
1/2+x,1/2-y,z
loop_
_atom_site_type_symbol
_atom_site_label
_atom_site_fract_x
_atom_site_fract_y
_atom_site_fract_z
Si Si1 0.825552 0.376662 0.842915
Si Si2 0.944068 0.370934 0.242072
Si Si3 0.137781 0.316818 0.440047
Si Si4 0.423501 0.871819 0.948309
Si Si5 0.798916 0.875324 0.524437
Si Si6 0.959048 0.371469 0.664355
Si Si7 0.159077 0.379188 0.728865
Si Si8 0.243625 0.750309 0.730462
O O1 0.815651 0.500000 0.867674
O O2 0.844427 0.365580 0.694748
O O3 0.869710 0.341196 0.939532
O O4 0.780648 0.304499 0.835290
O O5 0.943528 0.500000 0.251571
O O6 0.892377 0.337220 0.260870
O O7 0.988150 0.337355 0.338283
O O8 0.950068 0.340988 0.087943
O O9 0.155338 0.196255 0.453721
O O10 0.083071 0.329080 0.432397
O O11 0.161756 0.376797 0.568122
O O12 0.445321 0.840628 0.813068
O O13 0.423446 0.000000 0.946150
O O14 0.773744 0.837141 0.382475
O O15 0.768744 0.837609 0.643843
O O16 0.806297 0.000000 0.526457
O O17 0.957501 0.500000 0.651287
O O18 0.162747 0.500000 0.779280
O O19 0.199913 0.304659 0.787549
#
# Coordination Sequence:
#
# PCOD9171070 Si02
#       8
#     8   8   8   8   8   8   8   8
#     4   9  15  25  42  60  80 103 132 168 195 224
#     4   9  17  26  38  57  80 109 134 154 194 242
#     4   9  17  26  39  61  83 104 130 157 196 236
#     4   8  14  25  40  58  80 103 128 161 196 229
#     4   9  16  26  40  58  82 106 131 164 193 228
#     4   9  15  25  42  61  82 104 129 162 193 229
#     4  10  18  27  37  53  84 113 131 156 191 237
#     4   9  17  25  38  59  79 105 137 159 192 233
#
# _framework density 17.383569000000001
#
# number of rings (size 3 to 8) (size 9 to 14) (size 15 to 20)
#    0.000    3.000    0.000    3.750    0.000    2.000 
#    0.000    2.500    0.000    0.000    0.000    7.875 
#    0.000   44.000    0.000    0.000    0.000    0.000 
#
# Total GULP energy -178262.004988 kJ/mol
# GULP energy per Si atom -5570.687656 kJ/mol
# Density = 1.734400 g / cm^3
# Si number density = 17.383569 Si / 1000 Ang^3
#
#
#
# Elastic Constant Matrix: (Units=GPa)
#
#
# Indices 1 2 3 4 5 6 
#
# 1 144.9089 40.9864 9.2312 0.0000 15.8394 0.0000
# 2 40.9864 74.1872 -0.1805 0.0000 4.2503 0.0000
# 3 9.2312 -0.1805 25.4670 0.0000 11.0694 0.0000
# 4 0.0000 0.0000 0.0000 5.9546 0.0000 2.5374
# 5 15.8394 4.2503 11.0694 0.0000 25.8651 0.0000
# 6 0.0000 0.0000 0.0000 2.5374 0.0000 24.9765
#
#
#
# Elastic Compliance Matrix: (Units=1/GPa)
#
#
# Indices 1 2 3 4 5 6 
#
# 1 0.008728 -0.004599 -0.001476 0.000000 -0.003958 0.000000
# 2 -0.004599 0.016067 0.002094 0.000000 -0.000720 0.000000
# 3 -0.001476 0.002094 0.048616 0.000000 -0.020246 0.000000
# 4 0.000000 0.000000 0.000000 0.175536 0.000000 -0.017833
# 5 -0.003958 -0.000720 -0.020246 0.000000 0.049869 0.000000
# 6 0.000000 0.000000 0.000000 -0.017833 0.000000 0.041849
#
#
# Mechanical properties :
#
#
# Convention : Reuss Voigt Hill
#
# Bulk Modulus (GPa) = 15.27920 38.29305 26.78612
# Shear Modulus (GPa) = 13.49730 24.32764 18.91247
#
# Velocity S-wave (km/s) = 2.78949 3.74500 3.30199
# Velocity P-wave (km/s) = 4.37990 6.38562 5.47538
#
# Compressibility (1/GPa) = 0.06544846
#
# Stress axis : x y z
#
# Youngs Moduli (GPa) = 114.56964 62.24099 20.56916
#
# Poissons Ratio (x) = 0.28625 0.03037
# Poissons Ratio (y) = 0.52691 -0.04307
# Poissons Ratio (z) = 0.16913 -0.13032
#
# Static dielectric constant tensor:
#      x y z
#    x 1.656430 0.000000 -0.024510 
#    y 0.000000 1.547360 0.000000 
#    z -0.024510 0.000000 1.650370 
# 
# From -- ./inp_files/174623.got.cif
#   From: 2010.05.17/outbox.cif.g08.bks.cpg/sg12_88_cif.got.tgz:174623.got - 2010.06.03 13:09:07.
