data_PCOD9171799
_publ_section_title
;
Structure prediction by ZEFSAII (Michael W. Deem and Ramdas Pophale) SiO2 
 PCOD9171799
Probable space group: C 2/M
;
_chemical_formula_sum "Si O2"
_cell_formula_units_Z 22
_cell_length_a 19.953348
_cell_length_b 5.290036
_cell_length_c 9.982606
_cell_angle_alpha 90.000000
_cell_angle_beta 55.149350
_cell_angle_gamma 90.000000
_cell_volume 864.715673
_symmetry_space_group_name_H-M "C 2/M"
_symmetry_group_IT_number 12
_symmetry_cell_setting 'monoclinic'
loop_
_space_group_symop_operation_xyz
x,y,z
-x,y,-z
-x,-y,-z
x,-y,z
1/2+x,1/2+y,z
1/2-x,1/2+y,-z
1/2-x,1/2-y,-z
1/2+x,1/2-y,z
loop_
_atom_site_type_symbol
_atom_site_label
_atom_site_fract_x
_atom_site_fract_y
_atom_site_fract_z
Si Si1 0.823455 0.500000 0.418407
Si Si2 0.224816 0.500000 0.210975
Si Si3 0.081266 0.000000 0.043435
Si Si4 0.500000 0.000000 0.000000
Si Si5 0.130067 0.000000 0.268208
Si Si6 0.636243 0.500000 0.564155
O O1 0.800864 0.500000 0.601708
O O2 0.737852 0.500000 0.438212
O O3 0.877124 0.747185 0.336930
O O4 0.184668 0.250729 0.195622
O O5 0.321131 0.500000 0.090249
O O6 0.066436 0.000000 0.221149
O O7 0.049404 0.732020 0.024495
O O8 0.100956 0.000000 0.456528
#
# Coordination Sequence:
#
# PCOD9171799 Si02
#       6
#     4   4   4   2   4   4
#     4   8  14  24  38  62  95 122 140 162 210 278
#     4  10  18  28  48  74  97 117 140 185 236 272
#     4  11  20  35  48  67  90 119 158 190 224 269
#     4  10  24  36  48  60  86 130 164 188 216 260
#     4  10  18  28  48  74  97 117 140 185 236 272
#     4   8  14  24  38  62  95 122 140 162 210 278
#
# _framework density 25.441890000000001
#
# number of rings (size 3 to 8) (size 9 to 14) (size 15 to 20)
#    0.000    2.545    0.000    3.273    0.000    0.000 
#    0.000    0.000    0.000    0.000    0.000    7.636 
#    0.000    0.000    0.000    0.000    0.000    0.000 
#
# Total GULP energy -61296.046952 kJ/mol
# GULP energy per Si atom -5572.367905 kJ/mol
# Density = 2.538398 g / cm^3
# Si number density = 25.441890 Si / 1000 Ang^3
#
#
#
# Elastic Constant Matrix: (Units=GPa)
#
#
# Indices 1 2 3 4 5 6 
#
# 1 120.5747 85.2091 55.3832 0.0000 32.1467 0.0000
# 2 85.2091 343.7152 18.3266 0.0002 14.4650 0.0002
# 3 55.3832 18.3266 116.3185 0.0000 6.1846 0.0000
# 4 0.0000 0.0002 0.0000 -52.7763 0.0000 -29.8531
# 5 32.1467 14.4650 6.1846 0.0000 57.1369 0.0000
# 6 0.0000 0.0002 0.0000 -29.8531 0.0000 -30.7767
#
#
#
# Elastic Compliance Matrix: (Units=1/GPa)
#
#
# Indices 1 2 3 4 5 6 
#
# 1 0.015416 -0.003176 -0.006459 0.000000 -0.007170 0.000000
# 2 -0.003176 0.003616 0.000901 0.000000 0.000774 0.000000
# 3 -0.006459 0.000901 0.011415 0.000000 0.002170 0.000000
# 4 0.000000 0.000000 0.000000 -0.041983 0.000000 0.040723
# 5 -0.007170 0.000774 0.002170 0.000000 0.021105 0.000000
# 6 0.000000 0.000000 0.000000 0.040723 0.000000 -0.071993
#
#
# Mechanical properties :
#
#
# Convention : Reuss Voigt Hill
#
# Bulk Modulus (GPa) = 77.03579 99.82737 88.43158
# Shear Modulus (GPa) = -123.06018 22.82941 -50.11538
#
# Velocity S-wave (km/s) = -6.96234 2.99877 -4.44306
# Velocity P-wave (km/s) = 5.85554 7.16329 2.91766
#
# Compressibility (1/GPa) = 0.01298098
#
# Stress axis : x y z
#
# Youngs Moduli (GPa) = 64.86705 276.54609 87.60509
#
# Poissons Ratio (x) = 0.87821 0.56580
# Poissons Ratio (y) = 0.20599 -0.07895
# Poissons Ratio (z) = 0.41895 -0.24921
#
# Static dielectric constant tensor:
#      x y z
#    x 1.931250 0.000000 0.002040 
#    y 0.000000 2.134570 0.000000 
#    z 0.002040 0.000000 2.071890 
# 
# From -- ./inp_files/125087.got.cif
#   From: 2010.05.17/outbox.cif.g08.bks.cpg/sg12_63_cif.got.tgz:125087.got - 2010.06.03 13:09:07.
