data_PCOD9171171
_publ_section_title
;
Structure prediction by ZEFSAII (Michael W. Deem and Ramdas Pophale) SiO2 
 PCOD9171171
Probable space group: C 2/M
;
_chemical_formula_sum "Si O2"
_cell_formula_units_Z 56
_cell_length_a 20.356185
_cell_length_b 23.187173
_cell_length_c 9.475001
_cell_angle_alpha 90.000000
_cell_angle_beta 44.145550
_cell_angle_gamma 90.000000
_cell_volume 3114.829499
_symmetry_space_group_name_H-M "C 2/M"
_symmetry_group_IT_number 12
_symmetry_cell_setting 'monoclinic'
loop_
_space_group_symop_operation_xyz
x,y,z
-x,y,-z
-x,-y,-z
x,-y,z
1/2+x,1/2+y,z
1/2-x,1/2+y,-z
1/2-x,1/2-y,-z
1/2+x,1/2-y,z
loop_
_atom_site_type_symbol
_atom_site_label
_atom_site_fract_x
_atom_site_fract_y
_atom_site_fract_z
Si Si1 0.416852 0.731430 0.518451
Si Si2 0.823834 0.696646 0.880425
Si Si3 0.564829 0.432734 0.194917
Si Si4 0.451814 0.238771 0.933173
Si Si5 0.610660 0.643710 0.869994
Si Si6 0.344664 0.566104 0.446894
Si Si7 0.689553 0.619871 0.233030
O O1 0.500000 0.715485 0.500000
O O2 0.375336 0.790177 0.652101
O O3 0.462685 0.735492 0.294098
O O4 0.343161 0.679592 0.642840
O O5 0.895282 0.702960 0.902837
O O6 0.750000 0.750000 0.000000
O O7 0.767463 0.638517 0.998802
O O8 0.587197 0.500000 0.153774
O O9 0.453324 0.427471 0.334376
O O10 0.602843 0.407700 0.282079
O O11 0.618659 0.396876 0.992607
O O12 0.500000 0.213172 0.000000
O O13 0.381410 0.289821 0.094981
O O14 0.667385 0.614119 0.655718
O O15 0.500000 0.640248 0.000000
O O16 0.334481 0.500000 0.412231
O O17 0.282716 0.578836 0.680689
#
# Coordination Sequence:
#
# PCOD9171171 Si02
#       7
#     8   8   8   8   8   8   8
#     4   9  16  29  46  61  85 120 153 185 229 278
#     4   9  19  31  44  65  92 121 153 195 238 272
#     4  10  18  27  42  63  88 122 161 189 212 264
#     4  10  18  31  50  68  87 119 161 191 222 276
#     4   9  16  27  42  62  86 116 150 185 220 253
#     4  10  19  29  42  64  95 128 158 185 217 264
#     4  11  18  28  42  62  90 120 154 188 228 263
#
# _framework density 17.978511999999998
#
# number of rings (size 3 to 8) (size 9 to 14) (size 15 to 20)
#    0.000    2.286    0.000    7.286    0.000    2.857 
#    0.000    7.857    0.000    0.000    0.000    0.000 
#    0.000   22.857    0.000    0.000    0.000    1.000 
#
# Total GULP energy -155876.409289 kJ/mol
# GULP energy per Si atom -5567.014617 kJ/mol
# Density = 1.793759 g / cm^3
# Si number density = 17.978512 Si / 1000 Ang^3
#
#
#
# Elastic Constant Matrix: (Units=GPa)
#
#
# Indices 1 2 3 4 5 6 
#
# 1 38.4641 1.0889 10.2938 0.0000 13.6972 0.0000
# 2 1.0889 24.0352 -0.4403 0.0000 -2.3014 0.0000
# 3 10.2938 -0.4403 38.9510 0.0000 17.6928 0.0000
# 4 0.0000 0.0000 0.0000 17.5370 0.0000 1.5284
# 5 13.6972 -2.3014 17.6928 0.0000 25.1144 0.0000
# 6 0.0000 0.0000 0.0000 1.5284 0.0000 11.2055
#
#
#
# Elastic Compliance Matrix: (Units=1/GPa)
#
#
# Indices 1 2 3 4 5 6 
#
# 1 0.032518 -0.003167 -0.000650 0.000000 -0.017567 0.000000
# 2 -0.003167 0.042375 -0.001812 0.000000 0.006887 0.000000
# 3 -0.000650 -0.001812 0.037852 0.000000 -0.026478 0.000000
# 4 0.000000 0.000000 0.000000 0.057708 0.000000 -0.007872
# 5 -0.017567 0.006887 -0.026478 0.000000 0.068683 0.000000
# 6 0.000000 0.000000 0.000000 -0.007872 0.000000 0.090316
#
#
# Mechanical properties :
#
#
# Convention : Reuss Voigt Hill
#
# Bulk Modulus (GPa) = 9.85359 13.70390 11.77874
# Shear Modulus (GPa) = 13.34974 16.80524 15.07749
#
# Velocity S-wave (km/s) = 2.72791 3.06067 2.89907
# Velocity P-wave (km/s) = 3.92615 4.48656 4.21568
#
# Compressibility (1/GPa) = 0.10148582
#
# Stress axis : x y z
#
# Youngs Moduli (GPa) = 30.75257 23.59863 26.41899
#
# Poissons Ratio (x) = 0.07474 0.01717
# Poissons Ratio (y) = 0.09740 0.04788
# Poissons Ratio (z) = 0.01998 0.04277
#
# Static dielectric constant tensor:
#      x y z
#    x 1.636760 0.000000 -0.001400 
#    y 0.000000 1.643270 0.000000 
#    z -0.001400 0.000000 1.674650 
# 
# From -- ./inp_files/90345.got.cif
#   From: 2010.05.17/outbox.cif.g08.bks.cpg/sg12_46_cif.got.tgz:90345.got - 2010.06.03 13:09:07.
