data_PCOD9171989
_publ_section_title
;
Structure prediction by ZEFSAII (Michael W. Deem and Ramdas Pophale) SiO2 
 PCOD9171989
Probable space group: C 2/M
;
_chemical_formula_sum "Si O2"
_cell_formula_units_Z 56
_cell_length_a 30.196598
_cell_length_b 7.440109
_cell_length_c 26.198601
_cell_angle_alpha 90.000000
_cell_angle_beta 30.167027
_cell_angle_gamma 90.000000
_cell_volume 2957.814367
_symmetry_space_group_name_H-M "C 2/M"
_symmetry_group_IT_number 12
_symmetry_cell_setting 'monoclinic'
loop_
_space_group_symop_operation_xyz
x,y,z
-x,y,-z
-x,-y,-z
x,-y,z
1/2+x,1/2+y,z
1/2-x,1/2+y,-z
1/2-x,1/2-y,-z
1/2+x,1/2-y,z
loop_
_atom_site_type_symbol
_atom_site_label
_atom_site_fract_x
_atom_site_fract_y
_atom_site_fract_z
Si Si1 0.856061 0.711173 0.393593
Si Si2 0.949272 0.280243 0.997742
Si Si3 0.554617 0.719729 0.394063
Si Si4 0.253069 0.218857 0.214041
Si Si5 0.574069 0.219219 0.782254
Si Si6 0.749224 0.781401 0.666793
Si Si7 0.923881 0.785058 0.438076
O O1 0.857928 0.500000 0.385088
O O2 0.750000 0.750000 0.500000
O O3 0.910672 0.785607 0.290687
O O4 0.906374 0.751680 0.396066
O O5 0.951170 0.500000 0.997224
O O6 0.998509 0.221874 0.896925
O O7 0.846980 0.223817 0.097853
O O8 0.000000 0.225584 0.000000
O O9 0.500000 0.773723 0.500000
O O10 0.555014 0.500000 0.395547
O O11 0.656651 0.777784 0.291486
O O12 0.505590 0.778249 0.391008
O O13 0.257094 0.273664 0.268939
O O14 0.252637 0.000000 0.211863
O O15 0.664539 0.270304 0.719723
O O16 0.567573 0.000000 0.787576
O O17 0.837182 0.715330 0.552881
O O18 0.751894 0.000000 0.663930
O O19 0.925395 0.000000 0.441713
#
# Coordination Sequence:
#
# PCOD9171989 Si02
#       7
#     8   8   8   8   8   8   8
#     4  11  21  32  47  66  91 121 153 186 225 270
#     4   9  14  20  34  57  88 119 141 174 227 275
#     4   9  15  23  39  64  91 120 150 183 227 270
#     4   9  14  20  34  61  92 118 146 179 222 273
#     4   9  16  25  37  58  87 118 144 173 221 272
#     4   9  13  20  37  61  89 115 141 175 216 265
#     4  10  18  29  45  66  94 124 151 182 222 269
#
# _framework density 18.932898000000002
#
# number of rings (size 3 to 8) (size 9 to 14) (size 15 to 20)
#    0.000    2.571    4.286    0.429    0.000    0.000 
#    0.000    0.000    0.000    1.286    0.000    0.000 
#    0.000   11.429    0.000    0.000    0.000    0.143 
#
# Total GULP energy -155997.676310 kJ/mol
# GULP energy per Si atom -5571.345583 kJ/mol
# Density = 1.888981 g / cm^3
# Si number density = 18.932898 Si / 1000 Ang^3
#
#
#
# Elastic Constant Matrix: (Units=GPa)
#
#
# Indices 1 2 3 4 5 6 
#
# 1 182.2485 4.0918 134.2269 0.0251 4.0224 -0.0134
# 2 4.0918 56.8187 7.1624 0.0422 -0.9394 -0.0380
# 3 134.2269 7.1624 214.0067 0.0299 0.0039 -0.0389
# 4 0.0251 0.0422 0.0299 -3.0191 -0.0026 7.3015
# 5 4.0224 -0.9394 0.0039 -0.0026 31.3664 -0.0004
# 6 -0.0134 -0.0380 -0.0389 7.3015 -0.0004 8.7830
#
#
#
# Elastic Compliance Matrix: (Units=1/GPa)
#
#
# Indices 1 2 3 4 5 6 
#
# 1 0.010252 0.000051 -0.006432 -0.000002 -0.001312 -0.000011
# 2 0.000051 0.017683 -0.000624 0.000139 0.000523 -0.000042
# 3 -0.006432 -0.000624 0.008728 0.000029 0.000805 0.000002
# 4 -0.000002 0.000139 0.000029 -0.110022 -0.000004 0.091464
# 5 -0.001312 0.000523 0.000805 -0.000004 0.032065 0.000008
# 6 -0.000011 -0.000042 0.000002 0.091464 0.000008 0.037820
#
#
# Mechanical properties :
#
#
# Convention : Reuss Voigt Hill
#
# Bulk Modulus (GPa) = 44.14333 82.67068 63.40700
# Shear Modulus (GPa) = 276.45221 27.93225 152.19223
#
# Velocity S-wave (km/s) = 12.09685 3.84517 8.97550
# Velocity P-wave (km/s) = 14.78100 7.96703 11.87333
#
# Compressibility (1/GPa) = 0.02265348
#
# Stress axis : x y z
#
# Youngs Moduli (GPa) = 97.54362 56.55049 114.57863
#
# Poissons Ratio (x) = -0.00287 0.73694
# Poissons Ratio (y) = -0.00495 0.07146
# Poissons Ratio (z) = 0.62737 0.03527
#
# Static dielectric constant tensor:
#      x y z
#    x 1.575540 0.000000 -0.008840 
#    y 0.000000 1.755550 0.000000 
#    z -0.008840 0.000000 1.668290 
# 
# From -- ./inp_files/324735.got.cif
#   From: 2010.05.17/outbox.cif.g08.bks.cpg/sg12_163_cif.got.tgz:324735.got - 2010.06.03 13:09:07.
