data_PCOD9171380
_publ_section_title
;
Structure prediction by ZEFSAII (Michael W. Deem and Ramdas Pophale) SiO2 
 PCOD9171380
Probable space group: C 2/M
;
_chemical_formula_sum "Si O2"
_cell_formula_units_Z 64
_cell_length_a 34.916414
_cell_length_b 8.892703
_cell_length_c 13.979738
_cell_angle_alpha 90.000000
_cell_angle_beta 79.196699
_cell_angle_gamma 90.000000
_cell_volume 4263.793742
_symmetry_space_group_name_H-M "C 2/M"
_symmetry_group_IT_number 12
_symmetry_cell_setting 'monoclinic'
loop_
_space_group_symop_operation_xyz
x,y,z
-x,y,-z
-x,-y,-z
x,-y,z
1/2+x,1/2+y,z
1/2-x,1/2+y,-z
1/2-x,1/2-y,-z
1/2+x,1/2-y,z
loop_
_atom_site_type_symbol
_atom_site_label
_atom_site_fract_x
_atom_site_fract_y
_atom_site_fract_z
Si Si1 0.338853 0.680253 0.251615
Si Si2 0.761696 0.818625 0.393346
Si Si3 0.083837 0.820613 0.067615
Si Si4 0.578591 0.318908 0.843783
Si Si5 0.339912 0.179623 0.877040
Si Si6 0.997410 0.673162 0.885265
Si Si7 0.297467 0.177952 0.092025
Si Si8 0.282021 0.678744 0.765795
O O1 0.339709 0.500000 0.254390
O O2 0.305810 0.729537 0.342274
O O3 0.383703 0.731295 0.234574
O O4 0.322678 0.730736 0.156466
O O5 0.750000 0.750000 0.500000
O O6 0.733148 0.757642 0.323560
O O7 0.760261 0.000000 0.396321
O O8 0.118285 0.742222 0.110090
O O9 0.041386 0.765099 0.121486
O O10 0.087138 0.000000 0.073997
O O11 0.086462 0.782074 0.952595
O O12 0.574729 0.500000 0.840604
O O13 0.538024 0.244510 0.832548
O O14 0.321244 0.254408 0.792218
O O15 0.341369 0.000000 0.865463
O O16 0.311128 0.215997 0.979593
O O17 0.993719 0.500000 0.857448
O O18 0.000000 0.676931 0.000000
O O19 0.252717 0.205804 0.140786
O O20 0.304745 0.000000 0.102968
O O21 0.285251 0.500000 0.749300
#
# Coordination Sequence:
#
# PCOD9171380 Si02
#       8
#     8   8   8   8   8   8   8   8
#     4   9  17  29  46  67  89 117 152 188 226 269
#     4  10  20  35  53  70  91 117 147 187 234 278
#     4  10  18  28  42  59  84 121 158 189 223 262
#     4   9  16  27  42  61  85 115 153 190 223 263
#     4  11  20  29  42  63  91 121 153 189 225 264
#     4   9  17  27  39  57  83 116 152 189 226 262
#     4   9  18  29  42  61  88 119 151 187 224 262
#     4  10  20  33  47  65  87 116 153 188 225 270
#
# _framework density 15.010108000000001
#
# number of rings (size 3 to 8) (size 9 to 14) (size 15 to 20)
#    0.000    2.375    1.250    2.250    0.000    4.000 
#    0.000    0.000    0.000    0.000    0.000    0.000 
#    0.000    1.000    0.000   10.750    0.000    4.750 
#
# Total GULP energy -178328.804307 kJ/mol
# GULP energy per Si atom -5572.775135 kJ/mol
# Density = 1.497594 g / cm^3
# Si number density = 15.010108 Si / 1000 Ang^3
#
#
#
# Elastic Constant Matrix: (Units=GPa)
#
#
# Indices 1 2 3 4 5 6 
#
# 1 111.6683 47.8038 53.8988 0.0000 0.3052 0.0000
# 2 47.8038 36.5997 32.4308 0.0000 1.1110 0.0000
# 3 53.8988 32.4308 65.1615 0.0000 -5.2917 0.0000
# 4 0.0000 0.0000 0.0000 18.0724 0.0000 2.5599
# 5 0.3052 1.1110 -5.2917 0.0000 13.1615 0.0000
# 6 0.0000 0.0000 0.0000 2.5599 0.0000 26.8237
#
#
#
# Elastic Compliance Matrix: (Units=1/GPa)
#
#
# Indices 1 2 3 4 5 6 
#
# 1 0.021971 -0.022247 -0.007225 0.000000 -0.001537 0.000000
# 2 -0.022247 0.074187 -0.019628 0.000000 -0.013638 0.000000
# 3 -0.007225 -0.019628 0.032295 0.000000 0.014809 0.000000
# 4 0.000000 0.000000 0.000000 0.056091 0.000000 -0.005353
# 5 -0.001537 -0.013638 0.014809 0.000000 0.083120 0.000000
# 6 0.000000 0.000000 0.000000 -0.005353 0.000000 0.037791
#
#
# Mechanical properties :
#
#
# Convention : Reuss Voigt Hill
#
# Bulk Modulus (GPa) = 33.05777 53.52182 43.28980
# Shear Modulus (GPa) = 12.08488 16.89792 14.49140
#
# Velocity S-wave (km/s) = 2.84053 3.35889 3.11053
# Velocity P-wave (km/s) = 5.72972 7.12583 6.46557
#
# Compressibility (1/GPa) = 0.03025007
#
# Stress axis : x y z
#
# Youngs Moduli (GPa) = 45.51543 13.47946 30.96492
#
# Poissons Ratio (x) = 0.29988 0.22373
# Poissons Ratio (y) = 1.01259 0.60779
# Poissons Ratio (z) = 0.32887 0.26458
#
# Static dielectric constant tensor:
#      x y z
#    x 1.513750 0.000000 -0.019750 
#    y 0.000000 1.497660 0.000000 
#    z -0.019750 0.000000 1.466910 
# 
# From -- ./inp_files/248435.got.cif
#   From: 2010.05.17/outbox.cif.g08.bks.cpg/sg12_125_cif.got.tgz:248435.got - 2010.06.03 13:09:07.
