data_PCOD9171339
_publ_section_title
;
Structure prediction by ZEFSAII (Michael W. Deem and Ramdas Pophale) SiO2 
 PCOD9171339
Probable space group: C 2/M
;
_chemical_formula_sum "Si O2"
_cell_formula_units_Z 52
_cell_length_a 11.684260
_cell_length_b 23.580816
_cell_length_c 11.310893
_cell_angle_alpha 90.000000
_cell_angle_beta 84.024505
_cell_angle_gamma 90.000000
_cell_volume 3099.493767
_symmetry_space_group_name_H-M "C 2/M"
_symmetry_group_IT_number 12
_symmetry_cell_setting 'monoclinic'
loop_
_space_group_symop_operation_xyz
x,y,z
-x,y,-z
-x,-y,-z
x,-y,z
1/2+x,1/2+y,z
1/2-x,1/2+y,-z
1/2-x,1/2-y,-z
1/2+x,1/2-y,z
loop_
_atom_site_type_symbol
_atom_site_label
_atom_site_fract_x
_atom_site_fract_y
_atom_site_fract_z
Si Si1 0.696821 0.294703 0.349363
Si Si2 0.791938 0.229821 0.121480
Si Si3 0.232581 0.885714 0.757886
Si Si4 0.500000 0.677244 0.000000
Si Si5 0.134195 0.672267 0.462366
Si Si6 0.818249 0.000000 0.107126
Si Si7 0.587713 0.500000 0.160245
Si Si8 0.541803 0.619645 0.230254
O O1 0.764832 0.273619 0.226388
O O2 0.784243 0.324048 0.431107
O O3 0.645459 0.236534 0.409043
O O4 0.598625 0.336658 0.313830
O O5 0.742304 0.168217 0.160816
O O6 0.925642 0.217342 0.090723
O O7 0.750000 0.250000 0.000000
O O8 0.310527 0.872809 0.635414
O O9 0.239841 0.944263 0.829264
O O10 0.096419 0.881749 0.738637
O O11 0.562969 0.638008 0.089792
O O12 0.000000 0.660633 0.500000
O O13 0.953533 0.000000 0.131169
O O14 0.829552 0.000000 0.963543
O O15 0.596633 0.557505 0.233498
#
# Coordination Sequence:
#
# PCOD9171339 Si02
#       8
#     8   8   8   4   8   4   4   8
#     4  10  22  33  53  76 107 143 172 228 268 315
#     4  10  18  29  46  77 108 135 169 206 267 318
#     4   9  20  33  53  80 105 142 178 221 261 316
#     4  10  18  27  48  76 112 141 162 206 256 336
#     4  10  23  38  53  73 102 144 192 219 265 315
#     4   9  16  32  54  80 112 142 180 208 268 323
#     4   9  16  28  53  84 113 142 163 213 270 335
#     4  10  18  31  52  83 113 137 170 212 274 323
#
# _framework density 16.776933
#
# number of rings (size 3 to 8) (size 9 to 14) (size 15 to 20)
#    0.000    2.308    1.538    2.769    8.615    0.000 
#    0.000    1.154    0.000    2.769    0.000    1.077 
#    0.000    0.000    0.000    0.000    0.000    0.000 
#
# Total GULP energy -144770.466260 kJ/mol
# GULP energy per Si atom -5568.094856 kJ/mol
# Density = 1.673875 g / cm^3
# Si number density = 16.776933 Si / 1000 Ang^3
#
#
#
# Elastic Constant Matrix: (Units=GPa)
#
#
# Indices 1 2 3 4 5 6 
#
# 1 50.2181 30.2819 36.8569 0.0000 -7.9300 0.0000
# 2 30.2819 89.9365 39.2839 0.0000 0.3428 0.0000
# 3 36.8569 39.2839 98.5552 0.0000 -10.3853 0.0000
# 4 0.0000 0.0000 0.0000 12.8794 0.0000 -2.9660
# 5 -7.9300 0.3428 -10.3853 0.0000 31.4324 0.0000
# 6 0.0000 0.0000 0.0000 -2.9660 0.0000 20.2581
#
#
#
# Elastic Compliance Matrix: (Units=1/GPa)
#
#
# Indices 1 2 3 4 5 6 
#
# 1 0.030926 -0.006801 -0.008314 0.000000 0.005129 0.000000
# 2 -0.006801 0.015080 -0.003798 0.000000 -0.003135 0.000000
# 3 -0.008314 -0.003798 0.015078 0.000000 0.002926 0.000000
# 4 0.000000 0.000000 0.000000 0.080353 0.000000 0.011765
# 5 0.005129 -0.003135 0.002926 0.000000 0.034109 0.000000
# 6 0.000000 0.000000 0.000000 0.011765 0.000000 0.051085
#
#
# Mechanical properties :
#
#
# Convention : Reuss Voigt Hill
#
# Bulk Modulus (GPa) = 42.99569 50.17281 46.58425
# Shear Modulus (GPa) = 18.36822 21.73314 20.05068
#
# Velocity S-wave (km/s) = 3.31244 3.60310 3.46082
# Velocity P-wave (km/s) = 6.34927 6.87608 6.61792
#
# Compressibility (1/GPa) = 0.02325815
#
# Stress axis : x y z
#
# Youngs Moduli (GPa) = 32.33501 66.31475 66.32209
#
# Poissons Ratio (x) = 0.45100 0.55142
# Poissons Ratio (y) = 0.21991 0.25187
# Poissons Ratio (z) = 0.26884 0.25184
#
# Static dielectric constant tensor:
#      x y z
#    x 1.656970 0.000000 0.014360 
#    y 0.000000 1.622860 0.000000 
#    z 0.014360 0.000000 1.595090 
# 
# From -- ./inp_files/134800.got.cif
#   From: 2010.05.17/outbox.cif.g08.bks.cpg/sg12_68_cif.got.tgz:134800.got - 2010.06.03 13:09:07.
