data_PCOD9171928
_publ_section_title
;
Structure prediction by ZEFSAII (Michael W. Deem and Ramdas Pophale) SiO2 
 PCOD9171928
Probable space group: C 2/M
;
_chemical_formula_sum "Si O2"
_cell_formula_units_Z 64
_cell_length_a 23.951311
_cell_length_b 7.371448
_cell_length_c 19.128510
_cell_angle_alpha 90.000000
_cell_angle_beta 88.150956
_cell_angle_gamma 90.000000
_cell_volume 3375.491710
_symmetry_space_group_name_H-M "C 2/M"
_symmetry_group_IT_number 12
_symmetry_cell_setting 'monoclinic'
loop_
_space_group_symop_operation_xyz
x,y,z
-x,y,-z
-x,-y,-z
x,-y,z
1/2+x,1/2+y,z
1/2-x,1/2+y,-z
1/2-x,1/2-y,-z
1/2+x,1/2-y,z
loop_
_atom_site_type_symbol
_atom_site_label
_atom_site_fract_x
_atom_site_fract_y
_atom_site_fract_z
Si Si1 0.936104 0.278449 0.008612
Si Si2 0.942145 0.721946 0.733661
Si Si3 0.136368 0.278199 0.856690
Si Si4 0.123119 0.711322 0.128420
Si Si5 0.427446 0.778581 0.277950
Si Si6 0.752531 0.785086 0.916442
Si Si7 0.930869 0.281685 0.430950
Si Si8 0.064314 0.281720 0.419085
O O1 0.934817 0.500000 0.009338
O O2 0.906756 0.222009 0.081191
O O3 0.902235 0.213437 0.942376
O O4 0.000000 0.222835 0.000000
O O5 0.941749 0.500000 0.732174
O O6 0.905053 0.785468 0.800216
O O7 0.919083 0.782564 0.658728
O O8 0.007627 0.773796 0.737831
O O9 0.137288 0.500000 0.855826
O O10 0.112990 0.219763 0.782673
O O11 0.197463 0.216085 0.878969
O O12 0.107116 0.500000 0.129154
O O13 0.189630 0.720382 0.119126
O O14 0.409417 0.717722 0.356507
O O15 0.427582 0.000000 0.278407
O O16 0.752303 0.000000 0.908890
O O17 0.750000 0.750000 0.000000
O O18 0.923716 0.500000 0.432076
O O19 0.911286 0.213885 0.507921
O O20 0.997589 0.248594 0.424976
O O21 0.071533 0.500000 0.419182
#
# Coordination Sequence:
#
# PCOD9171928 Si02
#       8
#     8   8   8   8   8   8   8   8
#     4   9  15  23  38  60  82 101 125 161 202 241
#     4   8  13  20  34  57  84 107 131 164 200 241
#     4   9  16  25  37  55  76  98 130 169 204 236
#     4  10  18  29  44  64  84 106 138 171 205 242
#     4   8  12  19  32  55  82 105 130 166 206 240
#     4  11  21  34  48  61  78 105 139 177 211 242
#     4   7   9  13  24  43  74 110 134 151 187 242
#     4   7   9  14  24  44  75 110 135 151 184 239
#
# _framework density 18.960201000000001
#
# number of rings (size 3 to 8) (size 9 to 14) (size 15 to 20)
#    0.000    3.375    1.250    3.375    0.000    3.000 
#    0.000    0.000    0.000    0.375    0.000    0.875 
#    0.000    0.000    0.000   10.125    0.000   11.250 
#
# Total GULP energy -178248.180572 kJ/mol
# GULP energy per Si atom -5570.255643 kJ/mol
# Density = 1.891705 g / cm^3
# Si number density = 18.960201 Si / 1000 Ang^3
#
#
#
# Elastic Constant Matrix: (Units=GPa)
#
#
# Indices 1 2 3 4 5 6 
#
# 1 95.6908 -5.8337 73.1916 0.0000 22.1506 0.0000
# 2 -5.8337 62.6317 5.0273 0.0000 2.1373 0.0000
# 3 73.1916 5.0273 196.3206 0.0000 43.7470 0.0000
# 4 0.0000 0.0000 0.0000 -86.2695 0.0000 28.9305
# 5 22.1506 2.1373 43.7470 0.0000 15.3579 0.0000
# 6 0.0000 0.0000 0.0000 28.9305 0.0000 -7.5244
#
#
#
# Elastic Compliance Matrix: (Units=1/GPa)
#
#
# Indices 1 2 3 4 5 6 
#
# 1 0.016370 0.002303 -0.002271 0.000000 -0.017463 0.000000
# 2 0.002303 0.016371 -0.000082 0.000000 -0.005366 0.000000
# 3 -0.002271 -0.000082 0.014264 0.000000 -0.037345 0.000000
# 4 0.000000 0.000000 0.000000 0.040056 0.000000 0.154012
# 5 -0.017463 -0.005366 -0.037345 0.000000 0.197421 0.000000
# 6 0.000000 0.000000 0.000000 0.154012 0.000000 0.459256
#
#
# Mechanical properties :
#
#
# Convention : Reuss Voigt Hill
#
# Bulk Modulus (GPa) = 21.31982 55.49039 38.40510
# Shear Modulus (GPa) = 6.58352 3.13000 4.85676
#
# Velocity S-wave (km/s) = 1.86543 1.28624 1.60222
# Velocity P-wave (km/s) = 3.98857 5.61571 4.87057
#
# Compressibility (1/GPa) = 0.04690472
#
# Stress axis : x y z
#
# Youngs Moduli (GPa) = 61.08845 61.08531 70.10668
#
# Poissons Ratio (x) = -0.14067 0.15918
# Poissons Ratio (y) = -0.14068 0.00575
# Poissons Ratio (z) = 0.13871 0.00501
#
# Static dielectric constant tensor:
#      x y z
#    x 1.604980 0.000000 0.028600 
#    y 0.000000 1.749410 0.000000 
#    z 0.028600 0.000000 1.699300 
# 
# From -- ./inp_files/288726.got.cif
#   From: 2010.05.17/outbox.cif.g08.bks.cpg/sg12_145_cif.got.tgz:288726.got - 2010.06.03 13:09:07.
