data_PCOD9171274
_publ_section_title
;
Structure prediction by ZEFSAII (Michael W. Deem and Ramdas Pophale) SiO2 
 PCOD9171274
Probable space group: C 2/M
;
_chemical_formula_sum "Si O2"
_cell_formula_units_Z 64
_cell_length_a 24.410511
_cell_length_b 7.673633
_cell_length_c 17.150997
_cell_angle_alpha 90.000000
_cell_angle_beta 80.056376
_cell_angle_gamma 90.000000
_cell_volume 3164.418081
_symmetry_space_group_name_H-M "C 2/M"
_symmetry_group_IT_number 12
_symmetry_cell_setting 'monoclinic'
loop_
_space_group_symop_operation_xyz
x,y,z
-x,y,-z
-x,-y,-z
x,-y,z
1/2+x,1/2+y,z
1/2-x,1/2+y,-z
1/2-x,1/2-y,-z
1/2+x,1/2-y,z
loop_
_atom_site_type_symbol
_atom_site_label
_atom_site_fract_x
_atom_site_fract_y
_atom_site_fract_z
Si Si1 0.949369 0.296610 0.719096
Si Si2 0.033512 0.207215 0.816563
Si Si3 0.172870 0.285633 0.218713
Si Si4 0.128214 0.292882 0.899527
Si Si5 0.686718 0.790871 0.038647
Si Si6 0.968065 0.200361 0.434934
Si Si7 0.712793 0.295180 0.739917
Si Si8 0.618865 0.713766 0.658373
O O1 0.950838 0.500000 0.697974
O O2 0.886350 0.233072 0.732300
O O3 0.975102 0.279187 0.799980
O O4 0.989175 0.201602 0.648090
O O5 0.065129 0.256191 0.887985
O O6 0.077084 0.265513 0.738606
O O7 0.029421 0.000000 0.815372
O O8 0.173879 0.500000 0.217952
O O9 0.176032 0.225939 0.128311
O O10 0.227338 0.222818 0.251286
O O11 0.135990 0.500000 0.896157
O O12 0.171380 0.219377 0.824562
O O13 0.146163 0.226119 0.980045
O O14 0.680765 0.000000 0.042955
O O15 0.750000 0.750000 0.000000
O O16 0.910727 0.275239 0.413528
O O17 0.000000 0.283259 0.500000
O O18 0.955482 0.000000 0.459961
O O19 0.720907 0.500000 0.723233
O O20 0.678879 0.225060 0.673575
O O21 0.619204 0.500000 0.656532
#
# Coordination Sequence:
#
# PCOD9171274 Si02
#       8
#     8   8   8   8   8   8   8   8
#     4  10  19  32  50  72  97 124 160 203 242 288
#     4   9  17  31  49  66  90 126 161 196 243 297
#     4   9  18  31  47  67  95 132 164 196 248 301
#     4  10  18  27  44  71  95 118 158 212 253 281
#     4  10  19  31  46  67  96 127 165 206 248 293
#     4   9  17  31  51  74 100 127 156 194 242 295
#     4   9  15  27  47  66  91 127 164 199 237 287
#     4   7  12  23  43  69  87 110 153 193 224 267
#
# _framework density 20.224889000000001
#
# number of rings (size 3 to 8) (size 9 to 14) (size 15 to 20)
#    0.000    2.875    1.250    2.625    0.000    0.750 
#    0.000    3.125    0.000    4.500    0.000    0.000 
#    0.000    0.000    0.000    0.000    0.000    0.125 
#
# Total GULP energy -178245.867999 kJ/mol
# GULP energy per Si atom -5570.183375 kJ/mol
# Density = 2.017886 g / cm^3
# Si number density = 20.224889 Si / 1000 Ang^3
#
#
#
# Elastic Constant Matrix: (Units=GPa)
#
#
# Indices 1 2 3 4 5 6 
#
# 1 141.6256 -1.6386 54.8098 0.0000 51.2437 0.0000
# 2 -1.6386 35.6629 -1.0808 0.0000 5.0905 0.0000
# 3 54.8098 -1.0808 72.8948 0.0000 48.8300 0.0000
# 4 0.0000 0.0000 0.0000 7.8319 0.0000 0.9929
# 5 51.2437 5.0905 48.8300 0.0000 46.6711 0.0000
# 6 0.0000 0.0000 0.0000 0.9929 0.0000 12.3406
#
#
#
# Elastic Compliance Matrix: (Units=1/GPa)
#
#
# Indices 1 2 3 4 5 6 
#
# 1 0.011923 0.002468 0.000071 0.000000 -0.013435 0.000000
# 2 0.002468 0.030608 0.008858 0.000000 -0.015315 0.000000
# 3 0.000071 0.008858 0.048457 0.000000 -0.051743 0.000000
# 4 0.000000 0.000000 0.000000 0.128998 0.000000 -0.010378
# 5 -0.013435 -0.015315 -0.051743 0.000000 0.091984 0.000000
# 6 0.000000 0.000000 0.000000 -0.010378 0.000000 0.081868
#
#
# Mechanical properties :
#
#
# Convention : Reuss Voigt Hill
#
# Bulk Modulus (GPa) = 8.78881 39.37379 24.08130
# Shear Modulus (GPa) = 12.22573 26.57492 19.40032
#
# Velocity S-wave (km/s) = 2.46130 3.62881 3.10050
# Velocity P-wave (km/s) = 3.52595 6.08834 4.97495
#
# Compressibility (1/GPa) = 0.11378107
#
# Stress axis : x y z
#
# Youngs Moduli (GPa) = 83.87253 32.67097 20.63677
#
# Poissons Ratio (x) = -0.08062 -0.00147
# Poissons Ratio (y) = -0.20697 -0.18279
# Poissons Ratio (z) = -0.00598 -0.28938
#
# Static dielectric constant tensor:
#      x y z
#    x 1.754260 0.000000 0.061330 
#    y 0.000000 1.748020 0.000000 
#    z 0.061330 0.000000 1.744740 
# 
# From -- ./inp_files/291563.got.cif
#   From: 2010.05.17/outbox.cif.g08.bks.cpg/sg12_146_cif.got.tgz:291563.got - 2010.06.03 13:09:07.
