data_PCOD9171487
_publ_section_title
;
Structure prediction by ZEFSAII (Michael W. Deem and Ramdas Pophale) SiO2 
 PCOD9171487
Probable space group: C 2/M
;
_chemical_formula_sum "Si O2"
_cell_formula_units_Z 64
_cell_length_a 33.485558
_cell_length_b 9.448049
_cell_length_c 14.057688
_cell_angle_alpha 90.000000
_cell_angle_beta 85.225747
_cell_angle_gamma 90.000000
_cell_volume 4432.044500
_symmetry_space_group_name_H-M "C 2/M"
_symmetry_group_IT_number 12
_symmetry_cell_setting 'monoclinic'
loop_
_space_group_symop_operation_xyz
x,y,z
-x,y,-z
-x,-y,-z
x,-y,z
1/2+x,1/2+y,z
1/2-x,1/2+y,-z
1/2-x,1/2-y,-z
1/2+x,1/2-y,z
loop_
_atom_site_type_symbol
_atom_site_label
_atom_site_fract_x
_atom_site_fract_y
_atom_site_fract_z
Si Si1 0.962846 0.669095 0.575262
Si Si2 0.954260 0.162819 0.969592
Si Si3 0.634497 0.670448 0.698802
Si Si4 0.115046 0.829777 0.481413
Si Si5 0.202195 0.836834 0.415823
Si Si6 0.277140 0.337149 0.362129
Si Si7 0.016717 0.333486 0.209814
Si Si8 0.426305 0.831657 0.153119
O O1 0.956378 0.500000 0.566566
O O2 0.923393 0.751971 0.551758
O O3 0.974228 0.697873 0.682353
O O4 0.000000 0.707960 0.500000
O O5 0.957639 0.237854 0.866961
O O6 0.940621 0.000000 0.967228
O O7 0.929783 0.255477 0.050286
O O8 0.000000 0.161574 0.000000
O O9 0.631500 0.500000 0.713914
O O10 0.620225 0.698756 0.593202
O O11 0.681550 0.710713 0.695021
O O12 0.607182 0.756094 0.776752
O O13 0.156424 0.784385 0.421435
O O14 0.111842 0.000000 0.471966
O O15 0.236877 0.751176 0.356489
O O16 0.212845 0.834211 0.526620
O O17 0.203118 0.000000 0.385482
O O18 0.270093 0.500000 0.337681
O O19 0.024951 0.500000 0.190193
O O20 0.969688 0.311623 0.195424
O O21 0.419724 0.000000 0.145374
#
# Coordination Sequence:
#
# PCOD9171487 Si02
#       8
#     8   8   8   8   8   8   8   8
#     4  10  20  32  44  60  84 113 146 181 211 240
#     4   9  17  29  45  63  81 103 134 171 211 254
#     4   9  17  28  40  58  87 115 139 171 208 247
#     4   9  18  30  42  58  82 113 146 178 211 245
#     4   8  14  25  39  55  77 104 136 173 207 241
#     4   8  14  24  38  56  78 106 136 166 204 246
#     4   9  18  31  44  59  82 110 141 178 212 242
#     4  10  18  28  44  63  83 109 139 170 209 254
#
# _framework density 14.440288000000001
#
# number of rings (size 3 to 8) (size 9 to 14) (size 15 to 20)
#    0.000    3.000    0.000    3.000    0.000    5.250 
#    0.000    2.500    0.000    0.000    0.000    0.000 
#    0.000    1.000    0.000    3.250    0.000    4.750 
#
# Total GULP energy -178183.610707 kJ/mol
# GULP energy per Si atom -5568.237835 kJ/mol
# Density = 1.440742 g / cm^3
# Si number density = 14.440288 Si / 1000 Ang^3
#
#
#
# Elastic Constant Matrix: (Units=GPa)
#
#
# Indices 1 2 3 4 5 6 
#
# 1 105.3081 61.9404 56.9563 0.0000 -21.6482 0.0000
# 2 61.9404 70.0786 59.9580 0.0000 -19.8414 0.0000
# 3 56.9563 59.9580 89.8236 0.0000 -19.2031 0.0000
# 4 0.0000 0.0000 0.0000 23.2877 0.0000 -5.5410
# 5 -21.6482 -19.8414 -19.2031 0.0000 20.2286 0.0000
# 6 0.0000 0.0000 0.0000 -5.5410 0.0000 26.9998
#
#
#
# Elastic Compliance Matrix: (Units=1/GPa)
#
#
# Indices 1 2 3 4 5 6 
#
# 1 0.020361 -0.014930 -0.001778 0.000000 0.005458 0.000000
# 2 -0.014930 0.047989 -0.019972 0.000000 0.012133 0.000000
# 3 -0.001778 -0.019972 0.026343 0.000000 0.003515 0.000000
# 4 0.000000 0.000000 0.000000 0.045146 0.000000 0.009265
# 5 0.005458 0.012133 0.003515 0.000000 0.070514 0.000000
# 6 0.000000 0.000000 0.000000 0.009265 0.000000 0.038939
#
#
# Mechanical properties :
#
#
# Convention : Reuss Voigt Hill
#
# Bulk Modulus (GPa) = 46.87565 69.21327 58.04446
# Shear Modulus (GPa) = 15.16240 19.86025 17.51133
#
# Velocity S-wave (km/s) = 3.24390 3.71258 3.48612
# Velocity P-wave (km/s) = 6.82368 8.14938 7.51582
#
# Compressibility (1/GPa) = 0.02133304
#
# Stress axis : x y z
#
# Youngs Moduli (GPa) = 49.11299 20.83818 37.96003
#
# Poissons Ratio (x) = 0.31112 0.06750
# Poissons Ratio (y) = 0.73326 0.75814
# Poissons Ratio (z) = 0.08733 0.41618
#
# Static dielectric constant tensor:
#      x y z
#    x 1.468780 0.000000 -0.011100 
#    y 0.000000 1.482690 0.000000 
#    z -0.011100 0.000000 1.459560 
# 
# From -- ./inp_files/248247.got.cif
#   From: 2010.05.17/outbox.cif.g08.bks.cpg/sg12_125_cif.got.tgz:248247.got - 2010.06.03 13:09:07.
