data_PCOD9171169
_publ_section_title
;
Structure prediction by ZEFSAII (Michael W. Deem and Ramdas Pophale) SiO2 
 PCOD9171169
Probable space group: C 2/M
;
_chemical_formula_sum "Si O2"
_cell_formula_units_Z 64
_cell_length_a 32.527366
_cell_length_b 13.749700
_cell_length_c 31.400041
_cell_angle_alpha 90.000000
_cell_angle_beta 162.329539
_cell_angle_gamma 90.000000
_cell_volume 4262.760610
_symmetry_space_group_name_H-M "C 2/M"
_symmetry_group_IT_number 12
_symmetry_cell_setting 'monoclinic'
loop_
_space_group_symop_operation_xyz
x,y,z
-x,y,-z
-x,-y,-z
x,-y,z
1/2+x,1/2+y,z
1/2-x,1/2+y,-z
1/2-x,1/2-y,-z
1/2+x,1/2-y,z
loop_
_atom_site_type_symbol
_atom_site_label
_atom_site_fract_x
_atom_site_fract_y
_atom_site_fract_z
Si Si1 0.661521 0.610817 0.398398
Si Si2 0.167317 0.693543 0.355434
Si Si3 0.152961 0.889158 0.913945
Si Si4 0.153966 0.697281 0.966654
Si Si5 0.565868 0.887634 0.106855
Si Si6 0.946002 0.117094 0.401116
Si Si7 0.207722 0.882497 0.608010
Si Si8 0.202302 0.387156 0.104314
O O1 0.681366 0.500000 0.403473
O O2 0.760455 0.634509 0.535234
O O3 0.683400 0.693177 0.384336
O O4 0.503315 0.620638 0.255929
O O5 0.240583 0.666242 0.383951
O O6 0.006389 0.672488 0.193889
O O7 0.169732 0.809051 0.967384
O O8 0.171642 0.000000 0.946653
O O9 0.258309 0.863739 0.980675
O O10 0.206629 0.674473 0.065712
O O11 0.699157 0.847989 0.260572
O O12 0.600675 0.000000 0.129319
O O13 0.500000 0.841571 0.000000
O O14 0.449468 0.887958 0.027425
O O15 0.801284 0.148069 0.239744
O O16 0.000000 0.154555 0.500000
O O17 0.055098 0.136567 0.471780
O O18 0.936758 0.000000 0.397087
O O19 0.224930 0.000000 0.620708
O O20 0.238207 0.500000 0.129734
#
# Coordination Sequence:
#
# PCOD9171169 Si02
#       8
#     8   8   8   8   8   8   8   8
#     4   9  19  33  48  64  88 120 150 182 220 260
#     4  10  19  31  46  67  91 116 149 185 219 258
#     4   9  19  33  48  64  88 120 150 182 220 260
#     4  10  19  31  46  67  91 116 149 185 219 258
#     4   9  16  26  40  59  85 113 139 173 218 262
#     4   9  18  30  42  59  87 121 149 175 212 258
#     4  10  18  27  42  63  87 116 148 179 211 255
#     4  10  18  27  42  63  87 116 148 179 211 255
#
# _framework density 15.013744000000001
#
# number of rings (size 3 to 8) (size 9 to 14) (size 15 to 20)
#    0.000    2.500    1.250    1.500    1.750    4.500 
#    0.000    0.000    0.000    0.000    0.000    0.000 
#    0.000    6.000    0.000    0.000    0.000    0.000 
#
# Total GULP energy -178190.383080 kJ/mol
# GULP energy per Si atom -5568.449471 kJ/mol
# Density = 1.497957 g / cm^3
# Si number density = 15.013744 Si / 1000 Ang^3
#
#
#
# Elastic Constant Matrix: (Units=GPa)
#
#
# Indices 1 2 3 4 5 6 
#
# 1 52.5614 18.1632 3.3205 0.0003 -4.6293 -0.0002
# 2 18.1632 56.1820 14.9823 0.0103 0.7957 0.0049
# 3 3.3205 14.9823 52.3369 0.0038 -5.1252 0.0025
# 4 0.0003 0.0103 0.0038 14.1594 0.0018 0.3618
# 5 -4.6293 0.7957 -5.1252 0.0018 19.9318 -0.0005
# 6 -0.0002 0.0049 0.0025 0.3618 -0.0005 16.3985
#
#
#
# Elastic Compliance Matrix: (Units=1/GPa)
#
#
# Indices 1 2 3 4 5 6 
#
# 1 0.022065 -0.007571 0.001332 0.000004 0.005770 0.000002
# 2 -0.007571 0.021966 -0.006223 -0.000013 -0.004235 -0.000005
# 3 0.001332 -0.006223 0.021397 -0.000002 0.006060 -0.000001
# 4 0.000004 -0.000013 -0.000002 0.070664 -0.000006 -0.001559
# 5 0.005770 -0.004235 0.006060 -0.000006 0.053238 0.000002
# 6 0.000002 -0.000005 -0.000001 -0.001559 0.000002 0.061016
#
#
# Mechanical properties :
#
#
# Convention : Reuss Voigt Hill
#
# Bulk Modulus (GPa) = 24.68710 26.00136 25.34423
# Shear Modulus (GPa) = 17.31473 18.40555 17.86014
#
# Velocity S-wave (km/s) = 3.39965 3.50510 3.45278
# Velocity P-wave (km/s) = 5.64702 5.80835 5.72826
#
# Compressibility (1/GPa) = 0.04050699
#
# Stress axis : x y z
#
# Youngs Moduli (GPa) = 45.31966 45.52441 46.73509
#
# Poissons Ratio (x) = 0.34465 -0.06226
# Poissons Ratio (y) = 0.34310 0.29081
# Poissons Ratio (z) = -0.06038 0.28328
#
# Static dielectric constant tensor:
#      x y z
#    x 1.494800 0.000000 -0.004640 
#    y 0.000000 1.479280 0.000000 
#    z -0.004640 0.000000 1.525140 
# 
# From -- ./inp_files/385234.got.cif
#   From: 2010.05.17/outbox.cif.g08.bks.cpg/sg12_193_cif.got.tgz:385234.got - 2010.06.03 13:09:07.
