data_PCOD9171600
_publ_section_title
;
Structure prediction by ZEFSAII (Michael W. Deem and Ramdas Pophale) SiO2 
 PCOD9171600
Probable space group: C 2/M
;
_chemical_formula_sum "Si O2"
_cell_formula_units_Z 64
_cell_length_a 28.507564
_cell_length_b 9.331667
_cell_length_c 15.014707
_cell_angle_alpha 90.000000
_cell_angle_beta 91.290748
_cell_angle_gamma 90.000000
_cell_volume 3993.245311
_symmetry_space_group_name_H-M "C 2/M"
_symmetry_group_IT_number 12
_symmetry_cell_setting 'monoclinic'
loop_
_space_group_symop_operation_xyz
x,y,z
-x,y,-z
-x,-y,-z
x,-y,z
1/2+x,1/2+y,z
1/2-x,1/2+y,-z
1/2-x,1/2-y,-z
1/2+x,1/2-y,z
loop_
_atom_site_type_symbol
_atom_site_label
_atom_site_fract_x
_atom_site_fract_y
_atom_site_fract_z
Si Si1 0.142104 0.666616 0.332728
Si Si2 0.941689 0.830105 0.740129
Si Si3 0.599911 0.833986 0.527605
Si Si4 0.487731 0.837033 0.374066
Si Si5 0.411789 0.835372 0.208310
Si Si6 0.756558 0.672166 0.595443
Si Si7 0.157649 0.169991 0.676847
Si Si8 0.985874 0.828654 0.099942
O O1 0.142972 0.500000 0.305335
O O2 0.109066 0.756945 0.266556
O O3 0.117116 0.675048 0.428094
O O4 0.195213 0.715679 0.353892
O O5 0.973124 0.769761 0.659888
O O6 0.971463 0.795264 0.830215
O O7 0.937316 0.000000 0.732716
O O8 0.544996 0.804545 0.542302
O O9 0.629764 0.727094 0.589129
O O10 0.607768 0.000000 0.557307
O O11 0.448372 0.835884 0.293247
O O12 0.506593 0.000000 0.381277
O O13 0.365960 0.752949 0.241869
O O14 0.439979 0.753953 0.132320
O O15 0.401720 0.000000 0.185362
O O16 0.759405 0.500000 0.579182
O O17 0.750000 0.750000 0.500000
O O18 0.711885 0.699297 0.656624
O O19 0.151031 0.000000 0.687053
O O20 0.977658 0.000000 0.105312
O O21 0.000000 0.792585 0.000000
#
# Coordination Sequence:
#
# PCOD9171600 Si02
#       8
#     8   8   8   8   8   8   8   8
#     4  10  20  33  46  62  91 128 163 199 241 284
#     4  10  20  32  46  67  93 121 154 192 233 282
#     4   9  17  29  45  63  86 123 165 199 235 279
#     4   8  15  28  44  61  85 121 159 190 225 271
#     4   9  17  29  47  72  99 127 157 190 232 285
#     4  10  20  32  48  68  91 125 169 211 247 281
#     4  10  18  28  45  69  95 124 161 206 246 277
#     4   9  18  34  55  77 101 126 151 187 238 292
#
# _framework density 16.027063999999999
#
# number of rings (size 3 to 8) (size 9 to 14) (size 15 to 20)
#    0.000    2.625    1.250    1.875    0.000    5.750 
#    0.000    2.500    0.000    0.000    0.000    0.875 
#    0.000    0.000    0.000    0.000    0.000    0.000 
#
# Total GULP energy -178397.410462 kJ/mol
# GULP energy per Si atom -5574.919077 kJ/mol
# Density = 1.599059 g / cm^3
# Si number density = 16.027064 Si / 1000 Ang^3
#
#
#
# Elastic Constant Matrix: (Units=GPa)
#
#
# Indices 1 2 3 4 5 6 
#
# 1 133.1529 64.9086 44.7631 0.0000 -2.4772 0.0000
# 2 64.9086 68.1142 41.6322 0.0000 -4.7707 0.0000
# 3 44.7631 41.6322 62.3878 0.0000 -12.9756 0.0000
# 4 0.0000 0.0000 0.0000 18.5368 0.0000 0.0215
# 5 -2.4772 -4.7707 -12.9756 0.0000 20.3118 0.0000
# 6 0.0000 0.0000 0.0000 0.0215 0.0000 25.4438
#
#
#
# Elastic Compliance Matrix: (Units=1/GPa)
#
#
# Indices 1 2 3 4 5 6 
#
# 1 0.014305 -0.012151 -0.002752 0.000000 -0.002867 0.000000
# 2 -0.012151 0.035654 -0.015731 0.000000 -0.003157 0.000000
# 3 -0.002752 -0.015731 0.031901 0.000000 0.016349 0.000000
# 4 0.000000 0.000000 0.000000 0.053947 0.000000 -0.000046
# 5 -0.002867 -0.003157 0.016349 0.000000 0.058585 0.000000
# 6 0.000000 0.000000 0.000000 -0.000046 0.000000 0.039302
#
#
# Mechanical properties :
#
#
# Convention : Reuss Voigt Hill
#
# Bulk Modulus (GPa) = 48.56006 62.91808 55.73907
# Shear Modulus (GPa) = 16.56587 20.34852 18.45719
#
# Velocity S-wave (km/s) = 3.21848 3.56706 3.39724
# Velocity P-wave (km/s) = 6.64651 7.50385 7.08816
#
# Compressibility (1/GPa) = 0.02059305
#
# Stress axis : x y z
#
# Youngs Moduli (GPa) = 69.90514 28.04744 31.34717
#
# Poissons Ratio (x) = 0.34080 0.08626
# Poissons Ratio (y) = 0.84940 0.49312
# Poissons Ratio (z) = 0.19237 0.44121
#
# Static dielectric constant tensor:
#      x y z
#    x 1.560950 0.000000 0.009690 
#    y 0.000000 1.538960 0.000000 
#    z 0.009690 0.000000 1.537930 
# 
# From -- ./inp_files/244062.got.cif
#   From: 2010.05.17/outbox.cif.g08.bks.cpg/sg12_123_cif.got.tgz:244062.got - 2010.06.03 13:09:07.
