data_PCOD9171972
_publ_section_title
;
Structure prediction by ZEFSAII (Michael W. Deem and Ramdas Pophale) SiO2 
 PCOD9171972
Probable space group: C 2/M
;
_chemical_formula_sum "Si O2"
_cell_formula_units_Z 56
_cell_length_a 20.833596
_cell_length_b 9.084036
_cell_length_c 25.033173
_cell_angle_alpha 90.000000
_cell_angle_beta 46.670092
_cell_angle_gamma 90.000000
_cell_volume 3446.204447
_symmetry_space_group_name_H-M "C 2/M"
_symmetry_group_IT_number 12
_symmetry_cell_setting 'monoclinic'
loop_
_space_group_symop_operation_xyz
x,y,z
-x,y,-z
-x,-y,-z
x,-y,z
1/2+x,1/2+y,z
1/2-x,1/2+y,-z
1/2-x,1/2-y,-z
1/2+x,1/2-y,z
loop_
_atom_site_type_symbol
_atom_site_label
_atom_site_fract_x
_atom_site_fract_y
_atom_site_fract_z
Si Si1 0.233016 0.177405 0.952481
Si Si2 0.090356 0.324356 0.203069
Si Si3 0.461782 0.329496 0.351294
Si Si4 0.550965 0.176149 0.809307
Si Si5 0.186336 0.827746 0.658457
Si Si6 0.968226 0.176540 0.958756
Si Si7 0.188384 0.177939 0.489568
O O1 0.310886 0.224487 0.867728
O O2 0.134993 0.213778 0.989070
O O3 0.239041 0.000000 0.954552
O O4 0.250000 0.250000 0.000000
O O5 0.089806 0.500000 0.208530
O O6 0.044687 0.258235 0.281490
O O7 0.028060 0.287531 0.187630
O O8 0.485818 0.500000 0.342573
O O9 0.386978 0.318671 0.347370
O O10 0.410769 0.283882 0.434492
O O11 0.639007 0.249833 0.735177
O O12 0.559765 0.000000 0.805706
O O13 0.523240 0.240789 0.881924
O O14 0.272695 0.744464 0.587060
O O15 0.203446 0.000000 0.658136
O O16 0.977718 0.000000 0.945587
O O17 0.000000 0.212692 0.000000
O O18 0.250000 0.250000 0.500000
O O19 0.196955 0.000000 0.485709
#
# Coordination Sequence:
#
# PCOD9171972 Si02
#       7
#     8   8   8   8   8   8   8
#     4  10  19  32  49  69  92 119 156 197 235 280
#     4   9  17  27  41  63  87 113 149 189 229 270
#     4   8  15  24  35  54  82 115 147 181 223 268
#     4  10  18  29  45  65  89 117 152 193 235 277
#     4   9  16  25  38  57  82 115 152 187 226 273
#     4  10  21  35  50  68  93 125 157 194 240 285
#     4   9  15  23  34  52  80 115 152 185 224 272
#
# _framework density 16.249762
#
# number of rings (size 3 to 8) (size 9 to 14) (size 15 to 20)
#    0.000    2.714    1.429    2.143    0.000    5.429 
#    0.000    0.000    0.000    0.000    0.000    0.000 
#    0.000    1.143    0.000   13.143    0.000    6.714 
#
# Total GULP energy -155910.837214 kJ/mol
# GULP energy per Si atom -5568.244186 kJ/mol
# Density = 1.621278 g / cm^3
# Si number density = 16.249762 Si / 1000 Ang^3
#
#
#
# Elastic Constant Matrix: (Units=GPa)
#
#
# Indices 1 2 3 4 5 6 
#
# 1 47.9217 25.8319 48.1424 0.0000 -3.3350 0.0000
# 2 25.8319 48.4628 70.3052 0.0000 -4.3176 -0.0001
# 3 48.1424 70.3052 197.8197 0.0000 -23.7453 0.0000
# 4 0.0000 0.0000 0.0000 36.4400 0.0000 -1.7429
# 5 -3.3350 -4.3176 -23.7453 0.0000 12.9695 0.0000
# 6 0.0000 -0.0001 0.0000 -1.7429 0.0000 8.9910
#
#
#
# Elastic Compliance Matrix: (Units=1/GPa)
#
#
# Indices 1 2 3 4 5 6 
#
# 1 0.030417 -0.010782 -0.003925 0.000000 -0.002954 0.000000
# 2 -0.010782 0.049698 -0.017156 0.000000 -0.017638 0.000000
# 3 -0.003925 -0.017156 0.014484 0.000000 0.019798 0.000000
# 4 0.000000 0.000000 0.000000 0.027699 0.000000 0.005369
# 5 -0.002954 -0.017638 0.019798 0.000000 0.106719 0.000000
# 6 0.000000 0.000000 0.000000 0.005369 0.000000 0.112263
#
#
# Mechanical properties :
#
#
# Convention : Reuss Voigt Hill
#
# Bulk Modulus (GPa) = 32.39074 64.75146 48.57110
# Shear Modulus (GPa) = 12.03955 21.67510 16.85732
#
# Velocity S-wave (km/s) = 2.72491 3.65618 3.22435
# Velocity P-wave (km/s) = 5.46594 7.59985 6.61945
#
# Compressibility (1/GPa) = 0.03087302
#
# Stress axis : x y z
#
# Youngs Moduli (GPa) = 32.87639 20.12135 69.04164
#
# Poissons Ratio (x) = 0.21695 0.27100
# Poissons Ratio (y) = 0.35447 1.18448
# Poissons Ratio (z) = 0.12904 0.34520
#
# Static dielectric constant tensor:
#      x y z
#    x 1.517380 0.000000 -0.016640 
#    y 0.000000 1.544940 0.000000 
#    z -0.016640 0.000000 1.575530 
# 
# From -- ./inp_files/287075.got.cif
#   From: 2010.05.17/outbox.cif.g08.bks.cpg/sg12_144_cif.got.tgz:287075.got - 2010.06.03 13:09:07.
