data_PCOD9171265
_publ_section_title
;
Structure prediction by ZEFSAII (Michael W. Deem and Ramdas Pophale) SiO2 
 PCOD9171265
Probable space group: C 2/M
;
_chemical_formula_sum "Si O2"
_cell_formula_units_Z 56
_cell_length_a 27.650151
_cell_length_b 9.051159
_cell_length_c 17.799257
_cell_angle_alpha 90.000000
_cell_angle_beta 53.854327
_cell_angle_gamma 90.000000
_cell_volume 3597.135829
_symmetry_space_group_name_H-M "C 2/M"
_symmetry_group_IT_number 12
_symmetry_cell_setting 'monoclinic'
loop_
_space_group_symop_operation_xyz
x,y,z
-x,y,-z
-x,-y,-z
x,-y,z
1/2+x,1/2+y,z
1/2-x,1/2+y,-z
1/2-x,1/2-y,-z
1/2+x,1/2-y,z
loop_
_atom_site_type_symbol
_atom_site_label
_atom_site_fract_x
_atom_site_fract_y
_atom_site_fract_z
Si Si1 0.965011 0.324632 0.709881
Si Si2 0.342149 0.822662 0.894609
Si Si3 0.788372 0.321687 0.530824
Si Si4 0.237497 0.675529 0.893764
Si Si5 0.765984 0.671631 0.720352
Si Si6 0.916736 0.825090 0.436013
Si Si7 0.091069 0.329881 0.402948
O O1 0.976522 0.500000 0.708623
O O2 0.910197 0.280087 0.814186
O O3 0.939927 0.303555 0.648088
O O4 0.025912 0.234345 0.661498
O O5 0.295688 0.747299 0.880003
O O6 0.338115 0.000000 0.886638
O O7 0.317904 0.788774 0.000142
O O8 0.790289 0.500000 0.524033
O O9 0.750000 0.250000 0.500000
O O10 0.760541 0.283483 0.638292
O O11 0.855654 0.257420 0.468720
O O12 0.244927 0.500000 0.885880
O O13 0.232548 0.735763 0.814203
O O14 0.749179 0.500000 0.742776
O O15 0.837303 0.682146 0.671637
O O16 0.927111 0.778116 0.513532
O O17 0.909803 0.000000 0.435673
O O18 0.078124 0.500000 0.438405
#
# Coordination Sequence:
#
# PCOD9171265 Si02
#       7
#     8   8   8   8   8   8   8
#     4  10  18  31  47  62  90 133 171 197 231 281
#     4   9  18  31  44  62  93 133 169 201 237 276
#     4  10  21  38  57  75  95 122 155 194 241 290
#     4  10  18  27  44  69  95 125 165 206 238 272
#     4   9  17  31  49  69  96 129 159 189 235 290
#     4  11  22  32  45  69  98 123 155 199 240 284
#     4   9  17  30  46  63  89 131 170 195 229 281
#
# _framework density 15.567940999999999
#
# number of rings (size 3 to 8) (size 9 to 14) (size 15 to 20)
#    0.000    2.286    1.429    3.429    0.000    6.286 
#    0.000    0.000    0.000    0.000    0.000    1.000 
#    0.000    8.000    0.000    0.000    0.000    0.000 
#
# Total GULP energy -156157.441170 kJ/mol
# GULP energy per Si atom -5577.051470 kJ/mol
# Density = 1.553251 g / cm^3
# Si number density = 15.567941 Si / 1000 Ang^3
#
#
#
# Elastic Constant Matrix: (Units=GPa)
#
#
# Indices 1 2 3 4 5 6 
#
# 1 62.0056 36.9243 53.2420 0.0000 9.3182 -0.0001
# 2 36.9243 60.9037 61.3947 0.0002 1.5174 -0.0002
# 3 53.2420 61.3947 133.0028 0.0000 -2.8750 0.0000
# 4 0.0000 0.0002 0.0000 24.6693 0.0000 0.4024
# 5 9.3182 1.5174 -2.8750 0.0000 17.2113 0.0000
# 6 -0.0001 -0.0002 0.0000 0.4024 0.0000 21.9401
#
#
#
# Elastic Compliance Matrix: (Units=1/GPa)
#
#
# Indices 1 2 3 4 5 6 
#
# 1 0.032475 -0.010738 -0.008433 0.000000 -0.018044 0.000000
# 2 -0.010738 0.034711 -0.011707 0.000000 0.000798 0.000000
# 3 -0.008433 -0.011707 0.016479 0.000000 0.008351 0.000000
# 4 0.000000 0.000000 0.000000 0.040548 0.000000 -0.000744
# 5 -0.018044 0.000798 0.008351 0.000000 0.069195 0.000000
# 6 0.000000 0.000000 0.000000 -0.000744 0.000000 0.045592
#
#
# Mechanical properties :
#
#
# Convention : Reuss Voigt Hill
#
# Bulk Modulus (GPa) = 45.64420 62.11489 53.87955
# Shear Modulus (GPa) = 16.23056 19.72087 17.97572
#
# Velocity S-wave (km/s) = 3.23238 3.56302 3.40172
# Velocity P-wave (km/s) = 6.58134 7.54405 7.07908
#
# Compressibility (1/GPa) = 0.02190859
#
# Stress axis : x y z
#
# Youngs Moduli (GPa) = 30.79275 28.80934 60.68270
#
# Poissons Ratio (x) = 0.30935 0.51177
# Poissons Ratio (y) = 0.33065 0.71042
# Poissons Ratio (z) = 0.25969 0.33727
#
# Static dielectric constant tensor:
#      x y z
#    x 1.493970 0.000000 -0.002990 
#    y 0.000000 1.519750 0.000000 
#    z -0.002990 0.000000 1.548600 
# 
# From -- ./inp_files/291838.got.cif
#   From: 2010.05.17/outbox.cif.g08.bks.cpg/sg12_146_cif.got.tgz:291838.got - 2010.06.03 13:09:07.
