data_PCOD9171133
_publ_section_title
;
Structure prediction by ZEFSAII (Michael W. Deem and Ramdas Pophale) SiO2 
 PCOD9171133
Probable space group: C 2/M
;
_chemical_formula_sum "Si O2"
_cell_formula_units_Z 64
_cell_length_a 24.464223
_cell_length_b 8.989820
_cell_length_c 24.029935
_cell_angle_alpha 90.000000
_cell_angle_beta 50.966370
_cell_angle_gamma 90.000000
_cell_volume 4105.169246
_symmetry_space_group_name_H-M "C 2/M"
_symmetry_group_IT_number 12
_symmetry_cell_setting 'monoclinic'
loop_
_space_group_symop_operation_xyz
x,y,z
-x,y,-z
-x,-y,-z
x,-y,z
1/2+x,1/2+y,z
1/2-x,1/2+y,-z
1/2-x,1/2-y,-z
1/2+x,1/2-y,z
loop_
_atom_site_type_symbol
_atom_site_label
_atom_site_fract_x
_atom_site_fract_y
_atom_site_fract_z
Si Si1 0.955781 0.670452 0.970210
Si Si2 0.711209 0.178350 0.259619
Si Si3 0.701064 0.177687 0.695620
Si Si4 0.426301 0.676117 0.619123
Si Si5 0.086796 0.823226 0.505351
Si Si6 0.834951 0.170697 0.105975
Si Si7 0.272720 0.177755 0.543412
Si Si8 0.577255 0.329355 0.833981
O O1 0.953244 0.500000 0.953854
O O2 0.000577 0.767406 0.898248
O O3 0.878965 0.731973 0.034683
O O4 0.000000 0.675526 0.000000
O O5 0.747903 0.259869 0.288432
O O6 0.630869 0.230173 0.310794
O O7 0.757401 0.218201 0.175576
O O8 0.717183 0.000000 0.263270
O O9 0.725532 0.253318 0.623016
O O10 0.622840 0.228521 0.763418
O O11 0.707035 0.000000 0.688836
O O12 0.415978 0.500000 0.635710
O O13 0.413701 0.700733 0.561077
O O14 0.508150 0.711237 0.576993
O O15 0.147616 0.727177 0.493701
O O16 0.099936 0.000000 0.505658
O O17 0.879415 0.172721 0.135364
O O18 0.833098 0.000000 0.087944
O O19 0.250000 0.250000 0.500000
O O20 0.266360 0.000000 0.546326
O O21 0.575252 0.500000 0.816271
#
# Coordination Sequence:
#
# PCOD9171133 Si02
#       8
#     8   8   8   8   8   8   8   8
#     4   9  15  22  33  51  73 102 141 178 212 254
#     4  10  18  27  41  63  88 115 149 185 222 263
#     4  11  20  31  45  62  85 111 145 186 224 266
#     4   9  17  29  48  68  92 119 146 183 228 269
#     4   9  18  33  49  69  91 116 147 184 227 272
#     4   8  15  24  33  49  77 110 141 176 214 254
#     4  12  24  37  52  69  89 117 150 188 231 275
#     4   9  16  26  39  54  75 105 140 178 218 258
#
# _framework density 15.5901
#
# number of rings (size 3 to 8) (size 9 to 14) (size 15 to 20)
#    0.000    2.375    1.250    4.875    0.000    5.500 
#    0.000    1.250    0.000    0.000    0.000    0.000 
#    0.000    0.000    0.000    1.125    0.000   15.375 
#
# Total GULP energy -178343.100966 kJ/mol
# GULP energy per Si atom -5573.221905 kJ/mol
# Density = 1.555462 g / cm^3
# Si number density = 15.590100 Si / 1000 Ang^3
#
#
#
# Elastic Constant Matrix: (Units=GPa)
#
#
# Indices 1 2 3 4 5 6 
#
# 1 35.6506 35.3300 34.8699 0.0000 -6.8294 0.0008
# 2 35.3300 105.1034 58.3957 0.0000 -15.2412 0.0011
# 3 34.8699 58.3957 106.6739 -0.0001 -33.2922 -0.0001
# 4 0.0000 0.0000 -0.0001 30.1106 0.0000 -7.1186
# 5 -6.8294 -15.2412 -33.2922 0.0000 20.3815 -0.0001
# 6 0.0008 0.0011 -0.0001 -7.1186 -0.0001 16.8619
#
#
#
# Elastic Compliance Matrix: (Units=1/GPa)
#
#
# Indices 1 2 3 4 5 6 
#
# 1 0.051333 -0.010680 -0.016437 -0.000001 -0.017636 -0.000002
# 2 -0.010680 0.016064 -0.005447 0.000000 -0.000464 -0.000001
# 3 -0.016437 -0.005447 0.030067 0.000000 0.039532 0.000002
# 4 -0.000001 0.000000 0.000000 0.036893 0.000001 0.015575
# 5 -0.017636 -0.000464 0.039532 0.000001 0.107380 0.000002
# 6 -0.000002 -0.000001 0.000002 0.015575 0.000002 0.065881
#
#
# Mechanical properties :
#
#
# Convention : Reuss Voigt Hill
#
# Bulk Modulus (GPa) = 30.92701 56.06877 43.49789
# Shear Modulus (GPa) = 13.03691 21.39296 17.21494
#
# Velocity S-wave (km/s) = 2.89490 3.70836 3.32659
# Velocity P-wave (km/s) = 5.57267 7.37417 6.53578
#
# Compressibility (1/GPa) = 0.03233419
#
# Stress axis : x y z
#
# Youngs Moduli (GPa) = 19.48056 62.25183 33.25895
#
# Poissons Ratio (x) = 0.66486 0.54669
# Poissons Ratio (y) = 0.20805 0.18118
# Poissons Ratio (z) = 0.32021 0.33911
#
# Static dielectric constant tensor:
#      x y z
#    x 1.498330 0.000000 -0.029580 
#    y 0.000000 1.520690 0.000000 
#    z -0.029580 0.000000 1.536660 
# 
# From -- ./inp_files/348534.got.cif
#   From: 2010.05.17/outbox.cif.g08.bks.cpg/sg12_175_cif.got.tgz:348534.got - 2010.06.03 13:09:07.
