data_PCOD9171038
_publ_section_title
;
Structure prediction by ZEFSAII (Michael W. Deem and Ramdas Pophale) SiO2 
 PCOD9171038
Probable space group: C 2/M
;
_chemical_formula_sum "Si O2"
_cell_formula_units_Z 40
_cell_length_a 21.000125
_cell_length_b 7.589036
_cell_length_c 14.952074
_cell_angle_alpha 90.000000
_cell_angle_beta 60.422000
_cell_angle_gamma 90.000000
_cell_volume 2072.390884
_symmetry_space_group_name_H-M "C 2/M"
_symmetry_group_IT_number 12
_symmetry_cell_setting 'monoclinic'
loop_
_space_group_symop_operation_xyz
x,y,z
-x,y,-z
-x,-y,-z
x,-y,z
1/2+x,1/2+y,z
1/2-x,1/2+y,-z
1/2-x,1/2-y,-z
1/2+x,1/2-y,z
loop_
_atom_site_type_symbol
_atom_site_label
_atom_site_fract_x
_atom_site_fract_y
_atom_site_fract_z
Si Si1 0.216428 0.711121 0.426210
Si Si2 0.049809 0.283589 0.548901
Si Si3 0.350449 0.291860 0.219106
Si Si4 0.428019 0.212687 0.994986
Si Si5 0.003792 0.295409 0.773763
O O1 0.212165 0.500000 0.418972
O O2 0.250000 0.750000 0.500000
O O3 0.133478 0.777369 0.479429
O O4 0.274440 0.776318 0.312386
O O5 0.051204 0.500000 0.551194
O O6 0.017724 0.219820 0.666100
O O7 0.000000 0.232574 0.500000
O O8 0.354807 0.500000 0.233545
O O9 0.361668 0.263910 0.105462
O O10 0.419148 0.210858 0.225474
O O11 0.429313 0.000000 0.991334
O O12 0.500000 0.272397 0.000000
O O13 0.442469 0.278534 0.884348
O O14 0.984655 0.500000 0.773411
#
# Coordination Sequence:
#
# PCOD9171038 Si02
#       5
#     8   8   8   8   8
#     4  10  19  30  47  70  94 120 152 189 232 275
#     4   9  17  30  49  70  91 119 156 195 229 265
#     4  10  18  26  41  68  95 118 146 183 230 276
#     4   8  15  26  41  63  89 118 151 186 223 264
#     4   9  16  28  46  66  89 118 153 189 224 265
#
# _framework density 19.301376999999999
#
# number of rings (size 3 to 8) (size 9 to 14) (size 15 to 20)
#    0.000    2.800    2.000    1.800    0.000    4.400 
#    0.000    0.000    0.000    3.600    0.000    0.000 
#    0.000    0.000    0.000    0.000    0.000    2.000 
#
# Total GULP energy -111413.001431 kJ/mol
# GULP energy per Si atom -5570.650072 kJ/mol
# Density = 1.925745 g / cm^3
# Si number density = 19.301377 Si / 1000 Ang^3
#
#
#
# Elastic Constant Matrix: (Units=GPa)
#
#
# Indices 1 2 3 4 5 6 
#
# 1 87.5005 -6.8286 75.4918 0.0000 -0.0824 0.0000
# 2 -6.8286 38.4391 1.8274 0.0000 -1.1632 0.0000
# 3 75.4918 1.8274 248.2510 0.0000 -7.3967 0.0000
# 4 0.0000 0.0000 0.0000 14.2476 0.0000 -3.0182
# 5 -0.0824 -1.1632 -7.3967 0.0000 19.4103 0.0000
# 6 0.0000 0.0000 0.0000 -3.0182 0.0000 5.2266
#
#
#
# Elastic Compliance Matrix: (Units=1/GPa)
#
#
# Indices 1 2 3 4 5 6 
#
# 1 0.015892 0.003007 -0.004903 0.000000 -0.001621 0.000000
# 2 0.003007 0.026637 -0.001075 0.000000 0.001199 0.000000
# 3 -0.004903 -0.001075 0.005588 0.000000 0.002044 0.000000
# 4 0.000000 0.000000 0.000000 0.079971 0.000000 0.046181
# 5 -0.001621 0.001199 0.002044 0.000000 0.052363 0.000000
# 6 0.000000 0.000000 0.000000 0.046181 0.000000 0.217996
#
#
# Mechanical properties :
#
#
# Convention : Reuss Voigt Hill
#
# Bulk Modulus (GPa) = 23.71059 57.24133 40.47596
# Shear Modulus (GPa) = 11.94897 28.02356 19.98627
#
# Velocity S-wave (km/s) = 2.49082 3.81451 3.22138
# Velocity P-wave (km/s) = 4.53688 7.00868 5.90360
#
# Compressibility (1/GPa) = 0.04217524
#
# Stress axis : x y z
#
# Youngs Moduli (GPa) = 62.92553 37.54203 178.95528
#
# Poissons Ratio (x) = -0.11289 0.87742
# Poissons Ratio (y) = -0.18923 0.19234
# Poissons Ratio (z) = 0.30853 0.04035
#
# Static dielectric constant tensor:
#      x y z
#    x 1.608290 0.000000 -0.017140 
#    y 0.000000 1.727470 0.000000 
#    z -0.017140 0.000000 1.746410 
# 
# From -- ./inp_files/162405.got.cif
#   From: 2010.05.17/outbox.cif.g08.bks.cpg/sg12_82_cif.got.tgz:162405.got - 2010.06.03 13:09:07.
