data_PCOD9171146
_publ_section_title
;
Structure prediction by ZEFSAII (Michael W. Deem and Ramdas Pophale) SiO2 
 PCOD9171146
Probable space group: C 2/M
;
_chemical_formula_sum "Si O2"
_cell_formula_units_Z 48
_cell_length_a 29.389173
_cell_length_b 8.605026
_cell_length_c 12.683168
_cell_angle_alpha 90.000000
_cell_angle_beta 70.097190
_cell_angle_gamma 90.000000
_cell_volume 3015.925010
_symmetry_space_group_name_H-M "C 2/M"
_symmetry_group_IT_number 12
_symmetry_cell_setting 'monoclinic'
loop_
_space_group_symop_operation_xyz
x,y,z
-x,y,-z
-x,-y,-z
x,-y,z
1/2+x,1/2+y,z
1/2-x,1/2+y,-z
1/2-x,1/2-y,-z
1/2+x,1/2-y,z
loop_
_atom_site_type_symbol
_atom_site_label
_atom_site_fract_x
_atom_site_fract_y
_atom_site_fract_z
Si Si1 0.494486 0.188878 0.336481
Si Si2 0.366828 0.312706 0.960398
Si Si3 0.235743 0.185923 0.896063
Si Si4 0.920920 0.312407 0.567312
Si Si5 0.168178 0.185318 0.247104
Si Si6 0.472676 0.812144 0.916695
O O1 0.541018 0.233482 0.370468
O O2 0.446644 0.237402 0.438160
O O3 0.501530 0.242610 0.211653
O O4 0.493969 0.000000 0.336437
O O5 0.370907 0.500000 0.956958
O O6 0.353446 0.264236 0.850575
O O7 0.417161 0.240590 0.955644
O O8 0.320695 0.269871 0.069775
O O9 0.277349 0.250344 0.787485
O O10 0.238380 0.000000 0.895442
O O11 0.250000 0.250000 0.000000
O O12 0.917772 0.500000 0.570561
O O13 0.869095 0.243520 0.635921
O O14 0.170263 0.000000 0.244400
O O15 0.473655 0.000000 0.915402
O O16 0.500000 0.757713 0.000000
#
# Coordination Sequence:
#
# PCOD9171146 Si02
#       6
#     8   8   8   8   8   8
#     4   8  15  27  42  63  86 113 150 181 214 262
#     4   9  18  30  42  60  88 118 146 178 215 259
#     4   9  17  28  42  62  88 117 148 178 217 266
#     4   9  15  26  45  62  84 119 148 176 216 261
#     4  10  18  27  41  66  93 116 145 178 220 268
#     4  10  19  30  46  66  87 115 151 186 216 251
#
# _framework density 15.915514999999999
#
# number of rings (size 3 to 8) (size 9 to 14) (size 15 to 20)
#    0.000    2.833    1.667    3.000    0.000    3.667 
#    0.000    2.500    0.000    0.000    0.000    1.167 
#    0.000    0.000    0.000    0.000    0.000    0.000 
#
# Total GULP energy -133623.633463 kJ/mol
# GULP energy per Si atom -5567.651394 kJ/mol
# Density = 1.587929 g / cm^3
# Si number density = 15.915515 Si / 1000 Ang^3
#
#
#
# Elastic Constant Matrix: (Units=GPa)
#
#
# Indices 1 2 3 4 5 6 
#
# 1 91.7188 21.3209 77.1553 0.0000 -26.9840 0.0000
# 2 21.3209 17.5648 23.6957 0.0000 -8.7285 0.0000
# 3 77.1553 23.6957 121.4620 0.0000 -30.1723 0.0000
# 4 0.0000 0.0000 0.0000 14.9596 0.0000 -8.8764
# 5 -26.9840 -8.7285 -30.1723 0.0000 35.3880 0.0000
# 6 0.0000 0.0000 0.0000 -8.8764 0.0000 22.0343
#
#
#
# Elastic Compliance Matrix: (Units=1/GPa)
#
#
# Indices 1 2 3 4 5 6 
#
# 1 0.026212 -0.011337 -0.012901 0.000000 0.006192 0.000000
# 2 -0.011337 0.083940 -0.007839 0.000000 0.005376 0.000000
# 3 -0.012901 -0.007839 0.019073 0.000000 0.004491 0.000000
# 4 0.000000 0.000000 0.000000 0.087844 0.000000 0.035387
# 5 0.006192 0.005376 0.004491 0.000000 0.038135 0.000000
# 6 0.000000 0.000000 0.000000 0.035387 0.000000 0.059640
#
#
# Mechanical properties :
#
#
# Convention : Reuss Voigt Hill
#
# Bulk Modulus (GPa) = 15.36765 52.78770 34.07768
# Shear Modulus (GPa) = 12.47859 21.71462 17.09661
#
# Velocity S-wave (km/s) = 2.80313 3.69774 3.28107
# Velocity P-wave (km/s) = 4.48926 7.17430 5.98431
#
# Compressibility (1/GPa) = 0.06507175
#
# Stress axis : x y z
#
# Youngs Moduli (GPa) = 38.15007 11.91333 52.43074
#
# Poissons Ratio (x) = 0.13506 0.67640
# Poissons Ratio (y) = 0.43251 0.41098
# Poissons Ratio (z) = 0.49217 0.09338
#
# Static dielectric constant tensor:
#      x y z
#    x 1.522520 0.000000 -0.029510 
#    y 0.000000 1.535030 0.000000 
#    z -0.029510 0.000000 1.548030 
# 
# From -- ./inp_files/185731.got.cif
#   From: 2010.05.17/outbox.cif.g08.bks.cpg/sg12_93_cif.got.tgz:185731.got - 2010.06.03 13:09:07.
