data_PCOD9171719
_publ_section_title
;
Structure prediction by ZEFSAII (Michael W. Deem and Ramdas Pophale) SiO2 
 PCOD9171719
Probable space group: C 2/M
;
_chemical_formula_sum "Si O2"
_cell_formula_units_Z 44
_cell_length_a 21.308544
_cell_length_b 21.598086
_cell_length_c 5.458551
_cell_angle_alpha 90.000000
_cell_angle_beta 80.938008
_cell_angle_gamma 90.000000
_cell_volume 2480.799451
_symmetry_space_group_name_H-M "C 2/M"
_symmetry_group_IT_number 12
_symmetry_cell_setting 'monoclinic'
loop_
_space_group_symop_operation_xyz
x,y,z
-x,y,-z
-x,-y,-z
x,-y,z
1/2+x,1/2+y,z
1/2-x,1/2+y,-z
1/2-x,1/2-y,-z
1/2+x,1/2-y,z
loop_
_atom_site_type_symbol
_atom_site_label
_atom_site_fract_x
_atom_site_fract_y
_atom_site_fract_z
Si Si1 0.136653 0.000000 0.677086
Si Si2 0.336808 0.736826 0.185561
Si Si3 0.444056 0.500000 0.782996
Si Si4 0.262794 0.392823 0.289757
Si Si5 0.238454 0.636632 0.801309
Si Si6 0.121942 0.193167 0.342544
Si Si7 0.500000 0.389922 0.500000
O O1 0.103162 0.000000 0.429088
O O2 0.180698 0.059994 0.687990
O O3 0.091985 0.000000 0.941846
O O4 0.290133 0.677241 0.239290
O O5 0.297230 0.798098 0.152686
O O6 0.366804 0.739974 0.438400
O O7 0.382774 0.722733 0.926119
O O8 0.486256 0.438429 0.726095
O O9 0.219090 0.393143 0.555608
O O10 0.231372 0.404632 0.046437
O O11 0.314048 0.651653 0.723182
O O12 0.062317 0.152155 0.461237
#
# Coordination Sequence:
#
# PCOD9171719 Si02
#       7
#     4   8   4   8   8   8   4
#     4  12  22  37  50  68  96 138 176 217 248 270
#     4  10  18  32  51  69  86 114 160 208 250 297
#     4  11  24  36  48  60  92 140 192 212 228 268
#     4  10  18  28  47  68  91 114 153 203 247 288
#     4  10  18  32  51  69  86 114 160 208 250 297
#     4  10  19  30  46  66  91 114 153 203 247 288
#     4  11  24  36  48  68  96 138 176 217 248 270
#
# _framework density 17.736219999999999
#
# number of rings (size 3 to 8) (size 9 to 14) (size 15 to 20)
#    0.000    1.636    0.000   10.909    0.000    3.636 
#    0.000    0.000    0.000    0.000    0.000    0.000 
#    0.000    0.000    0.000    0.000    0.000  177.273 
#
# Total GULP energy -122610.283768 kJ/mol
# GULP energy per Si atom -5573.194717 kJ/mol
# Density = 1.769585 g / cm^3
# Si number density = 17.736220 Si / 1000 Ang^3
#
#
#
# Elastic Constant Matrix: (Units=GPa)
#
#
# Indices 1 2 3 4 5 6 
#
# 1 38.1581 29.3909 17.4425 0.0000 -0.2928 0.0000
# 2 29.3909 35.9772 29.8395 0.0000 -5.6961 0.0000
# 3 17.4425 29.8395 167.8032 0.0000 24.3356 0.0000
# 4 0.0000 0.0000 0.0000 10.9790 0.0000 -11.2012
# 5 -0.2928 -5.6961 24.3356 0.0000 24.7513 0.0000
# 6 0.0000 0.0000 0.0000 -11.2012 0.0000 26.0058
#
#
#
# Elastic Compliance Matrix: (Units=1/GPa)
#
#
# Indices 1 2 3 4 5 6 
#
# 1 0.083632 -0.080470 0.009515 0.000000 -0.026885 0.000000
# 2 -0.080470 0.115983 -0.018653 0.000000 0.044079 0.000000
# 3 0.009515 -0.018653 0.010372 0.000000 -0.014378 0.000000
# 4 0.000000 0.000000 0.000000 0.162485 0.000000 0.069986
# 5 -0.026885 0.044079 -0.014378 0.000000 0.064365 0.000000
# 6 0.000000 0.000000 0.000000 0.069986 0.000000 0.068597
#
#
# Mechanical properties :
#
#
# Convention : Reuss Voigt Hill
#
# Bulk Modulus (GPa) = 32.49632 43.92047 38.20840
# Shear Modulus (GPa) = 7.19521 23.36493 15.28007
#
# Velocity S-wave (km/s) = 2.01633 3.63348 2.93835
# Velocity P-wave (km/s) = 4.87674 6.51305 5.75336
#
# Compressibility (1/GPa) = 0.03077271
#
# Stress axis : x y z
#
# Youngs Moduli (GPa) = 11.95716 8.62196 96.41011
#
# Poissons Ratio (x) = 0.69381 -0.91737
# Poissons Ratio (y) = 0.96219 1.79829
# Poissons Ratio (z) = -0.11378 0.16082
#
# Static dielectric constant tensor:
#      x y z
#    x 1.622250 0.000000 0.053260 
#    y 0.000000 1.611450 0.000000 
#    z 0.053260 0.000000 1.738380 
# 
# From -- ./inp_files/16111.got.cif
#   From: 2010.05.17/outbox.cif.g08.bks.cpg/sg12_9_cif.got.tgz:16111.got - 2010.06.03 13:09:07.
