data_PCOD9171288
_publ_section_title
;
Structure prediction by ZEFSAII (Michael W. Deem and Ramdas Pophale) SiO2 
 PCOD9171288
Probable space group: C 2/M
;
_chemical_formula_sum "Si O2"
_cell_formula_units_Z 40
_cell_length_a 25.361577
_cell_length_b 8.600867
_cell_length_c 13.031862
_cell_angle_alpha 90.000000
_cell_angle_beta 58.805312
_cell_angle_gamma 90.000000
_cell_volume 2431.646510
_symmetry_space_group_name_H-M "C 2/M"
_symmetry_group_IT_number 12
_symmetry_cell_setting 'monoclinic'
loop_
_space_group_symop_operation_xyz
x,y,z
-x,y,-z
-x,-y,-z
x,-y,z
1/2+x,1/2+y,z
1/2-x,1/2+y,-z
1/2-x,1/2-y,-z
1/2+x,1/2-y,z
loop_
_atom_site_type_symbol
_atom_site_label
_atom_site_fract_x
_atom_site_fract_y
_atom_site_fract_z
Si Si1 0.802321 0.685602 0.585359
Si Si2 0.163849 0.812471 0.660874
Si Si3 0.665592 0.312056 0.006541
Si Si4 0.701506 0.685808 0.192946
Si Si5 0.929598 0.810145 0.068584
O O1 0.803611 0.500000 0.584198
O O2 0.840010 0.748504 0.450266
O O3 0.730914 0.735677 0.637623
O O4 0.822020 0.747380 0.676169
O O5 0.110364 0.761501 0.792248
O O6 0.163527 0.000000 0.657487
O O7 0.669726 0.500000 0.997089
O O8 0.728926 0.246051 0.896089
O O9 0.608177 0.262758 0.994833
O O10 0.664274 0.267509 0.127741
O O11 0.702258 0.500000 0.197750
O O12 0.930420 0.000000 0.068360
O O13 0.000000 0.756414 0.000000
#
# Coordination Sequence:
#
# PCOD9171288 Si02
#       5
#     8   8   8   8   8
#     4  10  18  29  46  67  95 123 150 191 235 275
#     4   9  17  29  45  68  94 119 152 189 229 277
#     4   9  17  30  45  68  96 121 154 189 228 275
#     4  10  18  27  45  69  96 124 150 188 232 276
#     4   9  16  29  50  71  93 121 152 190 231 270
#
# _framework density 16.449760000000001
#
# number of rings (size 3 to 8) (size 9 to 14) (size 15 to 20)
#    0.000    2.600    2.000    1.200    0.000    1.600 
#    0.000    0.000    0.000    3.600    0.000    8.400 
#    0.000    0.000    0.000    0.000    0.000    0.000 
#
# Total GULP energy -111461.541003 kJ/mol
# GULP energy per Si atom -5573.077050 kJ/mol
# Density = 1.641232 g / cm^3
# Si number density = 16.449760 Si / 1000 Ang^3
#
#
#
# Elastic Constant Matrix: (Units=GPa)
#
#
# Indices 1 2 3 4 5 6 
#
# 1 113.0905 18.6532 83.8532 0.0000 14.2303 0.0000
# 2 18.6532 8.0344 22.7582 0.0000 6.7389 0.0000
# 3 83.8532 22.7582 145.3689 0.0000 27.0955 0.0000
# 4 0.0000 0.0000 0.0000 24.0287 0.0000 3.9271
# 5 14.2303 6.7389 27.0955 0.0000 30.1700 0.0000
# 6 0.0000 0.0000 0.0000 3.9271 0.0000 12.6171
#
#
#
# Elastic Compliance Matrix: (Units=1/GPa)
#
#
# Indices 1 2 3 4 5 6 
#
# 1 0.017530 -0.023512 -0.007048 0.000000 0.003314 0.000000
# 2 -0.023512 0.268318 -0.023228 0.000000 -0.027981 0.000000
# 3 -0.007048 -0.023228 0.015607 0.000000 -0.005504 0.000000
# 4 0.000000 0.000000 0.000000 0.043847 0.000000 -0.013648
# 5 0.003314 -0.027981 -0.005504 0.000000 0.042775 0.000000
# 6 0.000000 0.000000 0.000000 -0.013648 0.000000 0.083505
#
#
# Mechanical properties :
#
#
# Convention : Reuss Voigt Hill
#
# Bulk Modulus (GPa) = 5.15792 57.44701 31.30247
# Shear Modulus (GPa) = 7.76654 22.77843 15.27248
#
# Velocity S-wave (km/s) = 2.17523 3.72523 3.05032
# Velocity P-wave (km/s) = 3.07428 7.31448 5.61038
#
# Compressibility (1/GPa) = 0.19387652
#
# Stress axis : x y z
#
# Youngs Moduli (GPa) = 57.04558 3.72692 64.07313
#
# Poissons Ratio (x) = 0.08763 0.45161
# Poissons Ratio (y) = 1.34128 1.48832
# Poissons Ratio (z) = 0.40208 0.08657
#
# Static dielectric constant tensor:
#      x y z
#    x 1.549190 0.000000 0.026310 
#    y 0.000000 1.558340 0.000000 
#    z 0.026310 0.000000 1.553270 
# 
# From -- ./inp_files/162716.got.cif
#   From: 2010.05.17/outbox.cif.g08.bks.cpg/sg12_82_cif.got.tgz:162716.got - 2010.06.03 13:09:07.
