data_PCOD9171615
_publ_section_title
;
Structure prediction by ZEFSAII (Michael W. Deem and Ramdas Pophale) SiO2 
 PCOD9171615
Probable space group: C 2/M
;
_chemical_formula_sum "Si O2"
_cell_formula_units_Z 56
_cell_length_a 23.118585
_cell_length_b 9.131150
_cell_length_c 16.905980
_cell_angle_alpha 90.000000
_cell_angle_beta 80.567540
_cell_angle_gamma 90.000000
_cell_volume 3520.587398
_symmetry_space_group_name_H-M "C 2/M"
_symmetry_group_IT_number 12
_symmetry_cell_setting 'monoclinic'
loop_
_space_group_symop_operation_xyz
x,y,z
-x,y,-z
-x,-y,-z
x,-y,z
1/2+x,1/2+y,z
1/2-x,1/2+y,-z
1/2-x,1/2-y,-z
1/2+x,1/2-y,z
loop_
_atom_site_type_symbol
_atom_site_label
_atom_site_fract_x
_atom_site_fract_y
_atom_site_fract_z
Si Si1 0.048943 0.670817 0.600207
Si Si2 0.551463 0.676200 0.926114
Si Si3 0.378228 0.675399 0.737224
Si Si4 0.789610 0.674140 0.876602
Si Si5 0.010429 0.824676 0.760171
Si Si6 0.912824 0.328174 0.575179
Si Si7 0.171183 0.673995 0.952369
O O1 0.062086 0.500000 0.610527
O O2 0.049925 0.757188 0.681727
O O3 0.087249 0.721744 0.516363
O O4 0.981121 0.679353 0.586620
O O5 0.560803 0.500000 0.925201
O O6 0.530822 0.719273 0.842804
O O7 0.610558 0.757085 0.937529
O O8 0.500000 0.708983 0.000000
O O9 0.372588 0.500000 0.740581
O O10 0.328760 0.751528 0.800683
O O11 0.442356 0.715263 0.759213
O O12 0.378337 0.734201 0.647262
O O13 0.784693 0.500000 0.865281
O O14 0.725847 0.747516 0.897697
O O15 0.820010 0.698435 0.955464
O O16 0.013518 0.000000 0.754193
O O17 0.896177 0.500000 0.582340
O O18 0.173015 0.500000 0.937953
#
# Coordination Sequence:
#
# PCOD9171615 Si02
#       7
#     8   8   8   8   8   8   8
#     4   8  14  25  41  60  87 123 157 190 228 273
#     4  10  20  34  50  68  95 129 159 189 229 275
#     4  10  18  28  45  70  97 124 156 193 230 270
#     4  10  20  34  51  69  92 122 153 190 236 280
#     4   9  18  29  43  66  95 127 159 191 230 274
#     4   8  14  25  40  61  90 122 154 188 231 277
#     4  10  21  35  51  71  92 118 156 197 233 271
#
# _framework density 15.906438
#
# number of rings (size 3 to 8) (size 9 to 14) (size 15 to 20)
#    0.000    2.714    0.000    3.000    0.000    4.857 
#    0.000    2.857    0.000    0.000    0.000    1.000 
#    0.000    0.000    0.000    0.000    0.000    0.000 
#
# Total GULP energy -156032.401727 kJ/mol
# GULP energy per Si atom -5572.585776 kJ/mol
# Density = 1.587023 g / cm^3
# Si number density = 15.906438 Si / 1000 Ang^3
#
#
#
# Elastic Constant Matrix: (Units=GPa)
#
#
# Indices 1 2 3 4 5 6 
#
# 1 76.3487 43.6885 69.6090 0.0000 -10.3696 0.0000
# 2 43.6885 54.9088 71.6146 0.0000 -13.3901 0.0000
# 3 69.6090 71.6146 164.2060 0.0000 -19.7497 0.0000
# 4 0.0000 0.0000 0.0000 30.7712 0.0000 -3.4283
# 5 -10.3696 -13.3901 -19.7497 0.0000 23.3832 0.0000
# 6 0.0000 0.0000 0.0000 -3.4283 0.0000 23.8758
#
#
#
# Elastic Compliance Matrix: (Units=1/GPa)
#
#
# Indices 1 2 3 4 5 6 
#
# 1 0.025438 -0.014500 -0.004565 0.000000 -0.000878 0.000000
# 2 -0.014500 0.052533 -0.015494 0.000000 0.010566 0.000000
# 3 -0.004565 -0.015494 0.014995 0.000000 0.001768 0.000000
# 4 0.000000 0.000000 0.000000 0.033026 0.000000 0.004742
# 5 -0.000878 0.010566 0.001768 0.000000 0.049920 0.000000
# 6 0.000000 0.000000 0.000000 0.004742 0.000000 0.042564
#
#
# Mechanical properties :
#
#
# Convention : Reuss Voigt Hill
#
# Bulk Modulus (GPa) = 41.93097 73.92085 57.92591
# Shear Modulus (GPa) = 16.91798 22.97613 19.94705
#
# Velocity S-wave (km/s) = 3.26482 3.80472 3.54506
# Velocity P-wave (km/s) = 6.37419 8.11630 7.29742
#
# Compressibility (1/GPa) = 0.02384872
#
# Stress axis : x y z
#
# Youngs Moduli (GPa) = 39.31136 19.03571 66.68846
#
# Poissons Ratio (x) = 0.27601 0.30446
# Poissons Ratio (y) = 0.57000 1.03324
# Poissons Ratio (z) = 0.17947 0.29493
#
# Static dielectric constant tensor:
#      x y z
#    x 1.502870 0.000000 0.002830 
#    y 0.000000 1.528500 0.000000 
#    z 0.002830 0.000000 1.542170 
# 
# From -- ./inp_files/280199.got.cif
#   From: 2010.05.17/outbox.cif.g08.bks.cpg/sg12_141_cif.got.tgz:280199.got - 2010.06.03 13:09:07.
