data_PCOD9171127
_publ_section_title
;
Structure prediction by ZEFSAII (Michael W. Deem and Ramdas Pophale) SiO2 
 PCOD9171127
Probable space group: C 2/M
;
_chemical_formula_sum "Si O2"
_cell_formula_units_Z 64
_cell_length_a 28.476825
_cell_length_b 15.028603
_cell_length_c 10.025477
_cell_angle_alpha 90.000000
_cell_angle_beta 99.849018
_cell_angle_gamma 90.000000
_cell_volume 4227.337488
_symmetry_space_group_name_H-M "C 2/M"
_symmetry_group_IT_number 12
_symmetry_cell_setting 'monoclinic'
loop_
_space_group_symop_operation_xyz
x,y,z
-x,y,-z
-x,-y,-z
x,-y,z
1/2+x,1/2+y,z
1/2-x,1/2+y,-z
1/2-x,1/2-y,-z
1/2+x,1/2-y,z
loop_
_atom_site_type_symbol
_atom_site_label
_atom_site_fract_x
_atom_site_fract_y
_atom_site_fract_z
Si Si1 0.778001 0.397758 0.059019
Si Si2 0.816189 0.097622 0.455564
Si Si3 0.253840 0.654784 0.669773
Si Si4 0.384206 0.106493 0.219243
Si Si5 0.373194 0.897682 0.734552
Si Si6 0.853211 0.294593 0.460745
Si Si7 0.730658 0.149908 0.230527
Si Si8 0.553492 0.107915 0.998637
O O1 0.773851 0.500000 0.013757
O O2 0.750632 0.385981 0.185143
O O3 0.833278 0.380015 0.121010
O O4 0.761656 0.341564 0.924008
O O5 0.787383 0.106369 0.581034
O O6 0.847435 0.187560 0.457140
O O7 0.775484 0.103611 0.321894
O O8 0.160534 0.000000 0.539848
O O9 0.200398 0.664887 0.584871
O O10 0.272456 0.754331 0.701074
O O11 0.382502 0.165576 0.350807
O O12 0.387312 0.000000 0.251185
O O13 0.424956 0.132600 0.134322
O O14 0.373418 0.833838 0.607282
O O15 0.319821 0.896289 0.768676
O O16 0.410064 0.867351 0.865990
O O17 0.384263 0.000000 0.701559
O O18 0.552888 0.000000 0.998379
O O19 0.500000 0.139589 0.000000
#
# Coordination Sequence:
#
# PCOD9171127 Si02
#       8
#     8   8   8   8   8   8   8   8
#     4  10  18  27  41  62  86 121 160 186 216 258
#     4  11  20  31  44  61  92 126 158 197 231 253
#     4  10  19  30  41  61  90 122 157 197 227 249
#     4   9  17  29  46  66  92 122 148 181 220 265
#     4  11  18  28  48  68  90 121 152 183 216 267
#     4  10  19  31  43  66  90 121 161 188 221 262
#     4  11  18  29  42  63  88 122 162 192 216 259
#     4   9  18  32  49  71  96 119 143 176 225 277
#
# _framework density 15.139552999999999
#
# number of rings (size 3 to 8) (size 9 to 14) (size 15 to 20)
#    0.000    1.875    3.750    3.000    0.000    1.000 
#    0.000    0.625    0.000    3.000    0.000    0.000 
#    0.000    3.000    0.000    0.000    0.000    0.000 
#
# Total GULP energy -178389.310467 kJ/mol
# GULP energy per Si atom -5574.665952 kJ/mol
# Density = 1.510510 g / cm^3
# Si number density = 15.139553 Si / 1000 Ang^3
#
#
#
# Elastic Constant Matrix: (Units=GPa)
#
#
# Indices 1 2 3 4 5 6 
#
# 1 60.0338 21.6223 40.5273 0.0000 -13.2664 0.0000
# 2 21.6223 70.6096 37.5492 0.0000 -6.8867 0.0000
# 3 40.5273 37.5492 108.9844 0.0000 -20.7123 0.0000
# 4 0.0000 0.0000 0.0000 10.8075 0.0000 -0.6700
# 5 -13.2664 -6.8867 -20.7123 0.0000 17.8459 0.0000
# 6 0.0000 0.0000 0.0000 -0.6700 0.0000 11.0645
#
#
#
# Elastic Compliance Matrix: (Units=1/GPa)
#
#
# Indices 1 2 3 4 5 6 
#
# 1 0.023985 -0.003227 -0.005973 0.000000 0.009653 0.000000
# 2 -0.003227 0.017775 -0.005230 0.000000 -0.001610 0.000000
# 3 -0.005973 -0.005230 0.015359 0.000000 0.011368 0.000000
# 4 0.000000 0.000000 0.000000 0.092877 0.000000 0.005624
# 5 0.009653 -0.001610 0.011368 0.000000 0.075783 0.000000
# 6 0.000000 0.000000 0.000000 0.005624 0.000000 0.090720
#
#
# Mechanical properties :
#
#
# Convention : Reuss Voigt Hill
#
# Bulk Modulus (GPa) = 35.38704 48.78062 42.08383
# Shear Modulus (GPa) = 14.09337 17.27220 15.68278
#
# Velocity S-wave (km/s) = 3.05437 3.38133 3.22200
# Velocity P-wave (km/s) = 5.98862 6.89457 6.45750
#
# Compressibility (1/GPa) = 0.02825894
#
# Stress axis : x y z
#
# Youngs Moduli (GPa) = 41.69336 56.25940 65.10851
#
# Poissons Ratio (x) = 0.18155 0.38888
# Poissons Ratio (y) = 0.13455 0.34052
# Poissons Ratio (z) = 0.24902 0.29424
#
# Static dielectric constant tensor:
#      x y z
#    x 1.486580 0.000000 -0.021190 
#    y 0.000000 1.522270 0.000000 
#    z -0.021190 0.000000 1.521470 
# 
# From -- ./inp_files/104641.got.cif
#   From: 2010.05.17/outbox.cif.g08.bks.cpg/sg12_53_cif.got.tgz:104641.got - 2010.06.03 13:09:07.
