data_PCOD9171611
_publ_section_title
;
Structure prediction by ZEFSAII (Michael W. Deem and Ramdas Pophale) SiO2 
 PCOD9171611
Probable space group: C 2/M
;
_chemical_formula_sum "Si O2"
_cell_formula_units_Z 48
_cell_length_a 28.525785
_cell_length_b 9.076644
_cell_length_c 12.370429
_cell_angle_alpha 90.000000
_cell_angle_beta 70.401544
_cell_angle_gamma 90.000000
_cell_volume 3017.374561
_symmetry_space_group_name_H-M "C 2/M"
_symmetry_group_IT_number 12
_symmetry_cell_setting 'monoclinic'
loop_
_space_group_symop_operation_xyz
x,y,z
-x,y,-z
-x,-y,-z
x,-y,z
1/2+x,1/2+y,z
1/2-x,1/2+y,-z
1/2-x,1/2-y,-z
1/2+x,1/2-y,z
loop_
_atom_site_type_symbol
_atom_site_label
_atom_site_fract_x
_atom_site_fract_y
_atom_site_fract_z
Si Si1 0.278263 0.323247 0.577789
Si Si2 0.330342 0.324798 0.936845
Si Si3 0.884379 0.325669 0.531401
Si Si4 0.760802 0.324848 0.155300
Si Si5 0.981965 0.830090 0.388514
Si Si6 0.420122 0.825903 0.752138
O O1 0.280354 0.500000 0.565125
O O2 0.250000 0.250000 0.500000
O O3 0.333604 0.257991 0.544812
O O4 0.249907 0.289406 0.712177
O O5 0.337212 0.500000 0.936371
O O6 0.289295 0.292940 0.874908
O O7 0.381125 0.245775 0.864362
O O8 0.305335 0.263472 0.065034
O O9 0.879461 0.500000 0.515522
O O10 0.930444 0.258504 0.428927
O O11 0.897821 0.305399 0.648038
O O12 0.770181 0.500000 0.137759
O O13 0.000000 0.829316 0.500000
O O14 0.026287 0.752318 0.289149
O O15 0.975232 0.000000 0.361632
O O16 0.425238 0.000000 0.766202
#
# Coordination Sequence:
#
# PCOD9171611 Si02
#       6
#     8   8   8   8   8   8
#     4  11  22  36  52  71  97 130 169 207 245 288
#     4  10  18  29  48  71  97 128 162 198 243 295
#     4  10  19  31  47  68  96 129 164 202 244 289
#     4   9  19  33  47  67  96 128 162 201 245 290
#     4   9  17  28  44  66  95 128 161 197 241 291
#     4  10  18  28  45  70 100 130 161 196 241 295
#
# _framework density 15.907868000000001
#
# number of rings (size 3 to 8) (size 9 to 14) (size 15 to 20)
#    0.000    2.167    1.667    2.500    0.000    5.333 
#    0.000    0.000    0.000    0.000    0.000    1.167 
#    0.000    9.333    0.000    0.000    0.000    0.000 
#
# Total GULP energy -133889.192180 kJ/mol
# GULP energy per Si atom -5578.716341 kJ/mol
# Density = 1.587166 g / cm^3
# Si number density = 15.907868 Si / 1000 Ang^3
#
#
#
# Elastic Constant Matrix: (Units=GPa)
#
#
# Indices 1 2 3 4 5 6 
#
# 1 70.4356 63.3810 67.9706 0.0000 -25.6116 0.0000
# 2 63.3810 99.8891 74.1529 0.0000 -24.0585 0.0000
# 3 67.9706 74.1529 110.7416 0.0000 -30.2262 0.0000
# 4 0.0000 0.0000 0.0000 26.9633 0.0000 -8.5664
# 5 -25.6116 -24.0585 -30.2262 0.0000 34.8710 0.0000
# 6 0.0000 0.0000 0.0000 -8.5664 0.0000 28.5933
#
#
#
# Elastic Compliance Matrix: (Units=1/GPa)
#
#
# Indices 1 2 3 4 5 6 
#
# 1 0.047332 -0.016056 -0.015503 0.000000 0.010248 0.000000
# 2 -0.016056 0.025572 -0.007429 0.000000 -0.000589 0.000000
# 3 -0.015503 -0.007429 0.024906 0.000000 0.005076 0.000000
# 4 0.000000 0.000000 0.000000 0.040989 0.000000 0.012280
# 5 0.010248 -0.000589 0.005076 0.000000 0.040198 0.000000
# 6 0.000000 0.000000 0.000000 0.012280 0.000000 0.038652
#
#
# Mechanical properties :
#
#
# Convention : Reuss Voigt Hill
#
# Bulk Modulus (GPa) = 50.42006 76.89726 63.65866
# Shear Modulus (GPa) = 16.54341 23.12298 19.83320
#
# Velocity S-wave (km/s) = 3.22833 3.81669 3.53477
# Velocity P-wave (km/s) = 6.75722 8.23814 7.53415
#
# Compressibility (1/GPa) = 0.01983338
#
# Stress axis : x y z
#
# Youngs Moduli (GPa) = 21.12737 39.10546 40.15176
#
# Poissons Ratio (x) = 0.62787 0.62247
# Poissons Ratio (y) = 0.33922 0.29830
# Poissons Ratio (z) = 0.32754 0.29052
#
# Static dielectric constant tensor:
#      x y z
#    x 1.506540 0.000000 -0.007180 
#    y 0.000000 1.525790 0.000000 
#    z -0.007180 0.000000 1.516110 
# 
# From -- ./inp_files/172073.got.cif
#   From: 2010.05.17/outbox.cif.g08.bks.cpg/sg12_87_cif.got.tgz:172073.got - 2010.06.03 13:09:07.
