data_PCOD9171499
_publ_section_title
;
Structure prediction by ZEFSAII (Michael W. Deem and Ramdas Pophale) SiO2 
 PCOD9171499
Probable space group: C 2/M
;
_chemical_formula_sum "Si O2"
_cell_formula_units_Z 56
_cell_length_a 20.803391
_cell_length_b 9.253751
_cell_length_c 24.869413
_cell_angle_alpha 90.000000
_cell_angle_beta 46.495978
_cell_angle_gamma 90.000000
_cell_volume 3472.567931
_symmetry_space_group_name_H-M "C 2/M"
_symmetry_group_IT_number 12
_symmetry_cell_setting 'monoclinic'
loop_
_space_group_symop_operation_xyz
x,y,z
-x,y,-z
-x,-y,-z
x,-y,z
1/2+x,1/2+y,z
1/2-x,1/2+y,-z
1/2-x,1/2-y,-z
1/2+x,1/2-y,z
loop_
_atom_site_type_symbol
_atom_site_label
_atom_site_fract_x
_atom_site_fract_y
_atom_site_fract_z
Si Si1 0.233958 0.173413 0.952514
Si Si2 0.087959 0.328320 0.207390
Si Si3 0.457529 0.332421 0.355988
Si Si4 0.550139 0.170602 0.810773
Si Si5 0.181664 0.834058 0.664209
Si Si6 0.967564 0.173451 0.959524
Si Si7 0.180743 0.326341 0.499426
O O1 0.312476 0.212957 0.866176
O O2 0.136119 0.208969 0.988128
O O3 0.239567 0.000000 0.956917
O O4 0.250000 0.250000 0.000000
O O5 0.083882 0.500000 0.221233
O O6 0.044816 0.240347 0.280976
O O7 0.026926 0.303168 0.189562
O O8 0.469788 0.500000 0.363071
O O9 0.386775 0.327826 0.347032
O O10 0.412753 0.242474 0.430053
O O11 0.640247 0.231925 0.732905
O O12 0.556032 0.000000 0.815801
O O13 0.522440 0.250564 0.880890
O O14 0.277276 0.798063 0.583520
O O15 0.182494 0.000000 0.682578
O O16 0.977057 0.000000 0.948577
O O17 0.000000 0.215143 0.000000
O O18 0.180949 0.500000 0.507448
O O19 0.250000 0.250000 0.500000
#
# Coordination Sequence:
#
# PCOD9171499 Si02
#       7
#     8   8   8   8   8   8   8
#     4  10  19  32  50  70  92 119 156 197 235 279
#     4   9  17  28  42  63  88 115 150 190 231 271
#     4   9  16  24  36  56  83 116 149 183 226 271
#     4  10  18  28  44  65  88 116 152 193 234 272
#     4   8  15  25  37  55  81 115 151 184 222 270
#     4  10  21  35  50  68  93 125 156 191 237 285
#     4   9  15  23  35  53  80 115 151 184 223 269
#
# _framework density 16.126394000000001
#
# number of rings (size 3 to 8) (size 9 to 14) (size 15 to 20)
#    0.000    2.714    1.429    2.143    0.000    5.429 
#    0.000    0.000    0.000    0.000    0.000    0.000 
#    0.000    1.143    0.000   13.143    0.000    7.143 
#
# Total GULP energy -155940.124707 kJ/mol
# GULP energy per Si atom -5569.290168 kJ/mol
# Density = 1.608969 g / cm^3
# Si number density = 16.126394 Si / 1000 Ang^3
#
#
#
# Elastic Constant Matrix: (Units=GPa)
#
#
# Indices 1 2 3 4 5 6 
#
# 1 46.8591 30.6952 46.8412 0.0000 -3.9437 0.0000
# 2 30.6952 65.8997 80.6302 0.0000 -5.0856 -0.0001
# 3 46.8412 80.6302 173.6995 0.0000 -23.2283 0.0000
# 4 0.0000 0.0000 0.0000 33.8524 0.0000 -1.2259
# 5 -3.9437 -5.0856 -23.2283 0.0000 12.3468 0.0000
# 6 0.0000 -0.0001 0.0000 -1.2259 0.0000 8.9766
#
#
#
# Elastic Compliance Matrix: (Units=1/GPa)
#
#
# Indices 1 2 3 4 5 6 
#
# 1 0.031869 -0.009603 -0.004415 0.000000 -0.002082 0.000000
# 2 -0.009603 0.042959 -0.020571 0.000000 -0.024073 0.000000
# 3 -0.004415 -0.020571 0.020276 0.000000 0.028262 0.000000
# 4 0.000000 0.000000 0.000000 0.029687 0.000000 0.004054
# 5 -0.002082 -0.024073 0.028262 0.000000 0.123583 0.000000
# 6 0.000000 0.000000 0.000000 0.004054 0.000000 0.111954
#
#
# Mechanical properties :
#
#
# Convention : Reuss Voigt Hill
#
# Bulk Modulus (GPa) = 38.57102 66.97682 52.77392
# Shear Modulus (GPa) = 11.41172 19.58793 15.49982
#
# Velocity S-wave (km/s) = 2.66304 3.48896 3.10360
# Velocity P-wave (km/s) = 5.78149 7.60612 6.75569
#
# Compressibility (1/GPa) = 0.02592620
#
# Stress axis : x y z
#
# Youngs Moduli (GPa) = 31.37839 23.27823 49.32026
#
# Poissons Ratio (x) = 0.22355 0.21773
# Poissons Ratio (y) = 0.30134 1.01454
# Poissons Ratio (z) = 0.13852 0.47885
#
# Static dielectric constant tensor:
#      x y z
#    x 1.516670 0.000000 -0.024890 
#    y 0.000000 1.535530 0.000000 
#    z -0.024890 0.000000 1.556850 
# 
# From -- ./inp_files/287024.got.cif
#   From: 2010.05.17/outbox.cif.g08.bks.cpg/sg12_144_cif.got.tgz:287024.got - 2010.06.03 13:09:07.
