data_PCOD9171641
_publ_section_title
;
Structure prediction by ZEFSAII (Michael W. Deem and Ramdas Pophale) SiO2 
 PCOD9171641
Probable space group: C 2/M
;
_chemical_formula_sum "Si O2"
_cell_formula_units_Z 56
_cell_length_a 27.940735
_cell_length_b 7.605677
_cell_length_c 13.909547
_cell_angle_alpha 90.000000
_cell_angle_beta 57.785006
_cell_angle_gamma 90.000000
_cell_volume 2500.844061
_symmetry_space_group_name_H-M "C 2/M"
_symmetry_group_IT_number 12
_symmetry_cell_setting 'monoclinic'
loop_
_space_group_symop_operation_xyz
x,y,z
-x,y,-z
-x,-y,-z
x,-y,z
1/2+x,1/2+y,z
1/2-x,1/2+y,-z
1/2-x,1/2-y,-z
1/2+x,1/2-y,z
loop_
_atom_site_type_symbol
_atom_site_label
_atom_site_fract_x
_atom_site_fract_y
_atom_site_fract_z
Si Si1 0.117573 0.284041 0.731011
Si Si2 0.281515 0.288419 0.867723
Si Si3 0.090859 0.792542 0.266757
Si Si4 0.991837 0.302064 0.247300
Si Si5 0.181608 0.711571 0.467820
Si Si6 0.788073 0.294498 0.238803
Si Si7 0.569164 0.295955 0.494665
O O1 0.115687 0.500000 0.733491
O O2 0.053635 0.221462 0.778151
O O3 0.155827 0.233807 0.597793
O O4 0.152056 0.223187 0.787414
O O5 0.285032 0.500000 0.852067
O O6 0.345830 0.219861 0.805973
O O7 0.244366 0.217487 0.818421
O O8 0.250000 0.250000 0.000000
O O9 0.060061 0.725503 0.396930
O O10 0.052275 0.771723 0.214196
O O11 0.095397 0.000000 0.279562
O O12 0.002322 0.500000 0.204252
O O13 0.957326 0.300042 0.385506
O O14 0.182149 0.500000 0.463127
O O15 0.243064 0.779955 0.374141
O O16 0.136758 0.783962 0.438285
O O17 0.797763 0.500000 0.208052
O O18 0.550793 0.500000 0.522690
#
# Coordination Sequence:
#
# PCOD9171641 Si02
#       7
#     8   8   8   8   8   8   8
#     4   8  17  31  48  73 107 140 173 208 245 302
#     4  10  22  39  58  80 101 128 174 223 271 314
#     4  10  20  35  52  73 101 137 177 212 254 315
#     4  10  20  32  48  78 110 138 173 211 253 300
#     4  10  18  28  45  76 110 137 172 215 255 299
#     4  10  18  34  55  72  99 140 174 209 260 316
#     4  10  18  31  49  71 104 145 182 209 248 308
#
# _framework density 22.392439
#
# number of rings (size 3 to 8) (size 9 to 14) (size 15 to 20)
#    0.000    2.286    1.429    3.000    0.000    4.000 
#    0.000    3.571    0.000    0.857    0.000    6.000 
#    0.000    0.000    0.000    0.000    0.000    0.000 
#
# Total GULP energy -156215.478202 kJ/mol
# GULP energy per Si atom -5579.124222 kJ/mol
# Density = 2.234147 g / cm^3
# Si number density = 22.392439 Si / 1000 Ang^3
#
#
#
# Elastic Constant Matrix: (Units=GPa)
#
#
# Indices 1 2 3 4 5 6 
#
# 1 222.8703 4.2772 34.5664 0.0001 12.4570 0.0001
# 2 4.2772 48.8112 -1.2175 0.0009 3.1269 0.0011
# 3 34.5664 -1.2175 37.2459 0.0000 -1.1012 0.0000
# 4 0.0001 0.0009 0.0000 -2.7137 0.0000 -29.3710
# 5 12.4570 3.1269 -1.1012 0.0000 14.0708 0.0000
# 6 0.0001 0.0011 0.0000 -29.3710 0.0000 -19.9733
#
#
#
# Elastic Compliance Matrix: (Units=1/GPa)
#
#
# Indices 1 2 3 4 5 6 
#
# 1 0.005627 -0.000285 -0.005389 0.000000 -0.005340 0.000000
# 2 -0.000285 0.020808 0.000818 0.000000 -0.004308 0.000001
# 3 -0.005389 0.000818 0.032087 0.000000 0.007100 0.000000
# 4 0.000000 0.000000 0.000000 0.024706 0.000000 -0.036330
# 5 -0.005340 -0.004308 0.007100 0.000000 0.077309 0.000000
# 6 0.000000 0.000001 0.000000 -0.036330 0.000000 0.003357
#
#
# Mechanical properties :
#
#
# Convention : Reuss Voigt Hill
#
# Bulk Modulus (GPa) = 20.48835 42.68662 31.58749
# Shear Modulus (GPa) = 26.33293 16.36350 21.34822
#
# Velocity S-wave (km/s) = 3.43297 2.70619 3.09101
# Velocity P-wave (km/s) = 4.98831 5.37299 5.18422
#
# Compressibility (1/GPa) = 0.04880821
#
# Stress axis : x y z
#
# Youngs Moduli (GPa) = 177.72493 48.05739 31.16564
#
# Poissons Ratio (x) = 0.01372 0.16795
# Poissons Ratio (y) = 0.05072 -0.02548
# Poissons Ratio (z) = 0.95778 -0.03930
#
# Static dielectric constant tensor:
#      x y z
#    x 1.941670 0.000000 0.002680 
#    y 0.000000 1.861210 0.000000 
#    z 0.002680 0.000000 1.783870 
# 
# From -- ./inp_files/187209.got.cif
#   From: 2010.05.17/outbox.cif.g08.bks.cpg/sg12_94_cif.got.tgz:187209.got - 2010.06.03 13:09:07.
