data_PCOD9171062
_publ_section_title
;
Structure prediction by ZEFSAII (Michael W. Deem and Ramdas Pophale) SiO2 
 PCOD9171062
Probable space group: C 2/M
;
_chemical_formula_sum "Si O2"
_cell_formula_units_Z 64
_cell_length_a 25.360795
_cell_length_b 7.504866
_cell_length_c 21.782301
_cell_angle_alpha 90.000000
_cell_angle_beta 128.345878
_cell_angle_gamma 90.000000
_cell_volume 3251.476481
_symmetry_space_group_name_H-M "C 2/M"
_symmetry_group_IT_number 12
_symmetry_cell_setting 'monoclinic'
loop_
_space_group_symop_operation_xyz
x,y,z
-x,y,-z
-x,-y,-z
x,-y,z
1/2+x,1/2+y,z
1/2-x,1/2+y,-z
1/2-x,1/2-y,-z
1/2+x,1/2-y,z
loop_
_atom_site_type_symbol
_atom_site_label
_atom_site_fract_x
_atom_site_fract_y
_atom_site_fract_z
Si Si1 0.632425 0.717489 0.451164
Si Si2 0.281904 0.289615 0.373036
Si Si3 0.010838 0.785417 0.800332
Si Si4 0.361240 0.714652 0.684555
Si Si5 0.347425 0.209189 0.057737
Si Si6 0.840429 0.780663 0.286718
Si Si7 0.519144 0.716656 0.665159
Si Si8 0.238118 0.204775 0.888082
O O1 0.634531 0.500000 0.451279
O O2 0.682918 0.782502 0.539859
O O3 0.648340 0.776245 0.393113
O O4 0.555365 0.769447 0.409950
O O5 0.296404 0.500000 0.383295
O O6 0.202197 0.267468 0.321108
O O7 0.312815 0.219536 0.332212
O O8 0.072809 0.729797 0.887191
O O9 0.025861 0.726811 0.741111
O O10 0.935026 0.724899 0.759931
O O11 0.010358 0.000000 0.799691
O O12 0.363022 0.500000 0.684227
O O13 0.318787 0.292347 0.099867
O O14 0.331475 0.000000 0.051104
O O15 0.304003 0.281991 0.969308
O O16 0.916887 0.725031 0.327646
O O17 0.793326 0.718301 0.196465
O O18 0.840206 0.000000 0.285552
O O19 0.519687 0.500000 0.665723
O O20 0.254466 0.000000 0.884987
#
# Coordination Sequence:
#
# PCOD9171062 Si02
#       8
#     8   8   8   8   8   8   8   8
#     4   8  15  27  44  69  93 112 148 195 229 261
#     4  10  19  29  45  70  93 116 152 195 227 256
#     4   9  16  29  49  67  88 120 153 184 223 273
#     4   9  18  32  49  66  88 122 156 185 226 275
#     4  10  18  26  44  73  96 114 145 189 229 262
#     4   9  16  27  45  66  92 125 153 178 218 271
#     4   8  13  24  44  66  89 118 148 180 221 267
#     4   9  17  30  45  64  95 128 151 174 215 276
#
# _framework density 19.683365999999999
#
# number of rings (size 3 to 8) (size 9 to 14) (size 15 to 20)
#    0.000    3.000    1.250    2.250    0.000    1.500 
#    0.000    3.125    0.000    1.500    0.000    6.125 
#    0.000    0.000    0.000    0.000    0.000    0.000 
#
# Total GULP energy -178413.934690 kJ/mol
# GULP energy per Si atom -5575.435459 kJ/mol
# Density = 1.963857 g / cm^3
# Si number density = 19.683366 Si / 1000 Ang^3
#
#
#
# Elastic Constant Matrix: (Units=GPa)
#
#
# Indices 1 2 3 4 5 6 
#
# 1 104.2792 -6.3592 22.0380 0.0000 20.3859 0.0000
# 2 -6.3592 50.4107 -4.8837 -0.0001 -3.8523 -0.0001
# 3 22.0380 -4.8837 50.5043 0.0000 25.7116 0.0000
# 4 0.0000 -0.0001 0.0000 6.0760 0.0000 4.7950
# 5 20.3859 -3.8523 25.7116 0.0000 23.7511 0.0000
# 6 0.0000 -0.0001 0.0000 4.7950 0.0000 12.1754
#
#
#
# Elastic Compliance Matrix: (Units=1/GPa)
#
#
# Indices 1 2 3 4 5 6 
#
# 1 0.011548 0.000709 0.000038 0.000000 -0.009838 0.000000
# 2 0.000709 0.020139 0.000635 0.000000 0.001971 0.000000
# 3 0.000038 0.000635 0.044131 0.000000 -0.047703 0.000000
# 4 0.000000 0.000000 0.000000 0.238800 0.000000 -0.094045
# 5 -0.009838 0.001971 -0.047703 0.000000 0.102508 0.000000
# 6 0.000000 0.000000 0.000000 -0.094045 0.000000 0.119170
#
#
# Mechanical properties :
#
#
# Convention : Reuss Voigt Hill
#
# Bulk Modulus (GPa) = 12.72588 25.19827 18.96207
# Shear Modulus (GPa) = 8.93294 21.36044 15.14669
#
# Velocity S-wave (km/s) = 2.13264 3.29781 2.77703
# Velocity P-wave (km/s) = 3.54169 5.22785 4.46508
#
# Compressibility (1/GPa) = 0.07858005
#
# Stress axis : x y z
#
# Youngs Moduli (GPa) = 86.59418 49.65598 22.65996
#
# Poissons Ratio (x) = -0.03519 -0.00086
# Poissons Ratio (y) = -0.06136 -0.01438
# Poissons Ratio (z) = -0.00329 -0.03152
#
# Static dielectric constant tensor:
#      x y z
#    x 1.661220 0.000000 0.020640 
#    y 0.000000 1.778090 0.000000 
#    z 0.020640 0.000000 1.712460 
# 
# From -- ./inp_files/348565.got.cif
#   From: 2010.05.17/outbox.cif.g08.bks.cpg/sg12_175_cif.got.tgz:348565.got - 2010.06.03 13:09:07.
