data_PCOD9171508
_publ_section_title
;
Structure prediction by ZEFSAII (Michael W. Deem and Ramdas Pophale) SiO2 
 PCOD9171508
Probable space group: C 2/M
;
_chemical_formula_sum "Si O2"
_cell_formula_units_Z 56
_cell_length_a 24.375242
_cell_length_b 8.990250
_cell_length_c 18.164757
_cell_angle_alpha 90.000000
_cell_angle_beta 117.251102
_cell_angle_gamma 90.000000
_cell_volume 3538.800907
_symmetry_space_group_name_H-M "C 2/M"
_symmetry_group_IT_number 12
_symmetry_cell_setting 'monoclinic'
loop_
_space_group_symop_operation_xyz
x,y,z
-x,y,-z
-x,-y,-z
x,-y,z
1/2+x,1/2+y,z
1/2-x,1/2+y,-z
1/2-x,1/2-y,-z
1/2+x,1/2-y,z
loop_
_atom_site_type_symbol
_atom_site_label
_atom_site_fract_x
_atom_site_fract_y
_atom_site_fract_z
Si Si1 0.427237 0.175745 0.943941
Si Si2 0.333968 0.170039 0.611144
Si Si3 0.851147 0.822733 0.770769
Si Si4 0.340931 0.675810 0.011349
Si Si5 0.814627 0.170831 0.453701
Si Si6 0.299422 0.824266 0.132882
Si Si7 0.781633 0.820722 0.274441
O O1 0.402990 0.258829 0.856467
O O2 0.413584 0.000000 0.929271
O O3 0.500000 0.194924 0.000000
O O4 0.389873 0.243855 0.989414
O O5 0.360745 0.271333 0.692519
O O6 0.259529 0.172654 0.577496
O O7 0.344547 0.230069 0.535502
O O8 0.354219 0.000000 0.632279
O O9 0.786208 0.750598 0.756847
O O10 0.846932 0.000000 0.773670
O O11 0.353397 0.500000 0.024131
O O12 0.336509 0.749588 0.088899
O O13 0.273100 0.693480 0.932832
O O14 0.820021 0.217626 0.371937
O O15 0.834910 0.000000 0.474216
O O16 0.309240 0.743370 0.216473
O O17 0.312035 0.000000 0.145501
O O18 0.775736 0.000000 0.268215
#
# Coordination Sequence:
#
# PCOD9171508 Si02
#       7
#     8   8   8   8   8   8   8
#     4  11  23  37  52  69  92 122 157 199 241 280
#     4   9  16  26  40  58  83 117 152 188 226 270
#     4  11  20  30  45  64  88 120 156 193 232 278
#     4  10  20  33  49  69  92 122 156 194 236 278
#     4   8  15  25  37  58  86 118 151 184 224 269
#     4  10  19  30  47  70  95 124 156 193 233 279
#     4  10  18  28  44  65  93 124 155 191 229 276
#
# _framework density 15.824571000000001
#
# number of rings (size 3 to 8) (size 9 to 14) (size 15 to 20)
#    0.000    2.143    1.429    4.286    0.000    6.286 
#    0.000    0.000    0.000    0.000    0.000    0.000 
#    0.000    1.143    0.000   12.000    0.000    5.429 
#
# Total GULP energy -156146.499677 kJ/mol
# GULP energy per Si atom -5576.660703 kJ/mol
# Density = 1.578855 g / cm^3
# Si number density = 15.824571 Si / 1000 Ang^3
#
#
#
# Elastic Constant Matrix: (Units=GPa)
#
#
# Indices 1 2 3 4 5 6 
#
# 1 38.3573 44.5926 41.8131 0.0000 -12.7227 0.0000
# 2 44.5926 117.4816 69.6727 0.0000 -17.2739 0.0000
# 3 41.8131 69.6727 118.3522 0.0000 -37.1283 0.0000
# 4 0.0000 0.0000 0.0000 29.6582 0.0000 -8.2692
# 5 -12.7227 -17.2739 -37.1283 0.0000 23.9821 0.0000
# 6 0.0000 0.0000 0.0000 -8.2692 0.0000 18.1516
#
#
#
# Elastic Compliance Matrix: (Units=1/GPa)
#
#
# Indices 1 2 3 4 5 6 
#
# 1 0.054609 -0.014485 -0.009625 0.000000 0.003636 0.000000
# 2 -0.014485 0.017218 -0.006880 0.000000 -0.005934 0.000000
# 3 -0.009625 -0.006880 0.024777 0.000000 0.028297 0.000000
# 4 0.000000 0.000000 0.000000 0.038623 0.000000 0.017595
# 5 0.003636 -0.005934 0.028297 0.000000 0.083161 0.000000
# 6 0.000000 0.000000 0.000000 0.017595 0.000000 0.063107
#
#
# Mechanical properties :
#
#
# Convention : Reuss Voigt Hill
#
# Bulk Modulus (GPa) = 28.88236 65.14976 47.01606
# Shear Modulus (GPa) = 14.08382 22.23258 18.15820
#
# Velocity S-wave (km/s) = 2.98652 3.75232 3.39111
# Velocity P-wave (km/s) = 5.49396 7.74807 6.71626
#
# Compressibility (1/GPa) = 0.03462321
#
# Stress axis : x y z
#
# Youngs Moduli (GPa) = 18.31209 58.07943 40.35964
#
# Poissons Ratio (x) = 0.84129 0.38846
# Poissons Ratio (y) = 0.26525 0.27768
# Poissons Ratio (z) = 0.17625 0.39959
#
# Static dielectric constant tensor:
#      x y z
#    x 1.499270 0.000000 -0.022580 
#    y 0.000000 1.528410 0.000000 
#    z -0.022580 0.000000 1.540530 
# 
# From -- ./inp_files/287896.got.cif
#   From: 2010.05.17/outbox.cif.g08.bks.cpg/sg12_144_cif.got.tgz:287896.got - 2010.06.03 13:09:07.
