data_PCOD9171447
_publ_section_title
;
Structure prediction by ZEFSAII (Michael W. Deem and Ramdas Pophale) SiO2 
 PCOD9171447
Probable space group: C 2/M
;
_chemical_formula_sum "Si O2"
_cell_formula_units_Z 40
_cell_length_a 26.102284
_cell_length_b 7.407167
_cell_length_c 25.911403
_cell_angle_alpha 90.000000
_cell_angle_beta 21.307127
_cell_angle_gamma 90.000000
_cell_volume 1820.401577
_symmetry_space_group_name_H-M "C 2/M"
_symmetry_group_IT_number 12
_symmetry_cell_setting 'monoclinic'
loop_
_space_group_symop_operation_xyz
x,y,z
-x,y,-z
-x,-y,-z
x,-y,z
1/2+x,1/2+y,z
1/2-x,1/2+y,-z
1/2-x,1/2-y,-z
1/2+x,1/2-y,z
loop_
_atom_site_type_symbol
_atom_site_label
_atom_site_fract_x
_atom_site_fract_y
_atom_site_fract_z
Si Si1 0.423034 0.708396 0.790282
Si Si2 0.719912 0.296255 0.889314
Si Si3 0.502987 0.278114 0.825588
Si Si4 0.174550 0.717987 0.484802
Si Si5 0.535709 0.779141 0.408866
O O1 0.379811 0.500000 0.830711
O O2 0.327454 0.803623 0.837296
O O3 0.422699 0.778762 0.848740
O O4 0.584097 0.717871 0.618563
O O5 0.684110 0.500000 0.906720
O O6 0.814718 0.215088 0.754857
O O7 0.579618 0.215458 0.046017
O O8 0.500224 0.500000 0.828254
O O9 0.664788 0.221409 0.669794
O O10 0.175027 0.500000 0.486362
O O11 0.085153 0.773323 0.518314
O O12 0.500000 0.721450 0.500000
O O13 0.540480 0.000000 0.404023
#
# Coordination Sequence:
#
# PCOD9171447 Si02
#       5
#     8   8   8   8   8
#     4  10  18  28  43  64  90 116 147 177 204 249
#     4   9  17  30  46  63  87 116 145 175 212 255
#     4   9  17  28  43  65  90 116 143 175 212 251
#     4   9  17  30  46  63  87 116 145 175 212 255
#     4   8  14  26  45  65  83 108 143 179 212 251
#
# _framework density 21.973174
#
# number of rings (size 3 to 8) (size 9 to 14) (size 15 to 20)
#    0.000    3.000    0.000    3.000    0.000    0.000 
#    0.000    4.000    0.000   15.600    0.000    0.000 
#    0.000   12.800    0.000    0.000    0.000    0.000 
#
# Total GULP energy -111630.848471 kJ/mol
# GULP energy per Si atom -5581.542424 kJ/mol
# Density = 2.192316 g / cm^3
# Si number density = 21.973174 Si / 1000 Ang^3
#
#
#
# Elastic Constant Matrix: (Units=GPa)
#
#
# Indices 1 2 3 4 5 6 
#
# 1 59.7164 0.2180 24.2117 0.0003 37.1329 -0.0004
# 2 0.2180 80.5410 -1.5345 0.0045 1.1263 -0.0011
# 3 24.2117 -1.5345 135.9810 0.0025 29.5797 -0.0007
# 4 0.0003 0.0045 0.0025 7.3953 -0.0003 -0.2130
# 5 37.1329 1.1263 29.5797 -0.0003 39.6463 0.0001
# 6 -0.0004 -0.0011 -0.0007 -0.2130 0.0001 5.2695
#
#
#
# Elastic Compliance Matrix: (Units=1/GPa)
#
#
# Indices 1 2 3 4 5 6 
#
# 1 0.040290 0.000456 0.001245 -0.000004 -0.038678 0.000004
# 2 0.000456 0.012434 0.000273 -0.000008 -0.000984 0.000002
# 3 0.001245 0.000273 0.008823 -0.000003 -0.007756 0.000001
# 4 -0.000004 -0.000008 -0.000003 0.135379 0.000007 0.005471
# 5 -0.038678 -0.000984 -0.007756 0.000007 0.067263 -0.000005
# 6 0.000004 0.000002 0.000001 0.005471 -0.000005 0.189991
#
#
# Mechanical properties :
#
#
# Convention : Reuss Voigt Hill
#
# Bulk Modulus (GPa) = 15.26868 35.78098 25.52483
# Shear Modulus (GPa) = 10.59179 27.35177 18.97178
#
# Velocity S-wave (km/s) = 2.19791 3.53197 2.94157
# Velocity P-wave (km/s) = 3.66127 5.74042 4.81442
#
# Compressibility (1/GPa) = 0.06549354
#
# Stress axis : x y z
#
# Youngs Moduli (GPa) = 24.82008 80.42613 113.34555
#
# Poissons Ratio (x) = -0.03664 -0.14110
# Poissons Ratio (y) = -0.01131 -0.03096
# Poissons Ratio (z) = -0.03090 -0.02197
#
# Static dielectric constant tensor:
#      x y z
#    x 1.749250 0.000000 0.013600 
#    y 0.000000 1.836830 0.000000 
#    z 0.013600 0.000000 1.843330 
# 
# From -- ./inp_files/51870.got.cif
#   From: 2010.05.17/outbox.cif.g08.bks.cpg/sg12_26_cif.got.tgz:51870.got - 2010.06.03 13:09:07.
