data_PCOD9171805
_publ_section_title
;
Structure prediction by ZEFSAII (Michael W. Deem and Ramdas Pophale) SiO2 
 PCOD9171805
Probable space group: C 2/M
;
_chemical_formula_sum "Si O2"
_cell_formula_units_Z 64
_cell_length_a 22.146737
_cell_length_b 21.931423
_cell_length_c 8.534343
_cell_angle_alpha 90.000000
_cell_angle_beta 112.918433
_cell_angle_gamma 90.000000
_cell_volume 3817.988847
_symmetry_space_group_name_H-M "C 2/M"
_symmetry_group_IT_number 12
_symmetry_cell_setting 'monoclinic'
loop_
_space_group_symop_operation_xyz
x,y,z
-x,y,-z
-x,-y,-z
x,-y,z
1/2+x,1/2+y,z
1/2-x,1/2+y,-z
1/2-x,1/2-y,-z
1/2+x,1/2-y,z
loop_
_atom_site_type_symbol
_atom_site_label
_atom_site_fract_x
_atom_site_fract_y
_atom_site_fract_z
Si Si1 0.431776 0.387146 0.988882
Si Si2 0.188691 0.869014 0.545305
Si Si3 0.930595 0.718551 0.471046
Si Si4 0.208116 0.932403 0.252893
Si Si5 0.796026 0.322874 0.208026
Si Si6 0.291807 0.799176 0.843098
Si Si7 0.889782 0.226441 0.741887
Si Si8 0.569292 0.645208 0.647599
O O1 0.366289 0.424070 0.882699
O O2 0.425162 0.324333 0.882362
O O3 0.500000 0.415885 0.000000
O O4 0.430920 0.373363 0.172306
O O5 0.203952 0.920718 0.435065
O O6 0.251940 0.848791 0.704935
O O7 0.164090 0.811639 0.413809
O O8 0.129417 0.881307 0.606505
O O9 0.865039 0.681294 0.368028
O O10 0.932432 0.741107 0.652476
O O11 0.924627 0.781363 0.364179
O O12 0.000000 0.688901 0.500000
O O13 0.252453 0.879437 0.221708
O O14 0.232154 0.000000 0.240992
O O15 0.755507 0.260413 0.196668
O O16 0.806209 0.322726 0.031525
O O17 0.355254 0.775336 0.817024
O O18 0.500000 0.628124 0.500000
#
# Coordination Sequence:
#
# PCOD9171805 Si02
#       8
#     8   8   8   8   8   8   8   8
#     4  11  20  33  52  74 104 145 185 222 262 306
#     4  10  18  31  50  73 104 136 173 220 263 314
#     4  10  19  31  50  81 116 142 168 211 267 331
#     4  11  24  39  54  74 102 143 188 226 264 311
#     4  11  20  33  56  79 111 139 174 222 267 326
#     4  11  18  30  54  86 107 136 173 213 278 322
#     4  10  18  28  48  76 110 139 168 212 262 324
#     4  10  18  30  48  76 109 140 171 214 270 322
#
# _framework density 16.762751999999999
#
# number of rings (size 3 to 8) (size 9 to 14) (size 15 to 20)
#    0.000    1.500    5.000    5.625    0.000    0.250 
#    0.000    2.500    0.000    1.875    0.000    0.000 
#    0.000    2.000    0.000    0.000    0.000    0.000 
#
# Total GULP energy -178583.370743 kJ/mol
# GULP energy per Si atom -5580.730336 kJ/mol
# Density = 1.672460 g / cm^3
# Si number density = 16.762752 Si / 1000 Ang^3
#
#
#
# Elastic Constant Matrix: (Units=GPa)
#
#
# Indices 1 2 3 4 5 6 
#
# 1 78.6384 28.0882 16.8822 0.0000 -10.6848 0.0000
# 2 28.0882 44.9170 26.8049 0.0000 0.5636 0.0000
# 3 16.8822 26.8049 85.1497 0.0000 -18.1480 0.0000
# 4 0.0000 0.0000 0.0000 2.8770 0.0000 -2.8412
# 5 -10.6848 0.5636 -18.1480 0.0000 28.8068 0.0000
# 6 0.0000 0.0000 0.0000 -2.8412 0.0000 3.6816
#
#
#
# Elastic Compliance Matrix: (Units=1/GPa)
#
#
# Indices 1 2 3 4 5 6 
#
# 1 0.017858 -0.012566 0.002171 0.000000 0.008237 0.000000
# 2 -0.012566 0.037496 -0.012085 0.000000 -0.013008 0.000000
# 3 0.002171 -0.012085 0.017719 0.000000 0.012204 0.000000
# 4 0.000000 0.000000 0.000000 1.461236 0.000000 1.127692
# 5 0.008237 -0.013008 0.012204 0.000000 0.045712 0.000000
# 6 0.000000 0.000000 0.000000 1.127692 0.000000 1.141908
#
#
# Mechanical properties :
#
#
# Convention : Reuss Voigt Hill
#
# Bulk Modulus (GPa) = 35.57037 39.13952 37.35494
# Shear Modulus (GPa) = 1.80098 16.20173 9.00136
#
# Velocity S-wave (km/s) = 1.03766 3.11228 2.31981
# Velocity P-wave (km/s) = 4.76462 6.02618 5.43215
#
# Compressibility (1/GPa) = 0.02811328
#
# Stress axis : x y z
#
# Youngs Moduli (GPa) = 55.99749 26.66944 56.43673
#
# Poissons Ratio (x) = 0.33513 -0.12251
# Poissons Ratio (y) = 0.70366 0.68202
# Poissons Ratio (z) = -0.12155 0.32229
#
# Static dielectric constant tensor:
#      x y z
#    x 1.590160 0.000000 -0.000930 
#    y 0.000000 1.540040 0.000000 
#    z -0.000930 0.000000 1.577500 
# 
# From -- ./inp_files/98884.got.cif
#   From: 2010.05.17/outbox.cif.g08.bks.cpg/sg12_50_cif.got.tgz:98884.got - 2010.06.03 13:09:07.
