data_PCOD9171399
_publ_section_title
;
Structure prediction by ZEFSAII (Michael W. Deem and Ramdas Pophale) SiO2 
 PCOD9171399
Probable space group: C 2/M
;
_chemical_formula_sum "Si O2"
_cell_formula_units_Z 56
_cell_length_a 27.633026
_cell_length_b 7.839196
_cell_length_c 18.187136
_cell_angle_alpha 90.000000
_cell_angle_beta 54.881515
_cell_angle_gamma 90.000000
_cell_volume 3222.541808
_symmetry_space_group_name_H-M "C 2/M"
_symmetry_group_IT_number 12
_symmetry_cell_setting 'monoclinic'
loop_
_space_group_symop_operation_xyz
x,y,z
-x,y,-z
-x,-y,-z
x,-y,z
1/2+x,1/2+y,z
1/2-x,1/2+y,-z
1/2-x,1/2-y,-z
1/2+x,1/2-y,z
loop_
_atom_site_type_symbol
_atom_site_label
_atom_site_fract_x
_atom_site_fract_y
_atom_site_fract_z
Si Si1 0.156591 0.792572 0.602953
Si Si2 0.460911 0.695655 0.221117
Si Si3 0.577481 0.297055 0.057373
Si Si4 0.268677 0.207679 0.215438
Si Si5 0.405476 0.199155 0.121164
Si Si6 0.287652 0.796490 0.038052
Si Si7 0.771119 0.795526 0.597774
O O1 0.092269 0.727999 0.684065
O O2 0.180117 0.732173 0.502932
O O3 0.207284 0.740730 0.616715
O O4 0.155219 0.000000 0.604374
O O5 0.467410 0.500000 0.240459
O O6 0.526639 0.771089 0.156364
O O7 0.436935 0.699751 0.158269
O O8 0.569524 0.500000 0.057628
O O9 0.569553 0.221496 0.982636
O O10 0.644451 0.264410 0.024155
O O11 0.336755 0.250842 0.174761
O O12 0.259315 0.267264 0.140039
O O13 0.229540 0.269951 0.318012
O O14 0.265031 0.000000 0.218245
O O15 0.408257 0.000000 0.138773
O O16 0.290384 0.000000 0.040909
O O17 0.250000 0.750000 0.000000
O O18 0.777649 0.000000 0.595154
#
# Coordination Sequence:
#
# PCOD9171399 Si02
#       7
#     8   8   8   8   8   8   8
#     4   9  17  26  40  62  89 121 156 189 217 254
#     4  10  19  29  40  61  92 125 155 185 222 262
#     4  10  20  32  45  62  89 121 151 184 225 269
#     4   8  15  27  44  65  88 115 145 181 222 265
#     4  10  18  28  42  62  89 121 158 191 219 259
#     4  10  20  35  52  71  91 111 143 184 231 278
#     4   9  15  27  43  61  87 120 154 186 222 258
#
# _framework density 17.377586999999998
#
# number of rings (size 3 to 8) (size 9 to 14) (size 15 to 20)
#    0.000    2.571    1.429    2.571    0.000    2.857 
#    0.000    0.714    0.000    0.000    0.000    1.000 
#    0.000    8.000    0.000    0.000    0.000    0.000 
#
# Total GULP energy -156014.214949 kJ/mol
# GULP energy per Si atom -5571.936248 kJ/mol
# Density = 1.733804 g / cm^3
# Si number density = 17.377587 Si / 1000 Ang^3
#
#
#
# Elastic Constant Matrix: (Units=GPa)
#
#
# Indices 1 2 3 4 5 6 
#
# 1 59.5154 -1.5663 59.6548 0.0000 6.4523 -0.0004
# 2 -1.5663 25.1848 -1.5669 -0.0002 0.0522 -0.0002
# 3 59.6548 -1.5669 177.1751 -0.0002 -10.0278 0.0001
# 4 0.0000 -0.0002 -0.0002 12.2071 0.0000 -0.7843
# 5 6.4523 0.0522 -10.0278 0.0000 22.7008 0.0000
# 6 -0.0004 -0.0002 0.0001 -0.7843 0.0000 15.9296
#
#
#
# Elastic Compliance Matrix: (Units=1/GPa)
#
#
# Indices 1 2 3 4 5 6 
#
# 1 0.028552 0.001160 -0.010321 0.000000 -0.012677 0.000001
# 2 0.001160 0.039776 -0.000064 0.000001 -0.000449 0.000001
# 3 -0.010321 -0.000064 0.009523 0.000000 0.007140 0.000000
# 4 0.000000 0.000001 0.000000 0.082179 0.000000 0.004046
# 5 -0.012677 -0.000449 0.007140 0.000000 0.050810 0.000000
# 6 0.000001 0.000001 0.000000 0.004046 0.000000 0.062976
#
#
# Mechanical properties :
#
#
# Convention : Reuss Voigt Hill
#
# Bulk Modulus (GPa) = 16.83493 41.65762 29.24627
# Shear Modulus (GPa) = 16.02227 23.85774 19.94000
#
# Velocity S-wave (km/s) = 3.03975 3.70929 3.39109
# Velocity P-wave (km/s) = 4.69349 6.50916 5.67442
#
# Compressibility (1/GPa) = 0.05940032
#
# Stress axis : x y z
#
# Youngs Moduli (GPa) = 35.02350 25.14102 105.01221
#
# Poissons Ratio (x) = -0.02916 1.08381
# Poissons Ratio (y) = -0.04062 0.00674
# Poissons Ratio (z) = 0.36147 0.00161
#
# Static dielectric constant tensor:
#      x y z
#    x 1.498050 0.000000 -0.053420 
#    y 0.000000 1.266610 0.000000 
#    z -0.053420 0.000000 1.648540 
# 
# From -- ./inp_files/291455.got.cif
#   From: 2010.05.17/outbox.cif.g08.bks.cpg/sg12_146_cif.got.tgz:291455.got - 2010.06.03 13:09:07.
