data_PCOD9171780
_publ_section_title
;
Structure prediction by ZEFSAII (Michael W. Deem and Ramdas Pophale) SiO2 
 PCOD9171780
Probable space group: C 2/M
;
_chemical_formula_sum "Si O2"
_cell_formula_units_Z 34
_cell_length_a 18.894113
_cell_length_b 9.727648
_cell_length_c 16.566563
_cell_angle_alpha 90.000000
_cell_angle_beta 29.784933
_cell_angle_gamma 90.000000
_cell_volume 1512.519320
_symmetry_space_group_name_H-M "C 2/M"
_symmetry_group_IT_number 12
_symmetry_cell_setting 'monoclinic'
loop_
_space_group_symop_operation_xyz
x,y,z
-x,y,-z
-x,-y,-z
x,-y,z
1/2+x,1/2+y,z
1/2-x,1/2+y,-z
1/2-x,1/2-y,-z
1/2+x,1/2-y,z
loop_
_atom_site_type_symbol
_atom_site_label
_atom_site_fract_x
_atom_site_fract_y
_atom_site_fract_z
Si Si1 0.034123 0.350221 0.131820
Si Si2 0.664408 0.344412 0.367315
Si Si3 0.500000 0.000000 0.000000
Si Si4 0.092906 0.656780 0.581009
Si Si5 0.263555 0.843159 0.849949
O O1 0.097601 0.500000 0.094848
O O2 0.911887 0.320598 0.318201
O O3 0.991413 0.381309 0.082034
O O4 0.151362 0.232819 0.017584
O O5 0.500000 0.355489 0.500000
O O6 0.726580 0.500000 0.299976
O O7 0.661990 0.272749 0.456536
O O8 0.734497 0.242944 0.234427
O O9 0.144256 0.500000 0.513138
O O10 0.925086 0.660891 0.722569
O O11 0.223832 0.000000 0.875635
#
# Coordination Sequence:
#
# PCOD9171780 Si02
#       5
#     8   8   2   8   8
#     4   9  18  33  51  70  93 133 169 203 237 290
#     4   9  17  28  44  71 106 138 159 187 243 307
#     4   8  20  36  54  68  88 140 174 192 248 280
#     4   9  17  29  47  74 105 131 156 199 250 292
#     4  10  18  28  47  77 105 127 158 200 251 293
#
# _framework density 22.479051999999999
#
# number of rings (size 3 to 8) (size 9 to 14) (size 15 to 20)
#    0.706    2.118    0.000    2.118    0.000    4.706 
#    0.000    0.588    0.000    1.412    0.000    0.000 
#    0.000    0.000    0.000    0.000    0.000    0.000 
#
# Total GULP energy -94647.404073 kJ/mol
# GULP energy per Si atom -5567.494357 kJ/mol
# Density = 2.242789 g / cm^3
# Si number density = 22.479052 Si / 1000 Ang^3
#
#
#
# Elastic Constant Matrix: (Units=GPa)
#
#
# Indices 1 2 3 4 5 6 
#
# 1 93.3154 46.4225 33.7156 0.0000 25.5197 0.0000
# 2 46.4225 157.0164 62.2862 0.0000 22.9111 0.0000
# 3 33.7156 62.2862 71.5631 0.0000 45.9165 0.0000
# 4 0.0000 0.0000 0.0000 43.0330 0.0000 11.2474
# 5 25.5197 22.9111 45.9165 0.0000 47.4829 0.0000
# 6 0.0000 0.0000 0.0000 11.2474 0.0000 17.6399
#
#
#
# Elastic Compliance Matrix: (Units=1/GPa)
#
#
# Indices 1 2 3 4 5 6 
#
# 1 0.013962 -0.003344 0.000295 0.000000 -0.006175 0.000000
# 2 -0.003344 0.012339 -0.017118 0.000000 0.012397 0.000000
# 3 0.000295 -0.017118 0.062011 0.000000 -0.051864 0.000000
# 4 0.000000 0.000000 0.000000 0.027885 0.000000 -0.017780
# 5 -0.006175 0.012397 -0.051864 0.000000 0.068551 0.000000
# 6 0.000000 0.000000 0.000000 -0.017780 0.000000 0.068026
#
#
# Mechanical properties :
#
#
# Convention : Reuss Voigt Hill
#
# Bulk Modulus (GPa) = 20.84310 67.41595 44.12952
# Shear Modulus (GPa) = 16.17587 33.59587 24.88587
#
# Velocity S-wave (km/s) = 2.68544 3.87012 3.33087
# Velocity P-wave (km/s) = 4.34831 7.07292 5.87086
#
# Compressibility (1/GPa) = 0.04797751
#
# Stress axis : x y z
#
# Youngs Moduli (GPa) = 71.62196 81.04344 16.12608
#
# Poissons Ratio (x) = 0.27099 -0.00475
# Poissons Ratio (y) = 0.23948 0.27605
# Poissons Ratio (z) = -0.02110 1.38733
#
# Static dielectric constant tensor:
#      x y z
#    x 1.915450 0.000000 0.037760 
#    y 0.000000 1.796800 0.000000 
#    z 0.037760 0.000000 2.383380 
# 
# From -- ./inp_files/161857.got.cif
#   From: 2010.05.17/outbox.cif.g08.bks.cpg/sg12_81_cif.got.tgz:161857.got - 2010.06.03 13:09:07.
