data_PCOD9171087
_publ_section_title
;
Structure prediction by ZEFSAII (Michael W. Deem and Ramdas Pophale) SiO2 
 PCOD9171087
Probable space group: C 2/M
;
_chemical_formula_sum "Si O2"
_cell_formula_units_Z 48
_cell_length_a 24.970052
_cell_length_b 7.362877
_cell_length_c 15.348990
_cell_angle_alpha 90.000000
_cell_angle_beta 120.472614
_cell_angle_gamma 90.000000
_cell_volume 2432.144603
_symmetry_space_group_name_H-M "C 2/M"
_symmetry_group_IT_number 12
_symmetry_cell_setting 'monoclinic'
loop_
_space_group_symop_operation_xyz
x,y,z
-x,y,-z
-x,-y,-z
x,-y,z
1/2+x,1/2+y,z
1/2-x,1/2+y,-z
1/2-x,1/2-y,-z
1/2+x,1/2-y,z
loop_
_atom_site_type_symbol
_atom_site_label
_atom_site_fract_x
_atom_site_fract_y
_atom_site_fract_z
Si Si1 0.190959 0.294299 0.661963
Si Si2 0.038912 0.778411 0.115341
Si Si3 0.847617 0.780664 0.559873
Si Si4 0.821463 0.222000 0.733334
Si Si5 0.441671 0.210102 0.397472
Si Si6 0.988612 0.218636 0.713968
O O1 0.193038 0.500000 0.698848
O O2 0.183380 0.298268 0.551042
O O3 0.259603 0.213894 0.731342
O O4 0.126493 0.208945 0.641889
O O5 0.111375 0.723562 0.174390
O O6 0.009871 0.721713 0.184282
O O7 0.038771 0.000000 0.115490
O O8 0.000000 0.718030 0.000000
O O9 0.820801 0.722991 0.630991
O O10 0.920480 0.730378 0.621727
O O11 0.843703 0.000000 0.551648
O O12 0.820258 0.000000 0.732700
O O13 0.500000 0.289829 0.500000
O O14 0.460528 0.215760 0.312122
O O15 0.436845 0.000000 0.422677
O O16 0.991193 0.000000 0.716088
#
# Coordination Sequence:
#
# PCOD9171087 Si02
#       6
#     8   8   8   8   8   8
#     4  10  18  27  40  58  85 118 146 170 201 245
#     4   8  14  27  48  70  87 103 133 182 228 260
#     4   9  16  26  40  60  86 111 138 173 212 251
#     4   8  15  26  40  61  85 108 137 174 215 256
#     4  10  19  29  40  58  87 123 155 174 194 240
#     4   9  17  28  44  66  87 110 142 179 217 250
#
# _framework density 19.735668
#
# number of rings (size 3 to 8) (size 9 to 14) (size 15 to 20)
#    0.000    3.000    1.667    2.500    0.000    1.000 
#    0.000    0.000    0.000    1.500    0.000    0.000 
#    0.000    0.000    0.000    0.000    0.000    0.000 
#
# Total GULP energy -133836.982764 kJ/mol
# GULP energy per Si atom -5576.540949 kJ/mol
# Density = 1.969075 g / cm^3
# Si number density = 19.735668 Si / 1000 Ang^3
#
#
#
# Elastic Constant Matrix: (Units=GPa)
#
#
# Indices 1 2 3 4 5 6 
#
# 1 199.2802 3.9291 59.5636 0.0000 8.1833 0.0000
# 2 3.9291 72.2225 -2.4273 0.0000 0.2746 0.0000
# 3 59.5636 -2.4273 97.9591 0.0000 3.7011 0.0000
# 4 0.0000 0.0000 0.0000 10.8534 0.0000 -11.8403
# 5 8.1833 0.2746 3.7011 0.0000 9.1986 0.0000
# 6 0.0000 0.0000 0.0000 -11.8403 0.0000 15.3015
#
#
#
# Elastic Compliance Matrix: (Units=1/GPa)
#
#
# Indices 1 2 3 4 5 6 
#
# 1 0.006297 -0.000451 -0.003685 0.000000 -0.004106 0.000000
# 2 -0.000451 0.013893 0.000628 0.000000 -0.000266 0.000000
# 3 -0.003685 0.000628 0.012532 0.000000 -0.001783 0.000000
# 4 0.000000 0.000000 0.000000 0.591235 0.000000 0.457499
# 5 -0.004106 -0.000266 -0.001783 0.000000 0.113090 0.000000
# 6 0.000000 0.000000 0.000000 0.457499 0.000000 0.419367
#
#
# Mechanical properties :
#
#
# Convention : Reuss Voigt Hill
#
# Bulk Modulus (GPa) = 38.89983 54.62137 46.76060
# Shear Modulus (GPa) = 4.26622 27.63046 15.94834
#
# Velocity S-wave (km/s) = 1.47186 3.74575 2.84579
# Velocity P-wave (km/s) = 4.75833 6.81499 5.87732
#
# Compressibility (1/GPa) = 0.02570705
#
# Stress axis : x y z
#
# Youngs Moduli (GPa) = 158.80742 71.97990 79.79678
#
# Poissons Ratio (x) = 0.03245 0.29404
# Poissons Ratio (y) = 0.07159 -0.05015
# Poissons Ratio (z) = 0.58518 -0.04523
#
# Static dielectric constant tensor:
#      x y z
#    x 1.739010 0.000000 0.013430 
#    y 0.000000 1.745110 0.000000 
#    z 0.013430 0.000000 1.650450 
# 
# From -- ./inp_files/173390.got.cif
#   From: 2010.05.17/outbox.cif.g08.bks.cpg/sg12_87_cif.got.tgz:173390.got - 2010.06.03 13:09:07.
