data_PCOD9171947
_publ_section_title
;
Structure prediction by ZEFSAII (Michael W. Deem and Ramdas Pophale) SiO2 
 PCOD9171947
Probable space group: C 2/M
;
_chemical_formula_sum "Si O2"
_cell_formula_units_Z 56
_cell_length_a 25.558788
_cell_length_b 13.816898
_cell_length_c 11.946393
_cell_angle_alpha 90.000000
_cell_angle_beta 47.189508
_cell_angle_gamma 90.000000
_cell_volume 3094.925105
_symmetry_space_group_name_H-M "C 2/M"
_symmetry_group_IT_number 12
_symmetry_cell_setting 'monoclinic'
loop_
_space_group_symop_operation_xyz
x,y,z
-x,y,-z
-x,-y,-z
x,-y,z
1/2+x,1/2+y,z
1/2-x,1/2+y,-z
1/2-x,1/2-y,-z
1/2+x,1/2-y,z
loop_
_atom_site_type_symbol
_atom_site_label
_atom_site_fract_x
_atom_site_fract_y
_atom_site_fract_z
Si Si1 0.333293 0.770547 0.401218
Si Si2 0.752076 0.108851 0.087594
Si Si3 0.924032 0.778271 0.611972
Si Si4 0.847173 0.289278 0.942945
Si Si5 0.876134 0.392396 0.546975
Si Si6 0.845077 0.386615 0.169760
Si Si7 0.171955 0.888027 0.417577
O O1 0.250000 0.750000 0.500000
O O2 0.346674 0.854540 0.472388
O O3 0.365341 0.812622 0.239883
O O4 0.356520 0.673920 0.434626
O O5 0.712392 0.145071 0.033055
O O6 0.691131 0.107706 0.270795
O O7 0.780219 0.000000 0.033170
O O8 0.809181 0.189992 0.036128
O O9 0.901427 0.742403 0.767083
O O10 0.929681 0.684359 0.523282
O O11 0.862356 0.841640 0.643737
O O12 0.000000 0.829731 0.500000
O O13 0.875042 0.348342 0.008342
O O14 0.905571 0.500000 0.496587
O O15 0.862298 0.500000 0.165702
O O16 0.758113 0.380387 0.287180
O O17 0.153452 0.000000 0.454375
#
# Coordination Sequence:
#
# PCOD9171947 Si02
#       7
#     8   8   8   8   8   8   8
#     4   9  16  28  46  73 103 127 152 185 233 290
#     4   9  16  27  45  67  92 121 151 191 244 293
#     4  10  21  34  48  67  92 127 168 205 237 275
#     4  10  18  29  44  67  96 123 155 196 242 290
#     4   9  17  30  48  69  94 124 157 194 237 283
#     4  10  18  29  49  76 103 127 151 188 241 295
#     4   9  18  32  51  74  99 127 159 195 236 282
#
# _framework density 18.094138000000001
#
# number of rings (size 3 to 8) (size 9 to 14) (size 15 to 20)
#    0.000    2.571    0.000    5.143    0.000    3.429 
#    0.000    0.714    0.000    3.429    0.000    6.000 
#    0.000    0.000    0.000    0.000    0.000    0.000 
#
# Total GULP energy -155980.513379 kJ/mol
# GULP energy per Si atom -5570.732621 kJ/mol
# Density = 1.805295 g / cm^3
# Si number density = 18.094138 Si / 1000 Ang^3
#
#
#
# Elastic Constant Matrix: (Units=GPa)
#
#
# Indices 1 2 3 4 5 6 
#
# 1 35.8449 12.4665 29.1920 0.0000 23.1292 0.0000
# 2 12.4665 104.8588 22.4805 0.0000 17.1514 0.0000
# 3 29.1920 22.4805 42.4655 0.0000 24.7683 0.0000
# 4 0.0000 0.0000 0.0000 15.5790 0.0000 5.5883
# 5 23.1292 17.1514 24.7683 0.0000 32.2982 0.0000
# 6 0.0000 0.0000 0.0000 5.5883 0.0000 9.2839
#
#
#
# Elastic Compliance Matrix: (Units=1/GPa)
#
#
# Indices 1 2 3 4 5 6 
#
# 1 0.074162 0.003520 -0.037593 0.000000 -0.026149 0.000000
# 2 0.003520 0.011031 -0.006102 0.000000 -0.003699 0.000000
# 3 -0.037593 -0.006102 0.063376 0.000000 -0.018440 0.000000
# 4 0.000000 0.000000 0.000000 0.081865 0.000000 -0.049278
# 5 -0.026149 -0.003699 -0.018440 0.000000 0.065792 0.000000
# 6 0.000000 0.000000 0.000000 -0.049278 0.000000 0.137376
#
#
# Mechanical properties :
#
#
# Convention : Reuss Voigt Hill
#
# Bulk Modulus (GPa) = 14.65847 34.60528 24.63187
# Shear Modulus (GPa) = 9.31630 19.36757 14.34194
#
# Velocity S-wave (km/s) = 2.27156 3.27521 2.81842
# Velocity P-wave (km/s) = 3.87283 5.78527 4.92281
#
# Compressibility (1/GPa) = 0.06821997
#
# Stress axis : x y z
#
# Youngs Moduli (GPa) = 13.48394 90.65031 15.77875
#
# Poissons Ratio (x) = -0.31905 0.59317
# Poissons Ratio (y) = -0.04746 0.09628
# Poissons Ratio (z) = 0.50690 0.55311
#
# Static dielectric constant tensor:
#      x y z
#    x 1.640750 0.000000 -0.005450 
#    y 0.000000 1.645050 0.000000 
#    z -0.005450 0.000000 1.657540 
# 
# From -- ./inp_files/183445.got.cif
#   From: 2010.05.17/outbox.cif.g08.bks.cpg/sg12_92_cif.got.tgz:183445.got - 2010.06.03 13:09:07.
