data_PCOD9171819
_publ_section_title
;
Structure prediction by ZEFSAII (Michael W. Deem and Ramdas Pophale) SiO2 
 PCOD9171819
Probable space group: C 2/M
;
_chemical_formula_sum "Si O2"
_cell_formula_units_Z 52
_cell_length_a 14.427251
_cell_length_b 18.840933
_cell_length_c 25.733909
_cell_angle_alpha 90.000000
_cell_angle_beta 160.090713
_cell_angle_gamma 90.000000
_cell_volume 2382.043161
_symmetry_space_group_name_H-M "C 2/M"
_symmetry_group_IT_number 12
_symmetry_cell_setting 'monoclinic'
loop_
_space_group_symop_operation_xyz
x,y,z
-x,y,-z
-x,-y,-z
x,-y,z
1/2+x,1/2+y,z
1/2-x,1/2+y,-z
1/2-x,1/2-y,-z
1/2+x,1/2-y,z
loop_
_atom_site_type_symbol
_atom_site_label
_atom_site_fract_x
_atom_site_fract_y
_atom_site_fract_z
Si Si1 0.000000 0.184070 0.500000
Si Si2 0.241135 0.895157 0.832874
Si Si3 0.146858 0.643062 0.226659
Si Si4 0.542293 0.246839 0.747335
Si Si5 0.353186 0.622436 0.970795
Si Si6 0.396630 0.923257 0.504441
Si Si7 0.284425 0.799275 0.269249
O O1 0.905932 0.137188 0.401489
O O2 0.757671 0.234293 0.390522
O O3 0.321473 0.884193 0.814994
O O4 0.183564 0.820932 0.832003
O O5 0.932350 0.924032 0.668903
O O6 0.500000 0.926504 0.000000
O O7 0.130996 0.730762 0.213843
O O8 0.903976 0.602214 0.128605
O O9 0.720227 0.187217 0.868638
O O10 0.541643 0.235800 0.685285
O O11 0.500000 0.581298 0.000000
O O12 0.567557 0.651355 0.125411
O O13 0.500000 0.921731 0.500000
O O14 0.526634 0.853634 0.599445
O O15 0.487225 0.000000 0.575379
#
# Coordination Sequence:
#
# PCOD9171819 Si02
#       7
#     4   8   8   8   8   8   8
#     4  10  18  28  48  78 130 154 180 222 280 368
#     4  11  23  38  60  86 121 155 198 246 298 357
#     4  10  20  31  54  94 120 154 192 230 311 374
#     4   9  18  32  53  94 121 150 180 232 309 374
#     4   9  18  31  53  90 126 149 177 228 302 377
#     4  11  27  43  57  80 111 163 219 249 281 330
#     4  10  19  34  57  78 119 153 194 244 292 352
#
# _framework density 21.829999000000001
#
# number of rings (size 3 to 8) (size 9 to 14) (size 15 to 20)
#    0.000    2.000    0.000    4.615    8.615    2.769 
#    0.000    0.000    0.000    4.154    0.000   30.154 
#    0.000    0.000    0.000    0.000    0.000    0.000 
#
# Total GULP energy -144818.463928 kJ/mol
# GULP energy per Si atom -5569.940920 kJ/mol
# Density = 2.178031 g / cm^3
# Si number density = 21.829999 Si / 1000 Ang^3
#
#
#
# Elastic Constant Matrix: (Units=GPa)
#
#
# Indices 1 2 3 4 5 6 
#
# 1 128.3710 12.2882 55.7615 -0.0009 13.6721 -0.0335
# 2 12.2882 68.2238 24.4781 -0.0009 -0.4850 -0.0166
# 3 55.7615 24.4781 140.3558 0.0016 1.2380 -0.0126
# 4 -0.0009 -0.0009 0.0016 -47.5986 0.0091 0.9408
# 5 13.6721 -0.4850 1.2380 0.0091 50.9738 0.0047
# 6 -0.0335 -0.0166 -0.0126 0.9408 0.0047 26.6289
#
#
#
# Elastic Compliance Matrix: (Units=1/GPa)
#
#
# Indices 1 2 3 4 5 6 
#
# 1 0.009738 -0.000418 -0.003774 -0.000001 -0.002524 0.000011
# 2 -0.000418 0.015656 -0.002567 0.000000 0.000323 0.000008
# 3 -0.003774 -0.002567 0.009065 0.000001 0.000768 -0.000002
# 4 -0.000001 0.000000 0.000001 -0.020994 0.000004 0.000742
# 5 -0.002524 0.000323 0.000768 0.000004 0.020279 -0.000006
# 6 0.000011 0.000008 -0.000002 0.000742 -0.000006 0.037527
#
#
# Mechanical properties :
#
#
# Convention : Reuss Voigt Hill
#
# Bulk Modulus (GPa) = 47.75203 58.00069 52.87636
# Shear Modulus (GPa) = 54.48439 22.29567 38.39003
#
# Velocity S-wave (km/s) = 5.00127 3.19930 4.19810
# Velocity P-wave (km/s) = 7.43453 6.34620 6.91182
#
# Compressibility (1/GPa) = 0.02094152
#
# Stress axis : x y z
#
# Youngs Moduli (GPa) = 102.69117 63.87189 110.31547
#
# Poissons Ratio (x) = 0.02670 0.41629
# Poissons Ratio (y) = 0.04292 0.28321
# Poissons Ratio (z) = 0.38751 0.16398
#
# Static dielectric constant tensor:
#      x y z
#    x 1.869570 0.000000 0.062040 
#    y 0.000000 1.823370 -0.000020 
#    z 0.062040 -0.000020 1.893420 
# 
# From -- ./inp_files/362046.got.cif
#   From: 2010.05.17/outbox.cif.g08.bks.cpg/sg12_182_cif.got.tgz:362046.got - 2010.06.03 13:09:07.
