data_PCOD9171418
_publ_section_title
;
Structure prediction by ZEFSAII (Michael W. Deem and Ramdas Pophale) SiO2 
 PCOD9171418
Probable space group: C 2/M
;
_chemical_formula_sum "Si O2"
_cell_formula_units_Z 50
_cell_length_a 14.590897
_cell_length_b 21.528376
_cell_length_c 14.315904
_cell_angle_alpha 90.000000
_cell_angle_beta 148.349981
_cell_angle_gamma 90.000000
_cell_volume 2359.648541
_symmetry_space_group_name_H-M "C 2/M"
_symmetry_group_IT_number 12
_symmetry_cell_setting 'monoclinic'
loop_
_space_group_symop_operation_xyz
x,y,z
-x,y,-z
-x,-y,-z
x,-y,z
1/2+x,1/2+y,z
1/2-x,1/2+y,-z
1/2-x,1/2-y,-z
1/2+x,1/2-y,z
loop_
_atom_site_type_symbol
_atom_site_label
_atom_site_fract_x
_atom_site_fract_y
_atom_site_fract_z
Si Si1 0.538183 0.425671 0.200237
Si Si2 0.258347 0.195584 0.630618
Si Si3 0.135447 0.301275 0.008054
Si Si4 0.352225 0.168237 0.493820
Si Si5 0.000000 0.000000 0.500000
Si Si6 0.935408 0.110745 0.323363
Si Si7 0.740600 0.165529 0.883939
O O1 0.552445 0.500000 0.193864
O O2 0.719301 0.386271 0.346397
O O3 0.486289 0.415115 0.264261
O O4 0.380960 0.390488 0.008354
O O5 0.310219 0.184678 0.566253
O O6 0.194729 0.265848 0.593609
O O7 0.101288 0.148654 0.503751
O O8 0.433070 0.183230 0.839386
O O9 0.276715 0.342720 0.180494
O O10 0.165522 0.229741 0.061410
O O11 0.182807 0.316632 0.940062
O O12 0.559633 0.153564 0.671333
O O13 0.895539 0.946858 0.352110
#
# Coordination Sequence:
#
# PCOD9171418 Si02
#       7
#     8   8   8   8   2   8   8
#     4  10  18  28  42  66 102 134 149 190 243 307
#     4   9  15  27  47  69  82 111 157 212 248 281
#     4   9  15  27  47  69  82 111 157 212 248 281
#     4   9  15  24  43  69  92 112 153 195 243 299
#     4  12  24  40  50  64  96 150 178 216 234 278
#     4  10  20  34  48  60  89 128 178 208 240 266
#     4   9  15  24  43  69  92 112 153 195 243 299
#
# _framework density 21.189596999999999
#
# number of rings (size 3 to 8) (size 9 to 14) (size 15 to 20)
#    0.000    2.560    4.000    0.000    0.000    0.640 
#    0.000    2.400    0.000    0.000    0.000    0.000 
#    0.000    0.000    0.000    4.320    0.000    0.000 
#
# Total GULP energy -139265.033243 kJ/mol
# GULP energy per Si atom -5570.601330 kJ/mol
# Density = 2.114137 g / cm^3
# Si number density = 21.189597 Si / 1000 Ang^3
#
#
#
# Elastic Constant Matrix: (Units=GPa)
#
#
# Indices 1 2 3 4 5 6 
#
# 1 30.7299 4.0849 10.8038 0.0000 10.2433 0.0000
# 2 4.0849 206.7657 108.9933 0.0000 19.9082 0.0000
# 3 10.8038 108.9933 219.1574 0.0000 26.1347 0.0000
# 4 0.0000 0.0000 0.0000 27.2283 0.0000 0.8453
# 5 10.2433 19.9082 26.1347 0.0000 19.8628 0.0000
# 6 0.0000 0.0000 0.0000 0.8453 0.0000 -17.9626
#
#
#
# Elastic Compliance Matrix: (Units=1/GPa)
#
#
# Indices 1 2 3 4 5 6 
#
# 1 0.039615 0.001319 -0.000018 0.000000 -0.021728 0.000000
# 2 0.001319 0.006724 -0.002994 0.000000 -0.003480 0.000000
# 3 -0.000018 -0.002994 0.006753 0.000000 -0.005876 0.000000
# 4 0.000000 0.000000 0.000000 0.036673 0.000000 0.001726
# 5 -0.021728 -0.003480 -0.005876 0.000000 0.072770 0.000000
# 6 0.000000 0.000000 0.000000 0.001726 0.000000 -0.055590
#
#
# Mechanical properties :
#
#
# Convention : Reuss Voigt Hill
#
# Bulk Modulus (GPa) = 20.11800 78.26854 49.19327
# Shear Modulus (GPa) = 39.40121 28.01042 33.70582
#
# Velocity S-wave (km/s) = 4.31682 3.63973 3.99266
# Velocity P-wave (km/s) = 5.86187 7.39466 6.67242
#
# Compressibility (1/GPa) = 0.04970672
#
# Stress axis : x y z
#
# Youngs Moduli (GPa) = 25.24280 148.73084 148.07210
#
# Poissons Ratio (x) = -0.19614 0.00262
# Poissons Ratio (y) = -0.03329 0.44331
# Poissons Ratio (z) = 0.00045 0.44528
#
# Static dielectric constant tensor:
#      x y z
#    x 1.828890 0.000000 0.000210 
#    y 0.000000 1.662930 0.000000 
#    z 0.000210 0.000000 1.703430 
# 
# From -- ./inp_files/322895.got.cif
#   From: 2010.05.17/outbox.cif.g08.bks.cpg/sg12_162_cif.got.tgz:322895.got - 2010.06.03 13:09:07.
