data_PCOD9171165
_publ_section_title
;
Structure prediction by ZEFSAII (Michael W. Deem and Ramdas Pophale) SiO2 
 PCOD9171165
Probable space group: C 2/M
;
_chemical_formula_sum "Si O2"
_cell_formula_units_Z 48
_cell_length_a 15.668426
_cell_length_b 7.397879
_cell_length_c 16.515690
_cell_angle_alpha 90.000000
_cell_angle_beta 119.153403
_cell_angle_gamma 90.000000
_cell_volume 1671.868066
_symmetry_space_group_name_H-M "C 2/M"
_symmetry_group_IT_number 12
_symmetry_cell_setting 'monoclinic'
loop_
_space_group_symop_operation_xyz
x,y,z
-x,y,-z
-x,-y,-z
x,-y,z
1/2+x,1/2+y,z
1/2-x,1/2+y,-z
1/2-x,1/2-y,-z
1/2+x,1/2-y,z
loop_
_atom_site_type_symbol
_atom_site_label
_atom_site_fract_x
_atom_site_fract_y
_atom_site_fract_z
Si Si1 0.088962 0.220916 0.723919
Si Si2 0.757480 0.292886 0.901601
Si Si3 0.116591 0.782413 0.560731
Si Si4 0.649080 0.709475 0.225859
Si Si5 0.548896 0.217676 0.937024
Si Si6 0.138320 0.779688 0.395480
O O1 0.153314 0.290648 0.828679
O O2 0.138585 0.279722 0.661860
O O3 0.976461 0.271625 0.665921
O O4 0.091777 0.000000 0.727406
O O5 0.744149 0.500000 0.916642
O O6 0.810454 0.296961 0.836992
O O7 0.839206 0.217046 0.000397
O O8 0.000000 0.744562 0.500000
O O9 0.164579 0.714286 0.498735
O O10 0.124662 0.000000 0.562975
O O11 0.674226 0.500000 0.234026
O O12 0.530147 0.717452 0.164307
O O13 0.679839 0.785178 0.328106
O O14 0.550374 0.000000 0.934970
O O15 0.500000 0.272661 0.000000
O O16 0.141782 0.000000 0.396702
#
# Coordination Sequence:
#
# PCOD9171165 Si02
#       6
#     8   8   8   8   8   8
#     4   8  13  24  43  62  80 107 142 173 200 237
#     4   9  17  29  45  63  82 107 140 175 205 237
#     4   7  10  19  37  59  81 105 135 169 200 234
#     4  10  18  27  42  63  87 111 134 167 209 250
#     4   8  15  28  43  58  79 109 143 172 198 237
#     4   8  14  24  39  62  87 108 134 170 208 240
#
# _framework density 28.710401999999998
#
# number of rings (size 3 to 8) (size 9 to 14) (size 15 to 20)
#    0.000    3.667    0.000    3.500    0.000    3.000 
#    0.000    1.667    0.000    2.000    0.000    1.167 
#    0.000   10.000    0.000    0.000    0.000    0.000 
#
# Total GULP energy -134265.560410 kJ/mol
# GULP energy per Si atom -5594.398350 kJ/mol
# Density = 2.864506 g / cm^3
# Si number density = 28.710402 Si / 1000 Ang^3
#
#
#
# Elastic Constant Matrix: (Units=GPa)
#
#
# Indices 1 2 3 4 5 6 
#
# 1 80.3143 26.0444 -0.6964 0.0000 -15.7355 0.0000
# 2 26.0444 124.0379 21.0881 0.0000 -5.1342 0.0000
# 3 -0.6964 21.0881 239.9830 0.0000 -10.5419 0.0000
# 4 0.0000 0.0000 0.0000 15.6649 0.0000 0.6718
# 5 -15.7355 -5.1342 -10.5419 0.0000 67.5584 0.0000
# 6 0.0000 0.0000 0.0000 0.6718 0.0000 23.6650
#
#
#
# Elastic Compliance Matrix: (Units=1/GPa)
#
#
# Indices 1 2 3 4 5 6 
#
# 1 0.013999 -0.002884 0.000431 0.000000 0.003109 0.000000
# 2 -0.002884 0.008796 -0.000787 0.000000 -0.000126 0.000000
# 3 0.000431 -0.000787 0.004268 0.000000 0.000707 0.000000
# 4 0.000000 0.000000 0.000000 0.063915 0.000000 -0.001814
# 5 0.003109 -0.000126 0.000707 0.000000 0.015627 0.000000
# 6 0.000000 0.000000 0.000000 -0.001814 0.000000 0.042308
#
#
# Mechanical properties :
#
#
# Convention : Reuss Voigt Hill
#
# Bulk Modulus (GPa) = 48.58322 59.68973 54.13647
# Shear Modulus (GPa) = 30.81579 47.90429 39.36004
#
# Velocity S-wave (km/s) = 3.27973 4.08920 3.70663
# Velocity P-wave (km/s) = 5.59470 6.56741 6.10047
#
# Compressibility (1/GPa) = 0.02058324
#
# Stress axis : x y z
#
# Youngs Moduli (GPa) = 71.43333 113.68608 234.28031
#
# Poissons Ratio (x) = 0.32786 -0.10088
# Poissons Ratio (y) = 0.20601 0.18434
# Poissons Ratio (z) = -0.03076 0.08945
#
# Static dielectric constant tensor:
#      x y z
#    x 2.418870 0.000000 0.024530 
#    y 0.000000 2.002920 0.000000 
#    z 0.024530 0.000000 2.253500 
# 
# From -- ./inp_files/280550.got.cif
#   From: 2010.05.17/outbox.cif.g08.bks.cpg/sg12_141_cif.got.tgz:280550.got - 2010.06.03 13:09:07.
