data_PCOD9171635
_publ_section_title
;
Structure prediction by ZEFSAII (Michael W. Deem and Ramdas Pophale) SiO2 
 PCOD9171635
Probable space group: C 2/M
;
_chemical_formula_sum "Si O2"
_cell_formula_units_Z 64
_cell_length_a 25.318248
_cell_length_b 8.733351
_cell_length_c 24.580087
_cell_angle_alpha 90.000000
_cell_angle_beta 46.361377
_cell_angle_gamma 90.000000
_cell_volume 3933.332395
_symmetry_space_group_name_H-M "C 2/M"
_symmetry_group_IT_number 12
_symmetry_cell_setting 'monoclinic'
loop_
_space_group_symop_operation_xyz
x,y,z
-x,y,-z
-x,-y,-z
x,-y,z
1/2+x,1/2+y,z
1/2-x,1/2+y,-z
1/2-x,1/2-y,-z
1/2+x,1/2-y,z
loop_
_atom_site_type_symbol
_atom_site_label
_atom_site_fract_x
_atom_site_fract_y
_atom_site_fract_z
Si Si1 0.272980 0.317878 0.925268
Si Si2 0.915967 0.314905 0.335154
Si Si3 0.296427 0.316167 0.336140
Si Si4 0.070516 0.683979 0.177830
Si Si5 0.972793 0.683604 0.916052
Si Si6 0.641924 0.183379 0.815885
Si Si7 0.190415 0.315903 0.500667
Si Si8 0.157062 0.817883 0.923484
O O1 0.265754 0.500000 0.932157
O O2 0.356271 0.267952 0.856538
O O3 0.219385 0.251223 0.917874
O O4 0.250000 0.250000 0.000000
O O5 0.910551 0.500000 0.332486
O O6 0.861851 0.240669 0.329224
O O7 0.886066 0.273245 0.416572
O O8 0.998921 0.272939 0.263153
O O9 0.299218 0.500000 0.330371
O O10 0.309502 0.243708 0.268275
O O11 0.220611 0.269516 0.420104
O O12 0.080977 0.500000 0.174286
O O13 0.053066 0.718933 0.126926
O O14 0.966256 0.500000 0.928211
O O15 0.057375 0.725181 0.863460
O O16 0.920084 0.765121 0.996117
O O17 0.663297 0.254214 0.858254
O O18 0.645828 0.000000 0.815675
O O19 0.193970 0.500000 0.499208
O O20 0.250000 0.250000 0.500000
O O21 0.161676 0.000000 0.920448
#
# Coordination Sequence:
#
# PCOD9171635 Si02
#       8
#     8   8   8   8   8   8   8   8
#     4  12  24  39  57  76  99 132 171 215 260 305
#     4   9  16  30  49  71 102 139 173 205 251 306
#     4  10  18  28  45  73 106 137 171 211 250 295
#     4  10  19  33  54  78 103 135 173 213 254 301
#     4  10  20  35  54  75 103 138 173 209 252 303
#     4  11  22  37  54  74 103 141 176 209 251 307
#     4   8  15  26  43  68 100 136 170 204 245 297
#     4  12  25  39  55  76 100 132 172 218 260 303
#
# _framework density 16.271191000000002
#
# number of rings (size 3 to 8) (size 9 to 14) (size 15 to 20)
#    0.000    1.750    2.500    3.375    0.000    3.500 
#    0.000    0.000    0.000    0.000    0.000    0.875 
#    0.000    7.000    0.000    0.000    0.000    0.000 
#
# Total GULP energy -178556.628772 kJ/mol
# GULP energy per Si atom -5579.894649 kJ/mol
# Density = 1.623416 g / cm^3
# Si number density = 16.271191 Si / 1000 Ang^3
#
#
#
# Elastic Constant Matrix: (Units=GPa)
#
#
# Indices 1 2 3 4 5 6 
#
# 1 58.4626 29.5486 51.0638 0.0006 14.9838 -0.0010
# 2 29.5486 51.3856 52.1497 0.0025 7.2094 0.0023
# 3 51.0638 52.1497 173.9478 0.0001 7.4057 -0.0006
# 4 0.0006 0.0025 0.0001 22.5132 -0.0001 1.2914
# 5 14.9838 7.2094 7.4057 -0.0001 18.2955 0.0007
# 6 -0.0010 0.0023 -0.0006 1.2914 0.0007 22.6262
#
#
#
# Elastic Compliance Matrix: (Units=1/GPa)
#
#
# Indices 1 2 3 4 5 6 
#
# 1 0.032233 -0.010022 -0.005598 0.000000 -0.020183 0.000003
# 2 -0.010022 0.032214 -0.006639 -0.000003 -0.001799 -0.000004
# 3 -0.005598 -0.006639 0.009235 0.000001 0.003463 0.000001
# 4 0.000000 -0.000003 0.000001 0.044564 0.000001 -0.002544
# 5 -0.020183 -0.001799 0.003463 0.000001 0.070495 -0.000003
# 6 0.000003 -0.000004 0.000001 -0.002544 -0.000003 0.044342
#
#
# Mechanical properties :
#
#
# Convention : Reuss Voigt Hill
#
# Bulk Modulus (GPa) = 34.28952 61.03557 47.66254
# Shear Modulus (GPa) = 17.40200 22.75591 20.07895
#
# Velocity S-wave (km/s) = 3.27386 3.74376 3.51667
# Velocity P-wave (km/s) = 5.95067 7.50204 6.77093
#
# Compressibility (1/GPa) = 0.02916343
#
# Stress axis : x y z
#
# Youngs Moduli (GPa) = 31.02402 31.04253 108.27986
#
# Poissons Ratio (x) = 0.31110 0.60620
# Poissons Ratio (y) = 0.31092 0.71889
# Poissons Ratio (z) = 0.17369 0.20610
#
# Static dielectric constant tensor:
#      x y z
#    x 1.507530 0.000000 -0.009750 
#    y 0.000000 1.539200 0.000000 
#    z -0.009750 0.000000 1.578840 
# 
# From -- ./inp_files/324102.got.cif
#   From: 2010.05.17/outbox.cif.g08.bks.cpg/sg12_163_cif.got.tgz:324102.got - 2010.06.03 13:09:07.
