data_PCOD9171232
_publ_section_title
;
Structure prediction by ZEFSAII (Michael W. Deem and Ramdas Pophale) SiO2 
 PCOD9171232
Probable space group: C 2/M
;
_chemical_formula_sum "Si O2"
_cell_formula_units_Z 60
_cell_length_a 23.511497
_cell_length_b 14.433825
_cell_length_c 12.805489
_cell_angle_alpha 90.000000
_cell_angle_beta 122.730099
_cell_angle_gamma 90.000000
_cell_volume 3655.703946
_symmetry_space_group_name_H-M "C 2/M"
_symmetry_group_IT_number 12
_symmetry_cell_setting 'monoclinic'
loop_
_space_group_symop_operation_xyz
x,y,z
-x,y,-z
-x,-y,-z
x,-y,z
1/2+x,1/2+y,z
1/2-x,1/2+y,-z
1/2-x,1/2-y,-z
1/2+x,1/2-y,z
loop_
_atom_site_type_symbol
_atom_site_label
_atom_site_fract_x
_atom_site_fract_y
_atom_site_fract_z
Si Si1 0.333159 0.108107 0.963825
Si Si2 0.113158 0.608455 0.201587
Si Si3 0.413781 0.716653 0.101450
Si Si4 0.726512 0.389405 0.028445
Si Si5 0.523206 0.773093 0.634675
Si Si6 0.107447 0.609373 0.430655
Si Si7 0.345651 0.110512 0.301719
Si Si8 0.000000 0.256168 0.000000
O O1 0.333004 0.120647 0.838684
O O2 0.391187 0.175371 0.065324
O O3 0.348472 0.000000 0.000979
O O4 0.264496 0.130856 0.956745
O O5 0.091720 0.500000 0.175439
O O6 0.135010 0.627434 0.341902
O O7 0.052073 0.676559 0.112085
O O8 0.344425 0.660654 0.032032
O O9 0.452729 0.706240 0.248965
O O10 0.459984 0.697929 0.046865
O O11 0.717192 0.500000 0.026296
O O12 0.779975 0.360725 0.171157
O O13 0.500000 0.731913 0.500000
O O14 0.460734 0.833205 0.616406
O O15 0.587372 0.838328 0.672247
O O16 0.090818 0.500000 0.419982
O O17 0.157261 0.628646 0.577019
O O18 0.353590 0.000000 0.293896
#
# Coordination Sequence:
#
# PCOD9171232 Si02
#       8
#     8   8   8   8   8   8   8   4
#     4   9  18  29  46  72 100 124 153 189 232 288
#     4   9  16  26  42  67  99 132 153 177 228 291
#     4  11  20  32  51  70  96 129 158 198 243 279
#     4  10  20  34  51  71  93 123 166 207 237 270
#     4  10  18  27  43  68  98 127 157 188 232 287
#     4   9  16  26  42  66 101 135 155 178 227 292
#     4   9  17  28  43  67  97 128 160 193 228 279
#     4  10  19  30  43  68  96 126 160 202 228 280
#
# _framework density 16.412707999999999
#
# number of rings (size 3 to 8) (size 9 to 14) (size 15 to 20)
#    0.000    2.400    2.667    1.000    0.000    2.667 
#    0.000    0.333    0.000    5.200    0.000    0.000 
#    0.000    0.000    0.000    0.000    0.000    0.000 
#
# Total GULP energy -167104.934194 kJ/mol
# GULP energy per Si atom -5570.164473 kJ/mol
# Density = 1.637535 g / cm^3
# Si number density = 16.412708 Si / 1000 Ang^3
#
#
#
# Elastic Constant Matrix: (Units=GPa)
#
#
# Indices 1 2 3 4 5 6 
#
# 1 104.7612 19.6009 72.5822 0.0000 -14.1405 0.0000
# 2 19.6009 15.9167 23.2005 0.0000 0.6270 0.0000
# 3 72.5822 23.2005 132.7396 0.0000 -19.7507 0.0000
# 4 0.0000 0.0000 0.0000 12.6890 0.0000 5.2682
# 5 -14.1405 0.6270 -19.7507 0.0000 27.4173 0.0000
# 6 0.0000 0.0000 0.0000 5.2682 0.0000 11.4549
#
#
#
# Elastic Compliance Matrix: (Units=1/GPa)
#
#
# Indices 1 2 3 4 5 6 
#
# 1 0.016772 -0.011206 -0.006594 0.000000 0.004156 0.000000
# 2 -0.011206 0.096918 -0.013442 0.000000 -0.017680 0.000000
# 3 -0.006594 -0.013442 0.014592 0.000000 0.007419 0.000000
# 4 0.000000 0.000000 0.000000 0.097408 0.000000 -0.044799
# 5 0.004156 -0.017680 0.007419 0.000000 0.044365 0.000000
# 6 0.000000 0.000000 0.000000 -0.044799 0.000000 0.107903
#
#
# Mechanical properties :
#
#
# Convention : Reuss Voigt Hill
#
# Bulk Modulus (GPa) = 15.19832 53.79830 34.49831
# Shear Modulus (GPa) = 10.81373 19.51450 15.16412
#
# Velocity S-wave (km/s) = 2.56962 3.45191 3.04291
# Velocity P-wave (km/s) = 4.25254 6.98120 5.78019
#
# Compressibility (1/GPa) = 0.06579676
#
# Stress axis : x y z
#
# Youngs Moduli (GPa) = 59.62492 10.31803 68.52955
#
# Poissons Ratio (x) = 0.11563 0.45185
# Poissons Ratio (y) = 0.66818 0.92120
# Poissons Ratio (z) = 0.39314 0.13870
#
# Static dielectric constant tensor:
#      x y z
#    x 1.553560 0.000000 -0.042250 
#    y 0.000000 1.545320 0.000000 
#    z -0.042250 0.000000 1.581220 
# 
# From -- ./inp_files/168502.got.cif
#   From: 2010.05.17/outbox.cif.g08.bks.cpg/sg12_85_cif.got.tgz:168502.got - 2010.06.03 13:09:07.
