data_PCOD9171462
_publ_section_title
;
Structure prediction by ZEFSAII (Michael W. Deem and Ramdas Pophale) SiO2 
 PCOD9171462
Probable space group: C 2/M
;
_chemical_formula_sum "Si O2"
_cell_formula_units_Z 64
_cell_length_a 29.028129
_cell_length_b 8.137270
_cell_length_c 15.178990
_cell_angle_alpha 90.000000
_cell_angle_beta 92.435145
_cell_angle_gamma 90.000000
_cell_volume 3582.187230
_symmetry_space_group_name_H-M "C 2/M"
_symmetry_group_IT_number 12
_symmetry_cell_setting 'monoclinic'
loop_
_space_group_symop_operation_xyz
x,y,z
-x,y,-z
-x,-y,-z
x,-y,z
1/2+x,1/2+y,z
1/2-x,1/2+y,-z
1/2-x,1/2-y,-z
1/2+x,1/2-y,z
loop_
_atom_site_type_symbol
_atom_site_label
_atom_site_fract_x
_atom_site_fract_y
_atom_site_fract_z
Si Si1 0.307248 0.201727 0.758049
Si Si2 0.909605 0.307668 0.164385
Si Si3 0.653818 0.306851 0.996241
Si Si4 0.898476 0.309708 0.839571
Si Si5 0.261106 0.696053 0.402588
Si Si6 0.997368 0.192665 0.898848
Si Si7 0.766226 0.192257 0.115482
Si Si8 0.168915 0.305922 0.723204
O O1 0.360549 0.252154 0.766316
O O2 0.278227 0.253478 0.670318
O O3 0.279981 0.262884 0.843636
O O4 0.306500 0.000000 0.761528
O O5 0.901832 0.500000 0.144514
O O6 0.882047 0.207792 0.087757
O O7 0.963244 0.272003 0.157970
O O8 0.884077 0.272674 0.255013
O O9 0.657900 0.500000 0.019381
O O10 0.703025 0.240485 0.962954
O O11 0.630102 0.206820 0.071924
O O12 0.908965 0.500000 0.823164
O O13 0.946385 0.218258 0.856822
O O14 0.261700 0.500000 0.398819
O O15 0.250000 0.750000 0.500000
O O16 0.309907 0.759417 0.368806
O O17 0.007739 0.000000 0.904659
O O18 0.000000 0.258929 0.000000
O O19 0.800935 0.208950 0.202003
O O20 0.759293 0.000000 0.096567
O O21 0.177163 0.500000 0.737443
#
# Coordination Sequence:
#
# PCOD9171462 Si02
#       8
#     8   8   8   8   8   8   8   8
#     4   8  17  33  49  68  95 128 160 196 239 287
#     4  10  19  31  49  70  94 127 167 211 249 288
#     4  10  18  28  43  65  92 126 165 205 246 284
#     4  11  21  32  47  65  91 127 169 208 245 288
#     4  10  19  34  56  80 106 132 159 191 236 291
#     4  11  22  34  48  67  93 127 170 217 259 293
#     4   8  15  29  46  62  90 129 164 196 237 285
#     4   9  17  29  47  75 103 125 158 199 241 288
#
# _framework density 17.86618
#
# number of rings (size 3 to 8) (size 9 to 14) (size 15 to 20)
#    0.000    2.375    1.250    3.000    0.000    3.000 
#    0.000    6.250    0.000    0.000    0.000    0.875 
#    0.000    7.000    0.000    0.000    0.000    0.000 
#
# Total GULP energy -178379.097900 kJ/mol
# GULP energy per Si atom -5574.346809 kJ/mol
# Density = 1.782552 g / cm^3
# Si number density = 17.866180 Si / 1000 Ang^3
#
#
#
# Elastic Constant Matrix: (Units=GPa)
#
#
# Indices 1 2 3 4 5 6 
#
# 1 127.2240 10.9825 39.5624 0.0000 -14.4968 0.0000
# 2 10.9825 43.5794 10.2120 0.0000 -5.3268 0.0000
# 3 39.5624 10.2120 82.5348 0.0000 -14.9078 0.0000
# 4 0.0000 0.0000 0.0000 19.0251 0.0000 -4.6556
# 5 -14.4968 -5.3268 -14.9078 0.0000 21.1115 0.0000
# 6 0.0000 0.0000 0.0000 -4.6556 0.0000 20.0627
#
#
#
# Elastic Compliance Matrix: (Units=1/GPa)
#
#
# Indices 1 2 3 4 5 6 
#
# 1 0.009542 -0.001076 -0.003790 0.000000 0.003605 0.000000
# 2 -0.001076 0.024127 -0.001723 0.000000 0.004132 0.000000
# 3 -0.003790 -0.001723 0.015585 0.000000 0.007968 0.000000
# 4 0.000000 0.000000 0.000000 0.055727 0.000000 0.012931
# 5 0.003605 0.004132 0.007968 0.000000 0.056512 0.000000
# 6 0.000000 0.000000 0.000000 0.012931 0.000000 0.052844
#
#
# Mechanical properties :
#
#
# Convention : Reuss Voigt Hill
#
# Bulk Modulus (GPa) = 27.71901 41.65023 34.68462
# Shear Modulus (GPa) = 20.87330 24.87862 22.87596
#
# Velocity S-wave (km/s) = 3.42177 3.73567 3.58216
# Velocity P-wave (km/s) = 5.58210 6.47842 6.04689
#
# Compressibility (1/GPa) = 0.03607632
#
# Stress axis : x y z
#
# Youngs Moduli (GPa) = 104.79659 41.44798 64.16368
#
# Poissons Ratio (x) = 0.04460 0.24317
# Poissons Ratio (y) = 0.11277 0.11056
# Poissons Ratio (z) = 0.39715 0.07142
#
# Static dielectric constant tensor:
#      x y z
#    x 1.657310 0.000000 0.001630 
#    y 0.000000 1.627680 0.000000 
#    z 0.001630 0.000000 1.622690 
# 
# From -- ./inp_files/248410.got.cif
#   From: 2010.05.17/outbox.cif.g08.bks.cpg/sg12_125_cif.got.tgz:248410.got - 2010.06.03 13:09:07.
