data_PCOD9171907
_publ_section_title
;
Structure prediction by ZEFSAII (Michael W. Deem and Ramdas Pophale) SiO2 
 PCOD9171907
Probable space group: C 2/M
;
_chemical_formula_sum "Si O2"
_cell_formula_units_Z 56
_cell_length_a 27.696914
_cell_length_b 8.819355
_cell_length_c 15.005351
_cell_angle_alpha 90.000000
_cell_angle_beta 77.552117
_cell_angle_gamma 90.000000
_cell_volume 3579.177763
_symmetry_space_group_name_H-M "C 2/M"
_symmetry_group_IT_number 12
_symmetry_cell_setting 'monoclinic'
loop_
_space_group_symop_operation_xyz
x,y,z
-x,y,-z
-x,-y,-z
x,-y,z
1/2+x,1/2+y,z
1/2-x,1/2+y,-z
1/2-x,1/2-y,-z
1/2+x,1/2-y,z
loop_
_atom_site_type_symbol
_atom_site_label
_atom_site_fract_x
_atom_site_fract_y
_atom_site_fract_z
Si Si1 0.555751 0.817540 0.962580
Si Si2 0.708094 0.317337 0.399071
Si Si3 0.315390 0.683248 0.395156
Si Si4 0.213579 0.822609 0.893884
Si Si5 0.358339 0.818434 0.936509
Si Si6 0.377074 0.677113 0.209113
Si Si7 0.684218 0.681245 0.212896
O O1 0.580088 0.762198 0.860933
O O2 0.555163 0.000000 0.962115
O O3 0.500000 0.762652 0.000000
O O4 0.592978 0.770743 0.027456
O O5 0.713398 0.500000 0.396263
O O6 0.681085 0.274846 0.502103
O O7 0.762876 0.246815 0.382205
O O8 0.681586 0.273398 0.317841
O O9 0.313439 0.500000 0.389506
O O10 0.359325 0.734778 0.312616
O O11 0.171874 0.812844 0.833543
O O12 0.262103 0.736463 0.842366
O O13 0.224720 0.000000 0.905190
O O14 0.188125 0.748897 0.990220
O O15 0.354915 0.756275 0.838115
O O16 0.355425 0.000000 0.938071
O O17 0.390444 0.500000 0.210547
O O18 0.681005 0.500000 0.207577
#
# Coordination Sequence:
#
# PCOD9171907 Si02
#       7
#     8   8   8   8   8   8   8
#     4   9  19  35  52  69  88 110 141 184 231 276
#     4   9  18  28  42  62  89 124 157 187 217 250
#     4   9  16  29  44  63  90 120 154 188 220 255
#     4  10  18  29  43  62  89 121 153 183 215 255
#     4  10  20  32  46  63  85 115 147 181 223 270
#     4   9  17  28  46  69  92 118 147 182 223 265
#     4  11  20  29  41  62  91 123 155 183 214 253
#
# _framework density 15.646051999999999
#
# number of rings (size 3 to 8) (size 9 to 14) (size 15 to 20)
#    0.000    2.429    1.429    1.714    0.000    2.571 
#    0.000    0.000    0.000    0.000    0.000    1.000 
#    0.000    8.000    0.000    0.000    0.000    0.000 
#
# Total GULP energy -156084.864141 kJ/mol
# GULP energy per Si atom -5574.459434 kJ/mol
# Density = 1.561044 g / cm^3
# Si number density = 15.646052 Si / 1000 Ang^3
#
#
#
# Elastic Constant Matrix: (Units=GPa)
#
#
# Indices 1 2 3 4 5 6 
#
# 1 62.6564 12.5817 53.1313 0.0000 -9.4721 0.0000
# 2 12.5817 20.9110 27.1010 0.0000 2.7483 0.0000
# 3 53.1313 27.1010 148.3481 0.0000 2.6634 0.0000
# 4 0.0000 0.0000 0.0000 19.6674 0.0000 0.9575
# 5 -9.4721 2.7483 2.6634 0.0000 18.6317 0.0000
# 6 0.0000 0.0000 0.0000 0.9575 0.0000 16.0631
#
#
#
# Elastic Compliance Matrix: (Units=1/GPa)
#
#
# Indices 1 2 3 4 5 6 
#
# 1 0.027261 -0.007203 -0.008738 0.000000 0.016170 0.000000
# 2 -0.007203 0.065659 -0.009199 0.000000 -0.012032 0.000000
# 3 -0.008738 -0.009199 0.011636 0.000000 -0.004749 0.000000
# 4 0.000000 0.000000 0.000000 0.050993 0.000000 -0.003040
# 5 0.016170 -0.012032 -0.004749 0.000000 0.064347 0.000000
# 6 0.000000 0.000000 0.000000 -0.003040 0.000000 0.062436
#
#
# Mechanical properties :
#
#
# Convention : Reuss Voigt Hill
#
# Bulk Modulus (GPa) = 18.42435 46.39372 32.40904
# Shear Modulus (GPa) = 14.25704 20.14587 17.20146
#
# Velocity S-wave (km/s) = 3.02192 3.59221 3.31934
# Velocity P-wave (km/s) = 4.89666 6.84994 5.95395
#
# Compressibility (1/GPa) = 0.05427599
#
# Stress axis : x y z
#
# Youngs Moduli (GPa) = 36.68298 15.23015 85.93851
#
# Poissons Ratio (x) = 0.10970 0.75092
# Poissons Ratio (y) = 0.26423 0.79056
# Poissons Ratio (z) = 0.32053 0.14010
#
# Static dielectric constant tensor:
#      x y z
#    x 1.500340 0.000000 0.019350 
#    y 0.000000 1.525380 0.000000 
#    z 0.019350 0.000000 1.560340 
# 
# From -- ./inp_files/247731.got.cif
#   From: 2010.05.17/outbox.cif.g08.bks.cpg/sg12_124_cif.got.tgz:247731.got - 2010.06.03 13:09:07.
