data_PCOD9171206
_publ_section_title
;
Structure prediction by ZEFSAII (Michael W. Deem and Ramdas Pophale) SiO2 
 PCOD9171206
Probable space group: C 2/M
;
_chemical_formula_sum "Si O2"
_cell_formula_units_Z 64
_cell_length_a 9.198141
_cell_length_b 26.410012
_cell_length_c 21.648315
_cell_angle_alpha 90.000000
_cell_angle_beta 129.823238
_cell_angle_gamma 90.000000
_cell_volume 4038.940577
_symmetry_space_group_name_H-M "C 2/M"
_symmetry_group_IT_number 12
_symmetry_cell_setting 'monoclinic'
loop_
_space_group_symop_operation_xyz
x,y,z
-x,y,-z
-x,-y,-z
x,-y,z
1/2+x,1/2+y,z
1/2-x,1/2+y,-z
1/2-x,1/2-y,-z
1/2+x,1/2-y,z
loop_
_atom_site_type_symbol
_atom_site_label
_atom_site_fract_x
_atom_site_fract_y
_atom_site_fract_z
Si Si1 0.368384 0.641070 0.069019
Si Si2 0.835757 0.806360 0.507642
Si Si3 0.596204 0.295870 0.339850
Si Si4 0.022234 0.637860 0.882140
Si Si5 0.788476 0.668038 0.181655
Si Si6 0.678689 0.942687 0.095547
Si Si7 0.454861 0.188478 0.353114
Si Si8 0.285248 0.711834 0.156395
O O1 0.585426 0.645087 0.110638
O O2 0.330256 0.592658 0.102477
O O3 0.324032 0.690672 0.098722
O O4 0.220378 0.637309 0.972985
O O5 0.750000 0.750000 0.500000
O O6 0.907728 0.823834 0.594841
O O7 0.648011 0.835166 0.432494
O O8 0.000000 0.804601 0.500000
O O9 0.530311 0.239022 0.339061
O O10 0.804715 0.298056 0.366101
O O11 0.446817 0.310497 0.246244
O O12 0.056369 0.642728 0.819414
O O13 0.900246 0.589258 0.868452
O O14 0.910016 0.687167 0.875003
O O15 0.841324 0.661010 0.267683
O O16 0.782793 0.727820 0.162529
O O17 0.738267 0.000000 0.124814
O O18 0.500000 0.944578 0.000000
#
# Coordination Sequence:
#
# PCOD9171206 Si02
#       8
#     8   8   8   8   8   8   8   8
#     4  10  19  34  44  69  89 122 161 195 231 269
#     4  10  18  27  43  60  80 110 158 205 234 268
#     4  10  18  29  43  58  83 118 161 200 228 269
#     4  10  21  30  48  65  93 120 161 198 228 271
#     4  11  21  29  43  65  98 129 160 191 226 263
#     4   8  16  34  55  68  83 111 150 197 247 293
#     4  10  19  29  42  59  85 121 160 197 232 264
#     4  10  20  30  44  62  91 135 166 188 221 266
#
# _framework density 15.845739999999999
#
# number of rings (size 3 to 8) (size 9 to 14) (size 15 to 20)
#    0.000    2.125    1.250    5.625    7.000    3.000 
#    0.000    0.625    0.000    3.000    0.000    0.000 
#    0.000    0.000    0.000   18.000    0.500    2.000 
#
# Total GULP energy -178154.769066 kJ/mol
# GULP energy per Si atom -5567.336533 kJ/mol
# Density = 1.580967 g / cm^3
# Si number density = 15.845740 Si / 1000 Ang^3
#
#
#
# Elastic Constant Matrix: (Units=GPa)
#
#
# Indices 1 2 3 4 5 6 
#
# 1 103.9833 19.9766 11.6141 0.0000 -12.6330 0.0000
# 2 19.9766 61.3496 8.0388 0.0000 -2.1925 0.0000
# 3 11.6141 8.0388 51.5581 0.0000 -2.5037 0.0000
# 4 0.0000 0.0000 0.0000 0.8338 0.0000 3.3300
# 5 -12.6330 -2.1925 -2.5037 0.0000 26.6137 0.0000
# 6 0.0000 0.0000 0.0000 3.3300 0.0000 -8.5361
#
#
#
# Elastic Compliance Matrix: (Units=1/GPa)
#
#
# Indices 1 2 3 4 5 6 
#
# 1 0.011007 -0.003183 -0.001750 0.000000 0.004798 0.000000
# 2 -0.003183 0.017595 -0.002039 0.000000 -0.000253 0.000000
# 3 -0.001750 -0.002039 0.020151 0.000000 0.000897 0.000000
# 4 0.000000 0.000000 0.000000 0.468846 0.000000 0.182903
# 5 0.004798 -0.000253 0.000897 0.000000 0.039916 0.000000
# 6 0.000000 0.000000 0.000000 0.182903 0.000000 -0.045797
#
#
# Mechanical properties :
#
#
# Convention : Reuss Voigt Hill
#
# Bulk Modulus (GPa) = 28.72832 32.90557 30.81695
# Shear Modulus (GPa) = 9.30641 15.59970 12.45306
#
# Velocity S-wave (km/s) = 2.42608 3.14104 2.80642
# Velocity P-wave (km/s) = 5.10071 5.82804 5.47646
#
# Compressibility (1/GPa) = 0.03480886
#
# Stress axis : x y z
#
# Youngs Moduli (GPa) = 90.85259 56.83556 49.62473
#
# Poissons Ratio (x) = 0.18092 0.08685
# Poissons Ratio (y) = 0.28921 0.10116
# Poissons Ratio (z) = 0.15900 0.11586
#
# Static dielectric constant tensor:
#      x y z
#    x 1.552150 0.000000 -0.001170 
#    y 0.000000 1.509600 0.000000 
#    z -0.001170 0.000000 1.626000 
# 
# From -- ./inp_files/302564.got.cif
#   From: 2010.05.17/outbox.cif.g08.bks.cpg/sg12_152_cif.got.tgz:302564.got - 2010.06.03 13:09:07.
