data_PCOD9171793
_publ_section_title
;
Structure prediction by ZEFSAII (Michael W. Deem and Ramdas Pophale) SiO2 
 PCOD9171793
Probable space group: C 2/M
;
_chemical_formula_sum "Si O2"
_cell_formula_units_Z 56
_cell_length_a 28.318512
_cell_length_b 7.408795
_cell_length_c 13.044401
_cell_angle_alpha 90.000000
_cell_angle_beta 72.933338
_cell_angle_gamma 90.000000
_cell_volume 2616.276621
_symmetry_space_group_name_H-M "C 2/M"
_symmetry_group_IT_number 12
_symmetry_cell_setting 'monoclinic'
loop_
_space_group_symop_operation_xyz
x,y,z
-x,y,-z
-x,-y,-z
x,-y,z
1/2+x,1/2+y,z
1/2-x,1/2+y,-z
1/2-x,1/2-y,-z
1/2+x,1/2-y,z
loop_
_atom_site_type_symbol
_atom_site_label
_atom_site_fract_x
_atom_site_fract_y
_atom_site_fract_z
Si Si1 0.893974 0.782437 0.672694
Si Si2 0.361894 0.279075 0.248281
Si Si3 0.815288 0.711633 0.895216
Si Si4 0.610184 0.280235 0.547038
Si Si5 0.027944 0.219660 0.881232
Si Si6 0.786366 0.792924 0.131281
Si Si7 0.000154 0.219494 0.325128
O O1 0.861092 0.733586 0.790922
O O2 0.872859 0.720998 0.576274
O O3 0.950221 0.718615 0.651810
O O4 0.895446 0.000000 0.668657
O O5 0.361362 0.500000 0.247100
O O6 0.361926 0.222225 0.367413
O O7 0.414943 0.225202 0.167136
O O8 0.317425 0.214050 0.205133
O O9 0.807011 0.500000 0.918169
O O10 0.766233 0.786823 0.869773
O O11 0.818936 0.792152 0.006468
O O12 0.611283 0.500000 0.548216
O O13 0.552666 0.225842 0.595859
O O14 0.000498 0.271760 0.793907
O O15 0.028141 0.000000 0.883564
O O16 0.000000 0.283251 0.000000
O O17 0.775865 0.000000 0.166618
O O18 0.000221 0.000000 0.329846
#
# Coordination Sequence:
#
# PCOD9171793 Si02
#       7
#     8   8   8   8   8   8   8
#     4  10  18  28  48  72  96 125 158 189 224 274
#     4   8  14  25  44  67  93 120 147 186 236 277
#     4  10  21  34  47  68  96 120 151 197 238 273
#     4   8  14  26  43  70 100 122 150 193 233 265
#     4   8  13  19  31  60  97 119 138 180 230 270
#     4   9  18  34  54  70  87 118 157 193 234 282
#     4   8  14  23  38  65  98 125 149 184 229 268
#
# _framework density 21.404464999999998
#
# number of rings (size 3 to 8) (size 9 to 14) (size 15 to 20)
#    0.000    3.286    0.000    2.571    2.000    2.286 
#    0.000    0.714    0.000    2.571    0.000    7.000 
#    0.000    0.000    0.000    0.000    0.000    0.000 
#
# Total GULP energy -156162.264939 kJ/mol
# GULP energy per Si atom -5577.223748 kJ/mol
# Density = 2.135575 g / cm^3
# Si number density = 21.404465 Si / 1000 Ang^3
#
#
#
# Elastic Constant Matrix: (Units=GPa)
#
#
# Indices 1 2 3 4 5 6 
#
# 1 67.5771 1.4732 22.0436 0.0000 33.2810 0.0000
# 2 1.4732 71.2486 -8.7296 0.0000 4.0358 0.0000
# 3 22.0436 -8.7296 60.2442 0.0000 15.5211 0.0000
# 4 0.0000 0.0000 0.0000 -3.3723 0.0000 0.1117
# 5 33.2810 4.0358 15.5211 0.0000 28.5581 0.0000
# 6 0.0000 0.0000 0.0000 0.1117 0.0000 -9.1554
#
#
#
# Elastic Compliance Matrix: (Units=1/GPa)
#
#
# Indices 1 2 3 4 5 6 
#
# 1 0.035204 0.001234 -0.002428 0.000000 -0.039880 0.000000
# 2 0.001234 0.014668 0.002998 0.000000 -0.005140 0.000000
# 3 -0.002428 0.002998 0.020119 0.000000 -0.008529 0.000000
# 4 0.000000 0.000000 0.000000 -0.296656 0.000000 -0.003620
# 5 -0.039880 -0.005140 -0.008529 0.000000 0.086854 0.000000
# 6 0.000000 0.000000 0.000000 -0.003620 0.000000 -0.109269
#
#
# Mechanical properties :
#
#
# Convention : Reuss Voigt Hill
#
# Bulk Modulus (GPa) = 13.58698 25.40492 19.49595
# Shear Modulus (GPa) = -21.91490 15.49160 -3.21165
#
# Velocity S-wave (km/s) = -3.20323 2.69319 -1.22626
# Velocity P-wave (km/s) = 2.70544 4.64390 2.66893
#
# Compressibility (1/GPa) = 0.07359987
#
# Stress axis : x y z
#
# Youngs Moduli (GPa) = 28.40623 68.17379 49.70341
#
# Poissons Ratio (x) = -0.08410 0.12067
# Poissons Ratio (y) = -0.03504 -0.14903
# Poissons Ratio (z) = 0.06896 -0.20441
#
# Static dielectric constant tensor:
#      x y z
#    x 1.760720 0.000000 0.024850 
#    y 0.000000 1.851620 0.000000 
#    z 0.024850 0.000000 1.764800 
# 
# From -- ./inp_files/181565.got.cif
#   From: 2010.05.17/outbox.cif.g08.bks.cpg/sg12_91_cif.got.tgz:181565.got - 2010.06.03 13:09:07.
