data_PCOD9171338
_publ_section_title
;
Structure prediction by ZEFSAII (Michael W. Deem and Ramdas Pophale) SiO2 
 PCOD9171338
Probable space group: C 2/M
;
_chemical_formula_sum "Si O2"
_cell_formula_units_Z 48
_cell_length_a 21.131669
_cell_length_b 11.162398
_cell_length_c 13.089929
_cell_angle_alpha 90.000000
_cell_angle_beta 71.708655
_cell_angle_gamma 90.000000
_cell_volume 2931.643562
_symmetry_space_group_name_H-M "C 2/M"
_symmetry_group_IT_number 12
_symmetry_cell_setting 'monoclinic'
loop_
_space_group_symop_operation_xyz
x,y,z
-x,y,-z
-x,-y,-z
x,-y,z
1/2+x,1/2+y,z
1/2-x,1/2+y,-z
1/2-x,1/2-y,-z
1/2+x,1/2-y,z
loop_
_atom_site_type_symbol
_atom_site_label
_atom_site_fract_x
_atom_site_fract_y
_atom_site_fract_z
Si Si1 0.833664 0.777890 0.247819
Si Si2 0.077372 0.000000 0.085405
Si Si3 0.812275 0.364718 0.060019
Si Si4 0.696424 0.858774 0.540496
Si Si5 0.340280 0.707530 0.853488
Si Si6 0.678938 0.862698 0.323943
Si Si7 0.581558 0.500000 0.841992
O O1 0.842409 0.714167 0.134912
O O2 0.838368 0.682076 0.337145
O O3 0.758780 0.834620 0.284208
O O4 0.886043 0.884481 0.227115
O O5 0.106700 0.114731 0.129473
O O6 0.997751 0.000000 0.125716
O O7 0.099818 0.000000 0.954482
O O8 0.834031 0.500000 0.058936
O O9 0.732111 0.356125 0.113263
O O10 0.830935 0.312052 0.941179
O O11 0.750000 0.750000 0.500000
O O12 0.656963 0.853158 0.453288
O O13 0.719581 0.000000 0.536738
O O14 0.352887 0.768096 0.737589
O O15 0.669599 0.000000 0.294762
#
# Coordination Sequence:
#
# PCOD9171338 Si02
#       7
#     8   4   8   8   8   8   4
#     4  10  18  31  51  77 106 140 181 212 267 318
#     4  11  22  38  51  75 107 143 190 219 263 316
#     4  10  18  27  48  76 103 131 163 220 279 324
#     4   9  18  31  50  80 116 145 173 217 274 332
#     4  10  19  30  48  74 105 133 169 216 267 328
#     4   9  17  30  51  78 109 136 164 212 276 326
#     4  11  22  36  57  71 105 153 183 223 257 326
#
# _framework density 16.373068
#
# number of rings (size 3 to 8) (size 9 to 14) (size 15 to 20)
#    0.000    2.167    3.333    1.000    1.167    0.000 
#    1.500    0.000    0.000    7.000    0.000    2.333 
#    0.000    0.000    0.000    0.000    0.000    0.000 
#
# Total GULP energy -133602.083766 kJ/mol
# GULP energy per Si atom -5566.753490 kJ/mol
# Density = 1.633580 g / cm^3
# Si number density = 16.373068 Si / 1000 Ang^3
#
#
#
# Elastic Constant Matrix: (Units=GPa)
#
#
# Indices 1 2 3 4 5 6 
#
# 1 37.3126 25.1130 13.2255 0.0000 9.6144 0.0000
# 2 25.1130 111.6030 25.8732 0.0000 11.3960 0.0000
# 3 13.2255 25.8732 67.6763 0.0000 18.0048 0.0000
# 4 0.0000 0.0000 0.0000 -86.9077 0.0000 -23.9026
# 5 9.6144 11.3960 18.0048 0.0000 15.0812 0.0000
# 6 0.0000 0.0000 0.0000 -23.9026 0.0000 5.1476
#
#
#
# Elastic Compliance Matrix: (Units=1/GPa)
#
#
# Indices 1 2 3 4 5 6 
#
# 1 0.035603 -0.006206 0.000301 0.000000 -0.018368 0.000000
# 2 -0.006206 0.011109 -0.002716 0.000000 -0.001195 0.000000
# 3 0.000301 -0.002716 0.022364 0.000000 -0.024839 0.000000
# 4 0.000000 0.000000 0.000000 -0.005053 0.000000 -0.023464
# 5 -0.018368 -0.001195 -0.024839 0.000000 0.108575 0.000000
# 6 0.000000 0.000000 0.000000 -0.023464 0.000000 0.085312
#
#
# Mechanical properties :
#
#
# Convention : Reuss Voigt Hill
#
# Bulk Modulus (GPa) = 19.29203 38.33503 28.81353
# Shear Modulus (GPa) = 17.09814 -3.17710 6.96052
#
# Velocity S-wave (km/s) = 3.23505 -1.39451 2.06408
# Velocity P-wave (km/s) = 5.07567 4.56853 4.82876
#
# Compressibility (1/GPa) = 0.05183487
#
# Stress axis : x y z
#
# Youngs Moduli (GPa) = 28.08724 90.02114 44.71472
#
# Poissons Ratio (x) = 0.55865 -0.01348
# Poissons Ratio (y) = 0.17430 0.12145
# Poissons Ratio (z) = -0.00847 0.24451
#
# Static dielectric constant tensor:
#      x y z
#    x 1.523480 0.000000 0.007120 
#    y 0.000000 1.572940 0.000000 
#    z 0.007120 0.000000 1.573710 
# 
# From -- ./inp_files/164133.got.cif
#   From: 2010.05.17/outbox.cif.g08.bks.cpg/sg12_83_cif.got.tgz:164133.got - 2010.06.03 13:09:07.
