data_PCOD9171541
_publ_section_title
;
Structure prediction by ZEFSAII (Michael W. Deem and Ramdas Pophale) SiO2 
 PCOD9171541
Probable space group: C 2/M
;
_chemical_formula_sum "Si O2"
_cell_formula_units_Z 48
_cell_length_a 23.416339
_cell_length_b 8.585362
_cell_length_c 27.273256
_cell_angle_alpha 90.000000
_cell_angle_beta 30.248222
_cell_angle_gamma 90.000000
_cell_volume 2762.022532
_symmetry_space_group_name_H-M "C 2/M"
_symmetry_group_IT_number 12
_symmetry_cell_setting 'monoclinic'
loop_
_space_group_symop_operation_xyz
x,y,z
-x,y,-z
-x,-y,-z
x,-y,z
1/2+x,1/2+y,z
1/2-x,1/2+y,-z
1/2-x,1/2-y,-z
1/2+x,1/2-y,z
loop_
_atom_site_type_symbol
_atom_site_label
_atom_site_fract_x
_atom_site_fract_y
_atom_site_fract_z
Si Si1 0.523714 0.812957 0.905606
Si Si2 0.140142 0.186146 0.608698
Si Si3 0.169217 0.323972 0.099373
Si Si4 0.895215 0.818557 0.754155
Si Si5 0.583989 0.824289 0.753584
Si Si6 0.170256 0.184517 0.886046
O O1 0.574904 0.757999 0.815453
O O2 0.610116 0.768697 0.884871
O O3 0.509565 0.000000 0.913046
O O4 0.403355 0.740152 0.011876
O O5 0.250000 0.250000 0.500000
O O6 0.139660 0.236698 0.666241
O O7 0.024346 0.240685 0.666557
O O8 0.137665 0.000000 0.608771
O O9 0.202725 0.500000 0.090254
O O10 0.157249 0.207136 0.153184
O O11 0.046391 0.335609 0.166111
O O12 0.250000 0.250000 0.000000
O O13 0.802770 0.729301 0.790159
O O14 0.897895 0.000000 0.738551
O O15 0.632094 0.000000 0.720569
O O16 0.156888 0.000000 0.891355
#
# Coordination Sequence:
#
# PCOD9171541 Si02
#       6
#     8   8   8   8   8   8
#     4  10  19  33  52  74 105 144 177 209 246 295
#     4  10  21  36  57  79 101 128 162 208 261 312
#     4  10  18  28  44  69 100 132 163 201 245 296
#     4  10  20  34  50  71  98 132 170 207 250 302
#     4   9  19  33  50  72  99 131 168 205 248 299
#     4  11  21  32  49  75 106 141 177 214 249 292
#
# _framework density 17.378568999999999
#
# number of rings (size 3 to 8) (size 9 to 14) (size 15 to 20)
#    0.000    2.000    0.000    5.500    0.000    5.333 
#    0.000    0.000    0.000    1.000    0.000    7.000 
#    0.000    0.000    0.000    0.000    0.000    0.000 
#
# Total GULP energy -133738.921425 kJ/mol
# GULP energy per Si atom -5572.455059 kJ/mol
# Density = 1.733901 g / cm^3
# Si number density = 17.378569 Si / 1000 Ang^3
#
#
#
# Elastic Constant Matrix: (Units=GPa)
#
#
# Indices 1 2 3 4 5 6 
#
# 1 67.4071 4.7584 39.0947 0.0016 0.8736 -0.0022
# 2 4.7584 46.7365 23.2682 0.0043 3.5561 -0.0059
# 3 39.0947 23.2682 111.5609 0.0006 3.0332 -0.0016
# 4 0.0016 0.0043 0.0006 21.8650 -0.0001 -0.4853
# 5 0.8736 3.5561 3.0332 -0.0001 25.0335 0.0006
# 6 -0.0022 -0.0059 -0.0016 -0.4853 0.0006 22.5922
#
#
#
# Elastic Compliance Matrix: (Units=1/GPa)
#
#
# Indices 1 2 3 4 5 6 
#
# 1 0.018716 0.001520 -0.006875 -0.000001 -0.000036 0.000002
# 2 0.001520 0.024196 -0.005502 -0.000005 -0.002823 0.000006
# 3 -0.006875 -0.005502 0.012534 0.000001 -0.000497 -0.000001
# 4 -0.000001 -0.000005 0.000001 0.045757 0.000001 0.000983
# 5 -0.000036 -0.002823 -0.000497 0.000001 0.040409 -0.000002
# 6 0.000002 0.000006 -0.000001 0.000983 -0.000002 0.044284
#
#
# Mechanical properties :
#
#
# Convention : Reuss Voigt Hill
#
# Bulk Modulus (GPa) = 29.64609 39.99411 34.82010
# Shear Modulus (GPa) = 22.84632 24.47036 23.65834
#
# Velocity S-wave (km/s) = 3.62971 3.75651 3.69365
# Velocity P-wave (km/s) = 5.88748 6.47136 6.18631
#
# Compressibility (1/GPa) = 0.03373126
#
# Stress axis : x y z
#
# Youngs Moduli (GPa) = 53.43162 41.32908 79.78344
#
# Poissons Ratio (x) = -0.06281 0.54847
# Poissons Ratio (y) = -0.08121 0.43900
# Poissons Ratio (z) = 0.36732 0.22741
#
# Static dielectric constant tensor:
#      x y z
#    x 1.606520 0.000000 -0.054380 
#    y 0.000000 1.612290 0.000010 
#    z -0.054380 0.000010 1.501540 
# 
# From -- ./inp_files/367114.got.cif
#   From: 2010.05.17/outbox.cif.g08.bks.cpg/sg12_184_cif.got.tgz:367114.got - 2010.06.03 13:09:07.
