data_PCOD9171559
_publ_section_title
;
Structure prediction by ZEFSAII (Michael W. Deem and Ramdas Pophale) SiO2 
 PCOD9171559
Probable space group: C 2/M
;
_chemical_formula_sum "Si O2"
_cell_formula_units_Z 44
_cell_length_a 14.896405
_cell_length_b 37.987106
_cell_length_c 5.184176
_cell_angle_alpha 90.000000
_cell_angle_beta 67.291935
_cell_angle_gamma 90.000000
_cell_volume 2706.176674
_symmetry_space_group_name_H-M "C 2/M"
_symmetry_group_IT_number 12
_symmetry_cell_setting 'monoclinic'
loop_
_space_group_symop_operation_xyz
x,y,z
-x,y,-z
-x,-y,-z
x,-y,z
1/2+x,1/2+y,z
1/2-x,1/2+y,-z
1/2-x,1/2-y,-z
1/2+x,1/2-y,z
loop_
_atom_site_type_symbol
_atom_site_label
_atom_site_fract_x
_atom_site_fract_y
_atom_site_fract_z
Si Si1 0.617329 0.960031 0.869223
Si Si2 0.696001 0.837048 0.271696
Si Si3 0.500000 0.198931 0.500000
Si Si4 0.618573 0.914157 0.367667
Si Si5 0.408560 0.744178 0.236203
Si Si6 0.245425 0.796023 0.273849
O O1 0.641928 0.937437 0.591329
O O2 0.655662 0.000000 0.825288
O O3 0.500000 0.962761 0.000000
O O4 0.641970 0.937774 0.094016
O O5 0.588721 0.824222 0.307381
O O6 0.682763 0.878812 0.294332
O O7 0.719739 0.821001 0.526885
O O8 0.761988 0.818407 0.979943
O O9 0.539143 0.223680 0.679325
O O10 0.500000 0.906729 0.500000
O O11 0.323043 0.763356 0.164384
O O12 0.353459 0.721132 0.510634
O O13 0.500000 0.725289 0.000000
#
# Coordination Sequence:
#
# PCOD9171559 Si02
#       6
#     8   8   4   8   8   8
#     4   9  17  28  42  63  88 115 153 193 217 254
#     4  11  20  34  44  70  90 120 153 199 237 274
#     4  10  20  30  52  62  89 116 158 204 235 276
#     4  10  18  28  45  63  86 121 155 185 229 269
#     4  10  20  34  49  67  86 119 153 202 248 285
#     4  10  23  32  49  66  93 113 156 199 248 280
#
# _framework density 16.259101000000001
#
# number of rings (size 3 to 8) (size 9 to 14) (size 15 to 20)
#    0.000    2.000    2.727    1.636    2.545    4.364 
#    0.000    0.000    0.000    0.000    0.000    0.000 
#    0.000    0.000    0.000    0.000    0.000   63.636 
#
# Total GULP energy -122633.402064 kJ/mol
# GULP energy per Si atom -5574.245548 kJ/mol
# Density = 1.622209 g / cm^3
# Si number density = 16.259101 Si / 1000 Ang^3
#
#
#
# Elastic Constant Matrix: (Units=GPa)
#
#
# Indices 1 2 3 4 5 6 
#
# 1 23.9736 10.5310 19.7135 0.0000 -5.2813 0.0000
# 2 10.5310 102.3019 39.7895 0.0000 4.0178 0.0000
# 3 19.7135 39.7895 85.5260 0.0000 7.3841 0.0000
# 4 0.0000 0.0000 0.0000 19.0766 0.0000 -32.5275
# 5 -5.2813 4.0178 7.3841 0.0000 29.7290 0.0000
# 6 0.0000 0.0000 0.0000 -32.5275 0.0000 43.5307
#
#
#
# Elastic Compliance Matrix: (Units=1/GPa)
#
#
# Indices 1 2 3 4 5 6 
#
# 1 0.056412 -0.001010 -0.013704 0.000000 0.013562 0.000000
# 2 -0.001010 0.011954 -0.005287 0.000000 -0.000482 0.000000
# 3 -0.013704 -0.005287 0.017842 0.000000 -0.006152 0.000000
# 4 0.000000 0.000000 0.000000 -0.191242 0.000000 -0.142902
# 5 0.013562 -0.000482 -0.006152 0.000000 0.037640 0.000000
# 6 0.000000 0.000000 0.000000 -0.142902 0.000000 -0.083808
#
#
# Mechanical properties :
#
#
# Convention : Reuss Voigt Hill
#
# Bulk Modulus (GPa) = 21.64182 39.09662 30.36922
# Shear Modulus (GPa) = -52.19343 27.91842 -12.13751
#
# Velocity S-wave (km/s) = -5.67193 4.14828 -2.73519
# Velocity P-wave (km/s) = 5.43644 6.85875 2.95700
#
# Compressibility (1/GPa) = 0.04620683
#
# Stress axis : x y z
#
# Youngs Moduli (GPa) = 17.72657 83.65227 56.04756
#
# Poissons Ratio (x) = 0.08446 0.76808
# Poissons Ratio (y) = 0.01790 0.29633
# Poissons Ratio (z) = 0.24293 0.44229
#
# Static dielectric constant tensor:
#      x y z
#    x 1.550350 0.000000 -0.006440 
#    y 0.000000 1.545100 0.000000 
#    z -0.006440 0.000000 1.597660 
# 
# From -- ./inp_files/13229.got.cif
#   From: 2010.05.17/outbox.cif.g08.bks.cpg/sg12_7_cif.got.tgz:13229.got - 2010.06.03 13:09:07.
