data_PCOD9171880
_publ_section_title
;
Structure prediction by ZEFSAII (Michael W. Deem and Ramdas Pophale) SiO2 
 PCOD9171880
Probable space group: C 2/M
;
_chemical_formula_sum "Si O2"
_cell_formula_units_Z 28
_cell_length_a 7.414794
_cell_length_b 19.125953
_cell_length_c 8.968148
_cell_angle_alpha 90.000000
_cell_angle_beta 54.630338
_cell_angle_gamma 90.000000
_cell_volume 1037.084097
_symmetry_space_group_name_H-M "C 2/M"
_symmetry_group_IT_number 12
_symmetry_cell_setting 'monoclinic'
loop_
_space_group_symop_operation_xyz
x,y,z
-x,y,-z
-x,-y,-z
x,-y,z
1/2+x,1/2+y,z
1/2-x,1/2+y,-z
1/2-x,1/2-y,-z
1/2+x,1/2-y,z
loop_
_atom_site_type_symbol
_atom_site_label
_atom_site_fract_x
_atom_site_fract_y
_atom_site_fract_z
Si Si1 0.000000 0.117325 0.500000
Si Si2 0.149303 0.500000 0.127150
Si Si3 0.061561 0.000000 0.707489
Si Si4 0.976207 0.194823 0.225726
Si Si5 0.125201 0.346689 0.179357
O O1 0.938642 0.173092 0.655232
O O2 0.098971 0.063452 0.575548
O O3 0.287033 0.500000 0.217311
O O4 0.030431 0.424052 0.191079
O O5 0.315479 0.500000 0.903664
O O6 0.982254 0.278599 0.214122
O O7 0.739901 0.164488 0.285820
O O8 0.162726 0.162574 0.028972
#
# Coordination Sequence:
#
# PCOD9171880 Si02
#       5
#     4   4   4   8   8
#     4  11  18  30  52  87 110 132 180 241 266 302
#     4  11  16  36  56  78 104 148 181 227 254 337
#     4  10  18  28  54  82 108 131 187 232 268 299
#     4  10  20  34  54  81 111 140 183 224 270 318
#     4  10  20  36  56  79 108 148 182 219 265 334
#
# _framework density 26.998773
#
# number of rings (size 3 to 8) (size 9 to 14) (size 15 to 20)
#    0.000    1.714    5.714    1.714    0.000    1.143 
#    0.000    0.000    0.000   19.714    0.000    0.000 
#    0.000    0.000    0.000    0.000    0.000    0.000 
#
# Total GULP energy -78030.188905 kJ/mol
# GULP energy per Si atom -5573.584922 kJ/mol
# Density = 2.693732 g / cm^3
# Si number density = 26.998773 Si / 1000 Ang^3
#
#
#
# Elastic Constant Matrix: (Units=GPa)
#
#
# Indices 1 2 3 4 5 6 
#
# 1 0.8741 -37.3048 83.8186 0.0000 1.1811 0.0000
# 2 -37.3048 158.8625 69.0529 0.0000 -4.7508 0.0000
# 3 83.8186 69.0529 140.9339 0.0000 32.3348 0.0000
# 4 0.0000 0.0000 0.0000 34.6346 0.0000 15.3845
# 5 1.1811 -4.7508 32.3348 0.0000 22.7046 0.0000
# 6 0.0000 0.0000 0.0000 15.3845 0.0000 21.7615
#
#
#
# Elastic Compliance Matrix: (Units=1/GPa)
#
#
# Indices 1 2 3 4 5 6 
#
# 1 -0.005596 -0.005907 0.009565 0.000000 -0.014567 0.000000
# 2 -0.005907 0.004043 0.001883 0.000000 -0.001528 0.000000
# 3 0.009565 0.001883 0.000755 0.000000 -0.001179 0.000000
# 4 0.000000 0.000000 0.000000 0.042090 0.000000 -0.029756
# 5 -0.014567 -0.001528 -0.001179 0.000000 0.046161 0.000000
# 6 0.000000 0.000000 0.000000 -0.029756 0.000000 0.066989
#
#
# Mechanical properties :
#
#
# Convention : Reuss Voigt Hill
#
# Bulk Modulus (GPa) = 97.25295 59.08933 78.17114
# Shear Modulus (GPa) = 34.06252 28.16038 31.11145
#
# Velocity S-wave (km/s) = 3.55580 3.23309 3.39828
# Velocity P-wave (km/s) = 7.27721 5.98921 6.66440
#
# Compressibility (1/GPa) = 0.01028246
#
# Stress axis : x y z
#
# Youngs Moduli (GPa) = -178.68594 247.31184 1324.83583
#
# Poissons Ratio (x) = 1.46097 -12.67199
# Poissons Ratio (y) = -1.05557 -2.49433
# Poissons Ratio (z) = 1.70912 -0.46563
#
# Static dielectric constant tensor:
#      x y z
#    x 5.467010 0.000000 3.438340 
#    y 0.000000 2.202380 0.000000 
#    z 3.438340 0.000000 5.851050 
# 
# From -- ./inp_files/37308.got.cif
#   From: 2010.05.17/outbox.cif.g08.bks.cpg/sg12_19_cif.got.tgz:37308.got - 2010.06.03 13:09:07.
