data_PCOD9171787
_publ_section_title
;
Structure prediction by ZEFSAII (Michael W. Deem and Ramdas Pophale) SiO2 
 PCOD9171787
Probable space group: C 2/M
;
_chemical_formula_sum "Si O2"
_cell_formula_units_Z 56
_cell_length_a 17.653424
_cell_length_b 14.165537
_cell_length_c 16.073198
_cell_angle_alpha 90.000000
_cell_angle_beta 145.849210
_cell_angle_gamma 90.000000
_cell_volume 2256.397781
_symmetry_space_group_name_H-M "C 2/M"
_symmetry_group_IT_number 12
_symmetry_cell_setting 'monoclinic'
loop_
_space_group_symop_operation_xyz
x,y,z
-x,y,-z
-x,-y,-z
x,-y,z
1/2+x,1/2+y,z
1/2-x,1/2+y,-z
1/2-x,1/2-y,-z
1/2+x,1/2-y,z
loop_
_atom_site_type_symbol
_atom_site_label
_atom_site_fract_x
_atom_site_fract_y
_atom_site_fract_z
Si Si1 0.348431 0.685314 0.890526
Si Si2 0.990226 0.114203 0.270014
Si Si3 0.925248 0.613997 0.675683
Si Si4 0.694919 0.387725 0.587752
Si Si5 0.273023 0.888364 0.055288
Si Si6 0.654128 0.896174 0.106949
Si Si7 0.276916 0.386977 0.653371
O O1 0.284288 0.624122 0.904287
O O2 0.349771 0.790399 0.930148
O O3 0.271140 0.671392 0.732958
O O4 0.500000 0.658816 0.000000
O O5 0.060408 0.148363 0.419447
O O6 0.093811 0.134484 0.288238
O O7 0.981789 0.000000 0.265634
O O8 0.840887 0.147150 0.111949
O O9 0.929911 0.500000 0.689584
O O10 0.825152 0.650565 0.656265
O O11 0.852103 0.631384 0.521912
O O12 0.076278 0.650499 0.817553
O O13 0.691349 0.500000 0.566460
O O14 0.732293 0.385461 0.718008
O O15 0.284987 0.000000 0.054772
O O16 0.678552 0.000000 0.089351
O O17 0.500000 0.904461 0.000000
O O18 0.282731 0.500000 0.677182
#
# Coordination Sequence:
#
# PCOD9171787 Si02
#       7
#     8   8   8   8   8   8   8
#     4  11  20  29  47  73 106 137 176 208 253 298
#     4   8  14  25  45  73 106 135 163 199 248 303
#     4   8  16  29  47  75 111 140 168 197 243 313
#     4   8  14  30  54  77  98 128 168 217 264 302
#     4  10  18  28  47  81 116 143 163 190 241 319
#     4   9  19  35  55  78  98 123 174 235 270 288
#     4   9  16  28  45  72 108 144 170 198 240 304
#
# _framework density 24.81832
#
# number of rings (size 3 to 8) (size 9 to 14) (size 15 to 20)
#    0.000    3.000    1.429    2.143    0.000    1.143 
#    0.000    5.000    0.000    3.429    7.429    2.000 
#    0.000    2.000    0.000    0.000    0.000    0.000 
#
# Total GULP energy -156424.564565 kJ/mol
# GULP energy per Si atom -5586.591592 kJ/mol
# Density = 2.476183 g / cm^3
# Si number density = 24.818320 Si / 1000 Ang^3
#
#
#
# Elastic Constant Matrix: (Units=GPa)
#
#
# Indices 1 2 3 4 5 6 
#
# 1 85.7600 2.9231 42.2735 0.0000 2.0724 0.0000
# 2 2.9231 75.5695 -16.6175 0.0001 2.8837 0.0000
# 3 42.2735 -16.6175 136.9005 0.0001 32.4700 0.0001
# 4 0.0000 0.0001 0.0001 25.3007 0.0000 6.1620
# 5 2.0724 2.8837 32.4700 0.0000 31.0640 0.0000
# 6 0.0000 0.0000 0.0001 6.1620 0.0000 14.0187
#
#
#
# Elastic Compliance Matrix: (Units=1/GPa)
#
#
# Indices 1 2 3 4 5 6 
#
# 1 0.014600 -0.002117 -0.006091 0.000000 0.005589 0.000000
# 2 -0.002117 0.014282 0.003548 0.000000 -0.004893 0.000000
# 3 -0.006091 0.003548 0.012762 0.000000 -0.013262 0.000000
# 4 0.000000 0.000000 0.000000 0.044263 0.000000 -0.019456
# 5 0.005589 -0.004893 -0.013262 0.000000 0.046135 0.000000
# 6 0.000000 0.000000 0.000000 -0.019456 0.000000 0.079885
#
#
# Mechanical properties :
#
#
# Convention : Reuss Voigt Hill
#
# Bulk Modulus (GPa) = 30.93844 39.48757 35.21301
# Shear Modulus (GPa) = 21.54970 32.05341 26.80156
#
# Velocity S-wave (km/s) = 2.94989 3.59767 3.28976
# Velocity P-wave (km/s) = 4.90871 5.76219 5.35249
#
# Compressibility (1/GPa) = 0.03232225
#
# Stress axis : x y z
#
# Youngs Moduli (GPa) = 68.49327 70.01992 78.36015
#
# Poissons Ratio (x) = 0.14826 0.47729
# Poissons Ratio (y) = 0.14503 -0.27802
# Poissons Ratio (z) = 0.41719 -0.24843
#
# Static dielectric constant tensor:
#      x y z
#    x 1.981910 0.000000 -0.044540 
#    y 0.000000 1.999630 0.000000 
#    z -0.044540 0.000000 2.001520 
# 
# From -- ./inp_files/284598.got.cif
#   From: 2010.05.17/outbox.cif.g08.bks.cpg/sg12_143_cif.got.tgz:284598.got - 2010.06.03 13:09:07.
