data_PCOD9171769
_publ_section_title
;
Structure prediction by ZEFSAII (Michael W. Deem and Ramdas Pophale) SiO2 
 PCOD9171769
Probable space group: C 2/M
;
_chemical_formula_sum "Si O2"
_cell_formula_units_Z 56
_cell_length_a 17.798411
_cell_length_b 14.025208
_cell_length_c 12.439047
_cell_angle_alpha 90.000000
_cell_angle_beta 123.652851
_cell_angle_gamma 90.000000
_cell_volume 2584.729868
_symmetry_space_group_name_H-M "C 2/M"
_symmetry_group_IT_number 12
_symmetry_cell_setting 'monoclinic'
loop_
_space_group_symop_operation_xyz
x,y,z
-x,y,-z
-x,-y,-z
x,-y,z
1/2+x,1/2+y,z
1/2-x,1/2+y,-z
1/2-x,1/2-y,-z
1/2+x,1/2-y,z
loop_
_atom_site_type_symbol
_atom_site_label
_atom_site_fract_x
_atom_site_fract_y
_atom_site_fract_z
Si Si1 0.604847 0.388191 0.841828
Si Si2 0.186070 0.838889 0.472730
Si Si3 0.088566 0.896764 0.188665
Si Si4 0.503239 0.888092 0.826181
Si Si5 0.003470 0.745604 0.624386
Si Si6 0.199369 0.604372 0.238992
Si Si7 0.145048 0.246705 0.049589
O O1 0.627336 0.500000 0.841331
O O2 0.508971 0.387773 0.832228
O O3 0.579187 0.323973 0.717878
O O4 0.668776 0.326502 0.972152
O O5 0.250000 0.750000 0.500000
O O6 0.162919 0.889863 0.342132
O O7 0.233636 0.893604 0.607095
O O8 0.090311 0.800326 0.434458
O O9 0.105261 0.817312 0.114014
O O10 0.094569 0.000000 0.140403
O O11 0.506192 0.841161 0.710634
O O12 0.401617 0.880365 0.792510
O O13 0.527019 0.000000 0.846971
O O14 0.572037 0.822632 0.947626
O O15 0.000000 0.711769 0.500000
O O16 0.201269 0.500000 0.189511
O O17 0.217649 0.686760 0.167057
#
# Coordination Sequence:
#
# PCOD9171769 Si02
#       7
#     8   8   8   8   8   8   8
#     4   9  18  31  49  74 105 139 178 220 262 312
#     4  11  19  35  53  77 113 141 170 221 268 315
#     4  10  18  28  47  75 108 142 174 215 268 316
#     4  10  20  33  51  78 110 142 178 219 262 315
#     4  10  21  37  58  80 105 141 180 219 266 317
#     4  11  20  31  51  79 111 145 176 216 269 318
#     4  11  18  29  48  77 111 142 176 218 266 317
#
# _framework density 21.665707000000001
#
# number of rings (size 3 to 8) (size 9 to 14) (size 15 to 20)
#    0.000    1.714    2.857    4.714    0.000    3.429 
#    0.000    0.000    0.000    3.429    0.000    2.000 
#    0.000    0.000    0.000    0.000    0.000    0.000 
#
# Total GULP energy -156442.367327 kJ/mol
# GULP energy per Si atom -5587.227405 kJ/mol
# Density = 2.161639 g / cm^3
# Si number density = 21.665707 Si / 1000 Ang^3
#
#
#
# Elastic Constant Matrix: (Units=GPa)
#
#
# Indices 1 2 3 4 5 6 
#
# 1 46.8711 22.3587 26.9115 0.0000 -3.7782 0.0000
# 2 22.3587 162.7409 62.2117 0.0000 -5.3870 0.0000
# 3 26.9115 62.2117 155.8055 0.0000 -12.9615 0.0000
# 4 0.0000 0.0000 0.0000 18.6456 0.0000 13.5806
# 5 -3.7782 -5.3870 -12.9615 0.0000 28.0893 0.0000
# 6 0.0000 0.0000 0.0000 13.5806 0.0000 -6.3381
#
#
#
# Elastic Compliance Matrix: (Units=1/GPa)
#
#
# Indices 1 2 3 4 5 6 
#
# 1 0.024296 -0.002044 -0.003267 0.000000 0.001369 0.000000
# 2 -0.002044 0.007424 -0.002616 0.000000 -0.000058 0.000000
# 3 -0.003267 -0.002616 0.008266 0.000000 0.002873 0.000000
# 4 0.000000 0.000000 0.000000 0.020945 0.000000 0.044878
# 5 0.001369 -0.000058 0.002873 0.000000 0.037099 0.000000
# 6 0.000000 0.000000 0.000000 0.044878 0.000000 -0.061616
#
#
# Mechanical properties :
#
#
# Convention : Reuss Voigt Hill
#
# Bulk Modulus (GPa) = 41.43760 65.37570 53.40665
# Shear Modulus (GPa) = 82.90379 25.00841 53.95610
#
# Velocity S-wave (km/s) = 6.19258 3.40116 4.99580
# Velocity P-wave (km/s) = 8.38440 6.75752 7.61453
#
# Compressibility (1/GPa) = 0.02413267
#
# Stress axis : x y z
#
# Youngs Moduli (GPa) = 41.15907 134.70456 120.97698
#
# Poissons Ratio (x) = 0.27533 0.39517
# Poissons Ratio (y) = 0.08413 0.31648
# Poissons Ratio (z) = 0.13445 0.35239
#
# Static dielectric constant tensor:
#      x y z
#    x 1.715440 0.000000 0.008600 
#    y 0.000000 1.790180 0.000000 
#    z 0.008600 0.000000 1.828660 
# 
# From -- ./inp_files/156712.got.cif
#   From: 2010.05.17/outbox.cif.g08.bks.cpg/sg12_79_cif.got.tgz:156712.got - 2010.06.03 13:09:07.
