data_PCOD9171778
_publ_section_title
;
Structure prediction by ZEFSAII (Michael W. Deem and Ramdas Pophale) SiO2 
 PCOD9171778
Probable space group: C 2/M
;
_chemical_formula_sum "Si O2"
_cell_formula_units_Z 42
_cell_length_a 20.859151
_cell_length_b 7.973024
_cell_length_c 20.726958
_cell_angle_alpha 90.000000
_cell_angle_beta 35.789623
_cell_angle_gamma 90.000000
_cell_volume 2015.907636
_symmetry_space_group_name_H-M "C 2/M"
_symmetry_group_IT_number 12
_symmetry_cell_setting 'monoclinic'
loop_
_space_group_symop_operation_xyz
x,y,z
-x,y,-z
-x,-y,-z
x,-y,z
1/2+x,1/2+y,z
1/2-x,1/2+y,-z
1/2-x,1/2-y,-z
1/2+x,1/2-y,z
loop_
_atom_site_type_symbol
_atom_site_label
_atom_site_fract_x
_atom_site_fract_y
_atom_site_fract_z
Si Si1 0.500000 0.500000 0.500000
Si Si2 0.861203 0.304580 0.474180
Si Si3 0.593996 0.696305 0.101226
Si Si4 0.405518 0.810603 0.645187
Si Si5 0.631779 0.803706 0.677847
Si Si6 0.209054 0.804946 0.138723
O O1 0.412380 0.650737 0.593261
O O2 0.832543 0.500000 0.491783
O O3 0.758239 0.220591 0.593271
O O4 0.872953 0.234439 0.391951
O O5 0.977395 0.293904 0.413474
O O6 0.621690 0.500000 0.075499
O O7 0.464146 0.720001 0.203124
O O8 0.634674 0.757689 0.138957
O O9 0.667425 0.786240 0.987849
O O10 0.316994 0.789803 0.774231
O O11 0.396589 0.000000 0.624379
O O12 0.605940 0.000000 0.697104
O O13 0.181431 0.000000 0.171685
#
# Coordination Sequence:
#
# PCOD9171778 Si02
#       6
#     2   8   8   8   8   8
#     4  12  26  40  60  82 106 148 202 244 288 326
#     4   9  19  32  49  73 108 146 180 223 275 328
#     4  10  19  29  47  76 113 151 185 214 265 347
#     4  11  22  39  59  81 110 145 188 241 287 327
#     4  10  18  28  47  76 110 147 183 212 262 346
#     4  10  19  32  51  75 110 149 183 227 278 328
#
# _framework density 20.834285999999999
#
# number of rings (size 3 to 8) (size 9 to 14) (size 15 to 20)
#    0.000    1.905    2.857    2.000    1.333    2.286 
#    0.000    0.000    0.000    0.000    0.000    2.667 
#    0.000    6.095    0.000    0.000    0.000    0.000 
#
# Total GULP energy -116930.225209 kJ/mol
# GULP energy per Si atom -5568.105962 kJ/mol
# Density = 2.078687 g / cm^3
# Si number density = 20.834286 Si / 1000 Ang^3
#
#
#
# Elastic Constant Matrix: (Units=GPa)
#
#
# Indices 1 2 3 4 5 6 
#
# 1 16.4157 13.9559 7.3231 0.0002 -0.6406 -0.0003
# 2 13.9559 94.0012 18.9435 0.0007 11.4523 -0.0005
# 3 7.3231 18.9435 136.8185 0.0002 6.1300 -0.0002
# 4 0.0002 0.0007 0.0002 34.7055 -0.0003 2.5059
# 5 -0.6406 11.4523 6.1300 -0.0003 30.8152 0.0002
# 6 -0.0003 -0.0005 -0.0002 2.5059 0.0002 6.9975
#
#
#
# Elastic Compliance Matrix: (Units=1/GPa)
#
#
# Indices 1 2 3 4 5 6 
#
# 1 0.071518 -0.010829 -0.002599 0.000000 0.006028 0.000002
# 2 -0.010829 0.013043 -0.001008 0.000000 -0.004872 0.000001
# 3 -0.002599 -0.001008 0.007641 0.000000 -0.001199 0.000000
# 4 0.000000 0.000000 0.000000 0.029579 0.000000 -0.010592
# 5 0.006028 -0.004872 -0.001199 0.000000 0.034626 -0.000002
# 6 0.000002 0.000001 0.000000 -0.010592 -0.000002 0.146701
#
#
# Mechanical properties :
#
#
# Convention : Reuss Voigt Hill
#
# Bulk Modulus (GPa) = 15.79006 36.40894 26.09950
# Shear Modulus (GPa) = 14.16077 28.30451 21.23264
#
# Velocity S-wave (km/s) = 2.60991 3.68986 3.19583
# Velocity P-wave (km/s) = 4.08381 5.97217 5.11587
#
# Compressibility (1/GPa) = 0.06333098
#
# Stress axis : x y z
#
# Youngs Moduli (GPa) = 13.98254 76.67235 130.86700
#
# Poissons Ratio (x) = 0.83026 0.34009
# Poissons Ratio (y) = 0.15141 0.13191
# Poissons Ratio (z) = 0.03634 0.07728
#
# Static dielectric constant tensor:
#      x y z
#    x 1.774040 0.000000 0.015970 
#    y 0.000000 1.774210 0.000000 
#    z 0.015970 0.000000 1.752850 
# 
# From -- ./inp_files/163040.got.cif
#   From: 2010.05.17/outbox.cif.g08.bks.cpg/sg12_82_cif.got.tgz:163040.got - 2010.06.03 13:09:07.
