data_PCOD9171301
_publ_section_title
;
Structure prediction by ZEFSAII (Michael W. Deem and Ramdas Pophale) SiO2 
 PCOD9171301
Probable space group: C 2/M
;
_chemical_formula_sum "Si O2"
_cell_formula_units_Z 56
_cell_length_a 16.604794
_cell_length_b 27.145219
_cell_length_c 8.583338
_cell_angle_alpha 90.000000
_cell_angle_beta 58.496027
_cell_angle_gamma 90.000000
_cell_volume 3298.605566
_symmetry_space_group_name_H-M "C 2/M"
_symmetry_group_IT_number 12
_symmetry_cell_setting 'monoclinic'
loop_
_space_group_symop_operation_xyz
x,y,z
-x,y,-z
-x,-y,-z
x,-y,z
1/2+x,1/2+y,z
1/2-x,1/2+y,-z
1/2-x,1/2-y,-z
1/2+x,1/2-y,z
loop_
_atom_site_type_symbol
_atom_site_label
_atom_site_fract_x
_atom_site_fract_y
_atom_site_fract_z
Si Si1 0.459240 0.595814 0.885509
Si Si2 0.173276 0.728069 0.698847
Si Si3 0.482063 0.214091 0.701710
Si Si4 0.219863 0.943631 0.120553
Si Si5 0.867040 0.799137 0.971126
Si Si6 0.187408 0.340763 0.971656
Si Si7 0.586598 0.553584 0.533566
O O1 0.371388 0.566730 0.897779
O O2 0.421267 0.650430 0.949557
O O3 0.550758 0.595918 0.681562
O O4 0.500000 0.572681 0.000000
O O5 0.250000 0.750000 0.500000
O O6 0.080498 0.715607 0.693554
O O7 0.149571 0.769203 0.853541
O O8 0.197473 0.680938 0.785435
O O9 0.500000 0.206941 0.500000
O O10 0.427900 0.265423 0.792491
O O11 0.412486 0.174399 0.852518
O O12 0.178287 0.938928 0.337681
O O13 0.251992 0.000000 0.064600
O O14 0.292252 0.898787 0.031230
O O15 0.768407 0.813048 0.989651
O O16 0.500000 0.550156 0.500000
O O17 0.592502 0.500000 0.607440
#
# Coordination Sequence:
#
# PCOD9171301 Si02
#       7
#     8   8   8   8   8   8   8
#     4  10  18  27  45  73 106 139 173 211 255 307
#     4  11  21  35  55  78 106 137 171 213 260 313
#     4  11  21  35  54  75 104 137 168 207 259 314
#     4   9  19  34  51  70  97 136 179 222 261 302
#     4  10  20  33  48  77 111 139 172 205 247 311
#     4  10  20  35  54  77 105 136 174 214 256 306
#     4   8  15  28  43  62  90 126 166 203 244 294
#
# _framework density 16.976869000000001
#
# number of rings (size 3 to 8) (size 9 to 14) (size 15 to 20)
#    0.000    2.143    0.000    7.286    0.000    6.286 
#    0.000    0.000    0.000    2.143    0.000    0.000 
#    0.000    0.000    0.000    0.000    0.000    0.000 
#
# Total GULP energy -155949.077953 kJ/mol
# GULP energy per Si atom -5569.609927 kJ/mol
# Density = 1.693823 g / cm^3
# Si number density = 16.976869 Si / 1000 Ang^3
#
#
#
# Elastic Constant Matrix: (Units=GPa)
#
#
# Indices 1 2 3 4 5 6 
#
# 1 106.0332 48.2035 47.8317 0.0000 -3.1832 0.0000
# 2 48.2035 96.4173 43.0357 0.0000 1.9454 0.0000
# 3 47.8317 43.0357 102.1241 0.0000 2.4234 0.0000
# 4 0.0000 0.0000 0.0000 16.2170 0.0000 -3.8174
# 5 -3.1832 1.9454 2.4234 0.0000 24.0922 0.0000
# 6 0.0000 0.0000 0.0000 -3.8174 0.0000 2.7022
#
#
#
# Elastic Compliance Matrix: (Units=1/GPa)
#
#
# Indices 1 2 3 4 5 6 
#
# 1 0.013759 -0.004961 -0.004417 0.000000 0.002663 0.000000
# 2 -0.004961 0.014569 -0.003781 0.000000 -0.001452 0.000000
# 3 -0.004417 -0.003781 0.013493 0.000000 -0.001635 0.000000
# 4 0.000000 0.000000 0.000000 0.092385 0.000000 0.130511
# 5 0.002663 -0.001452 -0.001635 0.000000 0.042141 0.000000
# 6 0.000000 0.000000 0.000000 0.130511 0.000000 0.554436
#
#
# Mechanical properties :
#
#
# Convention : Reuss Voigt Hill
#
# Bulk Modulus (GPa) = 64.50635 64.74627 64.62631
# Shear Modulus (GPa) = 6.55937 19.63588 13.09763
#
# Velocity S-wave (km/s) = 1.96777 3.40461 2.78060
# Velocity P-wave (km/s) = 6.57586 7.32638 6.96124
#
# Compressibility (1/GPa) = 0.01550235
#
# Stress axis : x y z
#
# Youngs Moduli (GPa) = 72.68185 68.63946 74.11256
#
# Poissons Ratio (x) = 0.34051 0.32734
# Poissons Ratio (y) = 0.36057 0.28025
# Poissons Ratio (z) = 0.32102 0.25956
#
# Static dielectric constant tensor:
#      x y z
#    x 1.579430 0.000000 0.015870 
#    y 0.000000 1.601960 0.000000 
#    z 0.015870 0.000000 1.614450 
# 
# From -- ./inp_files/66843.got.cif
#   From: 2010.05.17/outbox.cif.g08.bks.cpg/sg12_34_cif.got.tgz:66843.got - 2010.06.03 13:09:07.
