data_PCOD9171998
_publ_section_title
;
Structure prediction by ZEFSAII (Michael W. Deem and Ramdas Pophale) SiO2 
 PCOD9171998
Probable space group: C 2/M
;
_chemical_formula_sum "Si O2"
_cell_formula_units_Z 48
_cell_length_a 26.862375
_cell_length_b 18.693834
_cell_length_c 5.277554
_cell_angle_alpha 90.000000
_cell_angle_beta 70.223923
_cell_angle_gamma 90.000000
_cell_volume 2493.878598
_symmetry_space_group_name_H-M "C 2/M"
_symmetry_group_IT_number 12
_symmetry_cell_setting 'monoclinic'
loop_
_space_group_symop_operation_xyz
x,y,z
-x,y,-z
-x,-y,-z
x,-y,z
1/2+x,1/2+y,z
1/2-x,1/2+y,-z
1/2-x,1/2-y,-z
1/2+x,1/2-y,z
loop_
_atom_site_type_symbol
_atom_site_label
_atom_site_fract_x
_atom_site_fract_y
_atom_site_fract_z
Si Si1 0.347696 0.710987 0.439374
Si Si2 0.185837 0.624780 0.427458
Si Si3 0.518196 0.126887 0.216352
Si Si4 0.472094 0.712229 0.295529
Si Si5 0.870008 0.579971 0.977830
Si Si6 0.713052 0.317336 0.976038
O O1 0.334155 0.793451 0.523947
O O2 0.409881 0.701413 0.375758
O O3 0.316804 0.665408 0.709520
O O4 0.327206 0.700080 0.186001
O O5 0.172680 0.594579 0.727906
O O6 0.153823 0.586445 0.260211
O O7 0.245979 0.627680 0.224177
O O8 0.500000 0.088878 0.500000
O O9 0.486045 0.202251 0.272835
O O10 0.500000 0.087093 0.000000
O O11 0.581153 0.135256 0.093049
O O12 0.500000 0.683889 0.500000
O O13 0.500000 0.681785 0.000000
O O14 0.891093 0.500000 0.979328
O O15 0.750000 0.250000 0.000000
#
# Coordination Sequence:
#
# PCOD9171998 Si02
#       6
#     8   8   8   8   8   8
#     4  11  19  32  52  74  97 123 166 210 255 313
#     4  11  20  36  52  68  96 123 160 216 266 299
#     4  10  20  33  47  65  88 124 169 213 255 282
#     4  10  18  29  45  67  94 129 163 195 240 292
#     4  12  24  36  51  70  95 134 180 219 254 288
#     4  10  20  32  51  76  94 119 158 211 268 316
#
# _framework density 19.247126999999999
#
# number of rings (size 3 to 8) (size 9 to 14) (size 15 to 20)
#    0.000    1.333    0.000   11.500    0.000    0.667 
#    0.000    0.000    0.000    0.000    0.000    0.000 
#    0.000    0.000    0.000    0.000    0.000  210.000 
#
# Total GULP energy -133783.180679 kJ/mol
# GULP energy per Si atom -5574.299195 kJ/mol
# Density = 1.920332 g / cm^3
# Si number density = 19.247127 Si / 1000 Ang^3
#
#
#
# Elastic Constant Matrix: (Units=GPa)
#
#
# Indices 1 2 3 4 5 6 
#
# 1 115.1365 -1.1897 27.5832 0.0000 10.6331 0.0000
# 2 -1.1897 7.2343 -2.0240 0.0000 -0.8154 0.0000
# 3 27.5832 -2.0240 119.8472 0.0000 23.6234 0.0000
# 4 0.0000 0.0000 0.0000 -3.0477 0.0000 0.9330
# 5 10.6331 -0.8154 23.6234 0.0000 47.3953 0.0000
# 6 0.0000 0.0000 0.0000 0.9330 0.0000 3.6182
#
#
#
# Elastic Compliance Matrix: (Units=1/GPa)
#
#
# Indices 1 2 3 4 5 6 
#
# 1 0.009251 0.000866 -0.001895 0.000000 -0.001116 0.000000
# 2 0.000866 0.139046 0.001903 0.000000 0.001250 0.000000
# 3 -0.001895 0.001903 0.009672 0.000000 -0.004363 0.000000
# 4 0.000000 0.000000 0.000000 -0.304115 0.000000 0.078418
# 5 -0.001116 0.001250 -0.004363 0.000000 0.023546 0.000000
# 6 0.000000 0.000000 0.000000 0.078418 0.000000 0.256157
#
#
# Mechanical properties :
#
#
# Convention : Reuss Voigt Hill
#
# Bulk Modulus (GPa) = 6.26110 32.32856 19.29483
# Shear Modulus (GPa) = 27.01997 24.11640 25.56818
#
# Velocity S-wave (km/s) = 3.75086 3.54360 3.64870
# Velocity P-wave (km/s) = 4.69240 5.79446 5.27231
#
# Compressibility (1/GPa) = 0.15971639
#
# Stress axis : x y z
#
# Youngs Moduli (GPa) = 108.09341 7.19188 103.38951
#
# Poissons Ratio (x) = -0.00623 0.19588
# Poissons Ratio (y) = -0.09356 -0.19672
# Poissons Ratio (z) = 0.20479 -0.01368
#
# Static dielectric constant tensor:
#      x y z
#    x 1.715370 0.000000 -0.007970 
#    y 0.000000 1.670160 0.000000 
#    z -0.007970 0.000000 1.729680 
# 
# From -- ./inp_files/25208.got.cif
#   From: 2010.05.17/outbox.cif.g08.bks.cpg/sg12_13_cif.got.tgz:25208.got - 2010.06.03 13:09:07.
