data_PCOD9171995
_publ_section_title
;
Structure prediction by ZEFSAII (Michael W. Deem and Ramdas Pophale) SiO2 
 PCOD9171995
Probable space group: C 2/M
;
_chemical_formula_sum "Si O2"
_cell_formula_units_Z 56
_cell_length_a 28.031126
_cell_length_b 8.654949
_cell_length_c 16.680607
_cell_angle_alpha 90.000000
_cell_angle_beta 114.990193
_cell_angle_gamma 90.000000
_cell_volume 3667.982662
_symmetry_space_group_name_H-M "C 2/M"
_symmetry_group_IT_number 12
_symmetry_cell_setting 'monoclinic'
loop_
_space_group_symop_operation_xyz
x,y,z
-x,y,-z
-x,-y,-z
x,-y,z
1/2+x,1/2+y,z
1/2-x,1/2+y,-z
1/2-x,1/2-y,-z
1/2+x,1/2-y,z
loop_
_atom_site_type_symbol
_atom_site_label
_atom_site_fract_x
_atom_site_fract_y
_atom_site_fract_z
Si Si1 0.168478 0.813931 0.453842
Si Si2 0.439284 0.685793 0.539222
Si Si3 0.735497 0.184400 0.361691
Si Si4 0.252885 0.685409 0.806148
Si Si5 0.145044 0.814182 0.806089
Si Si6 0.196413 0.814286 0.000113
Si Si7 0.053457 0.684206 0.632824
O O1 0.110435 0.770047 0.441728
O O2 0.210934 0.771009 0.552749
O O3 0.188409 0.738529 0.386026
O O4 0.170472 0.000000 0.446811
O O5 0.442943 0.500000 0.539481
O O6 0.431013 0.745994 0.442822
O O7 0.494599 0.754782 0.607512
O O8 0.734656 0.259732 0.274046
O O9 0.735116 0.000000 0.353276
O O10 0.246982 0.500000 0.803565
O O11 0.198079 0.759535 0.797931
O O12 0.298439 0.730134 0.903013
O O13 0.095080 0.740255 0.727816
O O14 0.141737 0.000000 0.798521
O O15 0.151851 0.767045 0.904696
O O16 0.197612 0.000000 0.998359
O O17 0.250000 0.750000 0.000000
O O18 0.053007 0.500000 0.626803
#
# Coordination Sequence:
#
# PCOD9171995 Si02
#       7
#     8   8   8   8   8   8   8
#     4   9  19  33  47  64  88 118 152 188 221 257
#     4  10  19  33  50  66  89 121 154 188 225 263
#     4  10  19  30  46  68  92 120 151 181 219 266
#     4  10  18  29  45  67  94 121 150 185 225 265
#     4  10  18  30  46  65  91 122 155 186 221 266
#     4   8  16  28  43  63  88 118 149 183 221 264
#     4  11  21  31  45  68  94 120 152 186 224 267
#
# _framework density 15.267248
#
# number of rings (size 3 to 8) (size 9 to 14) (size 15 to 20)
#    0.000    2.286    0.000    4.714    0.000    4.000 
#    0.000    0.000    0.000    0.000    0.000    1.000 
#    0.000    8.000    0.000    0.000    0.000    0.000 
#
# Total GULP energy -156074.560809 kJ/mol
# GULP energy per Si atom -5574.091457 kJ/mol
# Density = 1.523250 g / cm^3
# Si number density = 15.267248 Si / 1000 Ang^3
#
#
#
# Elastic Constant Matrix: (Units=GPa)
#
#
# Indices 1 2 3 4 5 6 
#
# 1 81.8286 25.9994 53.7467 0.0000 -0.6010 0.0000
# 2 25.9994 45.8716 34.3610 0.0000 0.4398 0.0000
# 3 53.7467 34.3610 140.2483 0.0000 3.3159 0.0000
# 4 0.0000 0.0000 0.0000 20.4474 0.0000 -0.0508
# 5 -0.6010 0.4398 3.3159 0.0000 23.1640 0.0000
# 6 0.0000 0.0000 0.0000 -0.0508 0.0000 22.8027
#
#
#
# Elastic Compliance Matrix: (Units=1/GPa)
#
#
# Indices 1 2 3 4 5 6 
#
# 1 0.017636 -0.006029 -0.005313 0.000000 0.001333 0.000000
# 2 -0.006029 0.028765 -0.004737 0.000000 -0.000025 0.000000
# 3 -0.005313 -0.004737 0.010363 0.000000 -0.001531 0.000000
# 4 0.000000 0.000000 0.000000 0.048906 0.000000 0.000109
# 5 0.001333 -0.000025 -0.001531 0.000000 0.043425 0.000000
# 6 0.000000 0.000000 0.000000 0.000109 0.000000 0.043855
#
#
# Mechanical properties :
#
#
# Convention : Reuss Voigt Hill
#
# Bulk Modulus (GPa) = 40.63815 55.12922 47.88369
# Shear Modulus (GPa) = 21.43090 23.53892 22.48491
#
# Velocity S-wave (km/s) = 3.75069 3.93083 3.84181
# Velocity P-wave (km/s) = 6.74036 7.53589 7.14920
#
# Compressibility (1/GPa) = 0.02460742
#
# Stress axis : x y z
#
# Youngs Moduli (GPa) = 56.70369 34.76421 96.49790
#
# Poissons Ratio (x) = 0.20958 0.51268
# Poissons Ratio (y) = 0.34185 0.45707
# Poissons Ratio (z) = 0.30126 0.16466
#
# Static dielectric constant tensor:
#      x y z
#    x 1.478540 0.000000 0.008660 
#    y 0.000000 1.512100 0.000000 
#    z 0.008660 0.000000 1.527430 
# 
# From -- ./inp_files/243274.got.cif
#   From: 2010.05.17/outbox.cif.g08.bks.cpg/sg12_122_cif.got.tgz:243274.got - 2010.06.03 13:09:07.
