data_PCOD9171770
_publ_section_title
;
Structure prediction by ZEFSAII (Michael W. Deem and Ramdas Pophale) SiO2 
 PCOD9171770
Probable space group: C 2/M
;
_chemical_formula_sum "Si O2"
_cell_formula_units_Z 64
_cell_length_a 9.171137
_cell_length_b 19.445504
_cell_length_c 20.973237
_cell_angle_alpha 90.000000
_cell_angle_beta 117.672099
_cell_angle_gamma 90.000000
_cell_volume 3312.494817
_symmetry_space_group_name_H-M "C 2/M"
_symmetry_group_IT_number 12
_symmetry_cell_setting 'monoclinic'
loop_
_space_group_symop_operation_xyz
x,y,z
-x,y,-z
-x,-y,-z
x,-y,z
1/2+x,1/2+y,z
1/2-x,1/2+y,-z
1/2-x,1/2-y,-z
1/2+x,1/2-y,z
loop_
_atom_site_type_symbol
_atom_site_label
_atom_site_fract_x
_atom_site_fract_y
_atom_site_fract_z
Si Si1 0.730983 0.081594 0.547618
Si Si2 0.214395 0.836707 0.775534
Si Si3 0.430284 0.219140 0.170695
Si Si4 0.596234 0.418508 0.631723
Si Si5 0.058072 0.918444 0.845809
Si Si6 0.249149 0.583351 0.696850
Si Si7 0.399893 0.916324 0.609153
Si Si8 0.055770 0.818672 0.082284
O O1 0.744388 0.108166 0.622573
O O2 0.614766 0.107784 0.467361
O O3 0.919241 0.088560 0.563264
O O4 0.694393 0.000000 0.546930
O O5 0.399602 0.822917 0.788384
O O6 0.117526 0.768456 0.779263
O O7 0.116970 0.876906 0.700952
O O8 0.208499 0.883641 0.838294
O O9 0.255442 0.181076 0.124422
O O10 0.479071 0.265255 0.118362
O O11 0.614557 0.500000 0.650396
O O12 0.739712 0.395368 0.614334
O O13 0.895917 0.894532 0.772069
O O14 0.023167 0.889753 0.908736
O O15 0.070976 0.000000 0.846588
O O16 0.263376 0.500000 0.697743
O O17 0.065170 0.602690 0.680263
O O18 0.398658 0.000000 0.605615
O O19 0.000000 0.801260 0.000000
#
# Coordination Sequence:
#
# PCOD9171770 Si02
#       8
#     8   8   8   8   8   8   8   8
#     4   9  15  26  42  65 102 143 176 208 256 313
#     4  10  19  36  55  76 106 137 178 223 264 304
#     4   9  21  37  58  83 103 132 184 225 260 294
#     4  10  18  28  47  75 110 140 166 210 272 323
#     4  10  20  34  53  80 115 146 172 205 262 331
#     4   9  16  27  42  65 102 142 173 205 247 306
#     4   9  17  25  39  69 106 140 175 211 253 313
#     4  10  20  37  61  84 111 137 169 218 262 308
#
# _framework density 19.320785000000001
#
# number of rings (size 3 to 8) (size 9 to 14) (size 15 to 20)
#    0.000    2.500    1.250    1.500    1.750    3.250 
#    0.000    0.625    0.000    0.750    0.000    3.500 
#    0.000    0.125    0.000    0.000    0.000    0.000 
#
# Total GULP energy -178150.348800 kJ/mol
# GULP energy per Si atom -5567.198400 kJ/mol
# Density = 1.927681 g / cm^3
# Si number density = 19.320785 Si / 1000 Ang^3
#
#
#
# Elastic Constant Matrix: (Units=GPa)
#
#
# Indices 1 2 3 4 5 6 
#
# 1 103.3365 11.2619 3.7823 0.0000 2.2663 0.0000
# 2 11.2619 34.4258 2.7098 0.0000 3.2798 0.0000
# 3 3.7823 2.7098 44.8828 0.0000 -8.0317 0.0000
# 4 0.0000 0.0000 0.0000 11.6016 0.0000 -0.7021
# 5 2.2663 3.2798 -8.0317 0.0000 26.7501 0.0000
# 6 0.0000 0.0000 0.0000 -0.7021 0.0000 15.4828
#
#
#
# Elastic Compliance Matrix: (Units=1/GPa)
#
#
# Indices 1 2 3 4 5 6 
#
# 1 0.010066 -0.003165 -0.000782 0.000000 -0.000700 0.000000
# 2 -0.003165 0.030667 -0.002335 0.000000 -0.004193 0.000000
# 3 -0.000782 -0.002335 0.023831 0.000000 0.007508 0.000000
# 4 0.000000 0.000000 0.000000 0.086432 0.000000 0.003919
# 5 -0.000700 -0.004193 0.007508 0.000000 0.040211 0.000000
# 6 0.000000 0.000000 0.000000 0.003919 0.000000 0.064766
#
#
# Mechanical properties :
#
#
# Convention : Reuss Voigt Hill
#
# Bulk Modulus (GPa) = 19.23125 24.23925 21.73525
# Shear Modulus (GPa) = 17.49054 21.75964 19.62509
#
# Velocity S-wave (km/s) = 3.01204 3.35958 3.19054
# Velocity P-wave (km/s) = 4.69806 5.25566 4.98466
#
# Compressibility (1/GPa) = 0.05199870
#
# Stress axis : x y z
#
# Youngs Moduli (GPa) = 99.34431 32.60881 41.96268
#
# Poissons Ratio (x) = 0.10320 0.03283
# Poissons Ratio (y) = 0.31439 0.09799
# Poissons Ratio (z) = 0.07773 0.07615
#
# Static dielectric constant tensor:
#      x y z
#    x 1.758940 0.000000 -0.012930 
#    y 0.000000 1.681810 0.000000 
#    z -0.012930 0.000000 1.667030 
# 
# From -- ./inp_files/301735.got.cif
#   From: 2010.05.17/outbox.cif.g08.bks.cpg/sg12_151_cif.got.tgz:301735.got - 2010.06.03 13:09:07.
