data_PCOD9171378
_publ_section_title
;
Structure prediction by ZEFSAII (Michael W. Deem and Ramdas Pophale) SiO2 
 PCOD9171378
Probable space group: C 2/M
;
_chemical_formula_sum "Si O2"
_cell_formula_units_Z 56
_cell_length_a 25.093646
_cell_length_b 9.260545
_cell_length_c 18.243989
_cell_angle_alpha 90.000000
_cell_angle_beta 118.753727
_cell_angle_gamma 90.000000
_cell_volume 3716.797291
_symmetry_space_group_name_H-M "C 2/M"
_symmetry_group_IT_number 12
_symmetry_cell_setting 'monoclinic'
loop_
_space_group_symop_operation_xyz
x,y,z
-x,y,-z
-x,-y,-z
x,-y,z
1/2+x,1/2+y,z
1/2-x,1/2+y,-z
1/2-x,1/2-y,-z
1/2+x,1/2-y,z
loop_
_atom_site_type_symbol
_atom_site_label
_atom_site_fract_x
_atom_site_fract_y
_atom_site_fract_z
Si Si1 0.291258 0.829374 0.295767
Si Si2 0.853165 0.170753 0.772226
Si Si3 0.429360 0.173382 0.948497
Si Si4 0.833095 0.327522 0.005104
Si Si5 0.832800 0.666550 0.612031
Si Si6 0.711823 0.173426 0.869393
Si Si7 0.313224 0.333884 0.455143
O O1 0.217931 0.810763 0.252533
O O2 0.309576 0.783948 0.225817
O O3 0.320570 0.740146 0.381110
O O4 0.303439 0.000000 0.314098
O O5 0.894968 0.245905 0.860313
O O6 0.860647 0.245976 0.698269
O O7 0.864755 0.000000 0.775548
O O8 0.425151 0.000000 0.933983
O O9 0.500000 0.212377 0.000000
O O10 0.393496 0.207516 0.999952
O O11 0.823119 0.500000 0.992299
O O12 0.831708 0.292112 0.090669
O O13 0.776034 0.247146 0.930718
O O14 0.852431 0.500000 0.624241
O O15 0.759685 0.667294 0.577488
O O16 0.842562 0.744035 0.540791
O O17 0.720669 0.000000 0.873186
O O18 0.332964 0.500000 0.468604
#
# Coordination Sequence:
#
# PCOD9171378 Si02
#       7
#     8   8   8   8   8   8   8
#     4   9  16  25  38  57  83 110 136 169 208 251
#     4  10  18  28  42  59  80 108 143 178 212 251
#     4  10  20  32  44  60  84 113 146 182 217 253
#     4   9  17  28  43  60  80 108 142 177 215 253
#     4   9  16  26  39  55  79 110 140 170 206 247
#     4   9  16  27  42  61  83 108 139 176 213 253
#     4   9  16  24  36  56  81 109 140 169 199 242
#
# _framework density 15.066736000000001
#
# number of rings (size 3 to 8) (size 9 to 14) (size 15 to 20)
#    0.000    2.714    1.429    1.286    0.000    4.857 
#    0.000    0.000    0.000    0.000    0.000    0.000 
#    0.000    1.143    0.000   13.429    0.000    3.143 
#
# Total GULP energy -155945.967163 kJ/mol
# GULP energy per Si atom -5569.498827 kJ/mol
# Density = 1.503244 g / cm^3
# Si number density = 15.066736 Si / 1000 Ang^3
#
#
#
# Elastic Constant Matrix: (Units=GPa)
#
#
# Indices 1 2 3 4 5 6 
#
# 1 73.2111 36.3007 55.6086 0.0000 -21.6565 0.0000
# 2 36.3007 65.1935 56.8029 0.0000 -18.2223 0.0000
# 3 55.6086 56.8029 104.0966 0.0000 -40.9834 0.0000
# 4 0.0000 0.0000 0.0000 28.1744 0.0000 -5.0998
# 5 -21.6565 -18.2223 -40.9834 0.0000 29.1872 0.0000
# 6 0.0000 0.0000 0.0000 -5.0998 0.0000 10.5840
#
#
#
# Elastic Compliance Matrix: (Units=1/GPa)
#
#
# Indices 1 2 3 4 5 6 
#
# 1 0.023558 -0.004213 -0.009927 0.000000 0.000909 0.000000
# 2 -0.004213 0.031164 -0.018617 0.000000 -0.009812 0.000000
# 3 -0.009927 -0.018617 0.039341 0.000000 0.036252 0.000000
# 4 0.000000 0.000000 0.000000 0.038885 0.000000 0.018736
# 5 0.000909 -0.009812 0.036252 0.000000 0.079714 0.000000
# 6 0.000000 0.000000 0.000000 0.018736 0.000000 0.103510
#
#
# Mechanical properties :
#
#
# Convention : Reuss Voigt Hill
#
# Bulk Modulus (GPa) = 35.03048 59.99172 47.51110
# Shear Modulus (GPa) = 12.78108 19.84173 16.31140
#
# Velocity S-wave (km/s) = 2.91572 3.63288 3.29387
# Velocity P-wave (km/s) = 5.88523 7.58293 6.78737
#
# Compressibility (1/GPa) = 0.02854657
#
# Stress axis : x y z
#
# Youngs Moduli (GPa) = 42.44867 32.08852 25.41861
#
# Poissons Ratio (x) = 0.13520 0.25234
# Poissons Ratio (y) = 0.17885 0.47323
# Poissons Ratio (z) = 0.42141 0.59740
#
# Static dielectric constant tensor:
#      x y z
#    x 1.490450 0.000000 -0.035600 
#    y 0.000000 1.501270 0.000000 
#    z -0.035600 0.000000 1.484570 
# 
# From -- ./inp_files/291660.got.cif
#   From: 2010.05.17/outbox.cif.g08.bks.cpg/sg12_146_cif.got.tgz:291660.got - 2010.06.03 13:09:07.
