data_PCOD9171173
_publ_section_title
;
Structure prediction by ZEFSAII (Michael W. Deem and Ramdas Pophale) SiO2 
 PCOD9171173
Probable space group: C 2/M
;
_chemical_formula_sum "Si O2"
_cell_formula_units_Z 64
_cell_length_a 24.754731
_cell_length_b 7.658648
_cell_length_c 17.433435
_cell_angle_alpha 90.000000
_cell_angle_beta 96.010506
_cell_angle_gamma 90.000000
_cell_volume 3286.996633
_symmetry_space_group_name_H-M "C 2/M"
_symmetry_group_IT_number 12
_symmetry_cell_setting 'monoclinic'
loop_
_space_group_symop_operation_xyz
x,y,z
-x,y,-z
-x,-y,-z
x,-y,z
1/2+x,1/2+y,z
1/2-x,1/2+y,-z
1/2-x,1/2-y,-z
1/2+x,1/2-y,z
loop_
_atom_site_type_symbol
_atom_site_label
_atom_site_fract_x
_atom_site_fract_y
_atom_site_fract_z
Si Si1 0.547768 0.295824 0.751540
Si Si2 0.058889 0.789570 0.037876
Si Si3 0.734864 0.207103 0.584270
Si Si4 0.686582 0.285588 0.268387
Si Si5 0.772537 0.698310 0.167414
Si Si6 0.126550 0.707480 0.902569
Si Si7 0.649484 0.706098 0.684317
Si Si8 0.932408 0.785781 0.785457
O O1 0.539657 0.500000 0.733941
O O2 0.582112 0.280912 0.835913
O O3 0.588785 0.228186 0.692327
O O4 0.487978 0.220816 0.755020
O O5 0.068179 0.730487 0.125814
O O6 0.056724 0.000000 0.038607
O O7 0.105185 0.740212 0.984333
O O8 0.000000 0.726239 0.000000
O O9 0.750000 0.250000 0.500000
O O10 0.779398 0.273826 0.652433
O O11 0.676452 0.271920 0.605680
O O12 0.733934 0.000000 0.591330
O O13 0.688283 0.500000 0.266870
O O14 0.717502 0.224706 0.195162
O O15 0.624130 0.232568 0.260799
O O16 0.759793 0.500000 0.141632
O O17 0.813165 0.776979 0.109902
O O18 0.811422 0.699288 0.248714
O O19 0.128200 0.500000 0.889226
O O20 0.651131 0.500000 0.703887
O O21 0.933873 0.000000 0.785540
#
# Coordination Sequence:
#
# PCOD9171173 Si02
#       8
#     8   8   8   8   8   8   8   8
#     4   9  16  28  46  68  92 119 156 194 227 267
#     4  10  18  29  44  63  89 119 157 199 235 273
#     4  10  19  32  52  76  99 120 148 183 222 270
#     4   8  15  29  49  70  90 116 152 188 224 271
#     4   8  15  28  44  63  88 120 155 192 231 272
#     4  10  18  27  42  63  90 120 154 198 241 274
#     4   9  16  26  45  72  97 119 148 187 226 265
#     4   9  16  28  47  67  89 120 155 193 233 270
#
# _framework density 19.470662000000001
#
# number of rings (size 3 to 8) (size 9 to 14) (size 15 to 20)
#    0.000    2.875    1.250    1.875    0.000    1.250 
#    0.000    0.625    0.000    8.250    0.000    5.250 
#    0.000    0.000    0.000    0.000    0.000    0.000 
#
# Total GULP energy -178261.436932 kJ/mol
# GULP energy per Si atom -5570.669904 kJ/mol
# Density = 1.942635 g / cm^3
# Si number density = 19.470662 Si / 1000 Ang^3
#
#
#
# Elastic Constant Matrix: (Units=GPa)
#
#
# Indices 1 2 3 4 5 6 
#
# 1 148.0486 2.6867 63.8042 0.0000 -36.4445 0.0000
# 2 2.6867 41.6446 1.0938 0.0000 -0.5442 0.0000
# 3 63.8042 1.0938 98.1901 0.0000 -35.7263 0.0000
# 4 0.0000 0.0000 0.0000 16.6068 0.0000 -7.7891
# 5 -36.4445 -0.5442 -35.7263 0.0000 33.9245 0.0000
# 6 0.0000 0.0000 0.0000 -7.7891 0.0000 10.7524
#
#
#
# Elastic Compliance Matrix: (Units=1/GPa)
#
#
# Indices 1 2 3 4 5 6 
#
# 1 0.010190 -0.000461 -0.004273 0.000000 0.006439 0.000000
# 2 -0.000461 0.024041 -0.000013 0.000000 -0.000123 0.000000
# 3 -0.004273 -0.000013 0.018305 0.000000 0.014686 0.000000
# 4 0.000000 0.000000 0.000000 0.091205 0.000000 0.066069
# 5 0.006439 -0.000123 0.014686 0.000000 0.051858 0.000000
# 6 0.000000 0.000000 0.000000 0.066069 0.000000 0.140863
#
#
# Mechanical properties :
#
#
# Convention : Reuss Voigt Hill
#
# Bulk Modulus (GPa) = 23.23394 47.00587 35.11990
# Shear Modulus (GPa) = 13.87719 26.94332 20.41026
#
# Velocity S-wave (km/s) = 2.67258 3.72397 3.24119
# Velocity P-wave (km/s) = 4.63490 6.53337 5.66424
#
# Compressibility (1/GPa) = 0.04304048
#
# Stress axis : x y z
#
# Youngs Moduli (GPa) = 98.13940 41.59529 54.63051
#
# Poissons Ratio (x) = 0.01918 0.23346
# Poissons Ratio (y) = 0.04524 0.00072
# Poissons Ratio (z) = 0.41938 0.00055
#
# Static dielectric constant tensor:
#      x y z
#    x 1.725650 0.000000 -0.051410 
#    y 0.000000 1.751960 0.000000 
#    z -0.051410 0.000000 1.671080 
# 
# From -- ./inp_files/287552.got.cif
#   From: 2010.05.17/outbox.cif.g08.bks.cpg/sg12_144_cif.got.tgz:287552.got - 2010.06.03 13:09:07.
