data_PCOD9171135
_publ_section_title
;
Structure prediction by ZEFSAII (Michael W. Deem and Ramdas Pophale) SiO2 
 PCOD9171135
Probable space group: C 2/M
;
_chemical_formula_sum "Si O2"
_cell_formula_units_Z 40
_cell_length_a 13.246710
_cell_length_b 28.597843
_cell_length_c 5.029754
_cell_angle_alpha 90.000000
_cell_angle_beta 108.309587
_cell_angle_gamma 90.000000
_cell_volume 1808.943045
_symmetry_space_group_name_H-M "C 2/M"
_symmetry_group_IT_number 12
_symmetry_cell_setting 'monoclinic'
loop_
_space_group_symop_operation_xyz
x,y,z
-x,y,-z
-x,-y,-z
x,-y,z
1/2+x,1/2+y,z
1/2-x,1/2+y,-z
1/2-x,1/2-y,-z
1/2+x,1/2-y,z
loop_
_atom_site_type_symbol
_atom_site_label
_atom_site_fract_x
_atom_site_fract_y
_atom_site_fract_z
Si Si1 0.662312 0.699586 0.214931
Si Si2 0.890516 0.603284 0.789394
Si Si3 0.609723 0.756414 0.669642
Si Si4 0.239680 0.895015 0.164715
Si Si5 0.731781 0.500000 0.247476
Si Si6 0.640357 0.000000 0.157213
O O1 0.625541 0.713638 0.476435
O O2 0.787494 0.711878 0.286081
O O3 0.653868 0.645473 0.138986
O O4 0.609083 0.734553 0.960500
O O5 0.834253 0.612974 0.461543
O O6 0.911309 0.547619 0.790031
O O7 0.797915 0.610346 0.930413
O O8 0.000000 0.624821 0.000000
O O9 0.500000 0.780589 0.500000
O O10 0.191809 0.947466 0.151625
O O11 0.751180 0.500000 0.579630
O O12 0.836038 0.500000 0.136818
#
# Coordination Sequence:
#
# PCOD9171135 Si02
#       6
#     8   8   8   8   4   4
#     4  10  21  37  57  83 111 138 176 222 262 316
#     4  10  18  27  41  63  95 136 177 213 253 300
#     4  10  21  38  59  82 108 139 175 219 272 320
#     4  10  19  32  47  71 103 135 174 215 256 309
#     4   8  16  28  45  66  95 136 172 204 254 308
#     4   8  15  26  38  56  88 130 175 216 245 290
#
# _framework density 22.112358
#
# number of rings (size 3 to 8) (size 9 to 14) (size 15 to 20)
#    0.000    2.400    0.000    2.700    0.000    1.600 
#    0.000    6.000    0.000    0.000    0.000    4.200 
#    0.000    0.000    0.000    0.000    0.000    0.000 
#
# Total GULP energy -111452.677463 kJ/mol
# GULP energy per Si atom -5572.633873 kJ/mol
# Density = 2.206203 g / cm^3
# Si number density = 22.112358 Si / 1000 Ang^3
#
#
#
# Elastic Constant Matrix: (Units=GPa)
#
#
# Indices 1 2 3 4 5 6 
#
# 1 37.9352 3.4409 20.4788 0.0000 -1.6016 0.0000
# 2 3.4409 66.6026 -17.6771 0.0000 -2.7383 0.0000
# 3 20.4788 -17.6771 58.7098 0.0000 -3.4014 0.0000
# 4 0.0000 0.0000 0.0000 0.1374 0.0000 -3.5949
# 5 -1.6016 -2.7383 -3.4014 0.0000 25.8549 0.0000
# 6 0.0000 0.0000 0.0000 -3.5949 0.0000 -8.4823
#
#
#
# Elastic Compliance Matrix: (Units=1/GPa)
#
#
# Indices 1 2 3 4 5 6 
#
# 1 0.034148 -0.005368 -0.013541 0.000000 -0.000235 0.000000
# 2 -0.005368 0.017311 0.007226 0.000000 0.002452 0.000000
# 3 -0.013541 0.007226 0.024112 0.000000 0.003099 0.000000
# 4 0.000000 0.000000 0.000000 0.602062 0.000000 -0.255160
# 5 -0.000235 0.002452 0.003099 0.000000 0.039330 0.000000
# 6 0.000000 0.000000 0.000000 -0.255160 0.000000 -0.009753
#
#
# Mechanical properties :
#
#
# Convention : Reuss Voigt Hill
#
# Bulk Modulus (GPa) = 19.15516 19.52585 19.34050
# Shear Modulus (GPa) = 6.68472 13.96899 10.32685
#
# Velocity S-wave (km/s) = 1.74058 2.51615 2.16340
# Velocity P-wave (km/s) = 3.56665 4.15822 3.87374
#
# Compressibility (1/GPa) = 0.05220527
#
# Stress axis : x y z
#
# Youngs Moduli (GPa) = 29.28462 57.76833 41.47387
#
# Poissons Ratio (x) = 0.31008 0.56160
# Poissons Ratio (y) = 0.15719 -0.29971
# Poissons Ratio (z) = 0.39654 -0.41746
#
# Static dielectric constant tensor:
#      x y z
#    x 1.828860 0.000000 0.068820 
#    y 0.000000 1.848610 0.000000 
#    z 0.068820 0.000000 1.838850 
# 
# From -- ./inp_files/8548.got.cif
#   From: 2010.05.17/outbox.cif.g08.bks.cpg/sg12_5_cif.got.tgz:8548.got - 2010.06.03 13:09:07.
