data_PCOD9171488
_publ_section_title
;
Structure prediction by ZEFSAII (Michael W. Deem and Ramdas Pophale) SiO2 
 PCOD9171488
Probable space group: C 2/M
;
_chemical_formula_sum "Si O2"
_cell_formula_units_Z 40
_cell_length_a 21.085624
_cell_length_b 7.413550
_cell_length_c 27.530370
_cell_angle_alpha 90.000000
_cell_angle_beta 151.687556
_cell_angle_gamma 90.000000
_cell_volume 2041.075239
_symmetry_space_group_name_H-M "C 2/M"
_symmetry_group_IT_number 12
_symmetry_cell_setting 'monoclinic'
loop_
_space_group_symop_operation_xyz
x,y,z
-x,y,-z
-x,-y,-z
x,-y,z
1/2+x,1/2+y,z
1/2-x,1/2+y,-z
1/2-x,1/2-y,-z
1/2+x,1/2-y,z
loop_
_atom_site_type_symbol
_atom_site_label
_atom_site_fract_x
_atom_site_fract_y
_atom_site_fract_z
Si Si1 0.876112 0.220977 0.949594
Si Si2 0.080962 0.284236 0.728282
Si Si3 0.583628 0.283440 0.283739
Si Si4 0.667433 0.784473 0.493865
Si Si5 0.393126 0.284229 0.071839
O O1 0.732327 0.282427 0.832517
O O2 0.873373 0.000000 0.948158
O O3 0.893054 0.282007 0.016629
O O4 0.000000 0.276062 0.000000
O O5 0.087197 0.500000 0.726488
O O6 0.010642 0.251742 0.733046
O O7 0.980392 0.214375 0.618648
O O8 0.593234 0.500000 0.285978
O O9 0.732728 0.215147 0.397104
O O10 0.508958 0.213951 0.185635
O O11 0.750000 0.750000 0.500000
O O12 0.656279 0.000000 0.493023
O O13 0.409514 0.500000 0.080357
O O14 0.250000 0.250000 0.000000
#
# Coordination Sequence:
#
# PCOD9171488 Si02
#       5
#     8   8   8   8   8
#     4   9  17  28  42  61  84 112 144 172 202 245
#     4   9  15  25  42  60  80 108 140 169 196 240
#     4   9  16  25  39  61  86 106 128 168 215 247
#     4   8  14  23  36  57  82 105 130 163 204 243
#     4  10  18  28  44  63  84 110 138 173 211 246
#
# _framework density 19.597514
#
# number of rings (size 3 to 8) (size 9 to 14) (size 15 to 20)
#    0.000    3.000    2.000    0.000    0.000    0.000 
#    0.000    0.000    0.000    3.600    0.000    8.400 
#    0.000    0.000    0.000   31.200    0.000   22.400 
#
# Total GULP energy -111430.949841 kJ/mol
# GULP energy per Si atom -5571.547492 kJ/mol
# Density = 1.955291 g / cm^3
# Si number density = 19.597514 Si / 1000 Ang^3
#
#
#
# Elastic Constant Matrix: (Units=GPa)
#
#
# Indices 1 2 3 4 5 6 
#
# 1 96.4600 -0.5874 90.2265 0.0001 3.6389 0.0002
# 2 -0.5874 68.1603 12.6611 0.0003 0.2147 0.0005
# 3 90.2265 12.6611 278.1796 0.0003 -3.0071 0.0001
# 4 0.0001 0.0003 0.0003 3.8673 0.0000 2.2544
# 5 3.6389 0.2147 -3.0071 0.0000 17.7323 0.0000
# 6 0.0002 0.0005 0.0001 2.2544 0.0000 9.0799
#
#
#
# Elastic Compliance Matrix: (Units=1/GPa)
#
#
# Indices 1 2 3 4 5 6 
#
# 1 0.015231 0.001079 -0.005033 0.000000 -0.003992 0.000000
# 2 0.001079 0.014874 -0.001033 -0.000001 -0.000577 -0.000001
# 3 -0.005033 -0.001033 0.005295 0.000000 0.001943 0.000000
# 4 0.000000 -0.000001 0.000000 0.302336 0.000000 -0.075067
# 5 -0.003992 -0.000577 0.001943 0.000000 0.057550 0.000000
# 6 0.000000 -0.000001 0.000000 -0.075067 0.000000 0.128772
#
#
# Mechanical properties :
#
#
# Convention : Reuss Voigt Hill
#
# Bulk Modulus (GPa) = 39.32828 71.93337 55.63082
# Shear Modulus (GPa) = 9.21645 28.83589 19.02617
#
# Velocity S-wave (km/s) = 2.17096 3.84005 3.11922
# Velocity P-wave (km/s) = 5.13767 7.51308 6.43592
#
# Compressibility (1/GPa) = 0.02542700
#
# Stress axis : x y z
#
# Youngs Moduli (GPa) = 65.65354 67.23004 188.85369
#
# Poissons Ratio (x) = -0.07252 0.95041
# Poissons Ratio (y) = -0.07082 0.19510
# Poissons Ratio (z) = 0.33040 0.06945
#
# Static dielectric constant tensor:
#      x y z
#    x 1.621270 0.000000 -0.016660 
#    y 0.000000 1.856980 0.000000 
#    z -0.016660 0.000000 1.762610 
# 
# From -- ./inp_files/152748.got.cif
#   From: 2010.05.17/outbox.cif.g08.bks.cpg/sg12_77_cif.got.tgz:152748.got - 2010.06.03 13:09:07.
