data_PCOD9171422
_publ_section_title
;
Structure prediction by ZEFSAII (Michael W. Deem and Ramdas Pophale) SiO2 
 PCOD9171422
Probable space group: C 2/M
;
_chemical_formula_sum "Si O2"
_cell_formula_units_Z 52
_cell_length_a 21.086613
_cell_length_b 16.750097
_cell_length_c 8.991105
_cell_angle_alpha 90.000000
_cell_angle_beta 67.259649
_cell_angle_gamma 90.000000
_cell_volume 2928.825257
_symmetry_space_group_name_H-M "C 2/M"
_symmetry_group_IT_number 12
_symmetry_cell_setting 'monoclinic'
loop_
_space_group_symop_operation_xyz
x,y,z
-x,y,-z
-x,-y,-z
x,-y,z
1/2+x,1/2+y,z
1/2-x,1/2+y,-z
1/2-x,1/2-y,-z
1/2+x,1/2-y,z
loop_
_atom_site_type_symbol
_atom_site_label
_atom_site_fract_x
_atom_site_fract_y
_atom_site_fract_z
Si Si1 0.500000 0.290069 0.000000
Si Si2 0.342398 0.143597 0.221243
Si Si3 0.740436 0.909159 0.438854
Si Si4 0.962064 0.589423 0.323096
Si Si5 0.124856 0.818011 0.687677
Si Si6 0.906371 0.674902 0.879520
Si Si7 0.126149 0.290757 0.416023
O O1 0.553568 0.333138 0.839587
O O2 0.452763 0.235109 0.935985
O O3 0.281953 0.102431 0.368085
O O4 0.412805 0.105817 0.225177
O O5 0.344228 0.236652 0.267055
O O6 0.347058 0.141607 0.040532
O O7 0.819563 0.886960 0.346916
O O8 0.693489 0.843356 0.397200
O O9 0.724955 0.000000 0.408176
O O10 0.950643 0.500000 0.386003
O O11 0.935083 0.653595 0.465306
O O12 0.040506 0.605631 0.212897
O O13 0.120086 0.789452 0.519751
O O14 0.880013 0.716566 0.754193
#
# Coordination Sequence:
#
# PCOD9171422 Si02
#       7
#     4   8   8   8   8   8   8
#     4  10  18  36  52  80 100 132 170 214 250 306
#     4   9  17  32  49  70 101 134 173 198 245 296
#     4  10  20  37  53  72 100 139 172 210 256 305
#     4  10  18  28  42  68 107 143 168 195 238 296
#     4   9  18  35  56  72 101 131 170 214 256 302
#     4  11  18  30  49  76 105 137 170 208 242 295
#     4  10  19  31  52  75 104 133 174 206 252 291
#
# _framework density 17.754557999999999
#
# number of rings (size 3 to 8) (size 9 to 14) (size 15 to 20)
#    0.000    2.462    4.615    4.154    0.000    3.692 
#    0.000    7.308    0.000    0.000    0.000    2.154 
#    0.000    0.000    0.000    0.000    0.000    0.000 
#
# Total GULP energy -144794.136004 kJ/mol
# GULP energy per Si atom -5569.005231 kJ/mol
# Density = 1.771415 g / cm^3
# Si number density = 17.754558 Si / 1000 Ang^3
#
#
#
# Elastic Constant Matrix: (Units=GPa)
#
#
# Indices 1 2 3 4 5 6 
#
# 1 57.4917 12.4027 50.4585 0.0000 -8.4102 0.0000
# 2 12.4027 12.6981 4.7243 0.0000 -6.3199 0.0000
# 3 50.4585 4.7243 99.8425 0.0000 14.0523 0.0000
# 4 0.0000 0.0000 0.0000 -11.4988 0.0000 19.5691
# 5 -8.4102 -6.3199 14.0523 0.0000 30.3564 0.0000
# 6 0.0000 0.0000 0.0000 19.5691 0.0000 -34.4129
#
#
#
# Elastic Compliance Matrix: (Units=1/GPa)
#
#
# Indices 1 2 3 4 5 6 
#
# 1 0.050147 -0.028895 -0.026833 0.000000 0.020299 0.000000
# 2 -0.028895 0.109626 0.007841 0.000000 0.011188 0.000000
# 3 -0.026833 0.007841 0.025697 0.000000 -0.017697 0.000000
# 4 0.000000 0.000000 0.000000 -2.697541 0.000000 -1.533972
# 5 0.020299 0.011188 -0.017697 0.000000 0.049087 0.000000
# 6 0.000000 0.000000 0.000000 -1.533972 0.000000 -0.901361
#
#
# Mechanical properties :
#
#
# Convention : Reuss Voigt Hill
#
# Bulk Modulus (GPa) = 11.14882 33.91147 22.53014
# Shear Modulus (GPa) = -1.54384 3.71872 1.08744
#
# Velocity S-wave (km/s) = -0.93351 1.44881 0.78346
# Velocity P-wave (km/s) = 2.26520 4.68405 3.67910
#
# Compressibility (1/GPa) = 0.08969563
#
# Stress axis : x y z
#
# Youngs Moduli (GPa) = 19.94120 9.12194 38.91573
#
# Poissons Ratio (x) = 0.26358 1.04424
# Poissons Ratio (y) = 0.57619 -0.30513
# Poissons Ratio (z) = 0.53509 -0.07152
#
# Static dielectric constant tensor:
#      x y z
#    x 1.641900 0.000000 0.005000 
#    y 0.000000 1.587600 0.000000 
#    z 0.005000 0.000000 1.669480 
# 
# From -- ./inp_files/87192.got.cif
#   From: 2010.05.17/outbox.cif.g08.bks.cpg/sg12_44_cif.got.tgz:87192.got - 2010.06.03 13:09:07.
