data_PCOD9171865
_publ_section_title
;
Structure prediction by ZEFSAII (Michael W. Deem and Ramdas Pophale) SiO2 
 PCOD9171865
Probable space group: C 2/M
;
_chemical_formula_sum "Si O2"
_cell_formula_units_Z 56
_cell_length_a 21.317505
_cell_length_b 18.259915
_cell_length_c 15.806997
_cell_angle_alpha 90.000000
_cell_angle_beta 27.777127
_cell_angle_gamma 90.000000
_cell_volume 2867.487970
_symmetry_space_group_name_H-M "C 2/M"
_symmetry_group_IT_number 12
_symmetry_cell_setting 'monoclinic'
loop_
_space_group_symop_operation_xyz
x,y,z
-x,y,-z
-x,-y,-z
x,-y,z
1/2+x,1/2+y,z
1/2-x,1/2+y,-z
1/2-x,1/2-y,-z
1/2+x,1/2-y,z
loop_
_atom_site_type_symbol
_atom_site_label
_atom_site_fract_x
_atom_site_fract_y
_atom_site_fract_z
Si Si1 0.293825 0.797777 0.571433
Si Si2 0.991725 0.083959 0.245451
Si Si3 0.074952 0.308665 0.766292
Si Si4 0.816356 0.774302 0.009697
Si Si5 0.857536 0.203986 0.642093
Si Si6 0.873966 0.082517 0.198395
Si Si7 0.238286 0.585950 0.676052
O O1 0.153554 0.754290 0.724938
O O2 0.350819 0.813398 0.412110
O O3 0.382059 0.747986 0.525790
O O4 0.258914 0.872577 0.658502
O O5 0.105186 0.147815 0.100592
O O6 0.911467 0.083671 0.252286
O O7 0.874963 0.096606 0.455361
O O8 0.044455 0.000000 0.194455
O O9 0.111366 0.381377 0.775265
O O10 0.930038 0.280480 0.911793
O O11 0.750000 0.750000 0.000000
O O12 0.703453 0.761234 0.217207
O O13 0.760882 0.136818 0.731072
O O14 0.000000 0.173018 0.500000
O O15 0.858980 0.000000 0.186205
O O16 0.000000 0.116345 0.000000
O O17 0.224262 0.500000 0.709383
#
# Coordination Sequence:
#
# PCOD9171865 Si02
#       7
#     8   8   8   8   8   8   8
#     4  10  18  32  56  79 117 145 190 246 292 352
#     4  10  19  36  61  89 120 154 198 252 304 356
#     4  10  19  34  55  86 112 152 195 240 298 356
#     4  12  23  39  60  84 122 163 209 257 301 365
#     4  11  24  39  58  86 118 164 210 254 306 363
#     4  10  18  28  50  85 114 142 185 240 292 342
#     4  10  21  39  64  92 125 159 197 251 311 368
#
# _framework density 19.529288000000001
#
# number of rings (size 3 to 8) (size 9 to 14) (size 15 to 20)
#    0.000    1.571    2.857    4.286    0.000    2.000 
#    0.000    2.857    0.000    3.429    0.000    0.000 
#    0.000    0.000    0.000    0.000    0.000    0.000 
#
# Total GULP energy -155991.275397 kJ/mol
# GULP energy per Si atom -5571.116978 kJ/mol
# Density = 1.948484 g / cm^3
# Si number density = 19.529288 Si / 1000 Ang^3
#
#
#
# Elastic Constant Matrix: (Units=GPa)
#
#
# Indices 1 2 3 4 5 6 
#
# 1 98.7715 31.2333 10.5225 -0.0001 -10.9904 0.0001
# 2 31.2333 108.9248 31.5121 -0.0001 -2.7614 0.0001
# 3 10.5225 31.5121 36.5928 -0.0001 -2.0155 0.0000
# 4 -0.0001 -0.0001 -0.0001 24.2844 0.0001 3.4071
# 5 -10.9904 -2.7614 -2.0155 0.0001 27.8796 -0.0001
# 6 0.0001 0.0001 0.0000 3.4071 -0.0001 16.6089
#
#
#
# Elastic Compliance Matrix: (Units=1/GPa)
#
#
# Indices 1 2 3 4 5 6 
#
# 1 0.011623 -0.003098 -0.000441 0.000000 0.004243 0.000000
# 2 -0.003098 0.013058 -0.010392 0.000000 -0.000679 0.000000
# 3 -0.000441 -0.010392 0.036482 0.000000 0.001434 0.000000
# 4 0.000000 0.000000 0.000000 0.042399 0.000000 -0.008698
# 5 0.004243 -0.000679 0.001434 0.000000 0.037578 0.000000
# 6 0.000000 0.000000 0.000000 -0.008698 0.000000 0.061993
#
#
# Mechanical properties :
#
#
# Convention : Reuss Voigt Hill
#
# Bulk Modulus (GPa) = 30.02745 43.42500 36.72623
# Shear Modulus (GPa) = 20.65311 25.15599 22.90455
#
# Velocity S-wave (km/s) = 3.25552 3.59293 3.42838
# Velocity P-wave (km/s) = 5.43509 6.28461 5.87522
#
# Compressibility (1/GPa) = 0.03330286
#
# Stress axis : x y z
#
# Youngs Moduli (GPa) = 86.03596 76.58162 27.41049
#
# Poissons Ratio (x) = 0.23722 0.01209
# Poissons Ratio (y) = 0.26651 0.28484
# Poissons Ratio (z) = 0.03794 0.79580
#
# Static dielectric constant tensor:
#      x y z
#    x 1.670620 0.000000 0.005360 
#    y 0.000000 1.728570 0.000000 
#    z 0.005360 0.000000 1.755360 
# 
# From -- ./inp_files/234671.got.cif
#   From: 2010.05.17/outbox.cif.g08.bks.cpg/sg12_118_cif.got.tgz:234671.got - 2010.06.03 13:09:07.
