data_PCOD9171830
_publ_section_title
;
Structure prediction by ZEFSAII (Michael W. Deem and Ramdas Pophale) SiO2 
 PCOD9171830
Probable space group: C 2/M
;
_chemical_formula_sum "Si O2"
_cell_formula_units_Z 64
_cell_length_a 30.441916
_cell_length_b 9.444115
_cell_length_c 21.959315
_cell_angle_alpha 90.000000
_cell_angle_beta 34.184451
_cell_angle_gamma 90.000000
_cell_volume 3547.147970
_symmetry_space_group_name_H-M "C 2/M"
_symmetry_group_IT_number 12
_symmetry_cell_setting 'monoclinic'
loop_
_space_group_symop_operation_xyz
x,y,z
-x,y,-z
-x,-y,-z
x,-y,z
1/2+x,1/2+y,z
1/2-x,1/2+y,-z
1/2-x,1/2-y,-z
1/2+x,1/2-y,z
loop_
_atom_site_type_symbol
_atom_site_label
_atom_site_fract_x
_atom_site_fract_y
_atom_site_fract_z
Si Si1 0.099916 0.831932 0.242046
Si Si2 0.584686 0.331650 0.117842
Si Si3 0.568718 0.667270 0.529620
Si Si4 0.245432 0.330810 0.130525
Si Si5 0.344095 0.833153 0.464459
Si Si6 0.781806 0.834151 0.716640
Si Si7 0.202450 0.331734 0.677117
Si Si8 0.558068 0.833848 0.771209
O O1 0.077413 0.797939 0.197980
O O2 0.173674 0.741761 0.177787
O O3 0.023253 0.805990 0.371353
O O4 0.118313 0.000000 0.223842
O O5 0.573552 0.500000 0.124392
O O6 0.519667 0.252995 0.152827
O O7 0.672170 0.296676 0.995921
O O8 0.577249 0.500000 0.536257
O O9 0.601327 0.761746 0.547033
O O10 0.627452 0.690702 0.406157
O O11 0.236445 0.500000 0.141690
O O12 0.244041 0.266099 0.199622
O O13 0.261571 0.754843 0.566756
O O14 0.385582 0.815330 0.352081
O O15 0.334826 0.000000 0.486506
O O16 0.731584 0.810221 0.712764
O O17 0.774073 0.000000 0.742567
O O18 0.210750 0.500000 0.654495
O O19 0.113067 0.293069 0.765000
O O20 0.538450 0.000000 0.798628
#
# Coordination Sequence:
#
# PCOD9171830 Si02
#       8
#     8   8   8   8   8   8   8   8
#     4  10  20  37  61  84 107 139 180 224 273 331
#     4  10  22  39  58  81 110 144 182 222 274 330
#     4   9  18  34  57  82 110 145 181 221 266 324
#     4  11  24  39  56  80 109 143 183 230 277 324
#     4  10  18  28  48  82 117 145 174 216 273 327
#     4   9  19  37  58  78 106 147 189 223 260 317
#     4   9  19  35  54  78 110 148 187 221 261 320
#     4  10  20  33  53  83 113 142 180 226 272 320
#
# _framework density 18.042665
#
# number of rings (size 3 to 8) (size 9 to 14) (size 15 to 20)
#    0.000    2.250    1.250    2.250    0.000    5.500 
#    0.000    3.125    0.000    3.750    0.000    0.000 
#    0.000    0.000    0.000    0.000    0.000    0.000 
#
# Total GULP energy -178558.037737 kJ/mol
# GULP energy per Si atom -5579.938679 kJ/mol
# Density = 1.800160 g / cm^3
# Si number density = 18.042665 Si / 1000 Ang^3
#
#
#
# Elastic Constant Matrix: (Units=GPa)
#
#
# Indices 1 2 3 4 5 6 
#
# 1 63.1595 45.7612 83.8260 -0.0072 -28.6896 0.0010
# 2 45.7612 64.6629 113.3237 -0.0188 -22.6624 0.0037
# 3 83.8260 113.3237 288.9886 -0.0479 -46.0182 0.0154
# 4 -0.0072 -0.0188 -0.0479 32.2768 0.0077 -3.4709
# 5 -28.6896 -22.6624 -46.0182 0.0077 34.4944 -0.0009
# 6 0.0010 0.0037 0.0154 -3.4709 -0.0009 27.6244
#
#
#
# Elastic Compliance Matrix: (Units=1/GPa)
#
#
# Indices 1 2 3 4 5 6 
#
# 1 0.040417 -0.021378 -0.000284 -0.000008 0.019191 0.000001
# 2 -0.021378 0.062749 -0.018630 0.000005 -0.001409 0.000003
# 3 -0.000284 -0.018630 0.011252 0.000005 0.002535 -0.000003
# 4 -0.000008 0.000005 0.000005 0.031406 -0.000004 0.003946
# 5 0.019191 -0.001409 0.002535 -0.000004 0.047408 -0.000001
# 6 0.000001 0.000003 -0.000003 0.003946 -0.000001 0.036696
#
#
# Mechanical properties :
#
#
# Convention : Reuss Voigt Hill
#
# Bulk Modulus (GPa) = 29.55659 100.29253 64.92456
# Shear Modulus (GPa) = 15.53805 30.47245 23.00525
#
# Velocity S-wave (km/s) = 2.93778 4.11409 3.57465
# Velocity P-wave (km/s) = 5.28436 8.84730 7.28694
#
# Compressibility (1/GPa) = 0.03383340
#
# Stress axis : x y z
#
# Youngs Moduli (GPa) = 24.74203 15.93646 88.87414
#
# Poissons Ratio (x) = 0.34070 0.02528
# Poissons Ratio (y) = 0.52894 1.65568
# Poissons Ratio (z) = 0.00704 0.29689
#
# Static dielectric constant tensor:
#      x y z
#    x 1.624760 0.000000 -0.007500 
#    y 0.000000 1.593620 0.000000 
#    z -0.007500 0.000000 1.614590 
# 
# From -- ./inp_files/249793.got.cif
#   From: 2010.05.17/outbox.cif.g08.bks.cpg/sg12_125_cif.got.tgz:249793.got - 2010.06.03 13:09:07.
