data_PCOD9171552
_publ_section_title
;
Structure prediction by ZEFSAII (Michael W. Deem and Ramdas Pophale) SiO2 
 PCOD9171552
Probable space group: C 2/M
;
_chemical_formula_sum "Si O2"
_cell_formula_units_Z 56
_cell_length_a 28.028890
_cell_length_b 7.536073
_cell_length_c 13.419438
_cell_angle_alpha 90.000000
_cell_angle_beta 57.853839
_cell_angle_gamma 90.000000
_cell_volume 2400.001757
_symmetry_space_group_name_H-M "C 2/M"
_symmetry_group_IT_number 12
_symmetry_cell_setting 'monoclinic'
loop_
_space_group_symop_operation_xyz
x,y,z
-x,y,-z
-x,-y,-z
x,-y,z
1/2+x,1/2+y,z
1/2-x,1/2+y,-z
1/2-x,1/2-y,-z
1/2+x,1/2-y,z
loop_
_atom_site_type_symbol
_atom_site_label
_atom_site_fract_x
_atom_site_fract_y
_atom_site_fract_z
Si Si1 0.244558 0.295899 0.231557
Si Si2 0.532951 0.212896 0.255335
Si Si3 0.640126 0.203071 0.232843
Si Si4 0.467654 0.213867 0.133709
Si Si5 0.336034 0.287919 0.263047
Si Si6 0.571530 0.290706 0.502099
Si Si7 0.322038 0.286279 0.495549
O O1 0.253180 0.500000 0.190887
O O2 0.199804 0.215995 0.202574
O O3 0.304303 0.216551 0.199959
O O4 0.212393 0.292636 0.374283
O O5 0.596177 0.284121 0.203049
O O6 0.500033 0.282026 0.195493
O O7 0.491379 0.247585 0.394651
O O8 0.538184 0.000000 0.241286
O O9 0.601194 0.199085 0.375681
O O10 0.651907 0.000000 0.189733
O O11 0.402311 0.259227 0.195343
O O12 0.470732 0.000000 0.134504
O O13 0.500000 0.275978 0.000000
O O14 0.326926 0.500000 0.273116
O O15 0.311165 0.219242 0.396161
O O16 0.612595 0.249480 0.549805
O O17 0.814881 0.000000 0.506645
O O18 0.424922 0.500000 0.522311
#
# Coordination Sequence:
#
# PCOD9171552 Si02
#       7
#     8   8   8   8   8   8   8
#     4   9  18  30  47  71 100 132 165 194 228 286
#     4  10  19  32  50  68  93 128 163 203 247 289
#     4   9  18  31  46  69 100 133 165 193 229 285
#     4  10  22  38  55  75  94 120 166 216 258 296
#     4  10  19  33  51  72  98 128 161 201 247 294
#     4  10  18  28  44  70 103 134 162 195 235 284
#     4   9  17  28  43  68 102 133 163 194 231 283
#
# _framework density 23.333316
#
# number of rings (size 3 to 8) (size 9 to 14) (size 15 to 20)
#    0.000    2.429    1.429    1.286    0.000    4.286 
#    0.000    0.000    0.000    0.857    0.000    0.000 
#    0.000    0.000    0.000    0.000    0.000    0.000 
#
# Total GULP energy -156203.793436 kJ/mol
# GULP energy per Si atom -5578.706908 kJ/mol
# Density = 2.328021 g / cm^3
# Si number density = 23.333316 Si / 1000 Ang^3
#
#
#
# Elastic Constant Matrix: (Units=GPa)
#
#
# Indices 1 2 3 4 5 6 
#
# 1 212.7668 8.1264 17.7057 0.0000 2.8422 0.0000
# 2 8.1264 63.0723 -12.0306 0.0000 2.1434 -0.0001
# 3 17.7057 -12.0306 27.7384 0.0000 -0.2989 0.0000
# 4 0.0000 0.0000 0.0000 -6.8884 0.0000 0.0517
# 5 2.8422 2.1434 -0.2989 0.0000 10.8093 0.0000
# 6 0.0000 -0.0001 0.0000 0.0517 0.0000 14.7551
#
#
#
# Elastic Compliance Matrix: (Units=1/GPa)
#
#
# Indices 1 2 3 4 5 6 
#
# 1 0.005087 -0.001349 -0.003845 0.000000 -0.001176 0.000000
# 2 -0.001349 0.017755 0.008530 0.000000 -0.002930 0.000000
# 3 -0.003845 0.008530 0.042210 0.000000 0.000487 0.000000
# 4 0.000000 0.000000 0.000000 -0.145167 0.000000 0.000509
# 5 -0.001176 -0.002930 0.000487 0.000000 0.093417 0.000000
# 6 0.000000 0.000000 0.000000 0.000509 0.000000 0.067771
#
#
# Mechanical properties :
#
#
# Convention : Reuss Voigt Hill
#
# Bulk Modulus (GPa) = 13.94202 36.79782 25.36992
# Shear Modulus (GPa) = 50.85971 23.05360 36.95666
#
# Velocity S-wave (km/s) = 4.67379 3.14668 3.98409
# Velocity P-wave (km/s) = 5.92570 5.38580 5.66219
#
# Compressibility (1/GPa) = 0.07172560
#
# Stress axis : x y z
#
# Youngs Moduli (GPa) = 196.57285 56.32133 23.69092
#
# Poissons Ratio (x) = 0.07597 0.09109
# Poissons Ratio (y) = 0.26515 -0.20209
# Poissons Ratio (z) = 0.75580 -0.48043
#
# Static dielectric constant tensor:
#      x y z
#    x 2.022740 0.000000 0.018350 
#    y 0.000000 1.913570 0.000000 
#    z 0.018350 0.000000 1.824490 
# 
# From -- ./inp_files/248137.got.cif
#   From: 2010.05.17/outbox.cif.g08.bks.cpg/sg12_125_cif.got.tgz:248137.got - 2010.06.03 13:09:07.
