data_PCOD9171952
_publ_section_title
;
Structure prediction by ZEFSAII (Michael W. Deem and Ramdas Pophale) SiO2 
 PCOD9171952
Probable space group: C 2/M
;
_chemical_formula_sum "Si O2"
_cell_formula_units_Z 48
_cell_length_a 20.613804
_cell_length_b 19.237393
_cell_length_c 21.868338
_cell_angle_alpha 90.000000
_cell_angle_beta 160.226530
_cell_angle_gamma 90.000000
_cell_volume 2933.762738
_symmetry_space_group_name_H-M "C 2/M"
_symmetry_group_IT_number 12
_symmetry_cell_setting 'monoclinic'
loop_
_space_group_symop_operation_xyz
x,y,z
-x,y,-z
-x,-y,-z
x,-y,z
1/2+x,1/2+y,z
1/2-x,1/2+y,-z
1/2-x,1/2-y,-z
1/2+x,1/2-y,z
loop_
_atom_site_type_symbol
_atom_site_label
_atom_site_fract_x
_atom_site_fract_y
_atom_site_fract_z
Si Si1 0.905775 0.707324 0.220415
Si Si2 0.129859 0.849653 0.880174
Si Si3 0.319338 0.364737 0.874374
Si Si4 0.271997 0.846459 0.412085
Si Si5 0.679153 0.500000 0.049204
Si Si6 0.467733 0.500000 0.219492
Si Si7 0.500000 0.149240 0.500000
Si Si8 0.132569 0.500000 0.469474
O O1 0.888483 0.786010 0.182842
O O2 0.774931 0.689127 0.162723
O O3 0.114654 0.685343 0.429323
O O4 0.822262 0.660677 0.090764
O O5 0.951581 0.841406 0.770005
O O6 0.113005 0.924867 0.833353
O O7 0.379629 0.432054 0.965854
O O8 0.159221 0.387512 0.683057
O O9 0.500000 0.334656 0.000000
O O10 0.362708 0.814884 0.430222
O O11 0.326452 0.928478 0.458465
O O12 0.912528 0.500000 0.252344
O O13 0.584192 0.500000 0.899010
O O14 0.698153 0.500000 0.431037
#
# Coordination Sequence:
#
# PCOD9171952 Si02
#       8
#     8   8   8   8   4   4   4   4
#     4  10  19  32  48  67  89 124 157 194 236 272
#     4  10  19  32  50  65  90 121 158 199 234 272
#     4  11  22  31  45  68  97 126 161 189 225 275
#     4  10  19  31  44  66  92 123 161 189 226 271
#     4  12  19  32  44  66  98 131 160 185 220 264
#     4  10  20  31  49  69  93 121 163 192 231 275
#     4  10  20  29  44  60  94 127 154 192 218 265
#     4  10  18  29  45  61  94 129 155 187 216 260
#
# _framework density 16.361242000000001
#
# number of rings (size 3 to 8) (size 9 to 14) (size 15 to 20)
#    0.000    1.667    5.000    1.750    2.333    1.333 
#    0.000    0.000    0.000    0.000    0.000    0.583 
#    0.000   10.667    0.000    0.000    0.000    1.333 
#
# Total GULP energy -133630.728775 kJ/mol
# GULP energy per Si atom -5567.947032 kJ/mol
# Density = 1.632400 g / cm^3
# Si number density = 16.361242 Si / 1000 Ang^3
#
#
#
# Elastic Constant Matrix: (Units=GPa)
#
#
# Indices 1 2 3 4 5 6 
#
# 1 40.1384 26.5540 5.2852 -0.0213 -6.0706 -0.0021
# 2 26.5540 81.0826 5.4638 -0.0148 -2.4691 -0.0081
# 3 5.2852 5.4638 53.2314 -0.0504 -9.6065 -0.0140
# 4 -0.0213 -0.0148 -0.0504 14.7792 -0.0344 -0.6550
# 5 -6.0706 -2.4691 -9.6065 -0.0344 17.4923 -0.0111
# 6 -0.0021 -0.0081 -0.0140 -0.6550 -0.0111 6.4764
#
#
#
# Elastic Compliance Matrix: (Units=1/GPa)
#
#
# Indices 1 2 3 4 5 6 
#
# 1 0.033508 -0.010642 -0.000452 0.000060 0.009878 0.000019
# 2 -0.010642 0.015821 -0.000922 -0.000007 -0.001967 0.000010
# 3 -0.000452 -0.000922 0.020950 0.000099 0.011219 0.000073
# 4 0.000060 -0.000007 0.000099 0.067968 0.000212 0.006874
# 5 0.009878 -0.001967 0.011219 0.000212 0.066480 0.000160
# 6 0.000019 0.000010 0.000073 0.006874 0.000160 0.155103
#
#
# Mechanical properties :
#
#
# Convention : Reuss Voigt Hill
#
# Bulk Modulus (GPa) = 21.62342 27.67315 24.64828
# Shear Modulus (GPa) = 12.52262 16.89289 14.70775
#
# Velocity S-wave (km/s) = 2.76956 3.21673 3.00148
# Velocity P-wave (km/s) = 4.84481 5.54500 5.20669
#
# Compressibility (1/GPa) = 0.04624615
#
# Stress axis : x y z
#
# Youngs Moduli (GPa) = 29.84375 63.20860 47.73244
#
# Poissons Ratio (x) = 0.67269 0.02157
# Poissons Ratio (y) = 0.31761 0.04401
# Poissons Ratio (z) = 0.01348 0.05829
#
# Static dielectric constant tensor:
#      x y z
#    x 1.565310 -0.000010 0.015460 
#    y -0.000010 1.557000 -0.000010 
#    z 0.015460 -0.000010 1.615380 
# 
# From -- ./inp_files/76422.got.cif
#   From: 2010.05.17/outbox.cif.g08.bks.cpg/sg12_39_cif.got.tgz:76422.got - 2010.06.03 13:09:07.
