data_PCOD9171963
_publ_section_title
;
Structure prediction by ZEFSAII (Michael W. Deem and Ramdas Pophale) SiO2 
 PCOD9171963
Probable space group: C 2/M
;
_chemical_formula_sum "Si O2"
_cell_formula_units_Z 48
_cell_length_a 25.286164
_cell_length_b 17.510946
_cell_length_c 25.153559
_cell_angle_alpha 90.000000
_cell_angle_beta 17.260724
_cell_angle_gamma 90.000000
_cell_volume 3304.755167
_symmetry_space_group_name_H-M "C 2/M"
_symmetry_group_IT_number 12
_symmetry_cell_setting 'monoclinic'
loop_
_space_group_symop_operation_xyz
x,y,z
-x,y,-z
-x,-y,-z
x,-y,z
1/2+x,1/2+y,z
1/2-x,1/2+y,-z
1/2-x,1/2-y,-z
1/2+x,1/2-y,z
loop_
_atom_site_type_symbol
_atom_site_label
_atom_site_fract_x
_atom_site_fract_y
_atom_site_fract_z
Si Si1 0.684971 0.332961 0.176620
Si Si2 0.443821 0.910749 0.177843
Si Si3 0.971866 0.090820 0.779974
Si Si4 0.438541 0.410427 0.498442
Si Si5 0.880460 0.410052 0.364349
Si Si6 0.208873 0.690263 0.087047
O O1 0.620090 0.378951 0.186046
O O2 0.553234 0.357377 0.349769
O O3 0.687970 0.243824 0.158218
O O4 0.883994 0.360446 0.998547
O O5 0.270421 0.894004 0.309211
O O6 0.389763 0.900387 0.291601
O O7 0.491279 0.000000 0.125067
O O8 0.181486 0.108730 0.574853
O O9 0.949914 0.000000 0.803428
O O10 0.872673 0.131591 0.924152
O O11 0.500000 0.402575 0.500000
O O12 0.464291 0.500000 0.457777
O O13 0.915315 0.500000 0.341643
O O14 0.030048 0.356597 0.246220
O O15 0.250000 0.750000 0.000000
#
# Coordination Sequence:
#
# PCOD9171963 Si02
#       6
#     8   8   8   8   8   8
#     4  11  20  30  45  67  92 121 151 190 232 266
#     4  10  18  29  47  66  86 120 158 189 223 264
#     4  10  18  29  45  63  89 123 154 184 217 263
#     4  10  21  35  49  65  86 118 162 202 229 257
#     4  10  18  29  46  66  91 126 159 183 215 265
#     4  10  20  28  41  67  94 121 152 184 223 271
#
# _framework density 14.524525000000001
#
# number of rings (size 3 to 8) (size 9 to 14) (size 15 to 20)
#    0.000    1.833    5.000    2.000    0.000    4.667 
#    0.000    2.500    0.000    0.000    0.000    0.000 
#    0.000    2.667    0.000   11.333    0.000    1.000 
#
# Total GULP energy -133821.520625 kJ/mol
# GULP energy per Si atom -5575.896693 kJ/mol
# Density = 1.449147 g / cm^3
# Si number density = 14.524525 Si / 1000 Ang^3
#
#
#
# Elastic Constant Matrix: (Units=GPa)
#
#
# Indices 1 2 3 4 5 6 
#
# 1 47.8171 26.5740 28.9488 0.0114 -16.6127 -0.0032
# 2 26.5740 54.9007 43.1276 0.0550 -14.8062 -0.0345
# 3 28.9488 43.1276 81.2920 0.0191 -27.8019 -0.0141
# 4 0.0114 0.0550 0.0191 11.3376 -0.0044 18.6322
# 5 -16.6127 -14.8062 -27.8019 -0.0044 20.5333 0.0010
# 6 -0.0032 -0.0345 -0.0141 18.6322 0.0010 0.4534
#
#
#
# Elastic Compliance Matrix: (Units=1/GPa)
#
#
# Indices 1 2 3 4 5 6 
#
# 1 0.033879 -0.011830 0.001245 -0.000017 0.020565 0.000028
# 2 -0.011830 0.035361 -0.016949 0.000054 -0.007021 -0.000114
# 3 0.001245 -0.016949 0.031688 -0.000009 0.031692 0.000030
# 4 -0.000017 0.000054 -0.000009 -0.001326 0.000009 0.054477
# 5 0.020565 -0.007021 0.031692 0.000009 0.103187 -0.000006
# 6 0.000028 -0.000114 0.000030 0.054477 -0.000006 -0.033149
#
#
# Mechanical properties :
#
#
# Convention : Reuss Voigt Hill
#
# Bulk Modulus (GPa) = 21.80523 42.36785 32.08654
# Shear Modulus (GPa) = 20.83376 12.15550 16.49463
#
# Velocity S-wave (km/s) = 3.79144 2.89605 3.37358
# Velocity P-wave (km/s) = 5.84910 6.35736 6.10852
#
# Compressibility (1/GPa) = 0.04586056
#
# Stress axis : x y z
#
# Youngs Moduli (GPa) = 29.51712 28.27939 31.55758
#
# Poissons Ratio (x) = 0.33456 -0.03929
# Poissons Ratio (y) = 0.34920 0.53486
# Poissons Ratio (z) = -0.03675 0.47929
#
# Static dielectric constant tensor:
#      x y z
#    x 1.457320 0.000000 -0.003170 
#    y 0.000000 1.488900 0.000010 
#    z -0.003170 0.000010 1.494900 
# 
# From -- ./inp_files/322527.got.cif
#   From: 2010.05.17/outbox.cif.g08.bks.cpg/sg12_162_cif.got.tgz:322527.got - 2010.06.03 13:09:07.
