data_PCOD9171291
_publ_section_title
;
Structure prediction by ZEFSAII (Michael W. Deem and Ramdas Pophale) SiO2 
 PCOD9171291
Probable space group: C 2/M
;
_chemical_formula_sum "Si O2"
_cell_formula_units_Z 64
_cell_length_a 20.887197
_cell_length_b 7.323387
_cell_length_c 24.090489
_cell_angle_alpha 90.000000
_cell_angle_beta 44.096976
_cell_angle_gamma 90.000000
_cell_volume 2564.300584
_symmetry_space_group_name_H-M "C 2/M"
_symmetry_group_IT_number 12
_symmetry_cell_setting 'monoclinic'
loop_
_space_group_symop_operation_xyz
x,y,z
-x,y,-z
-x,-y,-z
x,-y,z
1/2+x,1/2+y,z
1/2-x,1/2+y,-z
1/2-x,1/2-y,-z
1/2+x,1/2-y,z
loop_
_atom_site_type_symbol
_atom_site_label
_atom_site_fract_x
_atom_site_fract_y
_atom_site_fract_z
Si Si1 0.021952 0.779236 0.817910
Si Si2 0.687931 0.776245 0.313807
Si Si3 0.427344 0.720207 0.767076
Si Si4 0.512337 0.218259 0.554959
Si Si5 0.285658 0.277953 0.361032
Si Si6 0.117726 0.216232 0.592691
Si Si7 0.228550 0.792151 0.846360
Si Si8 0.939227 0.781253 0.983641
O O1 0.945238 0.733772 0.820038
O O2 0.990126 0.710031 0.897376
O O3 0.119954 0.727430 0.730448
O O4 0.029155 0.000000 0.816112
O O5 0.585629 0.720271 0.358668
O O6 0.709815 0.718870 0.363137
O O7 0.761016 0.713173 0.222195
O O8 0.689854 0.000000 0.312303
O O9 0.424185 0.500000 0.764102
O O10 0.519820 0.784210 0.678141
O O11 0.331808 0.794758 0.804872
O O12 0.500000 0.286171 0.500000
O O13 0.601233 0.256835 0.537356
O O14 0.511561 0.000000 0.552278
O O15 0.276910 0.500000 0.369090
O O16 0.303460 0.213517 0.413825
O O17 0.119838 0.000000 0.598995
O O18 0.195258 0.000000 0.857999
O O19 0.160751 0.712069 0.934639
O O20 0.931466 0.000000 0.978707
O O21 0.000000 0.750272 0.000000
#
# Coordination Sequence:
#
# PCOD9171291 Si02
#       8
#     8   8   8   8   8   8   8   8
#     4   8  14  25  40  61  91 121 150 188 235 277
#     4   9  16  28  46  69  94 120 156 196 228 272
#     4   9  17  29  45  65  90 122 152 183 230 280
#     4  10  20  33  50  72  99 128 151 181 234 289
#     4   8  14  26  47  70  91 121 160 196 230 270
#     4   9  17  31  51  72  92 120 158 195 230 271
#     4  10  18  27  45  70  91 117 155 195 233 269
#     4   9  16  25  39  63  92 117 148 197 242 267
#
# _framework density 24.958074
#
# number of rings (size 3 to 8) (size 9 to 14) (size 15 to 20)
#    0.000    3.000    1.250    2.250    0.000    3.750 
#    0.000    0.625    0.000    1.875    0.000    3.500 
#    0.000    0.000    0.000    0.000    0.000    0.000 
#
# Total GULP energy -178567.454062 kJ/mol
# GULP energy per Si atom -5580.232939 kJ/mol
# Density = 2.490127 g / cm^3
# Si number density = 24.958074 Si / 1000 Ang^3
#
#
#
# Elastic Constant Matrix: (Units=GPa)
#
#
# Indices 1 2 3 4 5 6 
#
# 1 164.1100 2.2376 46.6053 0.0004 12.2086 0.0002
# 2 2.2376 93.8894 -4.8891 0.0036 3.5178 0.0070
# 3 46.6053 -4.8891 90.2227 -0.0004 24.4835 0.0003
# 4 0.0004 0.0036 -0.0004 -3.7601 -0.0011 3.5152
# 5 12.2086 3.5178 24.4835 -0.0011 45.6757 -0.0002
# 6 0.0002 0.0070 0.0003 3.5152 -0.0002 19.3263
#
#
#
# Elastic Compliance Matrix: (Units=1/GPa)
#
#
# Indices 1 2 3 4 5 6 
#
# 1 0.007154 -0.000370 -0.003750 0.000001 0.000126 0.000000
# 2 -0.000370 0.010769 0.001139 0.000006 -0.001341 -0.000005
# 3 -0.003750 0.001139 0.015019 0.000001 -0.007136 -0.000001
# 4 0.000001 0.000006 0.000001 -0.227299 -0.000006 0.041343
# 5 0.000126 -0.001341 -0.007136 -0.000006 0.025788 0.000002
# 6 0.000000 -0.000005 -0.000001 0.041343 0.000002 0.044223
#
#
# Mechanical properties :
#
#
# Convention : Reuss Voigt Hill
#
# Bulk Modulus (GPa) = 37.06582 48.45886 42.76234
# Shear Modulus (GPa) = -45.70826 32.53293 -6.58766
#
# Velocity S-wave (km/s) = -4.28413 3.61432 -1.62641
# Velocity P-wave (km/s) = 3.09649 6.07256 3.69377
#
# Compressibility (1/GPa) = 0.02697904
#
# Stress axis : x y z
#
# Youngs Moduli (GPa) = 139.78121 92.85745 66.58288
#
# Poissons Ratio (x) = 0.03440 0.24968
# Poissons Ratio (y) = 0.05179 -0.07583
# Poissons Ratio (z) = 0.52416 -0.10575
#
# Static dielectric constant tensor:
#      x y z
#    x 1.961580 0.000000 0.026990 
#    y 0.000000 2.021190 0.000000 
#    z 0.026990 0.000000 2.040880 
# 
# From -- ./inp_files/346653.got.cif
#   From: 2010.05.17/outbox.cif.g08.bks.cpg/sg12_174_cif.got.tgz:346653.got - 2010.06.03 13:09:07.
