data_PCOD9171166
_publ_section_title
;
Structure prediction by ZEFSAII (Michael W. Deem and Ramdas Pophale) SiO2 
 PCOD9171166
Probable space group: C 2/M
;
_chemical_formula_sum "Si O2"
_cell_formula_units_Z 48
_cell_length_a 13.908964
_cell_length_b 7.345066
_cell_length_c 19.424840
_cell_angle_alpha 90.000000
_cell_angle_beta 120.184802
_cell_angle_gamma 90.000000
_cell_volume 1715.405562
_symmetry_space_group_name_H-M "C 2/M"
_symmetry_group_IT_number 12
_symmetry_cell_setting 'monoclinic'
loop_
_space_group_symop_operation_xyz
x,y,z
-x,y,-z
-x,-y,-z
x,-y,z
1/2+x,1/2+y,z
1/2-x,1/2+y,-z
1/2-x,1/2-y,-z
1/2+x,1/2-y,z
loop_
_atom_site_type_symbol
_atom_site_label
_atom_site_fract_x
_atom_site_fract_y
_atom_site_fract_z
Si Si1 0.235334 0.782671 0.848491
Si Si2 0.945359 0.722878 0.646817
Si Si3 0.504766 0.794823 0.193386
Si Si4 0.904569 0.293908 0.021382
Si Si5 0.693766 0.217142 0.687201
Si Si6 0.371621 0.781660 0.478574
O O1 0.116243 0.693326 0.813879
O O2 0.306240 0.714956 0.939495
O O3 0.272235 0.754308 0.782120
O O4 0.227816 0.000000 0.853911
O O5 0.943666 0.500000 0.648875
O O6 0.926453 0.789005 0.718460
O O7 0.069961 0.778906 0.667263
O O8 0.867168 0.785533 0.555832
O O9 0.544971 0.000000 0.193177
O O10 0.465380 0.704315 0.108212
O O11 0.871803 0.500000 0.030886
O O12 0.000000 0.311428 0.000000
O O13 0.701831 0.290026 0.611729
O O14 0.689735 0.000000 0.680420
O O15 0.500000 0.752263 0.500000
O O16 0.358499 0.000000 0.477565
#
# Coordination Sequence:
#
# PCOD9171166 Si02
#       6
#     8   8   8   8   8   8
#     4  10  18  27  42  63  87 111 135 169 207 244
#     4   7  10  17  33  58  80  99 129 167 202 231
#     4   9  16  28  47  65  82 107 138 172 206 243
#     4   9  18  31  45  62  83 108 139 173 208 244
#     4   8  13  22  37  56  80 109 137 165 198 238
#     4   7   9  15  30  53  79 103 128 163 200 229
#
# _framework density 27.981722999999999
#
# number of rings (size 3 to 8) (size 9 to 14) (size 15 to 20)
#    0.000    3.667    0.000    4.000    0.000    0.000 
#    0.000    0.833    0.000   17.000    0.000    1.167 
#    0.000    0.000    0.000    0.000    0.000    0.000 
#
# Total GULP energy -133920.519165 kJ/mol
# GULP energy per Si atom -5580.021632 kJ/mol
# Density = 2.791803 g / cm^3
# Si number density = 27.981723 Si / 1000 Ang^3
#
#
#
# Elastic Constant Matrix: (Units=GPa)
#
#
# Indices 1 2 3 4 5 6 
#
# 1 50.3509 7.0305 44.7698 0.0000 6.0216 0.0000
# 2 7.0305 126.9346 22.0219 0.0000 -6.9332 0.0000
# 3 44.7698 22.0219 375.0454 0.0000 -19.0370 0.0000
# 4 0.0000 0.0000 0.0000 11.2461 0.0000 -0.5020
# 5 6.0216 -6.9332 -19.0370 0.0000 66.0970 0.0000
# 6 0.0000 0.0000 0.0000 -0.5020 0.0000 10.4291
#
#
#
# Elastic Compliance Matrix: (Units=1/GPa)
#
#
# Indices 1 2 3 4 5 6 
#
# 1 0.022863 -0.000940 -0.002826 0.000000 -0.002995 0.000000
# 2 -0.000940 0.008031 -0.000317 0.000000 0.000837 0.000000
# 3 -0.002826 -0.000317 0.003079 0.000000 0.001111 0.000000
# 4 0.000000 0.000000 0.000000 0.089111 0.000000 0.004289
# 5 -0.002995 0.000837 0.001111 0.000000 0.015810 0.000000
# 6 0.000000 0.000000 0.000000 0.004289 0.000000 0.096092
#
#
# Mechanical properties :
#
#
# Convention : Reuss Voigt Hill
#
# Bulk Modulus (GPa) = 38.74894 77.77506 58.26200
# Shear Modulus (GPa) = 19.86072 49.45502 34.65787
#
# Velocity S-wave (km/s) = 2.66705 4.20861 3.52318
# Velocity P-wave (km/s) = 4.83345 7.17439 6.11695
#
# Compressibility (1/GPa) = 0.02580716
#
# Stress axis : x y z
#
# Youngs Moduli (GPa) = 43.73908 124.52063 324.81311
#
# Poissons Ratio (x) = 0.11700 0.91794
# Poissons Ratio (y) = 0.04110 0.10294
# Poissons Ratio (z) = 0.12361 0.03946
#
# Static dielectric constant tensor:
#      x y z
#    x 2.243960 0.000000 0.087370 
#    y 0.000000 2.720200 0.000000 
#    z 0.087370 0.000000 2.414090 
# 
# From -- ./inp_files/280522.got.cif
#   From: 2010.05.17/outbox.cif.g08.bks.cpg/sg12_141_cif.got.tgz:280522.got - 2010.06.03 13:09:07.
