data_PCOD9171744
_publ_section_title
;
Structure prediction by ZEFSAII (Michael W. Deem and Ramdas Pophale) SiO2 
 PCOD9171744
Probable space group: C 2/M
;
_chemical_formula_sum "Si O2"
_cell_formula_units_Z 32
_cell_length_a 8.726159
_cell_length_b 30.691009
_cell_length_c 5.453951
_cell_angle_alpha 90.000000
_cell_angle_beta 86.320070
_cell_angle_gamma 90.000000
_cell_volume 1457.636219
_symmetry_space_group_name_H-M "C 2/M"
_symmetry_group_IT_number 12
_symmetry_cell_setting 'monoclinic'
loop_
_space_group_symop_operation_xyz
x,y,z
-x,y,-z
-x,-y,-z
x,-y,z
1/2+x,1/2+y,z
1/2-x,1/2+y,-z
1/2-x,1/2-y,-z
1/2+x,1/2-y,z
loop_
_atom_site_type_symbol
_atom_site_label
_atom_site_fract_x
_atom_site_fract_y
_atom_site_fract_z
Si Si1 0.596196 0.273787 0.246155
Si Si2 0.811054 0.586701 0.763755
Si Si3 0.169621 0.680955 0.082575
Si Si4 0.338768 0.051468 0.262888
O O1 0.500000 0.282384 0.500000
O O2 0.664900 0.224746 0.247186
O O3 0.500000 0.273710 0.000000
O O4 0.727864 0.307986 0.165469
O O5 0.780806 0.638032 0.780402
O O6 0.754111 0.565631 0.518937
O O7 0.995101 0.575743 0.748990
O O8 0.755403 0.565476 0.022659
O O9 0.000000 0.672612 0.000000
O O10 0.368938 0.000000 0.260048
#
# Coordination Sequence:
#
# PCOD9171744 Si02
#       4
#     8   8   8   8
#     4  10  24  40  56  78 116 152 185 238 278 328
#     4  10  18  28  47  73 103 144 171 217 261 344
#     4  10  21  37  59  84 109 148 197 229 278 326
#     4  10  18  29  44  73 115 142 161 219 292 331
#
# _framework density 21.95335
#
# number of rings (size 3 to 8) (size 9 to 14) (size 15 to 20)
#    0.000    2.000    2.500    3.750    3.500   11.000 
#    0.000    0.000    0.000    0.000    0.000    0.000 
#    0.000   34.000    0.000    0.000    0.000    0.000 
#
# Total GULP energy -89349.654798 kJ/mol
# GULP energy per Si atom -5584.353425 kJ/mol
# Density = 2.190338 g / cm^3
# Si number density = 21.953350 Si / 1000 Ang^3
#
#
#
# Elastic Constant Matrix: (Units=GPa)
#
#
# Indices 1 2 3 4 5 6 
#
# 1 28.3437 19.3172 39.7099 0.0000 -10.2197 0.0000
# 2 19.3172 146.9090 61.9811 0.0000 -13.4500 0.0000
# 3 39.7099 61.9811 222.9077 0.0000 -2.2880 0.0000
# 4 0.0000 0.0000 0.0000 22.1877 0.0000 2.5303
# 5 -10.2197 -13.4500 -2.2880 0.0000 24.5926 0.0000
# 6 0.0000 0.0000 0.0000 2.5303 0.0000 -2.7530
#
#
#
# Elastic Compliance Matrix: (Units=1/GPa)
#
#
# Indices 1 2 3 4 5 6 
#
# 1 0.057904 -0.001487 -0.009673 0.000000 0.022350 0.000000
# 2 -0.001487 0.008169 -0.001969 0.000000 0.003667 0.000000
# 3 -0.009673 -0.001969 0.006711 0.000000 -0.004472 0.000000
# 4 0.000000 0.000000 0.000000 0.040794 0.000000 0.037495
# 5 0.022350 0.003667 -0.004472 0.000000 0.051540 0.000000
# 6 0.000000 0.000000 0.000000 0.037495 0.000000 -0.328783
#
#
# Mechanical properties :
#
#
# Convention : Reuss Voigt Hill
#
# Bulk Modulus (GPa) = 21.49272 71.13076 46.31174
# Shear Modulus (GPa) = -41.01728 27.28228 -6.86750
#
# Velocity S-wave (km/s) = -4.32717 3.52907 -1.77060
# Velocity P-wave (km/s) = 3.89287 7.00550 4.11841
#
# Compressibility (1/GPa) = 0.04652739
#
# Stress axis : x y z
#
# Youngs Moduli (GPa) = 17.26988 122.41694 149.01274
#
# Poissons Ratio (x) = 0.18202 1.44133
# Poissons Ratio (y) = 0.02568 0.29339
# Poissons Ratio (z) = 0.16704 0.24102
#
# Static dielectric constant tensor:
#      x y z
#    x 1.823600 0.000000 0.075550 
#    y 0.000000 1.777630 0.000000 
#    z 0.075550 0.000000 1.785990 
# 
# From -- ./inp_files/3735.got.cif
#   From: 2010.05.17/outbox.cif.g08.bks.cpg/sg12_2_cif.got.tgz:3735.got - 2010.06.03 13:09:07.
