data_PCOD9171576
_publ_section_title
;
Structure prediction by ZEFSAII (Michael W. Deem and Ramdas Pophale) SiO2 
 PCOD9171576
Probable space group: C 2/M
;
_chemical_formula_sum "Si O2"
_cell_formula_units_Z 56
_cell_length_a 32.735836
_cell_length_b 8.990817
_cell_length_c 13.797407
_cell_angle_alpha 90.000000
_cell_angle_beta 114.325863
_cell_angle_gamma 90.000000
_cell_volume 3700.343895
_symmetry_space_group_name_H-M "C 2/M"
_symmetry_group_IT_number 12
_symmetry_cell_setting 'monoclinic'
loop_
_space_group_symop_operation_xyz
x,y,z
-x,y,-z
-x,-y,-z
x,-y,z
1/2+x,1/2+y,z
1/2-x,1/2+y,-z
1/2-x,1/2-y,-z
1/2+x,1/2-y,z
loop_
_atom_site_type_symbol
_atom_site_label
_atom_site_fract_x
_atom_site_fract_y
_atom_site_fract_z
Si Si1 0.775113 0.676843 0.378043
Si Si2 0.495245 0.171029 0.878045
Si Si3 0.182559 0.177604 0.398401
Si Si4 0.181103 0.823331 0.977172
Si Si5 0.094656 0.320978 0.976343
Si Si6 0.595396 0.677486 0.189641
Si Si7 0.263835 0.676601 0.163726
O O1 0.779478 0.500000 0.371038
O O2 0.808452 0.737174 0.493008
O O3 0.725022 0.708934 0.370099
O O4 0.780379 0.757722 0.281011
O O5 0.544461 0.220117 0.891559
O O6 0.452266 0.270358 0.813763
O O7 0.487110 0.000000 0.840775
O O8 0.500000 0.171503 0.000000
O O9 0.136774 0.217655 0.299363
O O10 0.182511 0.000000 0.416681
O O11 0.134019 0.744330 0.949546
O O12 0.201182 0.797391 0.889655
O O13 0.177116 0.000000 0.988932
O O14 0.217821 0.756600 0.086919
O O15 0.096477 0.500000 0.982723
O O16 0.100742 0.255861 0.090554
O O17 0.595600 0.500000 0.175630
O O18 0.256238 0.500000 0.163717
#
# Coordination Sequence:
#
# PCOD9171576 Si02
#       7
#     8   8   8   8   8   8   8
#     4  10  19  31  48  67  89 119 153 187 219 259
#     4   8  16  29  42  61  90 120 150 183 222 269
#     4   9  19  32  44  64  92 119 150 185 222 263
#     4  10  20  32  47  68  91 118 154 187 217 263
#     4  10  19  30  45  65  92 124 152 184 226 267
#     4  10  18  28  45  67  92 122 153 187 224 265
#     4  10  20  33  48  66  92 122 148 183 227 264
#
# _framework density 15.133729000000001
#
# number of rings (size 3 to 8) (size 9 to 14) (size 15 to 20)
#    0.000    2.429    0.000    3.857    0.000    7.714 
#    0.000    0.000    0.000    0.000    0.000    1.000 
#    0.000    8.000    0.000    0.000    0.000    0.000 
#
# Total GULP energy -156139.207502 kJ/mol
# GULP energy per Si atom -5576.400268 kJ/mol
# Density = 1.509928 g / cm^3
# Si number density = 15.133729 Si / 1000 Ang^3
#
#
#
# Elastic Constant Matrix: (Units=GPa)
#
#
# Indices 1 2 3 4 5 6 
#
# 1 91.5339 43.8972 32.8231 0.0000 17.9117 0.0000
# 2 43.8972 58.8716 43.4236 0.0000 6.2682 0.0000
# 3 32.8231 43.4236 80.3841 0.0000 9.9468 0.0000
# 4 0.0000 0.0000 0.0000 24.5716 0.0000 1.7964
# 5 17.9117 6.2682 9.9468 0.0000 21.6444 0.0000
# 6 0.0000 0.0000 0.0000 1.7964 0.0000 27.5813
#
#
#
# Elastic Compliance Matrix: (Units=1/GPa)
#
#
# Indices 1 2 3 4 5 6 
#
# 1 0.019894 -0.014373 0.001234 0.000000 -0.012867 0.000000
# 2 -0.014373 0.038654 -0.016009 0.000000 0.008057 0.000000
# 3 0.001234 -0.016009 0.021351 0.000000 -0.006197 0.000000
# 4 0.000000 0.000000 0.000000 0.040892 0.000000 -0.002663
# 5 -0.012867 0.008057 -0.006197 0.000000 0.057364 0.000000
# 6 0.000000 0.000000 0.000000 -0.002663 0.000000 0.036430
#
#
# Mechanical properties :
#
#
# Convention : Reuss Voigt Hill
#
# Bulk Modulus (GPa) = 46.29308 52.34194 49.31751
# Shear Modulus (GPa) = 17.85192 22.13583 19.99388
#
# Velocity S-wave (km/s) = 3.43827 3.82865 3.63870
# Velocity P-wave (km/s) = 6.81308 7.36248 7.09310
#
# Compressibility (1/GPa) = 0.02160150
#
# Stress axis : x y z
#
# Youngs Moduli (GPa) = 50.26758 25.87082 46.83560
#
# Poissons Ratio (x) = 0.37185 -0.05778
# Poissons Ratio (y) = 0.72251 0.74978
# Poissons Ratio (z) = -0.06201 0.41416
#
# Static dielectric constant tensor:
#      x y z
#    x 1.514290 0.000000 0.003180 
#    y 0.000000 1.503820 0.000000 
#    z 0.003180 0.000000 1.473180 
# 
# From -- ./inp_files/186849.got.cif
#   From: 2010.05.17/outbox.cif.g08.bks.cpg/sg12_94_cif.got.tgz:186849.got - 2010.06.03 13:09:07.
