data_PCOD9171236
_publ_section_title
;
Structure prediction by ZEFSAII (Michael W. Deem and Ramdas Pophale) SiO2 
 PCOD9171236
Probable space group: C 2/M
;
_chemical_formula_sum "Si O2"
_cell_formula_units_Z 56
_cell_length_a 29.238457
_cell_length_b 7.298863
_cell_length_c 22.182978
_cell_angle_alpha 90.000000
_cell_angle_beta 32.648994
_cell_angle_gamma 90.000000
_cell_volume 2553.957664
_symmetry_space_group_name_H-M "C 2/M"
_symmetry_group_IT_number 12
_symmetry_cell_setting 'monoclinic'
loop_
_space_group_symop_operation_xyz
x,y,z
-x,y,-z
-x,-y,-z
x,-y,z
1/2+x,1/2+y,z
1/2-x,1/2+y,-z
1/2-x,1/2-y,-z
1/2+x,1/2-y,z
loop_
_atom_site_type_symbol
_atom_site_label
_atom_site_fract_x
_atom_site_fract_y
_atom_site_fract_z
Si Si1 0.217163 0.280887 0.604329
Si Si2 0.467848 0.790473 0.203149
Si Si3 0.696633 0.720649 0.265241
Si Si4 0.844335 0.722419 0.021809
Si Si5 0.993945 0.222141 0.705166
Si Si6 0.857577 0.223836 0.544240
Si Si7 0.323072 0.721182 0.844650
O O1 0.212207 0.500000 0.616645
O O2 0.250000 0.250000 0.500000
O O3 0.121392 0.208795 0.718587
O O4 0.284293 0.216145 0.579248
O O5 0.560338 0.708008 0.086588
O O6 0.465333 0.790208 0.278481
O O7 0.470571 0.000000 0.177834
O O8 0.694582 0.500000 0.270907
O O9 0.661315 0.788704 0.367258
O O10 0.649354 0.767075 0.255182
O O11 0.793584 0.769397 0.139562
O O12 0.848055 0.500000 0.013315
O O13 0.775472 0.782789 0.046918
O O14 0.052717 0.276142 0.584062
O O15 0.897399 0.287851 0.804887
O O16 0.993491 0.000000 0.708667
O O17 0.856748 0.000000 0.546034
O O18 0.321058 0.500000 0.851926
#
# Coordination Sequence:
#
# PCOD9171236 Si02
#       7
#     8   8   8   8   8   8   8
#     4  10  19  31  45  65  90 115 143 177 217 259
#     4  10  19  30  45  63  89 121 148 174 214 263
#     4   7  12  25  42  61  89 116 138 176 224 257
#     4   7  13  27  42  60  89 118 143 176 215 258
#     4  10  18  27  43  69  92 114 145 182 217 253
#     4   9  16  26  42  64  90 112 141 183 220 256
#     4   7  13  25  41  63  90 115 142 176 220 258
#
# _framework density 21.926753999999999
#
# number of rings (size 3 to 8) (size 9 to 14) (size 15 to 20)
#    0.857    2.571    1.429    0.000    0.000    1.143 
#    0.000    3.571    0.000    4.286    0.000    5.000 
#    0.000    2.286    0.000    0.000    0.000    0.000 
#
# Total GULP energy -155895.567921 kJ/mol
# GULP energy per Si atom -5567.698854 kJ/mol
# Density = 2.187685 g / cm^3
# Si number density = 21.926754 Si / 1000 Ang^3
#
#
#
# Elastic Constant Matrix: (Units=GPa)
#
#
# Indices 1 2 3 4 5 6 
#
# 1 55.8580 -2.9385 30.4541 -0.0002 -26.3188 0.0002
# 2 -2.9385 93.7291 -0.1355 -0.0034 -7.6106 -0.0074
# 3 30.4541 -0.1355 122.9540 -0.0243 -51.0084 0.0053
# 4 -0.0002 -0.0034 -0.0243 -2.5428 0.0530 4.6497
# 5 -26.3188 -7.6106 -51.0084 0.0530 155.0044 -0.0257
# 6 0.0002 -0.0074 0.0053 4.6497 -0.0257 -1.2239
#
#
#
# Elastic Compliance Matrix: (Units=1/GPa)
#
#
# Indices 1 2 3 4 5 6 
#
# 1 0.021381 0.000845 -0.004368 0.000007 0.002235 -0.000043
# 2 0.000845 0.010753 0.000094 0.000024 0.000702 0.000014
# 3 -0.004368 0.000094 0.010318 0.000011 0.002658 0.000030
# 4 0.000007 0.000024 0.000011 0.066126 0.000025 0.251227
# 5 0.002235 0.000702 0.002658 0.000025 0.007740 -0.000060
# 6 -0.000043 0.000014 0.000030 0.251227 -0.000060 0.137389
#
#
# Mechanical properties :
#
#
# Convention : Reuss Voigt Hill
#
# Bulk Modulus (GPa) = 28.09410 36.36681 32.23046
# Shear Modulus (GPa) = 18.35340 46.59162 32.47251
#
# Velocity S-wave (km/s) = 2.89629 4.61464 3.85249
# Velocity P-wave (km/s) = 4.90155 6.70930 5.87537
#
# Compressibility (1/GPa) = 0.03559466
#
# Stress axis : x y z
#
# Youngs Moduli (GPa) = 46.76990 92.99971 96.91858
#
# Poissons Ratio (x) = -0.07863 0.42333
# Poissons Ratio (y) = -0.03954 -0.00909
# Poissons Ratio (z) = 0.20429 -0.00873
#
# Static dielectric constant tensor:
#      x y z
#    x 1.777450 0.000000 -0.006980 
#    y 0.000000 1.914580 0.000000 
#    z -0.006980 0.000000 1.830900 
# 
# From -- ./inp_files/324733.got.cif
#   From: 2010.05.17/outbox.cif.g08.bks.cpg/sg12_163_cif.got.tgz:324733.got - 2010.06.03 13:09:07.
