data_PCOD9171006
_publ_section_title
;
Structure prediction by ZEFSAII (Michael W. Deem and Ramdas Pophale) SiO2 
 PCOD9171006
Probable space group: C 2/M
;
_chemical_formula_sum "Si O2"
_cell_formula_units_Z 56
_cell_length_a 17.614969
_cell_length_b 19.447386
_cell_length_c 6.962365
_cell_angle_alpha 90.000000
_cell_angle_beta 75.871090
_cell_angle_gamma 90.000000
_cell_volume 2312.912652
_symmetry_space_group_name_H-M "C 2/M"
_symmetry_group_IT_number 12
_symmetry_cell_setting 'monoclinic'
loop_
_space_group_symop_operation_xyz
x,y,z
-x,y,-z
-x,-y,-z
x,-y,z
1/2+x,1/2+y,z
1/2-x,1/2+y,-z
1/2-x,1/2-y,-z
1/2+x,1/2-y,z
loop_
_atom_site_type_symbol
_atom_site_label
_atom_site_fract_x
_atom_site_fract_y
_atom_site_fract_z
Si Si1 0.254643 0.576752 0.794956
Si Si2 0.068029 0.140813 0.726085
Si Si3 0.142151 0.721033 0.728823
Si Si4 0.916270 0.575907 0.153203
Si Si5 0.730822 0.578714 0.675410
Si Si6 0.799643 0.721581 0.740167
Si Si7 0.900558 0.163282 0.750960
O O1 0.284199 0.500000 0.800147
O O2 0.164659 0.578353 0.919084
O O3 0.250010 0.588812 0.565358
O O4 0.321217 0.623156 0.842133
O O5 0.088068 0.214405 0.804802
O O6 0.136947 0.089839 0.747669
O O7 0.082075 0.149903 0.486662
O O8 0.975698 0.131436 0.807732
O O9 0.093741 0.650588 0.746890
O O10 0.175072 0.731610 0.496034
O O11 0.220552 0.731464 0.811249
O O12 0.911131 0.500000 0.257759
O O13 0.000000 0.575589 0.000000
O O14 0.751553 0.500000 0.714035
O O15 0.774533 0.641521 0.756458
O O16 0.875146 0.756662 0.794719
#
# Coordination Sequence:
#
# PCOD9171006 Si02
#       7
#     8   8   8   8   8   8   8
#     4   9  15  23  36  54  77 104 129 156 195 234
#     4   8  16  23  37  56  80 106 129 154 201 244
#     4   9  14  26  38  56  77 102 135 165 194 236
#     4  10  18  26  39  59  80 104 135 167 198 232
#     4   9  15  23  36  57  82 105 129 158 196 243
#     4   9  14  22  41  57  75 107 135 161 197 238
#     4   9  14  24  36  57  80 105 130 158 193 247
#
# _framework density 24.211895999999999
#
# number of rings (size 3 to 8) (size 9 to 14) (size 15 to 20)
#    0.000    3.000    2.857    1.714    0.000    0.571 
#    0.000    2.857    0.000    1.714    0.000    4.000 
#    0.000    9.143    0.000    0.000    0.000    0.000 
#
# Total GULP energy -155966.677113 kJ/mol
# GULP energy per Si atom -5570.238468 kJ/mol
# Density = 2.415679 g / cm^3
# Si number density = 24.211896 Si / 1000 Ang^3
#
#
#
# Elastic Constant Matrix: (Units=GPa)
#
#
# Indices 1 2 3 4 5 6 
#
# 1 95.3930 31.6633 33.6385 0.0000 -26.5658 0.0000
# 2 31.6633 116.9269 12.1944 0.0000 -25.8706 0.0000
# 3 33.6385 12.1944 84.7807 0.0000 -15.6955 0.0000
# 4 0.0000 0.0000 0.0000 15.4864 0.0000 -13.6529
# 5 -26.5658 -25.8706 -15.6955 0.0000 48.6850 0.0000
# 6 0.0000 0.0000 0.0000 -13.6529 0.0000 14.2299
#
#
#
# Elastic Compliance Matrix: (Units=1/GPa)
#
#
# Indices 1 2 3 4 5 6 
#
# 1 0.014201 -0.002252 -0.004358 0.000000 0.005147 0.000000
# 2 -0.002252 0.010067 0.000222 0.000000 0.004192 0.000000
# 3 -0.004358 0.000222 0.013904 0.000000 0.002222 0.000000
# 4 0.000000 0.000000 0.000000 0.418919 0.000000 0.401932
# 5 0.005147 0.004192 0.002222 0.000000 0.026293 0.000000
# 6 0.000000 0.000000 0.000000 0.401932 0.000000 0.455909
#
#
# Mechanical properties :
#
#
# Convention : Reuss Voigt Hill
#
# Bulk Modulus (GPa) = 39.37820 50.23255 44.80537
# Shear Modulus (GPa) = 5.20545 30.32057 17.76301
#
# Velocity S-wave (km/s) = 1.46786 3.54262 2.71153
# Velocity P-wave (km/s) = 4.37860 6.12582 5.32437
#
# Compressibility (1/GPa) = 0.02539476
#
# Stress axis : x y z
#
# Youngs Moduli (GPa) = 70.41996 99.33882 71.92368
#
# Poissons Ratio (x) = 0.22373 0.31341
# Poissons Ratio (y) = 0.15860 -0.01594
# Poissons Ratio (z) = 0.30686 -0.02202
#
# Static dielectric constant tensor:
#      x y z
#    x 1.951130 0.000000 0.064390 
#    y 0.000000 1.998290 0.000000 
#    z 0.064390 0.000000 2.033220 
# 
# From -- ./inp_files/77609.got.cif
#   From: 2010.05.17/outbox.cif.g08.bks.cpg/sg12_39_cif.got.tgz:77609.got - 2010.06.03 13:09:07.
