data_PCOD9171924
_publ_section_title
;
Structure prediction by ZEFSAII (Michael W. Deem and Ramdas Pophale) SiO2 
 PCOD9171924
Probable space group: C 2/M
;
_chemical_formula_sum "Si O2"
_cell_formula_units_Z 64
_cell_length_a 20.061133
_cell_length_b 7.612640
_cell_length_c 20.922222
_cell_angle_alpha 90.000000
_cell_angle_beta 87.000281
_cell_angle_gamma 90.000000
_cell_volume 3190.825643
_symmetry_space_group_name_H-M "C 2/M"
_symmetry_group_IT_number 12
_symmetry_cell_setting 'monoclinic'
loop_
_space_group_symop_operation_xyz
x,y,z
-x,y,-z
-x,-y,-z
x,-y,z
1/2+x,1/2+y,z
1/2-x,1/2+y,-z
1/2-x,1/2-y,-z
1/2+x,1/2-y,z
loop_
_atom_site_type_symbol
_atom_site_label
_atom_site_fract_x
_atom_site_fract_y
_atom_site_fract_z
Si Si1 0.618148 0.714718 0.097907
Si Si2 0.679262 0.709152 0.969180
Si Si3 0.964584 0.785375 0.782233
Si Si4 0.420273 0.714818 0.315791
Si Si5 0.485258 0.714470 0.571887
Si Si6 0.625919 0.293564 0.330069
Si Si7 0.743835 0.203020 0.840752
Si Si8 0.274971 0.301286 0.300261
O O1 0.618638 0.500000 0.096075
O O2 0.624930 0.772200 0.023849
O O3 0.557434 0.772055 0.146031
O O4 0.686820 0.766580 0.130893
O O5 0.672853 0.500000 0.962496
O O6 0.812627 0.714893 0.101870
O O7 0.750000 0.750000 0.000000
O O8 0.907801 0.726634 0.733991
O O9 0.034383 0.730291 0.747101
O O10 0.964735 0.000000 0.784044
O O11 0.418668 0.500000 0.313576
O O12 0.459074 0.763255 0.378436
O O13 0.344962 0.782048 0.317142
O O14 0.500000 0.778469 0.500000
O O15 0.484986 0.500000 0.568773
O O16 0.415362 0.774233 0.607006
O O17 0.611663 0.500000 0.328988
O O18 0.704726 0.273236 0.326746
O O19 0.726408 0.298923 0.776701
O O20 0.754763 0.000000 0.822578
O O21 0.275685 0.500000 0.323854
#
# Coordination Sequence:
#
# PCOD9171924 Si02
#       8
#     8   8   8   8   8   8   8   8
#     4   8  13  22  41  65  86 109 147 197 238 272
#     4   9  16  25  38  63  94 122 153 195 246 294
#     4   8  12  24  45  66  86 114 155 197 233 269
#     4   8  16  27  42  67  97 124 151 191 239 277
#     4   8  14  28  52  77  96 120 160 200 226 261
#     4   9  16  28  49  72  93 121 157 194 230 271
#     4  10  18  29  44  63  88 123 161 197 240 283
#     4  11  20  29  43  68  99 125 151 191 241 290
#
# _framework density 20.057503000000001
#
# number of rings (size 3 to 8) (size 9 to 14) (size 15 to 20)
#    0.000    3.125    1.250    3.375    0.000    0.000 
#    0.000    0.625    0.000    7.125    0.000    5.250 
#    0.000    0.000    0.000    0.000    0.000    0.000 
#
# Total GULP energy -178244.969939 kJ/mol
# GULP energy per Si atom -5570.155311 kJ/mol
# Density = 2.001185 g / cm^3
# Si number density = 20.057503 Si / 1000 Ang^3
#
#
#
# Elastic Constant Matrix: (Units=GPa)
#
#
# Indices 1 2 3 4 5 6 
#
# 1 110.3036 -3.6504 52.2190 0.0000 -21.7554 0.0000
# 2 -3.6504 37.2809 -5.1743 0.0000 -0.1839 0.0000
# 3 52.2190 -5.1743 110.9489 0.0000 -37.9385 0.0000
# 4 0.0000 0.0000 0.0000 6.3593 0.0000 -1.4475
# 5 -21.7554 -0.1839 -37.9385 0.0000 25.4238 0.0000
# 6 0.0000 0.0000 0.0000 -1.4475 0.0000 11.7547
#
#
#
# Elastic Compliance Matrix: (Units=1/GPa)
#
#
# Indices 1 2 3 4 5 6 
#
# 1 0.011846 0.000589 -0.004248 0.000000 0.003802 0.000000
# 2 0.000589 0.027253 0.002519 0.000000 0.004460 0.000000
# 3 -0.004248 0.002519 0.020201 0.000000 0.026528 0.000000
# 4 0.000000 0.000000 0.000000 0.161784 0.000000 0.019923
# 5 0.003802 0.004460 0.026528 0.000000 0.082206 0.000000
# 6 0.000000 0.000000 0.000000 0.019923 0.000000 0.087526
#
#
# Mechanical properties :
#
#
# Convention : Reuss Voigt Hill
#
# Bulk Modulus (GPa) = 17.53773 38.36913 27.95343
# Shear Modulus (GPa) = 12.13287 23.05016 17.59151
#
# Velocity S-wave (km/s) = 2.46215 3.39367 2.96472
# Velocity P-wave (km/s) = 4.10434 5.87597 5.06817
#
# Compressibility (1/GPa) = 0.05701992
#
# Stress axis : x y z
#
# Youngs Moduli (GPa) = 84.41423 36.69370 49.50205
#
# Poissons Ratio (x) = -0.02162 0.21028
# Poissons Ratio (y) = -0.04973 -0.12468
# Poissons Ratio (z) = 0.35858 -0.09242
#
# Static dielectric constant tensor:
#      x y z
#    x 1.719940 0.000000 -0.032800 
#    y 0.000000 1.782500 0.000000 
#    z -0.032800 0.000000 1.710550 
# 
# From -- ./inp_files/319180.got.cif
#   From: 2010.05.17/outbox.cif.g08.bks.cpg/sg12_160_cif.got.tgz:319180.got - 2010.06.03 13:09:07.
