data_PCOD9171412
_publ_section_title
;
Structure prediction by ZEFSAII (Michael W. Deem and Ramdas Pophale) SiO2 
 PCOD9171412
Probable space group: C 2/M
;
_chemical_formula_sum "Si O2"
_cell_formula_units_Z 56
_cell_length_a 18.363058
_cell_length_b 13.642029
_cell_length_c 13.328418
_cell_angle_alpha 90.000000
_cell_angle_beta 72.280005
_cell_angle_gamma 90.000000
_cell_volume 3180.480862
_symmetry_space_group_name_H-M "C 2/M"
_symmetry_group_IT_number 12
_symmetry_cell_setting 'monoclinic'
loop_
_space_group_symop_operation_xyz
x,y,z
-x,y,-z
-x,-y,-z
x,-y,z
1/2+x,1/2+y,z
1/2-x,1/2+y,-z
1/2-x,1/2-y,-z
1/2+x,1/2-y,z
loop_
_atom_site_type_symbol
_atom_site_label
_atom_site_fract_x
_atom_site_fract_y
_atom_site_fract_z
Si Si1 0.810529 0.611053 0.643254
Si Si2 0.243535 0.308782 0.722633
Si Si3 0.038746 0.723568 0.381586
Si Si4 0.371763 0.612615 0.781301
Si Si5 0.494410 0.615431 0.886529
Si Si6 0.593394 0.249232 0.699450
Si Si7 0.197527 0.113846 0.514037
O O1 0.797945 0.500000 0.682204
O O2 0.762780 0.693145 0.722897
O O3 0.898282 0.642472 0.617360
O O4 0.776662 0.618243 0.544618
O O5 0.283054 0.362692 0.799042
O O6 0.154638 0.315624 0.733886
O O7 0.286624 0.347955 0.604129
O O8 0.082181 0.812971 0.309410
O O9 0.000000 0.758147 0.500000
O O10 0.971507 0.691598 0.334546
O O11 0.385519 0.500000 0.746955
O O12 0.409483 0.626813 0.874652
O O13 0.514160 0.500000 0.870248
O O14 0.551002 0.678571 0.794393
O O15 0.500000 0.643959 0.000000
O O16 0.639514 0.316714 0.599446
O O17 0.172627 0.000000 0.523347
#
# Coordination Sequence:
#
# PCOD9171412 Si02
#       7
#     8   8   8   8   8   8   8
#     4   9  18  30  41  56  85 127 162 184 213 254
#     4  10  18  30  46  68  97 123 150 186 225 273
#     4  10  18  28  42  63  92 122 154 189 220 263
#     4   9  18  31  47  66  91 120 146 181 232 280
#     4   9  18  33  51  69  89 115 152 198 239 272
#     4  10  18  29  46  69  94 121 155 189 226 270
#     4  10  18  29  47  68  95 127 154 185 225 270
#
# _framework density 17.607399000000001
#
# number of rings (size 3 to 8) (size 9 to 14) (size 15 to 20)
#    0.000    2.429    0.000    5.143    0.000    1.714 
#    0.000    2.143    0.000    0.000    0.000    0.000 
#    0.000   53.143    0.000    0.000    0.000    0.000 
#
# Total GULP energy -156007.727453 kJ/mol
# GULP energy per Si atom -5571.704552 kJ/mol
# Density = 1.756732 g / cm^3
# Si number density = 17.607399 Si / 1000 Ang^3
#
#
#
# Elastic Constant Matrix: (Units=GPa)
#
#
# Indices 1 2 3 4 5 6 
#
# 1 130.0398 -4.0839 23.9668 0.0000 17.8725 0.0000
# 2 -4.0839 31.0408 -1.2283 0.0000 4.8732 0.0000
# 3 23.9668 -1.2283 43.9646 0.0000 17.4059 0.0000
# 4 0.0000 0.0000 0.0000 11.9253 0.0000 7.0421
# 5 17.8725 4.8732 17.4059 0.0000 18.6086 0.0000
# 6 0.0000 0.0000 0.0000 7.0421 0.0000 21.7213
#
#
#
# Elastic Compliance Matrix: (Units=1/GPa)
#
#
# Indices 1 2 3 4 5 6 
#
# 1 0.009163 0.002326 -0.001913 0.000000 -0.007620 0.000000
# 2 0.002326 0.035611 0.006834 0.000000 -0.017952 0.000000
# 3 -0.001913 0.006834 0.038052 0.000000 -0.035545 0.000000
# 4 0.000000 0.000000 0.000000 0.103710 0.000000 -0.033623
# 5 -0.007620 -0.017952 -0.035545 0.000000 0.099006 0.000000
# 6 0.000000 0.000000 0.000000 -0.033623 0.000000 0.056939
#
#
# Mechanical properties :
#
#
# Convention : Reuss Voigt Hill
#
# Bulk Modulus (GPa) = 10.27542 26.92828 18.60185
# Shear Modulus (GPa) = 13.87248 22.87708 18.37478
#
# Velocity S-wave (km/s) = 2.80996 3.60847 3.23396
# Velocity P-wave (km/s) = 4.04677 5.71738 4.95302
#
# Compressibility (1/GPa) = 0.09731963
#
# Stress axis : x y z
#
# Youngs Moduli (GPa) = 109.13561 28.08156 26.27988
#
# Poissons Ratio (x) = -0.06532 0.05028
# Poissons Ratio (y) = -0.25386 -0.17960
# Poissons Ratio (z) = 0.20880 -0.19192
#
# Static dielectric constant tensor:
#      x y z
#    x 1.688640 0.000000 0.019150 
#    y 0.000000 1.600670 0.000000 
#    z 0.019150 0.000000 1.571060 
# 
# From -- ./inp_files/224292.got.cif
#   From: 2010.05.17/outbox.cif.g08.bks.cpg/sg12_113_cif.got.tgz:224292.got - 2010.06.03 13:09:07.
