data_PCOD9171518
_publ_section_title
;
Structure prediction by ZEFSAII (Michael W. Deem and Ramdas Pophale) SiO2 
 PCOD9171518
Probable space group: C 2/M
;
_chemical_formula_sum "Si O2"
_cell_formula_units_Z 48
_cell_length_a 23.571890
_cell_length_b 7.755170
_cell_length_c 20.779356
_cell_angle_alpha 90.000000
_cell_angle_beta 136.756143
_cell_angle_gamma 90.000000
_cell_volume 2602.404981
_symmetry_space_group_name_H-M "C 2/M"
_symmetry_group_IT_number 12
_symmetry_cell_setting 'monoclinic'
loop_
_space_group_symop_operation_xyz
x,y,z
-x,y,-z
-x,-y,-z
x,-y,z
1/2+x,1/2+y,z
1/2-x,1/2+y,-z
1/2-x,1/2-y,-z
1/2+x,1/2-y,z
loop_
_atom_site_type_symbol
_atom_site_label
_atom_site_fract_x
_atom_site_fract_y
_atom_site_fract_z
Si Si1 0.805943 0.792924 0.984157
Si Si2 0.358948 0.202476 0.634807
Si Si3 0.656431 0.791297 0.781674
Si Si4 0.455097 0.294561 0.186467
Si Si5 0.188866 0.298433 0.544581
Si Si6 0.094605 0.288782 0.591701
O O1 0.748762 0.730015 0.878220
O O2 0.812183 0.000000 0.983270
O O3 0.750000 0.750000 0.000000
O O4 0.896623 0.728106 0.079750
O O5 0.452373 0.224761 0.734809
O O6 0.287692 0.283248 0.620052
O O7 0.347683 0.274298 0.552672
O O8 0.339406 0.000000 0.616288
O O9 0.592814 0.744328 0.786265
O O10 0.626060 0.729057 0.687324
O O11 0.658536 0.000000 0.781845
O O12 0.460736 0.500000 0.185328
O O13 0.165699 0.500000 0.525483
O O14 0.150911 0.227208 0.578799
O O15 0.097048 0.500000 0.595735
O O16 0.000000 0.239516 0.500000
#
# Coordination Sequence:
#
# PCOD9171518 Si02
#       6
#     8   8   8   8   8   8
#     4   8  15  26  41  63  89 116 146 182 220 258
#     4  10  19  31  48  67  88 116 150 186 222 262
#     4   9  16  28  46  67  92 120 149 180 218 265
#     4  10  18  28  44  67  93 118 148 185 224 261
#     4   9  18  32  48  67  91 117 146 181 221 262
#     4   9  16  27  46  70  93 117 144 175 215 265
#
# _framework density 18.444476999999999
#
# number of rings (size 3 to 8) (size 9 to 14) (size 15 to 20)
#    0.000    2.833    0.000    2.000    0.000    4.000 
#    0.000    0.833    0.000    3.000    0.000    7.000 
#    0.000    0.000    0.000    0.000    0.000    0.000 
#
# Total GULP energy -133696.323031 kJ/mol
# GULP energy per Si atom -5570.680126 kJ/mol
# Density = 1.840250 g / cm^3
# Si number density = 18.444477 Si / 1000 Ang^3
#
#
#
# Elastic Constant Matrix: (Units=GPa)
#
#
# Indices 1 2 3 4 5 6 
#
# 1 85.7252 -5.6775 61.5141 0.0000 -0.9513 0.0000
# 2 -5.6775 25.9666 -4.3015 0.0000 -6.4287 0.0001
# 3 61.5141 -4.3015 163.0056 0.0000 6.9852 0.0000
# 4 0.0000 0.0000 0.0000 11.8885 0.0000 4.6423
# 5 -0.9513 -6.4287 6.9852 0.0000 26.7409 0.0000
# 6 0.0000 0.0001 0.0000 4.6423 0.0000 16.7853
#
#
#
# Elastic Compliance Matrix: (Units=1/GPa)
#
#
# Indices 1 2 3 4 5 6 
#
# 1 0.016383 0.003294 -0.006224 0.000000 0.003001 0.000000
# 2 0.003294 0.041682 -0.000584 0.000000 0.010290 0.000000
# 3 -0.006224 -0.000584 0.008580 0.000000 -0.002603 0.000000
# 4 0.000000 0.000000 0.000000 0.094299 0.000000 -0.026080
# 5 0.003001 0.010290 -0.002603 0.000000 0.040656 0.000000
# 6 0.000000 0.000000 0.000000 -0.026080 0.000000 0.066789
#
#
# Mechanical properties :
#
#
# Convention : Reuss Voigt Hill
#
# Bulk Modulus (GPa) = 16.77399 41.97417 29.37408
# Shear Modulus (GPa) = 16.93249 25.96042 21.44646
#
# Velocity S-wave (km/s) = 3.03318 3.75572 3.41362
# Velocity P-wave (km/s) = 4.62396 6.45087 5.61225
#
# Compressibility (1/GPa) = 0.05961610
#
# Stress axis : x y z
#
# Youngs Moduli (GPa) = 61.03927 23.99111 116.55392
#
# Poissons Ratio (x) = -0.07902 0.72545
# Poissons Ratio (y) = -0.20106 0.06807
# Poissons Ratio (z) = 0.37992 0.01401
#
# Static dielectric constant tensor:
#      x y z
#    x 1.599920 0.000000 -0.004670 
#    y 0.000000 1.684660 0.000000 
#    z -0.004670 0.000000 1.680860 
# 
# From -- ./inp_files/230437.got.cif
#   From: 2010.05.17/outbox.cif.g08.bks.cpg/sg12_116_cif.got.tgz:230437.got - 2010.06.03 13:09:07.
