data_PCOD9171385
_publ_section_title
;
Structure prediction by ZEFSAII (Michael W. Deem and Ramdas Pophale) SiO2 
 PCOD9171385
Probable space group: C 2/M
;
_chemical_formula_sum "Si O2"
_cell_formula_units_Z 64
_cell_length_a 30.775651
_cell_length_b 15.448116
_cell_length_c 19.088074
_cell_angle_alpha 90.000000
_cell_angle_beta 26.279791
_cell_angle_gamma 90.000000
_cell_volume 4017.985042
_symmetry_space_group_name_H-M "C 2/M"
_symmetry_group_IT_number 12
_symmetry_cell_setting 'monoclinic'
loop_
_space_group_symop_operation_xyz
x,y,z
-x,y,-z
-x,-y,-z
x,-y,z
1/2+x,1/2+y,z
1/2-x,1/2+y,-z
1/2-x,1/2-y,-z
1/2+x,1/2-y,z
loop_
_atom_site_type_symbol
_atom_site_label
_atom_site_fract_x
_atom_site_fract_y
_atom_site_fract_z
Si Si1 0.192584 0.097350 0.429206
Si Si2 0.387465 0.596115 0.300988
Si Si3 0.701047 0.346669 0.712855
Si Si4 0.903275 0.669297 0.098217
Si Si5 0.912826 0.728401 0.434073
Si Si6 0.700843 0.404436 0.870823
Si Si7 0.953826 0.235843 0.888624
Si Si8 0.431331 0.099450 0.532263
O O1 0.178369 0.106549 0.534028
O O2 0.306375 0.111174 0.245730
O O3 0.125680 0.174016 0.493766
O O4 0.161402 0.000000 0.455412
O O5 0.432076 0.500000 0.239599
O O6 0.327952 0.604850 0.315467
O O7 0.468705 0.670285 0.187112
O O8 0.632758 0.261662 0.818079
O O9 0.813950 0.316692 0.547427
O O10 0.688646 0.397155 0.803879
O O11 0.928276 0.689999 0.981299
O O12 0.000000 0.639622 0.000000
O O13 0.946773 0.671641 0.450700
O O14 0.994987 0.732363 0.255809
O O15 0.668974 0.500000 0.940342
O O16 0.816329 0.394815 0.718369
O O17 0.639899 0.324983 0.989824
O O18 0.500000 0.112328 0.500000
O O19 0.446723 0.000000 0.484175
#
# Coordination Sequence:
#
# PCOD9171385 Si02
#       8
#     8   8   8   8   8   8   8   8
#     4   9  20  33  46  64  92 135 178 205 234 279
#     4  10  18  28  44  66  93 130 174 218 250 278
#     4   9  17  28  43  65  92 130 169 208 250 290
#     4  10  18  28  42  60  91 130 172 209 241 275
#     4   9  19  33  53  71  98 128 159 203 249 292
#     4   9  17  29  46  71 100 126 158 203 250 295
#     4  10  19  29  44  70  99 132 166 200 247 285
#     4   9  18  36  61  83  99 118 149 192 249 314
#
# _framework density 15.928381999999999
#
# number of rings (size 3 to 8) (size 9 to 14) (size 15 to 20)
#    0.000    2.625    1.250    1.500    1.750    2.750 
#    0.000    3.125    0.000    0.375    0.000    0.000 
#    0.000    0.000    0.000    0.000    0.000    0.000 
#
# Total GULP energy -178287.081259 kJ/mol
# GULP energy per Si atom -5571.471289 kJ/mol
# Density = 1.589213 g / cm^3
# Si number density = 15.928382 Si / 1000 Ang^3
#
#
#
# Elastic Constant Matrix: (Units=GPa)
#
#
# Indices 1 2 3 4 5 6 
#
# 1 75.6730 36.5964 32.6717 0.0000 -4.4539 0.0000
# 2 36.5964 62.4389 30.5420 0.0000 5.9020 0.0000
# 3 32.6717 30.5420 85.9142 0.0000 7.6785 0.0000
# 4 0.0000 0.0000 0.0000 4.6672 0.0000 2.3737
# 5 -4.4539 5.9020 7.6785 0.0000 9.6334 0.0000
# 6 0.0000 0.0000 0.0000 2.3737 0.0000 14.5891
#
#
#
# Elastic Compliance Matrix: (Units=1/GPa)
#
#
# Indices 1 2 3 4 5 6 
#
# 1 0.023765 -0.012998 -0.006579 0.000000 0.024195 0.000000
# 2 -0.012998 0.026928 -0.002819 0.000000 -0.020260 0.000000
# 3 -0.006579 -0.002819 0.016432 0.000000 -0.014412 0.000000
# 4 0.000000 0.000000 0.000000 0.233589 0.000000 -0.038006
# 5 0.024195 -0.020260 -0.014412 0.000000 0.138891 0.000000
# 6 0.000000 0.000000 0.000000 -0.038006 0.000000 0.074728
#
#
# Mechanical properties :
#
#
# Convention : Reuss Voigt Hill
#
# Bulk Modulus (GPa) = 44.77801 47.07180 45.92490
# Shear Modulus (GPa) = 8.82503 14.05903 11.44203
#
# Velocity S-wave (km/s) = 2.35637 2.97415 2.68310
# Velocity P-wave (km/s) = 5.96460 6.43509 6.20431
#
# Compressibility (1/GPa) = 0.02233239
#
# Stress axis : x y z
#
# Youngs Moduli (GPa) = 42.07799 37.13591 60.85794
#
# Poissons Ratio (x) = 0.48270 0.40040
# Poissons Ratio (y) = 0.54693 0.17156
# Poissons Ratio (z) = 0.27684 0.10469
#
# Static dielectric constant tensor:
#      x y z
#    x 1.496010 0.000000 -0.004080 
#    y 0.000000 1.558020 0.000000 
#    z -0.004080 0.000000 1.543930 
# 
# From -- ./inp_files/296676.got.cif
#   From: 2010.05.17/outbox.cif.g08.bks.cpg/sg12_149_cif.got.tgz:296676.got - 2010.06.03 13:09:07.
