data_PCOD9171474
_publ_section_title
;
Structure prediction by ZEFSAII (Michael W. Deem and Ramdas Pophale) SiO2 
 PCOD9171474
Probable space group: C 2/M
;
_chemical_formula_sum "Si O2"
_cell_formula_units_Z 48
_cell_length_a 23.512601
_cell_length_b 8.197961
_cell_length_c 30.210281
_cell_angle_alpha 90.000000
_cell_angle_beta 151.836277
_cell_angle_gamma 90.000000
_cell_volume 2748.505062
_symmetry_space_group_name_H-M "C 2/M"
_symmetry_group_IT_number 12
_symmetry_cell_setting 'monoclinic'
loop_
_space_group_symop_operation_xyz
x,y,z
-x,y,-z
-x,-y,-z
x,-y,z
1/2+x,1/2+y,z
1/2-x,1/2+y,-z
1/2-x,1/2-y,-z
1/2+x,1/2-y,z
loop_
_atom_site_type_symbol
_atom_site_label
_atom_site_fract_x
_atom_site_fract_y
_atom_site_fract_z
Si Si1 0.545417 0.300481 0.781102
Si Si2 0.959105 0.193602 0.819016
Si Si3 0.690698 0.696277 0.643109
Si Si4 0.795855 0.305482 0.983141
Si Si5 0.112179 0.197415 0.410146
Si Si6 0.967589 0.199184 0.548024
O O1 0.542980 0.500000 0.779771
O O2 0.490459 0.244464 0.790625
O O3 0.686478 0.251225 0.876313
O O4 0.466828 0.244643 0.685740
O O5 0.827228 0.249893 0.742389
O O6 0.959581 0.000000 0.816600
O O7 0.068001 0.243340 0.926209
O O8 0.688353 0.500000 0.641371
O O9 0.595829 0.750821 0.615516
O O10 0.634819 0.750485 0.557522
O O11 0.799940 0.500000 0.984666
O O12 0.750000 0.250000 0.000000
O O13 0.250000 0.250000 0.500000
O O14 0.060274 0.255038 0.421680
O O15 0.108042 0.000000 0.407290
O O16 0.967278 0.000000 0.548183
#
# Coordination Sequence:
#
# PCOD9171474 Si02
#       6
#     8   8   8   8   8   8
#     4   8  16  28  43  63  90 115 140 175 216 255
#     4  10  18  28  43  67  91 114 144 182 221 260
#     4   9  16  29  46  65  87 115 148 183 214 252
#     4   9  16  28  44  64  88 116 145 180 220 259
#     4  10  18  30  46  66  90 117 143 173 211 258
#     4   8  16  29  46  65  88 116 148 179 214 255
#
# _framework density 17.464037999999999
#
# number of rings (size 3 to 8) (size 9 to 14) (size 15 to 20)
#    0.000    3.000    0.000    4.000    0.000    0.000 
#    0.000    6.667    0.000    1.000    0.000    7.000 
#    0.000    0.000    0.000    0.000    0.000    0.000 
#
# Total GULP energy -133675.583403 kJ/mol
# GULP energy per Si atom -5569.815975 kJ/mol
# Density = 1.742429 g / cm^3
# Si number density = 17.464038 Si / 1000 Ang^3
#
#
#
# Elastic Constant Matrix: (Units=GPa)
#
#
# Indices 1 2 3 4 5 6 
#
# 1 85.8989 9.8436 75.6918 0.0000 6.6478 -0.0003
# 2 9.8436 10.7002 12.6439 -0.0006 2.1010 -0.0019
# 3 75.6918 12.6439 183.8785 -0.0002 21.1362 -0.0003
# 4 0.0000 -0.0006 -0.0002 20.7351 0.0001 8.4854
# 5 6.6478 2.1010 21.1362 0.0001 29.9016 0.0000
# 6 -0.0003 -0.0019 -0.0003 8.4854 0.0000 14.3264
#
#
#
# Elastic Compliance Matrix: (Units=1/GPa)
#
#
# Indices 1 2 3 4 5 6 
#
# 1 0.019102 -0.009122 -0.007425 0.000000 0.001642 -0.000001
# 2 -0.009122 0.106236 -0.003184 -0.000003 -0.003186 0.000016
# 3 -0.007425 -0.003184 0.009250 0.000000 -0.004664 0.000000
# 4 0.000000 -0.000003 0.000000 0.063657 0.000000 -0.037703
# 5 0.001642 -0.003186 -0.004664 0.000000 0.036598 -0.000001
# 6 -0.000001 0.000016 0.000000 -0.037703 -0.000001 0.092133
#
#
# Mechanical properties :
#
#
# Convention : Reuss Voigt Hill
#
# Bulk Modulus (GPa) = 10.51234 52.98181 31.74707
# Shear Modulus (GPa) = 12.55822 25.14583 18.85202
#
# Velocity S-wave (km/s) = 2.68449 3.79867 3.28910
# Velocity P-wave (km/s) = 3.95489 7.04581 5.71334
#
# Compressibility (1/GPa) = 0.09512631
#
# Stress axis : x y z
#
# Youngs Moduli (GPa) = 52.34938 9.41304 108.11092
#
# Poissons Ratio (x) = 0.08587 0.80271
# Poissons Ratio (y) = 0.47753 0.34420
# Poissons Ratio (z) = 0.38869 0.02997
#
# Static dielectric constant tensor:
#      x y z
#    x 1.585490 0.000000 0.003650 
#    y 0.000000 1.611990 0.000000 
#    z 0.003650 0.000000 1.613000 
# 
# From -- ./inp_files/348281.got.cif
#   From: 2010.05.17/outbox.cif.g08.bks.cpg/sg12_175_cif.got.tgz:348281.got - 2010.06.03 13:09:07.
