data_PCOD9171533
_publ_section_title
;
Structure prediction by ZEFSAII (Michael W. Deem and Ramdas Pophale) SiO2 
 PCOD9171533
Probable space group: C 2/M
;
_chemical_formula_sum "Si O2"
_cell_formula_units_Z 48
_cell_length_a 25.043273
_cell_length_b 8.894120
_cell_length_c 15.630970
_cell_angle_alpha 90.000000
_cell_angle_beta 118.452655
_cell_angle_gamma 90.000000
_cell_volume 3061.069324
_symmetry_space_group_name_H-M "C 2/M"
_symmetry_group_IT_number 12
_symmetry_cell_setting 'monoclinic'
loop_
_space_group_symop_operation_xyz
x,y,z
-x,y,-z
-x,-y,-z
x,-y,z
1/2+x,1/2+y,z
1/2-x,1/2+y,-z
1/2-x,1/2-y,-z
1/2+x,1/2-y,z
loop_
_atom_site_type_symbol
_atom_site_label
_atom_site_fract_x
_atom_site_fract_y
_atom_site_fract_z
Si Si1 0.815058 0.180344 0.024190
Si Si2 0.837388 0.680344 0.516712
Si Si3 0.207948 0.320139 0.165548
Si Si4 0.651104 0.679984 0.766628
Si Si5 0.202860 0.820931 0.342741
Si Si6 0.930286 0.681450 0.441391
O O1 0.856285 0.216886 0.138233
O O2 0.810182 0.000000 0.014918
O O3 0.750000 0.250000 0.000000
O O4 0.828479 0.248929 0.941814
O O5 0.839764 0.500000 0.530930
O O6 0.835883 0.760455 0.607044
O O7 0.773145 0.714388 0.421136
O O8 0.891395 0.727442 0.495000
O O9 0.203868 0.500000 0.159002
O O10 0.279561 0.278840 0.207214
O O11 0.188315 0.257665 0.242166
O O12 0.646358 0.500000 0.754018
O O13 0.603944 0.757920 0.668117
O O14 0.197369 0.000000 0.330627
O O15 0.929123 0.500000 0.437688
O O16 0.000000 0.731145 0.500000
#
# Coordination Sequence:
#
# PCOD9171533 Si02
#       6
#     8   8   8   8   8   8
#     4   9  17  28  42  64  92 122 154 188 228 278
#     4   9  18  31  44  64  92 122 154 192 231 271
#     4  10  18  28  44  68  95 124 153 186 230 281
#     4   9  18  30  44  64  92 123 154 190 229 270
#     4  10  18  28  46  68  91 124 154 187 232 278
#     4  10  20  33  49  68  91 123 161 195 229 269
#
# _framework density 15.680796000000001
#
# number of rings (size 3 to 8) (size 9 to 14) (size 15 to 20)
#    0.000    2.500    1.667    2.500    0.000    5.000 
#    0.000    0.000    0.000    0.000    0.000    1.167 
#    0.000    9.333    0.000    0.000    0.000    0.000 
#
# Total GULP energy -133734.172507 kJ/mol
# GULP energy per Si atom -5572.257188 kJ/mol
# Density = 1.564511 g / cm^3
# Si number density = 15.680796 Si / 1000 Ang^3
#
#
#
# Elastic Constant Matrix: (Units=GPa)
#
#
# Indices 1 2 3 4 5 6 
#
# 1 75.7018 27.3287 63.2424 0.0000 -10.4472 0.0000
# 2 27.3287 35.5956 51.3964 0.0000 -11.6323 0.0000
# 3 63.2424 51.3964 151.2650 0.0000 -31.3521 0.0000
# 4 0.0000 0.0000 0.0000 32.4186 0.0000 -5.5347
# 5 -10.4472 -11.6323 -31.3521 0.0000 23.5808 0.0000
# 6 0.0000 0.0000 0.0000 -5.5347 0.0000 15.0785
#
#
#
# Elastic Compliance Matrix: (Units=1/GPa)
#
#
# Indices 1 2 3 4 5 6 
#
# 1 0.021340 -0.007075 -0.007291 0.000000 -0.003730 0.000000
# 2 -0.007075 0.057667 -0.015722 0.000000 0.004409 0.000000
# 3 -0.007291 -0.015722 0.017565 0.000000 0.012367 0.000000
# 4 0.000000 0.000000 0.000000 0.032909 0.000000 0.012079
# 5 -0.003730 0.004409 0.012367 0.000000 0.059373 0.000000
# 6 0.000000 0.000000 0.000000 0.012079 0.000000 0.070754
#
#
# Mechanical properties :
#
#
# Convention : Reuss Voigt Hill
#
# Bulk Modulus (GPa) = 27.47618 60.72193 44.09905
# Shear Modulus (GPa) = 15.06401 22.25523 18.65962
#
# Velocity S-wave (km/s) = 3.10282 3.77140 3.45333
# Velocity P-wave (km/s) = 5.51334 7.60082 6.63963
#
# Compressibility (1/GPa) = 0.03639517
#
# Stress axis : x y z
#
# Youngs Moduli (GPa) = 46.85943 17.34082 56.93234
#
# Poissons Ratio (x) = 0.12269 0.41511
# Poissons Ratio (y) = 0.33154 0.89510
# Poissons Ratio (z) = 0.34166 0.27264
#
# Static dielectric constant tensor:
#      x y z
#    x 1.506010 0.000000 -0.020860 
#    y 0.000000 1.519890 0.000000 
#    z -0.020860 0.000000 1.536280 
# 
# From -- ./inp_files/236620.got.cif
#   From: 2010.05.17/outbox.cif.g08.bks.cpg/sg12_119_cif.got.tgz:236620.got - 2010.06.03 13:09:07.
