data_PCOD9171154
_publ_section_title
;
Structure prediction by ZEFSAII (Michael W. Deem and Ramdas Pophale) SiO2 
 PCOD9171154
Probable space group: C 2/M
;
_chemical_formula_sum "Si O2"
_cell_formula_units_Z 56
_cell_length_a 23.415980
_cell_length_b 8.952426
_cell_length_c 21.937742
_cell_angle_alpha 90.000000
_cell_angle_beta 130.202796
_cell_angle_gamma 90.000000
_cell_volume 3512.404204
_symmetry_space_group_name_H-M "C 2/M"
_symmetry_group_IT_number 12
_symmetry_cell_setting 'monoclinic'
loop_
_space_group_symop_operation_xyz
x,y,z
-x,y,-z
-x,-y,-z
x,-y,z
1/2+x,1/2+y,z
1/2-x,1/2+y,-z
1/2-x,1/2-y,-z
1/2+x,1/2-y,z
loop_
_atom_site_type_symbol
_atom_site_label
_atom_site_fract_x
_atom_site_fract_y
_atom_site_fract_z
Si Si1 0.013940 0.319150 0.769730
Si Si2 0.635538 0.827761 0.943492
Si Si3 0.255901 0.171078 0.100883
Si Si4 0.582871 0.681967 0.576889
Si Si5 0.880848 0.820926 0.260536
Si Si6 0.813819 0.180269 0.463062
Si Si7 0.852008 0.320309 0.616994
O O1 0.021005 0.500000 0.771224
O O2 0.057166 0.273106 0.861275
O O3 0.058330 0.249645 0.743319
O O4 0.927128 0.278601 0.704558
O O5 0.690637 0.825314 0.922397
O O6 0.628711 0.000000 0.958268
O O7 0.676761 0.734411 0.023832
O O8 0.300008 0.267593 0.180931
O O9 0.250258 0.000000 0.116699
O O10 0.500000 0.730695 0.500000
O O11 0.582650 0.500000 0.576864
O O12 0.603119 0.728072 0.659310
O O13 0.642748 0.729634 0.567393
O O14 0.885568 0.000000 0.260248
O O15 0.850740 0.247585 0.549240
O O16 0.726144 0.222058 0.404807
O O17 0.818499 0.000000 0.469758
O O18 0.852039 0.500000 0.610218
#
# Coordination Sequence:
#
# PCOD9171154 Si02
#       7
#     8   8   8   8   8   8   8
#     4   9  17  28  41  61  88 112 136 171 213 251
#     4   8  14  24  38  56  80 109 137 166 204 250
#     4   9  16  26  39  57  84 112 137 169 208 248
#     4   9  17  28  42  62  86 111 141 174 204 238
#     4  10  18  27  42  62  84 113 145 172 202 246
#     4   9  17  30  46  62  83 112 143 174 208 246
#     4   9  17  29  45  64  85 109 138 174 214 250
#
# _framework density 15.943496
#
# number of rings (size 3 to 8) (size 9 to 14) (size 15 to 20)
#    0.000    3.000    0.000    2.571    0.000    5.143 
#    0.000    1.429    0.000    3.857    0.000    1.000 
#    0.000    8.000    0.000    0.000    0.000    0.000 
#
# Total GULP energy -155910.426596 kJ/mol
# GULP energy per Si atom -5568.229521 kJ/mol
# Density = 1.590721 g / cm^3
# Si number density = 15.943496 Si / 1000 Ang^3
#
#
#
# Elastic Constant Matrix: (Units=GPa)
#
#
# Indices 1 2 3 4 5 6 
#
# 1 53.1714 11.9395 47.3162 0.0000 7.7574 0.0000
# 2 11.9395 18.6621 26.7419 0.0000 4.5538 0.0000
# 3 47.3162 26.7419 136.4743 0.0000 24.4037 0.0000
# 4 0.0000 0.0000 0.0000 23.6647 0.0000 0.8025
# 5 7.7574 4.5538 24.4037 0.0000 24.5032 0.0000
# 6 0.0000 0.0000 0.0000 0.8025 0.0000 11.1211
#
#
#
# Elastic Compliance Matrix: (Units=1/GPa)
#
#
# Indices 1 2 3 4 5 6 
#
# 1 0.027613 -0.005473 -0.008662 0.000000 0.000902 0.000000
# 2 -0.005473 0.075604 -0.013036 0.000000 0.000665 0.000000
# 3 -0.008662 -0.013036 0.014553 0.000000 -0.009329 0.000000
# 4 0.000000 0.000000 0.000000 0.042361 0.000000 -0.003057
# 5 0.000902 0.000665 -0.009329 0.000000 0.049693 0.000000
# 6 0.000000 0.000000 0.000000 -0.003057 0.000000 0.090140
#
#
# Mechanical properties :
#
#
# Convention : Reuss Voigt Hill
#
# Bulk Modulus (GPa) = 15.76621 42.25588 29.01104
# Shear Modulus (GPa) = 13.31740 20.01180 16.66460
#
# Velocity S-wave (km/s) = 2.89327 3.54668 3.23651
# Velocity P-wave (km/s) = 4.59038 6.58278 5.67471
#
# Compressibility (1/GPa) = 0.06342678
#
# Stress axis : x y z
#
# Youngs Moduli (GPa) = 36.21481 13.22690 68.71348
#
# Poissons Ratio (x) = 0.07240 0.59523
# Poissons Ratio (y) = 0.19822 0.89573
# Poissons Ratio (z) = 0.31371 0.17242
#
# Static dielectric constant tensor:
#      x y z
#    x 1.520790 0.000000 0.026400 
#    y 0.000000 1.536630 0.000000 
#    z 0.026400 0.000000 1.545720 
# 
# From -- ./inp_files/323799.got.cif
#   From: 2010.05.17/outbox.cif.g08.bks.cpg/sg12_162_cif.got.tgz:323799.got - 2010.06.03 13:09:07.
