data_PCOD9171352
_publ_section_title
;
Structure prediction by ZEFSAII (Michael W. Deem and Ramdas Pophale) SiO2 
 PCOD9171352
Probable space group: C 2/M
;
_chemical_formula_sum "Si O2"
_cell_formula_units_Z 56
_cell_length_a 10.868571
_cell_length_b 27.347580
_cell_length_c 15.215727
_cell_angle_alpha 90.000000
_cell_angle_beta 136.051449
_cell_angle_gamma 90.000000
_cell_volume 3138.709583
_symmetry_space_group_name_H-M "C 2/M"
_symmetry_group_IT_number 12
_symmetry_cell_setting 'monoclinic'
loop_
_space_group_symop_operation_xyz
x,y,z
-x,y,-z
-x,-y,-z
x,-y,z
1/2+x,1/2+y,z
1/2-x,1/2+y,-z
1/2-x,1/2-y,-z
1/2+x,1/2-y,z
loop_
_atom_site_type_symbol
_atom_site_label
_atom_site_fract_x
_atom_site_fract_y
_atom_site_fract_z
Si Si1 0.109848 0.186439 0.918662
Si Si2 0.505249 0.209428 0.367370
Si Si3 0.995281 0.443917 0.605433
Si Si4 0.002205 0.293597 0.159891
Si Si5 0.790243 0.866419 0.553436
Si Si6 0.710329 0.626190 0.242566
Si Si7 0.625229 0.684879 0.713578
O O1 0.030342 0.240114 0.900433
O O2 0.114132 0.186696 0.814268
O O3 0.978907 0.144992 0.886745
O O4 0.310230 0.181446 0.054007
O O5 0.543868 0.212116 0.283738
O O6 0.677603 0.184407 0.498609
O O7 0.345550 0.171631 0.301675
O O8 0.441060 0.263231 0.359814
O O9 0.970816 0.500000 0.618151
O O10 0.837454 0.407419 0.553243
O O11 0.000000 0.441907 0.500000
O O12 0.179756 0.420416 0.733810
O O13 0.169409 0.320635 0.204265
O O14 0.817398 0.882070 0.667822
O O15 0.980659 0.855055 0.610225
#
# Coordination Sequence:
#
# PCOD9171352 Si02
#       7
#     8   8   8   8   8   8   8
#     4   9  18  30  42  58  84 118 151 180 212 236
#     4  10  18  28  40  62  86 117 148 173 214 246
#     4   8  14  26  46  69  88 106 135 178 225 269
#     4  10  19  28  41  60  84 119 155 180 196 245
#     4   9  18  29  43  63  90 114 137 174 222 259
#     4   9  16  30  45  63  89 113 141 177 221 256
#     4  10  18  29  41  59  87 119 148 176 206 252
#
# _framework density 17.841726999999999
#
# number of rings (size 3 to 8) (size 9 to 14) (size 15 to 20)
#    0.000    2.714    1.429    2.143    0.000    1.143 
#    2.571    0.000    0.000    0.000    0.000   17.000 
#    0.000    6.857    0.000    0.000    0.000    0.000 
#
# Total GULP energy -155990.506421 kJ/mol
# GULP energy per Si atom -5571.089515 kJ/mol
# Density = 1.780112 g / cm^3
# Si number density = 17.841727 Si / 1000 Ang^3
#
#
#
# Elastic Constant Matrix: (Units=GPa)
#
#
# Indices 1 2 3 4 5 6 
#
# 1 65.4260 22.8415 28.0246 0.0000 31.2637 0.0000
# 2 22.8415 75.4103 24.6692 0.0000 23.5128 0.0000
# 3 28.0246 24.6692 61.4743 0.0000 29.1965 0.0000
# 4 0.0000 0.0000 0.0000 14.6512 0.0000 2.8149
# 5 31.2637 23.5128 29.1965 0.0000 40.3064 0.0000
# 6 0.0000 0.0000 0.0000 2.8149 0.0000 10.5319
#
#
#
# Elastic Compliance Matrix: (Units=1/GPa)
#
#
# Indices 1 2 3 4 5 6 
#
# 1 0.024847 -0.001479 -0.003034 0.000000 -0.016213 0.000000
# 2 -0.001479 0.016686 -0.002963 0.000000 -0.006441 0.000000
# 3 -0.003034 -0.002963 0.025764 0.000000 -0.014581 0.000000
# 4 0.000000 0.000000 0.000000 0.071948 0.000000 -0.019230
# 5 -0.016213 -0.006441 -0.014581 0.000000 0.051704 0.000000
# 6 0.000000 0.000000 0.000000 -0.019230 0.000000 0.100089
#
#
# Mechanical properties :
#
#
# Convention : Reuss Voigt Hill
#
# Bulk Modulus (GPa) = 19.10349 39.26458 29.18403
# Shear Modulus (GPa) = 15.45884 21.54958 18.50421
#
# Velocity S-wave (km/s) = 2.94673 3.47914 3.22395
# Velocity P-wave (km/s) = 4.72314 6.18014 5.50010
#
# Compressibility (1/GPa) = 0.05234647
#
# Stress axis : x y z
#
# Youngs Moduli (GPa) = 40.24562 59.92986 38.81375
#
# Poissons Ratio (x) = 0.08861 0.11776
# Poissons Ratio (y) = 0.05951 0.11501
# Poissons Ratio (z) = 0.12210 0.17757
#
# Static dielectric constant tensor:
#      x y z
#    x 1.635830 0.000000 0.008260 
#    y 0.000000 1.602050 0.000000 
#    z 0.008260 0.000000 1.659950 
# 
# From -- ./inp_files/136316.got.cif
#   From: 2010.05.17/outbox.cif.g08.bks.cpg/sg12_69_cif.got.tgz:136316.got - 2010.06.03 13:09:07.
