data_PCOD9171920
_publ_section_title
;
Structure prediction by ZEFSAII (Michael W. Deem and Ramdas Pophale) SiO2 
 PCOD9171920
Probable space group: C 2/M
;
_chemical_formula_sum "Si O2"
_cell_formula_units_Z 56
_cell_length_a 29.511682
_cell_length_b 9.039293
_cell_length_c 14.025635
_cell_angle_alpha 90.000000
_cell_angle_beta 104.259297
_cell_angle_gamma 90.000000
_cell_volume 3626.271458
_symmetry_space_group_name_H-M "C 2/M"
_symmetry_group_IT_number 12
_symmetry_cell_setting 'monoclinic'
loop_
_space_group_symop_operation_xyz
x,y,z
-x,y,-z
-x,-y,-z
x,-y,z
1/2+x,1/2+y,z
1/2-x,1/2+y,-z
1/2-x,1/2-y,-z
1/2+x,1/2-y,z
loop_
_atom_site_type_symbol
_atom_site_label
_atom_site_fract_x
_atom_site_fract_y
_atom_site_fract_z
Si Si1 0.552647 0.677124 0.141724
Si Si2 0.763209 0.323602 0.606269
Si Si3 0.554327 0.677455 0.916887
Si Si4 0.713438 0.825969 0.756946
Si Si5 0.144632 0.677564 0.878299
Si Si6 0.192155 0.174101 0.080158
Si Si7 0.643683 0.823394 0.235774
O O1 0.558307 0.500000 0.153378
O O2 0.499023 0.714161 0.138534
O O3 0.591904 0.759945 0.222708
O O4 0.559063 0.713359 0.032260
O O5 0.759341 0.500000 0.597895
O O6 0.750000 0.250000 0.500000
O O7 0.729856 0.264645 0.673733
O O8 0.816661 0.287646 0.665437
O O9 0.560106 0.500000 0.911572
O O10 0.593740 0.759094 0.876838
O O11 0.665920 0.782168 0.786105
O O12 0.754642 0.810615 0.857098
O O13 0.711329 0.000000 0.730295
O O14 0.144922 0.500000 0.885555
O O15 0.178666 0.745070 0.976400
O O16 0.162108 0.246918 0.148868
O O17 0.181201 0.000000 0.066438
O O18 0.642419 0.000000 0.223485
#
# Coordination Sequence:
#
# PCOD9171920 Si02
#       7
#     8   8   8   8   8   8   8
#     4   9  17  30  46  65  92 128 166 199 233 276
#     4  10  21  36  54  75  97 121 153 195 240 287
#     4   9  18  30  44  64  93 130 168 199 230 273
#     4   9  20  34  47  66  94 126 159 194 234 282
#     4  11  20  29  43  67  96 127 162 198 234 272
#     4  10  18  29  44  62  91 131 164 191 227 274
#     4  10  19  30  47  72  97 121 156 199 238 279
#
# _framework density 15.442859
#
# number of rings (size 3 to 8) (size 9 to 14) (size 15 to 20)
#    0.000    2.286    1.429    3.000    0.000    4.000 
#    0.000    1.429    0.000    0.000    0.000    1.000 
#    0.000    8.000    0.000    0.000    0.000    0.000 
#
# Total GULP energy -156121.382216 kJ/mol
# GULP energy per Si atom -5575.763651 kJ/mol
# Density = 1.540771 g / cm^3
# Si number density = 15.442859 Si / 1000 Ang^3
#
#
#
# Elastic Constant Matrix: (Units=GPa)
#
#
# Indices 1 2 3 4 5 6 
#
# 1 110.5559 57.2020 60.1863 0.0000 -1.1081 0.0000
# 2 57.2020 57.9302 49.1829 0.0000 1.4218 0.0000
# 3 60.1863 49.1829 89.1703 0.0000 0.8304 0.0000
# 4 0.0000 0.0000 0.0000 23.9258 0.0000 1.9864
# 5 -1.1081 1.4218 0.8304 0.0000 9.7227 0.0000
# 6 0.0000 0.0000 0.0000 1.9864 0.0000 25.2370
#
#
#
# Elastic Compliance Matrix: (Units=1/GPa)
#
#
# Indices 1 2 3 4 5 6 
#
# 1 0.019755 -0.015550 -0.004803 0.000000 0.004936 0.000000
# 2 -0.015550 0.044806 -0.014151 0.000000 -0.007116 0.000000
# 3 -0.004803 -0.014151 0.022265 0.000000 -0.000380 0.000000
# 4 0.000000 0.000000 0.000000 0.042071 0.000000 -0.003311
# 5 0.004936 -0.007116 -0.000380 0.000000 0.104488 0.000000
# 6 0.000000 0.000000 0.000000 -0.003311 0.000000 0.039885
#
#
# Mechanical properties :
#
#
# Convention : Reuss Voigt Hill
#
# Bulk Modulus (GPa) = 56.12488 65.64430 60.88459
# Shear Modulus (GPa) = 14.35882 17.84944 16.10413
#
# Velocity S-wave (km/s) = 3.05258 3.40345 3.23278
# Velocity P-wave (km/s) = 6.98905 7.61871 7.31066
#
# Compressibility (1/GPa) = 0.01781741
#
# Stress axis : x y z
#
# Youngs Moduli (GPa) = 50.61972 22.31843 44.91340
#
# Poissons Ratio (x) = 0.34706 0.21572
# Poissons Ratio (y) = 0.78715 0.63558
# Poissons Ratio (z) = 0.24312 0.31583
#
# Static dielectric constant tensor:
#      x y z
#    x 1.545760 0.000000 0.018780 
#    y 0.000000 1.511080 0.000000 
#    z 0.018780 0.000000 1.486060 
# 
# From -- ./inp_files/247940.got.cif
#   From: 2010.05.17/outbox.cif.g08.bks.cpg/sg12_124_cif.got.tgz:247940.got - 2010.06.03 13:09:07.
