data_PCOD9171669
_publ_section_title
;
Structure prediction by ZEFSAII (Michael W. Deem and Ramdas Pophale) SiO2 
 PCOD9171669
Probable space group: C 2/M
;
_chemical_formula_sum "Si O2"
_cell_formula_units_Z 56
_cell_length_a 23.682947
_cell_length_b 7.594105
_cell_length_c 15.208998
_cell_angle_alpha 90.000000
_cell_angle_beta 124.988915
_cell_angle_gamma 90.000000
_cell_volume 2240.971247
_symmetry_space_group_name_H-M "C 2/M"
_symmetry_group_IT_number 12
_symmetry_cell_setting 'monoclinic'
loop_
_space_group_symop_operation_xyz
x,y,z
-x,y,-z
-x,-y,-z
x,-y,z
1/2+x,1/2+y,z
1/2-x,1/2+y,-z
1/2-x,1/2-y,-z
1/2+x,1/2-y,z
loop_
_atom_site_type_symbol
_atom_site_label
_atom_site_fract_x
_atom_site_fract_y
_atom_site_fract_z
Si Si1 0.743578 0.212295 0.180200
Si Si2 0.611120 0.789545 0.716781
Si Si3 0.013507 0.793384 0.852022
Si Si4 0.340228 0.206287 0.051736
Si Si5 0.122886 0.712186 0.198352
Si Si6 0.669241 0.788291 0.430896
Si Si7 0.465431 0.201182 0.613523
O O1 0.820380 0.261172 0.278912
O O2 0.682425 0.277510 0.187582
O O3 0.741119 0.000000 0.175858
O O4 0.721381 0.279143 0.063009
O O5 0.637194 0.714771 0.834539
O O6 0.534167 0.721029 0.628608
O O7 0.602540 0.000000 0.717355
O O8 0.956728 0.763361 0.875983
O O9 0.989515 0.701834 0.738556
O O10 0.089175 0.722837 0.941580
O O11 0.018300 0.000000 0.838468
O O12 0.327676 0.000000 0.053780
O O13 0.125706 0.500000 0.198700
O O14 0.143730 0.776251 0.313756
O O15 0.750000 0.750000 0.500000
O O16 0.612021 0.721017 0.450424
O O17 0.662614 0.000000 0.428327
O O18 0.458143 0.000000 0.574434
#
# Coordination Sequence:
#
# PCOD9171669 Si02
#       7
#     8   8   8   8   8   8   8
#     4  10  20  32  48  67  90 127 169 198 227 273
#     4   9  17  30  48  68  94 125 157 195 237 270
#     4  10  18  28  46  70  93 120 158 203 237 269
#     4   9  18  32  47  65  92 128 164 197 236 279
#     4   9  19  35  49  65  95 130 155 184 235 292
#     4   9  17  31  53  76  96 116 145 186 232 283
#     4   8  16  32  50  69  96 128 153 182 232 285
#
# _framework density 24.989165
#
# number of rings (size 3 to 8) (size 9 to 14) (size 15 to 20)
#    0.000    2.857    0.000    3.429    0.000    6.286 
#    0.000    2.857    0.000    0.857    0.000    6.000 
#    0.000    0.000    0.000    0.000    0.000    0.000 
#
# Total GULP energy -156126.294666 kJ/mol
# GULP energy per Si atom -5575.939095 kJ/mol
# Density = 2.493229 g / cm^3
# Si number density = 24.989165 Si / 1000 Ang^3
#
#
#
# Elastic Constant Matrix: (Units=GPa)
#
#
# Indices 1 2 3 4 5 6 
#
# 1 122.5553 2.6154 35.2186 0.0000 52.5462 0.0000
# 2 2.6154 79.3265 -8.4099 0.0000 -2.1074 0.0000
# 3 35.2186 -8.4099 83.1235 0.0000 35.5726 0.0000
# 4 0.0000 0.0000 0.0000 9.7690 0.0000 15.4250
# 5 52.5462 -2.1074 35.5726 0.0000 47.5873 0.0000
# 6 0.0000 0.0000 0.0000 15.4250 0.0000 25.6625
#
#
#
# Elastic Compliance Matrix: (Units=1/GPa)
#
#
# Indices 1 2 3 4 5 6 
#
# 1 0.015628 -0.000887 0.001015 0.000000 -0.018055 0.000000
# 2 -0.000887 0.012804 0.001484 0.000000 0.000437 0.000000
# 3 0.001015 0.001484 0.017941 0.000000 -0.014467 0.000000
# 4 0.000000 0.000000 0.000000 2.009969 0.000000 -1.208133
# 5 -0.018055 0.000437 -0.014467 0.000000 0.051784 0.000000
# 6 0.000000 0.000000 0.000000 -1.208133 0.000000 0.765141
#
#
# Mechanical properties :
#
#
# Convention : Reuss Voigt Hill
#
# Bulk Modulus (GPa) = 20.16203 38.20593 29.18398
# Shear Modulus (GPa) = 1.73216 33.64250 17.68733
#
# Velocity S-wave (km/s) = 0.83347 3.67315 2.66334
# Velocity P-wave (km/s) = 3.00201 5.77162 4.60020
#
# Compressibility (1/GPa) = 0.04959818
#
# Stress axis : x y z
#
# Youngs Moduli (GPa) = 63.98889 78.09847 55.73699
#
# Poissons Ratio (x) = 0.06929 -0.05659
# Poissons Ratio (y) = 0.05677 -0.08273
# Poissons Ratio (z) = -0.06497 -0.11592
#
# Static dielectric constant tensor:
#      x y z
#    x 2.166070 0.000000 0.036650 
#    y 0.000000 1.933960 0.000000 
#    z 0.036650 0.000000 2.005990 
# 
# From -- ./inp_files/280943.got.cif
#   From: 2010.05.17/outbox.cif.g08.bks.cpg/sg12_141_cif.got.tgz:280943.got - 2010.06.03 13:09:07.
