data_PCOD9171696
_publ_section_title
;
Structure prediction by ZEFSAII (Michael W. Deem and Ramdas Pophale) SiO2 
 PCOD9171696
Probable space group: C 2/M
;
_chemical_formula_sum "Si O2"
_cell_formula_units_Z 56
_cell_length_a 28.341853
_cell_length_b 8.893308
_cell_length_c 18.766845
_cell_angle_alpha 90.000000
_cell_angle_beta 132.065682
_cell_angle_gamma 90.000000
_cell_volume 3511.619942
_symmetry_space_group_name_H-M "C 2/M"
_symmetry_group_IT_number 12
_symmetry_cell_setting 'monoclinic'
loop_
_space_group_symop_operation_xyz
x,y,z
-x,y,-z
-x,-y,-z
x,-y,z
1/2+x,1/2+y,z
1/2-x,1/2+y,-z
1/2-x,1/2-y,-z
1/2+x,1/2-y,z
loop_
_atom_site_type_symbol
_atom_site_label
_atom_site_fract_x
_atom_site_fract_y
_atom_site_fract_z
Si Si1 0.066619 0.327161 0.611120
Si Si2 0.749707 0.820302 0.420941
Si Si3 0.372727 0.678424 0.775258
Si Si4 0.998790 0.179341 0.666924
Si Si5 0.569788 0.172396 0.033679
Si Si6 0.990840 0.179456 0.158667
Si Si7 0.372470 0.818562 0.470499
O O1 0.079139 0.500000 0.644526
O O2 0.053538 0.228045 0.667021
O O3 0.116934 0.278067 0.602190
O O4 0.000000 0.326476 0.500000
O O5 0.750000 0.750000 0.500000
O O6 0.685539 0.768226 0.316962
O O7 0.809943 0.754549 0.439639
O O8 0.753442 0.000000 0.428982
O O9 0.360790 0.500000 0.759425
O O10 0.386545 0.729329 0.870139
O O11 0.437331 0.710643 0.796122
O O12 0.014185 0.221462 0.763753
O O13 0.933974 0.259559 0.575824
O O14 0.989176 0.000000 0.654145
O O15 0.591459 0.000000 0.053707
O O16 0.500000 0.175256 0.000000
O O17 0.557644 0.238010 0.943130
O O18 0.981580 0.000000 0.142319
O O19 0.370483 0.000000 0.472933
#
# Coordination Sequence:
#
# PCOD9171696 Si02
#       7
#     8   8   8   8   8   8   8
#     4   8  16  30  46  65  91 123 157 193 236 284
#     4  12  24  36  50  70  96 126 162 197 231 274
#     4  10  19  33  50  67  94 129 161 193 231 275
#     4  10  18  28  46  72  99 125 157 197 239 282
#     4   9  17  29  46  68  92 120 156 195 234 276
#     4   9  18  30  45  68  96 125 155 190 234 280
#     4  10  20  34  49  66  93 128 163 197 235 279
#
# _framework density 15.947056
#
# number of rings (size 3 to 8) (size 9 to 14) (size 15 to 20)
#    0.000    2.286    0.000    4.714    0.000    7.714 
#    0.000    0.000    0.000    0.000    0.000    1.000 
#    0.000    0.000    0.000    0.000    0.000    0.000 
#
# Total GULP energy -156149.333446 kJ/mol
# GULP energy per Si atom -5576.761909 kJ/mol
# Density = 1.591076 g / cm^3
# Si number density = 15.947056 Si / 1000 Ang^3
#
#
#
# Elastic Constant Matrix: (Units=GPa)
#
#
# Indices 1 2 3 4 5 6 
#
# 1 104.3023 53.0852 50.4686 0.0000 -20.8787 0.0000
# 2 53.0852 82.7479 47.7357 0.0000 -13.8082 0.0000
# 3 50.4686 47.7357 90.0248 0.0000 -23.4352 0.0000
# 4 0.0000 0.0000 0.0000 29.0001 0.0000 -2.2048
# 5 -20.8787 -13.8082 -23.4352 0.0000 25.0675 0.0000
# 6 0.0000 0.0000 0.0000 -2.2048 0.0000 25.2562
#
#
#
# Elastic Compliance Matrix: (Units=1/GPa)
#
#
# Indices 1 2 3 4 5 6 
#
# 1 0.016320 -0.007332 -0.003666 0.000000 0.006126 0.000000
# 2 -0.007332 0.020736 -0.007270 0.000000 -0.001482 0.000000
# 3 -0.003666 -0.007270 0.020064 0.000000 0.011699 0.000000
# 4 0.000000 0.000000 0.000000 0.034713 0.000000 0.003030
# 5 0.006126 -0.001482 0.011699 0.000000 0.055116 0.000000
# 6 0.000000 0.000000 0.000000 0.003030 0.000000 0.039859
#
#
# Mechanical properties :
#
#
# Convention : Reuss Voigt Hill
#
# Bulk Modulus (GPa) = 48.58712 64.40600 56.49656
# Shear Modulus (GPa) = 21.71982 24.25047 22.98514
#
# Velocity S-wave (km/s) = 3.69453 3.90383 3.80062
# Velocity P-wave (km/s) = 6.98092 7.79711 7.40028
#
# Compressibility (1/GPa) = 0.02058158
#
# Stress axis : x y z
#
# Youngs Moduli (GPa) = 61.27620 48.22630 49.84067
#
# Poissons Ratio (x) = 0.35361 0.18273
# Poissons Ratio (y) = 0.44929 0.36236
# Poissons Ratio (z) = 0.22465 0.35062
#
# Static dielectric constant tensor:
#      x y z
#    x 1.539150 0.000000 -0.013290 
#    y 0.000000 1.535270 0.000000 
#    z -0.013290 0.000000 1.511520 
# 
# From -- ./inp_files/291836.got.cif
#   From: 2010.05.17/outbox.cif.g08.bks.cpg/sg12_146_cif.got.tgz:291836.got - 2010.06.03 13:09:07.
