data_PCOD9171242
_publ_section_title
;
Structure prediction by ZEFSAII (Michael W. Deem and Ramdas Pophale) SiO2 
 PCOD9171242
Probable space group: C 2/M
;
_chemical_formula_sum "Si O2"
_cell_formula_units_Z 64
_cell_length_a 19.904930
_cell_length_b 8.955874
_cell_length_c 21.013411
_cell_angle_alpha 90.000000
_cell_angle_beta 85.217649
_cell_angle_gamma 90.000000
_cell_volume 3732.936379
_symmetry_space_group_name_H-M "C 2/M"
_symmetry_group_IT_number 12
_symmetry_cell_setting 'monoclinic'
loop_
_space_group_symop_operation_xyz
x,y,z
-x,y,-z
-x,-y,-z
x,-y,z
1/2+x,1/2+y,z
1/2-x,1/2+y,-z
1/2-x,1/2-y,-z
1/2+x,1/2-y,z
loop_
_atom_site_type_symbol
_atom_site_label
_atom_site_fract_x
_atom_site_fract_y
_atom_site_fract_z
Si Si1 0.574171 0.172245 0.027438
Si Si2 0.330008 0.179390 0.679420
Si Si3 0.032477 0.820309 0.292118
Si Si4 0.883750 0.818710 0.332455
Si Si5 0.209863 0.179860 0.779616
Si Si6 0.488728 0.322242 0.852979
Si Si7 0.127447 0.679363 0.892080
Si Si8 0.735077 0.680220 0.569081
O O1 0.623952 0.222145 0.967076
O O2 0.588215 0.000000 0.043329
O O3 0.500000 0.174839 0.000000
O O4 0.566060 0.269946 0.090903
O O5 0.402701 0.250806 0.680286
O O6 0.281233 0.221456 0.742424
O O7 0.290945 0.220994 0.617740
O O8 0.335031 0.000000 0.679757
O O9 0.031562 0.782781 0.217116
O O10 0.960747 0.768143 0.326027
O O11 0.035302 0.000000 0.297068
O O12 0.845829 0.778290 0.269761
O O13 0.836464 0.771600 0.394587
O O14 0.884344 0.000000 0.332753
O O15 0.189239 0.257208 0.846662
O O16 0.207641 0.000000 0.786994
O O17 0.498610 0.500000 0.855692
O O18 0.559344 0.244403 0.865571
O O19 0.125129 0.500000 0.889585
O O20 0.734574 0.500000 0.564271
O O21 0.750000 0.750000 0.500000
#
# Coordination Sequence:
#
# PCOD9171242 Si02
#       8
#     8   8   8   8   8   8   8   8
#     4   8  16  28  39  60  96 129 158 202 257 301
#     4   9  20  35  52  75 103 134 162 198 250 295
#     4  10  19  32  51  74 101 131 165 206 246 291
#     4   8  15  31  52  73  98 130 164 200 241 285
#     4   9  16  31  51  69  94 128 167 207 246 294
#     4  10  18  28  45  68  94 129 169 205 246 294
#     4  10  18  27  43  69  98 126 161 208 257 297
#     4   9  18  35  58  78 101 132 165 199 238 286
#
# _framework density 17.144680000000001
#
# number of rings (size 3 to 8) (size 9 to 14) (size 15 to 20)
#    0.000    2.875    1.250    3.000    0.000    4.750 
#    0.000    3.125    0.000    4.500    0.000    0.000 
#    0.000    0.000    0.000    0.000    0.000    0.000 
#
# Total GULP energy -178297.334795 kJ/mol
# GULP energy per Si atom -5571.791712 kJ/mol
# Density = 1.710566 g / cm^3
# Si number density = 17.144680 Si / 1000 Ang^3
#
#
#
# Elastic Constant Matrix: (Units=GPa)
#
#
# Indices 1 2 3 4 5 6 
#
# 1 108.1914 23.5840 55.8860 0.0000 -16.2224 0.0000
# 2 23.5840 22.3633 35.4214 0.0000 -4.0259 0.0000
# 3 55.8860 35.4214 130.8966 0.0000 -26.6656 0.0000
# 4 0.0000 0.0000 0.0000 29.5140 0.0000 -3.5636
# 5 -16.2224 -4.0259 -26.6656 0.0000 19.0673 0.0000
# 6 0.0000 0.0000 0.0000 -3.5636 0.0000 23.9778
#
#
#
# Elastic Compliance Matrix: (Units=1/GPa)
#
#
# Indices 1 2 3 4 5 6 
#
# 1 0.013339 -0.010635 -0.001346 0.000000 0.007221 0.000000
# 2 -0.010635 0.091593 -0.025379 0.000000 -0.025202 0.000000
# 3 -0.001346 -0.025379 0.019238 0.000000 0.020400 0.000000
# 4 0.000000 0.000000 0.000000 0.034501 0.000000 0.005128
# 5 0.007221 -0.025202 0.020400 0.000000 0.081798 0.000000
# 6 0.000000 0.000000 0.000000 0.005128 0.000000 0.042467
#
#
# Mechanical properties :
#
#
# Convention : Reuss Voigt Hill
#
# Bulk Modulus (GPa) = 20.22271 54.58158 37.40215
# Shear Modulus (GPa) = 13.36398 24.28247 18.82322
#
# Velocity S-wave (km/s) = 2.79495 3.76749 3.31706
# Velocity P-wave (km/s) = 4.71557 7.12954 6.04429
#
# Compressibility (1/GPa) = 0.04944935
#
# Stress axis : x y z
#
# Youngs Moduli (GPa) = 74.96669 10.91791 51.98057
#
# Poissons Ratio (x) = 0.11611 0.06998
# Poissons Ratio (y) = 0.79728 1.31921
# Poissons Ratio (z) = 0.10093 0.27708
#
# Static dielectric constant tensor:
#      x y z
#    x 1.577660 0.000000 -0.027130 
#    y 0.000000 1.575190 0.000000 
#    z -0.027130 0.000000 1.588700 
# 
# From -- ./inp_files/341956.got.cif
#   From: 2010.05.17/outbox.cif.g08.bks.cpg/sg12_171_cif.got.tgz:341956.got - 2010.06.03 13:09:07.
