data_PCOD9171469
_publ_section_title
;
Structure prediction by ZEFSAII (Michael W. Deem and Ramdas Pophale) SiO2 
 PCOD9171469
Probable space group: C 2/M
;
_chemical_formula_sum "Si O2"
_cell_formula_units_Z 36
_cell_length_a 21.684330
_cell_length_b 20.485687
_cell_length_c 5.199363
_cell_angle_alpha 90.000000
_cell_angle_beta 111.937429
_cell_angle_gamma 90.000000
_cell_volume 2142.416285
_symmetry_space_group_name_H-M "C 2/M"
_symmetry_group_IT_number 12
_symmetry_cell_setting 'monoclinic'
loop_
_space_group_symop_operation_xyz
x,y,z
-x,y,-z
-x,-y,-z
x,-y,z
1/2+x,1/2+y,z
1/2-x,1/2+y,-z
1/2-x,1/2-y,-z
1/2+x,1/2-y,z
loop_
_atom_site_type_symbol
_atom_site_label
_atom_site_fract_x
_atom_site_fract_y
_atom_site_fract_z
Si Si1 0.953776 0.500000 0.180307
Si Si2 0.424421 0.738616 0.285756
Si Si3 0.214185 0.351838 0.452061
Si Si4 0.142680 0.618012 0.842391
Si Si5 0.852231 0.792671 0.669988
O O1 0.907534 0.563331 0.136751
O O2 0.000000 0.500000 0.500000
O O3 0.000000 0.500000 0.000000
O O4 0.500000 0.739987 0.500000
O O5 0.383650 0.699351 0.438682
O O6 0.396480 0.812944 0.232144
O O7 0.407312 0.709533 0.979557
O O8 0.175380 0.391261 0.613040
O O9 0.318661 0.220578 0.605726
O O10 0.291760 0.341708 0.630307
O O11 0.200215 0.622103 0.145915
#
# Coordination Sequence:
#
# PCOD9171469 Si02
#       5
#     4   8   8   8   8
#     4  12  24  36  48  66  94 128 165 200 229 256
#     4  10  18  28  43  66  94 123 150 179 222 277
#     4   9  17  31  47  64  83 113 156 193 230 267
#     4  10  20  32  47  63  87 123 160 195 223 256
#     4   9  17  28  45  65  87 115 149 187 226 275
#
# _framework density 16.803457999999999
#
# number of rings (size 3 to 8) (size 9 to 14) (size 15 to 20)
#    0.000    2.222    0.000    4.000    0.000    8.889 
#    0.000    0.000    0.000    0.000    0.000    0.000 
#    0.000    0.000    0.000   70.000    0.000    0.000 
#
# Total GULP energy -100303.079562 kJ/mol
# GULP energy per Si atom -5572.393309 kJ/mol
# Density = 1.676521 g / cm^3
# Si number density = 16.803458 Si / 1000 Ang^3
#
#
#
# Elastic Constant Matrix: (Units=GPa)
#
#
# Indices 1 2 3 4 5 6 
#
# 1 79.2577 27.3672 38.2585 0.0000 0.6967 0.0000
# 2 27.3672 23.6649 14.9952 0.0000 -1.2187 0.0000
# 3 38.2585 14.9952 114.0884 0.0000 2.8079 0.0000
# 4 0.0000 0.0000 0.0000 10.5433 0.0000 -2.4004
# 5 0.6967 -1.2187 2.8079 0.0000 38.5117 0.0000
# 6 0.0000 0.0000 0.0000 -2.4004 0.0000 23.9289
#
#
#
# Elastic Compliance Matrix: (Units=1/GPa)
#
#
# Indices 1 2 3 4 5 6 
#
# 1 0.023055 -0.023801 -0.004582 0.000000 -0.000836 0.000000
# 2 -0.023801 0.070807 -0.001393 0.000000 0.002773 0.000000
# 3 -0.004582 -0.001393 0.010503 0.000000 -0.000727 0.000000
# 4 0.000000 0.000000 0.000000 0.097064 0.000000 0.009737
# 5 -0.000836 0.002773 -0.000727 0.000000 0.026122 0.000000
# 6 0.000000 0.000000 0.000000 0.009737 0.000000 0.042767
#
#
# Mechanical properties :
#
#
# Convention : Reuss Voigt Hill
#
# Bulk Modulus (GPa) = 22.31590 42.02808 32.17199
# Shear Modulus (GPa) = 14.50085 23.68946 19.09516
#
# Velocity S-wave (km/s) = 2.94082 3.75880 3.37468
# Velocity P-wave (km/s) = 4.98403 6.62601 5.86279
#
# Compressibility (1/GPa) = 0.04481110
#
# Stress axis : x y z
#
# Youngs Moduli (GPa) = 43.37517 14.12295 95.21276
#
# Poissons Ratio (x) = 0.33614 0.43630
# Poissons Ratio (y) = 1.03237 0.13266
# Poissons Ratio (z) = 0.19876 0.01968
#
# Static dielectric constant tensor:
#      x y z
#    x 1.565690 0.000000 -0.006220 
#    y 0.000000 1.580620 0.000000 
#    z -0.006220 0.000000 1.575500 
# 
# From -- ./inp_files/20021.got.cif
#   From: 2010.05.17/outbox.cif.g08.bks.cpg/sg12_11_cif.got.tgz:20021.got - 2010.06.03 13:09:07.
