data_PCOD9171409
_publ_section_title
;
Structure prediction by ZEFSAII (Michael W. Deem and Ramdas Pophale) SiO2 
 PCOD9171409
Probable space group: C 2/M
;
_chemical_formula_sum "Si O2"
_cell_formula_units_Z 64
_cell_length_a 26.331447
_cell_length_b 7.715133
_cell_length_c 17.907176
_cell_angle_alpha 90.000000
_cell_angle_beta 88.941720
_cell_angle_gamma 90.000000
_cell_volume 3637.233305
_symmetry_space_group_name_H-M "C 2/M"
_symmetry_group_IT_number 12
_symmetry_cell_setting 'monoclinic'
loop_
_space_group_symop_operation_xyz
x,y,z
-x,y,-z
-x,-y,-z
x,-y,z
1/2+x,1/2+y,z
1/2-x,1/2+y,-z
1/2-x,1/2-y,-z
1/2+x,1/2-y,z
loop_
_atom_site_type_symbol
_atom_site_label
_atom_site_fract_x
_atom_site_fract_y
_atom_site_fract_z
Si Si1 0.809937 0.207892 0.499023
Si Si2 0.651554 0.286970 0.180668
Si Si3 0.198603 0.796695 0.661067
Si Si4 0.845001 0.295237 0.182403
Si Si5 0.249085 0.291852 0.912872
Si Si6 0.184438 0.796852 0.339229
Si Si7 0.942280 0.211636 0.916124
Si Si8 0.557486 0.291176 0.913852
O O1 0.750000 0.250000 0.500000
O O2 0.826314 0.268565 0.416020
O O3 0.828956 0.277860 0.578463
O O4 0.816959 0.000000 0.501847
O O5 0.651863 0.500000 0.181495
O O6 0.700364 0.231083 0.131026
O O7 0.658787 0.224667 0.265362
O O8 0.600248 0.230991 0.140860
O O9 0.164362 0.775308 0.734645
O O10 0.254247 0.714125 0.671876
O O11 0.209113 0.000000 0.650360
O O12 0.837490 0.500000 0.188619
O O13 0.801158 0.225235 0.128016
O O14 0.899606 0.262814 0.145000
O O15 0.248730 0.500000 0.907117
O O16 0.250000 0.250000 0.000000
O O17 0.171287 0.000000 0.341532
O O18 0.000023 0.266897 0.897783
O O19 0.941956 0.000000 0.915870
O O20 0.930029 0.265950 0.001618
O O21 0.556641 0.500000 0.915113
#
# Coordination Sequence:
#
# PCOD9171409 Si02
#       8
#     8   8   8   8   8   8   8   8
#     4   8  15  25  40  61  85 116 148 177 215 260
#     4   9  15  26  44  65  89 116 144 177 218 265
#     4  10  18  28  42  63  90 119 151 183 214 259
#     4  11  21  32  45  65  91 120 150 182 223 267
#     4  10  20  31  43  62  88 118 149 176 212 262
#     4   9  15  27  44  63  91 120 145 179 222 267
#     4   8  15  28  48  69  87 111 149 188 225 263
#     4   9  17  31  49  67  86 114 151 191 224 257
#
# _framework density 17.595790999999998
#
# number of rings (size 3 to 8) (size 9 to 14) (size 15 to 20)
#    0.000    2.750    1.250    2.250    0.000    2.500 
#    0.000    1.250    0.000    1.500    0.000    0.875 
#    0.000    7.000    0.000    0.000    0.000    0.000 
#
# Total GULP energy -178298.111906 kJ/mol
# GULP energy per Si atom -5571.815997 kJ/mol
# Density = 1.755574 g / cm^3
# Si number density = 17.595791 Si / 1000 Ang^3
#
#
#
# Elastic Constant Matrix: (Units=GPa)
#
#
# Indices 1 2 3 4 5 6 
#
# 1 79.3936 -0.1531 76.5678 0.0000 6.8577 0.0000
# 2 -0.1531 27.9145 1.4962 0.0000 2.9417 0.0000
# 3 76.5678 1.4962 188.9281 0.0000 12.1797 0.0000
# 4 0.0000 0.0000 0.0000 12.9046 0.0000 -2.3785
# 5 6.8577 2.9417 12.1797 0.0000 20.6163 0.0000
# 6 0.0000 0.0000 0.0000 -2.3785 0.0000 11.5017
#
#
#
# Elastic Compliance Matrix: (Units=1/GPa)
#
#
# Indices 1 2 3 4 5 6 
#
# 1 0.020774 0.000782 -0.008288 0.000000 -0.002125 0.000000
# 2 0.000782 0.036400 -0.000264 0.000000 -0.005298 0.000000
# 3 -0.008288 -0.000264 0.008810 0.000000 -0.002410 0.000000
# 4 0.000000 0.000000 0.000000 0.080563 0.000000 0.016660
# 5 -0.002125 -0.005298 -0.002410 0.000000 0.051392 0.000000
# 6 0.000000 0.000000 0.000000 0.016660 0.000000 0.090389
#
#
# Mechanical properties :
#
#
# Convention : Reuss Voigt Hill
#
# Bulk Modulus (GPa) = 19.82393 50.22865 35.02629
# Shear Modulus (GPa) = 15.59179 23.55953 19.57566
#
# Velocity S-wave (km/s) = 2.97999 3.66311 3.33906
# Velocity P-wave (km/s) = 4.80949 6.81901 5.90043
#
# Compressibility (1/GPa) = 0.05044407
#
# Stress axis : x y z
#
# Youngs Moduli (GPa) = 48.13742 27.47222 113.51366
#
# Poissons Ratio (x) = -0.02149 0.94084
# Poissons Ratio (y) = -0.03765 0.02993
# Poissons Ratio (z) = 0.39898 0.00724
#
# Static dielectric constant tensor:
#      x y z
#    x 1.570230 0.000000 0.020110 
#    y 0.000000 1.661100 0.000000 
#    z 0.020110 0.000000 1.642480 
# 
# From -- ./inp_files/287602.got.cif
#   From: 2010.05.17/outbox.cif.g08.bks.cpg/sg12_144_cif.got.tgz:287602.got - 2010.06.03 13:09:07.
