data_PCOD9171081
_publ_section_title
;
Structure prediction by ZEFSAII (Michael W. Deem and Ramdas Pophale) SiO2 
 PCOD9171081
Probable space group: C 2/M
;
_chemical_formula_sum "Si O2"
_cell_formula_units_Z 64
_cell_length_a 28.239760
_cell_length_b 9.034065
_cell_length_c 18.885070
_cell_angle_alpha 90.000000
_cell_angle_beta 110.611886
_cell_angle_gamma 90.000000
_cell_volume 4509.541712
_symmetry_space_group_name_H-M "C 2/M"
_symmetry_group_IT_number 12
_symmetry_cell_setting 'monoclinic'
loop_
_space_group_symop_operation_xyz
x,y,z
-x,y,-z
-x,-y,-z
x,-y,z
1/2+x,1/2+y,z
1/2-x,1/2+y,-z
1/2-x,1/2-y,-z
1/2+x,1/2-y,z
loop_
_atom_site_type_symbol
_atom_site_label
_atom_site_fract_x
_atom_site_fract_y
_atom_site_fract_z
Si Si1 0.254276 0.323173 0.615945
Si Si2 0.637062 0.677858 0.769149
Si Si3 0.173685 0.329633 0.925728
Si Si4 0.436990 0.679839 0.538136
Si Si5 0.712294 0.329499 0.079194
Si Si6 0.950423 0.180303 0.382515
Si Si7 0.827993 0.821879 0.527591
Si Si8 0.747912 0.676607 0.764025
O O1 0.249402 0.500000 0.619232
O O2 0.205626 0.255742 0.550268
O O3 0.301490 0.289982 0.588669
O O4 0.259410 0.251104 0.695297
O O5 0.634640 0.500000 0.776313
O O6 0.640623 0.751905 0.847850
O O7 0.589820 0.729315 0.697016
O O8 0.689595 0.709910 0.755523
O O9 0.159290 0.500000 0.928123
O O10 0.231096 0.327286 0.924797
O O11 0.176630 0.244708 0.001662
O O12 0.437928 0.500000 0.539521
O O13 0.434697 0.723617 0.454090
O O14 0.491367 0.728439 0.596892
O O15 0.386211 0.725766 0.551357
O O16 0.698716 0.500000 0.084524
O O17 0.717455 0.240449 0.154790
O O18 0.949753 0.000000 0.381067
O O19 0.825377 0.000000 0.515265
O O20 0.752911 0.500000 0.762311
#
# Coordination Sequence:
#
# PCOD9171081 Si02
#       8
#     8   8   8   8   8   8   8   8
#     4  10  19  28  39  57  79 103 133 166 198 233
#     4   9  16  25  38  57  79 104 133 164 196 229
#     4   9  16  25  37  54  77 106 135 160 190 229
#     4   8  13  23  39  58  78 100 128 164 202 234
#     4   9  16  26  39  55  77 104 133 163 193 227
#     4   8  13  21  37  60  80  98 127 165 199 232
#     4   9  17  29  43  57  76 103 133 165 200 235
#     4  10  18  27  40  57  79 106 134 163 194 230
#
# _framework density 14.192130000000001
#
# number of rings (size 3 to 8) (size 9 to 14) (size 15 to 20)
#    0.000    3.000    0.000    3.000    0.000    6.000 
#    0.000    0.000    0.000    0.750    0.000    2.625 
#    0.000    1.000    0.000   11.750    0.000    2.750 
#
# Total GULP energy -178179.804065 kJ/mol
# GULP energy per Si atom -5568.118877 kJ/mol
# Density = 1.415983 g / cm^3
# Si number density = 14.192130 Si / 1000 Ang^3
#
#
#
# Elastic Constant Matrix: (Units=GPa)
#
#
# Indices 1 2 3 4 5 6 
#
# 1 72.0486 26.0465 52.3901 0.0000 5.5625 0.0000
# 2 26.0465 40.6512 49.5945 0.0000 -2.3444 0.0000
# 3 52.3901 49.5945 144.9157 0.0000 6.8543 0.0000
# 4 0.0000 0.0000 0.0000 25.0955 0.0000 -1.4012
# 5 5.5625 -2.3444 6.8543 0.0000 19.4945 0.0000
# 6 0.0000 0.0000 0.0000 -1.4012 0.0000 10.3003
#
#
#
# Elastic Compliance Matrix: (Units=1/GPa)
#
#
# Indices 1 2 3 4 5 6 
#
# 1 0.020359 -0.008016 -0.004369 0.000000 -0.005237 0.000000
# 2 -0.008016 0.047540 -0.013983 0.000000 0.012921 0.000000
# 3 -0.004369 -0.013983 0.013511 0.000000 -0.005185 0.000000
# 4 0.000000 0.000000 0.000000 0.040153 0.000000 0.005462
# 5 -0.005237 0.012921 -0.005185 0.000000 0.056168 0.000000
# 6 0.000000 0.000000 0.000000 0.005462 0.000000 0.097828
#
#
# Mechanical properties :
#
#
# Convention : Reuss Voigt Hill
#
# Bulk Modulus (GPa) = 34.87569 57.07530 45.97550
# Shear Modulus (GPa) = 14.79942 19.61701 17.20821
#
# Velocity S-wave (km/s) = 3.23273 3.72189 3.48590
# Velocity P-wave (km/s) = 6.20978 7.66638 6.97620
#
# Compressibility (1/GPa) = 0.02867327
#
# Stress axis : x y z
#
# Youngs Moduli (GPa) = 49.11895 21.03501 74.01607
#
# Poissons Ratio (x) = 0.16862 0.32338
# Poissons Ratio (y) = 0.39375 1.03494
# Poissons Ratio (z) = 0.21460 0.29412
#
# Static dielectric constant tensor:
#      x y z
#    x 1.459600 0.000000 0.004760 
#    y 0.000000 1.475710 0.000000 
#    z 0.004760 0.000000 1.456380 
# 
# From -- ./inp_files/294580.got.cif
#   From: 2010.05.17/outbox.cif.g08.bks.cpg/sg12_148_cif.got.tgz:294580.got - 2010.06.03 13:09:07.
