data_PCOD9171432
_publ_section_title
;
Structure prediction by ZEFSAII (Michael W. Deem and Ramdas Pophale) SiO2 
 PCOD9171432
Probable space group: C 2/M
;
_chemical_formula_sum "Si O2"
_cell_formula_units_Z 56
_cell_length_a 29.731558
_cell_length_b 7.298926
_cell_length_c 25.197657
_cell_angle_alpha 90.000000
_cell_angle_beta 152.124424
_cell_angle_gamma 90.000000
_cell_volume 2556.628784
_symmetry_space_group_name_H-M "C 2/M"
_symmetry_group_IT_number 12
_symmetry_cell_setting 'monoclinic'
loop_
_space_group_symop_operation_xyz
x,y,z
-x,y,-z
-x,-y,-z
x,-y,z
1/2+x,1/2+y,z
1/2-x,1/2+y,-z
1/2-x,1/2-y,-z
1/2+x,1/2-y,z
loop_
_atom_site_type_symbol
_atom_site_label
_atom_site_fract_x
_atom_site_fract_y
_atom_site_fract_z
Si Si1 0.227320 0.723624 0.778478
Si Si2 0.927995 0.723109 0.303834
Si Si3 0.723113 0.777578 0.558462
Si Si4 0.437916 0.284958 0.778002
Si Si5 0.051894 0.776010 0.999794
Si Si6 0.876646 0.278003 0.436725
Si Si7 0.472350 0.780150 0.698083
O O1 0.227862 0.500000 0.778448
O O2 0.171461 0.780859 0.773360
O O3 0.165113 0.783451 0.662684
O O4 0.337271 0.782274 0.887901
O O5 0.928175 0.500000 0.303401
O O6 0.016612 0.779193 0.434524
O O7 0.955850 0.782983 0.273518
O O8 0.829887 0.709933 0.657830
O O9 0.693397 0.729694 0.587602
O O10 0.635300 0.714124 0.429825
O O11 0.722643 0.000000 0.554431
O O12 0.425171 0.500000 0.775294
O O13 0.493538 0.212900 0.887150
O O14 0.493583 0.267508 0.780678
O O15 0.052498 0.000000 0.000370
O O16 0.000000 0.719973 0.000000
O O17 0.879573 0.500000 0.437703
O O18 0.470697 0.000000 0.693249
#
# Coordination Sequence:
#
# PCOD9171432 Si02
#       7
#     8   8   8   8   8   8   8
#     4   9  14  21  35  55  81 110 137 167 205 247
#     4   8  14  23  36  56  81 108 136 168 206 245
#     4   8  14  24  39  60  85 110 134 167 210 249
#     4  10  18  28  43  62  84 110 140 170 202 244
#     4   9  17  27  39  58  83 108 134 167 207 248
#     4   8  12  19  34  57  83 107 131 164 209 252
#     4   9  17  29  43  60  84 111 139 171 207 243
#
# _framework density 21.903845
#
# number of rings (size 3 to 8) (size 9 to 14) (size 15 to 20)
#    0.000    3.286    0.000    3.429    0.000    5.143 
#    0.000    0.714    0.000    0.429    0.000    0.000 
#    0.000   11.429    0.000    0.000    0.000    0.000 
#
# Total GULP energy -156305.379436 kJ/mol
# GULP energy per Si atom -5582.334980 kJ/mol
# Density = 2.185399 g / cm^3
# Si number density = 21.903845 Si / 1000 Ang^3
#
#
#
# Elastic Constant Matrix: (Units=GPa)
#
#
# Indices 1 2 3 4 5 6 
#
# 1 195.4240 -3.4338 111.2265 0.0000 1.0317 0.0000
# 2 -3.4338 89.0279 1.8646 0.0000 1.1886 0.0000
# 3 111.2265 1.8646 84.1925 0.0000 2.5067 0.0000
# 4 0.0000 0.0000 0.0000 83.1132 0.0000 -61.0565
# 5 1.0317 1.1886 2.5067 0.0000 40.2575 0.0000
# 6 0.0000 0.0000 0.0000 -61.0565 0.0000 34.0148
#
#
#
# Elastic Compliance Matrix: (Units=1/GPa)
#
#
# Indices 1 2 3 4 5 6 
#
# 1 0.020846 0.001367 -0.027604 0.000000 0.001144 0.000000
# 2 0.001367 0.011331 -0.002050 0.000000 -0.000242 0.000000
# 3 -0.027604 -0.002050 0.048457 0.000000 -0.002249 0.000000
# 4 0.000000 0.000000 0.000000 -0.037760 0.000000 -0.067779
# 5 0.001144 -0.000242 -0.002249 0.000000 0.024958 0.000000
# 6 0.000000 0.000000 0.000000 -0.067779 0.000000 -0.092264
#
#
# Mechanical properties :
#
#
# Convention : Reuss Voigt Hill
#
# Bulk Modulus (GPa) = 41.56010 65.32878 53.44444
# Shear Modulus (GPa) = 124.49443 48.74288 86.61866
#
# Velocity S-wave (km/s) = 7.54720 4.72244 6.29530
# Velocity P-wave (km/s) = 9.74484 7.72174 8.79168
#
# Compressibility (1/GPa) = 0.02406154
#
# Stress axis : x y z
#
# Youngs Moduli (GPa) = 47.97102 88.25109 20.63673
#
# Poissons Ratio (x) = -0.12063 0.56965
# Poissons Ratio (y) = -0.06557 0.04230
# Poissons Ratio (z) = 1.32418 0.18087
#
# Static dielectric constant tensor:
#      x y z
#    x 1.781820 0.000000 0.005000 
#    y 0.000000 1.889400 0.000000 
#    z 0.005000 0.000000 1.757930 
# 
# From -- ./inp_files/324741.got.cif
#   From: 2010.05.17/outbox.cif.g08.bks.cpg/sg12_163_cif.got.tgz:324741.got - 2010.06.03 13:09:07.
