data_PCOD9171460
_publ_section_title
;
Structure prediction by ZEFSAII (Michael W. Deem and Ramdas Pophale) SiO2 
 PCOD9171460
Probable space group: C 2/M
;
_chemical_formula_sum "Si O2"
_cell_formula_units_Z 56
_cell_length_a 33.306388
_cell_length_b 8.834955
_cell_length_c 16.660958
_cell_angle_alpha 90.000000
_cell_angle_beta 130.435224
_cell_angle_gamma 90.000000
_cell_volume 3731.609862
_symmetry_space_group_name_H-M "C 2/M"
_symmetry_group_IT_number 12
_symmetry_cell_setting 'monoclinic'
loop_
_space_group_symop_operation_xyz
x,y,z
-x,y,-z
-x,-y,-z
x,-y,z
1/2+x,1/2+y,z
1/2-x,1/2+y,-z
1/2-x,1/2-y,-z
1/2+x,1/2-y,z
loop_
_atom_site_type_symbol
_atom_site_label
_atom_site_fract_x
_atom_site_fract_y
_atom_site_fract_z
Si Si1 0.735128 0.180926 0.107402
Si Si2 0.697397 0.318301 0.392798
Si Si3 0.434198 0.182173 0.329429
Si Si4 0.444474 0.817900 0.528592
Si Si5 0.352941 0.318339 0.514064
Si Si6 0.746881 0.318005 0.297605
Si Si7 0.332642 0.680670 0.118337
O O1 0.735354 0.252463 0.195471
O O2 0.789697 0.219809 0.131788
O O3 0.731727 0.000000 0.108345
O O4 0.688885 0.244162 0.990799
O O5 0.700784 0.500000 0.399163
O O6 0.750000 0.250000 0.500000
O O7 0.652148 0.275816 0.397855
O O8 0.701884 0.275231 0.305175
O O9 0.493920 0.222277 0.381689
O O10 0.428753 0.222918 0.416652
O O11 0.389159 0.259738 0.219255
O O12 0.429252 0.000000 0.317581
O O13 0.405501 0.741246 0.540532
O O14 0.440282 0.000000 0.529493
O O15 0.349952 0.500000 0.503303
O O16 0.302348 0.247267 0.402808
O O17 0.750729 0.500000 0.298835
O O18 0.332935 0.500000 0.109769
#
# Coordination Sequence:
#
# PCOD9171460 Si02
#       7
#     8   8   8   8   8   8   8
#     4  10  20  32  46  66  90 116 147 181 217 258
#     4   8  16  28  41  60  87 117 146 177 215 258
#     4   9  18  32  47  63  88 119 149 183 218 255
#     4   9  18  31  46  65  88 118 152 180 215 260
#     4  10  18  28  43  65  92 119 148 182 218 257
#     4  10  18  29  45  64  89 120 150 180 216 260
#     4  10  20  32  46  65  89 117 148 181 217 258
#
# _framework density 15.006928
#
# number of rings (size 3 to 8) (size 9 to 14) (size 15 to 20)
#    0.000    2.571    0.000    3.429    0.000    6.286 
#    0.000    1.429    0.000    0.000    0.000    1.000 
#    0.000    8.000    0.000    0.000    0.000    0.000 
#
# Total GULP energy -156010.120868 kJ/mol
# GULP energy per Si atom -5571.790031 kJ/mol
# Density = 1.497277 g / cm^3
# Si number density = 15.006928 Si / 1000 Ang^3
#
#
#
# Elastic Constant Matrix: (Units=GPa)
#
#
# Indices 1 2 3 4 5 6 
#
# 1 129.9462 42.6386 63.9758 0.0000 -19.4343 0.0000
# 2 42.6386 35.5300 38.1915 0.0000 -7.3323 0.0000
# 3 63.9758 38.1915 103.6316 0.0000 -12.3251 0.0000
# 4 0.0000 0.0000 0.0000 25.4340 0.0000 0.3938
# 5 -19.4343 -7.3323 -12.3251 0.0000 26.0145 0.0000
# 6 0.0000 0.0000 0.0000 0.3938 0.0000 23.5445
#
#
#
# Elastic Compliance Matrix: (Units=1/GPa)
#
#
# Indices 1 2 3 4 5 6 
#
# 1 0.014305 -0.011990 -0.003755 0.000000 0.005528 0.000000
# 2 -0.011990 0.057358 -0.013648 0.000000 0.000743 0.000000
# 3 -0.003755 -0.013648 0.017174 0.000000 0.001485 0.000000
# 4 0.000000 0.000000 0.000000 0.039328 0.000000 -0.000658
# 5 0.005528 0.000743 0.001485 0.000000 0.043483 0.000000
# 6 0.000000 0.000000 0.000000 -0.000658 0.000000 0.042484
#
#
# Mechanical properties :
#
#
# Convention : Reuss Voigt Hill
#
# Bulk Modulus (GPa) = 33.27661 62.07995 47.67828
# Shear Modulus (GPa) = 17.67195 23.28540 20.47867
#
# Velocity S-wave (km/s) = 3.43532 3.94336 3.69808
# Velocity P-wave (km/s) = 6.16097 7.88612 7.07631
#
# Compressibility (1/GPa) = 0.03005114
#
# Stress axis : x y z
#
# Youngs Moduli (GPa) = 69.90454 17.43438 58.22823
#
# Poissons Ratio (x) = 0.20904 0.21864
# Poissons Ratio (y) = 0.83818 0.79468
# Poissons Ratio (z) = 0.26248 0.23794
#
# Static dielectric constant tensor:
#      x y z
#    x 1.515950 0.000000 -0.019190 
#    y 0.000000 1.502660 0.000000 
#    z -0.019190 0.000000 1.467800 
# 
# From -- ./inp_files/237426.got.cif
#   From: 2010.05.17/outbox.cif.g08.bks.cpg/sg12_119_cif.got.tgz:237426.got - 2010.06.03 13:09:07.
