data_PCOD9171167
_publ_section_title
;
Structure prediction by ZEFSAII (Michael W. Deem and Ramdas Pophale) SiO2 
 PCOD9171167
Probable space group: C 2/M
;
_chemical_formula_sum "Si O2"
_cell_formula_units_Z 64
_cell_length_a 28.306595
_cell_length_b 9.195346
_cell_length_c 20.971406
_cell_angle_alpha 90.000000
_cell_angle_beta 127.689693
_cell_angle_gamma 90.000000
_cell_volume 4319.592931
_symmetry_space_group_name_H-M "C 2/M"
_symmetry_group_IT_number 12
_symmetry_cell_setting 'monoclinic'
loop_
_space_group_symop_operation_xyz
x,y,z
-x,y,-z
-x,-y,-z
x,-y,z
1/2+x,1/2+y,z
1/2-x,1/2+y,-z
1/2-x,1/2-y,-z
1/2+x,1/2-y,z
loop_
_atom_site_type_symbol
_atom_site_label
_atom_site_fract_x
_atom_site_fract_y
_atom_site_fract_z
Si Si1 0.889623 0.673198 0.757793
Si Si2 0.243103 0.828107 0.151721
Si Si3 0.875373 0.826523 0.030982
Si Si4 0.307337 0.825952 0.079437
Si Si5 0.489743 0.826273 0.066023
Si Si6 0.341108 0.332813 0.599146
Si Si7 0.210088 0.332476 0.558140
Si Si8 0.263534 0.173465 0.719732
O O1 0.887651 0.500000 0.743942
O O2 0.883024 0.756917 0.685812
O O3 0.831388 0.707910 0.752733
O O4 0.949931 0.706897 0.845333
O O5 0.296754 0.800289 0.145808
O O6 0.246369 0.736053 0.218314
O O7 0.243103 0.000000 0.167034
O O8 0.181191 0.797670 0.062651
O O9 0.861900 0.746222 0.086858
O O10 0.934440 0.762739 0.047934
O O11 0.878462 0.000000 0.042656
O O12 0.305895 0.000000 0.067989
O O13 0.250000 0.750000 0.000000
O O14 0.477955 0.000000 0.061912
O O15 0.500000 0.794446 0.000000
O O16 0.357500 0.500000 0.601720
O O17 0.275087 0.331171 0.577095
O O18 0.334218 0.245880 0.527656
O O19 0.193709 0.500000 0.555362
O O20 0.220211 0.247005 0.632093
O O21 0.256767 0.000000 0.712864
#
# Coordination Sequence:
#
# PCOD9171167 Si02
#       8
#     8   8   8   8   8   8   8   8
#     4   9  18  30  42  59  84 115 150 183 217 256
#     4   9  18  30  43  62  87 113 141 175 218 264
#     4  10  20  32  46  64  86 114 149 187 224 261
#     4   9  17  30  47  65  85 110 142 180 221 265
#     4  10  20  33  47  63  86 118 154 188 222 259
#     4   9  16  26  41  59  79 107 144 180 213 252
#     4   9  16  26  40  58  83 112 139 172 214 257
#     4  10  18  27  42  63  87 115 146 178 212 256
#
# _framework density 14.816210999999999
#
# number of rings (size 3 to 8) (size 9 to 14) (size 15 to 20)
#    0.000    2.625    0.000    3.375    0.000    8.250 
#    0.000    0.000    0.000    0.000    0.000    0.000 
#    0.000    1.000    0.000   10.500    0.000    5.500 
#
# Total GULP energy -178303.842188 kJ/mol
# GULP energy per Si atom -5571.995068 kJ/mol
# Density = 1.478249 g / cm^3
# Si number density = 14.816211 Si / 1000 Ang^3
#
#
#
# Elastic Constant Matrix: (Units=GPa)
#
#
# Indices 1 2 3 4 5 6 
#
# 1 86.8490 59.1857 51.7715 0.0000 -18.1319 0.0000
# 2 59.1857 87.5733 70.1297 0.0000 -21.3390 0.0000
# 3 51.7715 70.1297 107.7463 0.0000 -20.6043 0.0000
# 4 0.0000 0.0000 0.0000 25.6266 0.0000 -4.9691
# 5 -18.1319 -21.3390 -20.6043 0.0000 18.8385 0.0000
# 6 0.0000 0.0000 0.0000 -4.9691 0.0000 24.2151
#
#
#
# Elastic Compliance Matrix: (Units=1/GPa)
#
#
# Indices 1 2 3 4 5 6 
#
# 1 0.021925 -0.012273 -0.001479 0.000000 0.005583 0.000000
# 2 -0.012273 0.033390 -0.013734 0.000000 0.010987 0.000000
# 3 -0.001479 -0.013734 0.019832 0.000000 0.004710 0.000000
# 4 0.000000 0.000000 0.000000 0.040639 0.000000 0.008339
# 5 0.005583 0.010987 0.004710 0.000000 0.076053 0.000000
# 6 0.000000 0.000000 0.000000 0.008339 0.000000 0.043008
#
#
# Mechanical properties :
#
#
# Convention : Reuss Voigt Hill
#
# Bulk Modulus (GPa) = 49.56970 71.59359 60.58165
# Shear Modulus (GPa) = 16.86090 20.47484 18.66787
#
# Velocity S-wave (km/s) = 3.37709 3.72145 3.55345
# Velocity P-wave (km/s) = 6.98107 8.17873 7.60352
#
# Compressibility (1/GPa) = 0.02017361
#
# Stress axis : x y z
#
# Youngs Moduli (GPa) = 45.60903 29.94944 50.42443
#
# Poissons Ratio (x) = 0.36758 0.07457
# Poissons Ratio (y) = 0.55978 0.69254
# Poissons Ratio (z) = 0.06745 0.41133
#
# Static dielectric constant tensor:
#      x y z
#    x 1.486260 0.000000 -0.005840 
#    y 0.000000 1.494110 0.000000 
#    z -0.005840 0.000000 1.476210 
# 
# From -- ./inp_files/326925.got.cif
#   From: 2010.05.17/outbox.cif.g08.bks.cpg/sg12_164_cif.got.tgz:326925.got - 2010.06.03 13:09:07.
