data_PCOD9171003
_publ_section_title
;
Structure prediction by ZEFSAII (Michael W. Deem and Ramdas Pophale) SiO2 
 PCOD9171003
Probable space group: C 2/M
;
_chemical_formula_sum "Si O2"
_cell_formula_units_Z 56
_cell_length_a 23.381575
_cell_length_b 8.999598
_cell_length_c 22.134487
_cell_angle_alpha 90.000000
_cell_angle_beta 49.481306
_cell_angle_gamma 90.000000
_cell_volume 3540.713506
_symmetry_space_group_name_H-M "C 2/M"
_symmetry_group_IT_number 12
_symmetry_cell_setting 'monoclinic'
loop_
_space_group_symop_operation_xyz
x,y,z
-x,y,-z
-x,-y,-z
x,-y,z
1/2+x,1/2+y,z
1/2-x,1/2+y,-z
1/2-x,1/2-y,-z
1/2+x,1/2-y,z
loop_
_atom_site_type_symbol
_atom_site_label
_atom_site_fract_x
_atom_site_fract_y
_atom_site_fract_z
Si Si1 0.329343 0.680342 0.927358
Si Si2 0.875060 0.821695 0.761102
Si Si3 0.939197 0.819930 0.958805
Si Si4 0.622317 0.825098 0.429098
Si Si5 0.893750 0.820285 0.124256
Si Si6 0.760433 0.822351 0.732478
Si Si7 0.995767 0.325716 0.601356
O O1 0.323946 0.500000 0.932387
O O2 0.352833 0.725495 0.843616
O O3 0.391545 0.727885 0.933862
O O4 0.250000 0.750000 0.000000
O O5 0.810783 0.777553 0.756661
O O6 0.954531 0.758312 0.683579
O O7 0.879220 0.000000 0.757126
O O8 0.026616 0.774976 0.900690
O O9 0.939809 0.000000 0.958615
O O10 0.900794 0.776122 0.048659
O O11 0.694561 0.736421 0.356871
O O12 0.575922 0.772666 0.519877
O O13 0.562534 0.813944 0.414879
O O14 0.639770 0.000000 0.424270
O O15 0.821334 0.748076 0.203927
O O16 0.887901 0.000000 0.130881
O O17 0.756191 0.000000 0.734209
O O18 0.002922 0.500000 0.610697
#
# Coordination Sequence:
#
# PCOD9171003 Si02
#       7
#     8   8   8   8   8   8   8
#     4  10  19  31  45  63  87 114 142 173 206 246
#     4   9  18  28  39  59  89 118 140 164 205 256
#     4   8  16  30  47  63  80 107 145 180 210 243
#     4   8  14  25  40  59  82 110 141 173 205 242
#     4   9  16  29  47  63  79 106 144 182 212 242
#     4  10  18  26  38  62  91 115 137 166 207 254
#     4   8  14  25  41  59  81 109 143 175 203 240
#
# _framework density 15.816020999999999
#
# number of rings (size 3 to 8) (size 9 to 14) (size 15 to 20)
#    0.000    3.143    0.000    3.000    0.000    1.714 
#    0.000    5.000    0.000    0.000    0.000    1.000 
#    0.000    0.000    0.000    0.000    0.000    0.000 
#
# Total GULP energy -155870.647073 kJ/mol
# GULP energy per Si atom -5566.808824 kJ/mol
# Density = 1.578002 g / cm^3
# Si number density = 15.816021 Si / 1000 Ang^3
#
#
#
# Elastic Constant Matrix: (Units=GPa)
#
#
# Indices 1 2 3 4 5 6 
#
# 1 63.2489 18.4781 60.1808 0.0000 -10.3794 -0.0001
# 2 18.4781 17.6285 40.4273 0.0001 -9.0327 -0.0003
# 3 60.1808 40.4273 168.2714 0.0000 -23.8246 0.0000
# 4 0.0000 0.0001 0.0000 25.1258 0.0000 -5.1499
# 5 -10.3794 -9.0327 -23.8246 0.0000 24.7715 0.0000
# 6 -0.0001 -0.0003 0.0000 -5.1499 0.0000 11.6247
#
#
#
# Elastic Compliance Matrix: (Units=1/GPa)
#
#
# Indices 1 2 3 4 5 6 
#
# 1 0.025200 -0.012702 -0.005929 0.000000 0.000225 0.000000
# 2 -0.012702 0.141463 -0.026503 0.000000 0.020771 0.000004
# 3 -0.005929 -0.026503 0.014714 0.000000 0.002003 -0.000001
# 4 0.000000 0.000000 0.000000 0.043775 0.000000 0.019393
# 5 0.000225 0.020771 0.002003 0.000000 0.049964 0.000001
# 6 0.000000 0.000004 -0.000001 0.019393 0.000001 0.094615
#
#
# Mechanical properties :
#
#
# Convention : Reuss Voigt Hill
#
# Bulk Modulus (GPa) = 10.97591 54.14681 32.56136
# Shear Modulus (GPa) = 10.19642 20.97523 15.58582
#
# Velocity S-wave (km/s) = 2.54183 3.64566 3.14259
# Velocity P-wave (km/s) = 3.94580 7.21324 5.81378
#
# Compressibility (1/GPa) = 0.09110866
#
# Stress axis : x y z
#
# Youngs Moduli (GPa) = 39.68297 7.06898 67.96168
#
# Poissons Ratio (x) = 0.08979 0.40294
# Poissons Ratio (y) = 0.50407 1.80118
# Poissons Ratio (z) = 0.23528 0.18735
#
# Static dielectric constant tensor:
#      x y z
#    x 1.519950 0.000000 0.001840 
#    y 0.000000 1.525190 0.000000 
#    z 0.001840 0.000000 1.537100 
# 
# From -- ./inp_files/280180.got.cif
#   From: 2010.05.17/outbox.cif.g08.bks.cpg/sg12_141_cif.got.tgz:280180.got - 2010.06.03 13:09:07.
