data_PCOD9171735
_publ_section_title
;
Structure prediction by ZEFSAII (Michael W. Deem and Ramdas Pophale) SiO2 
 PCOD9171735
Probable space group: C 2/M
;
_chemical_formula_sum "Si O2"
_cell_formula_units_Z 64
_cell_length_a 24.580533
_cell_length_b 7.789273
_cell_length_c 22.531193
_cell_angle_alpha 90.000000
_cell_angle_beta 128.655808
_cell_angle_gamma 90.000000
_cell_volume 3368.796213
_symmetry_space_group_name_H-M "C 2/M"
_symmetry_group_IT_number 12
_symmetry_cell_setting 'monoclinic'
loop_
_space_group_symop_operation_xyz
x,y,z
-x,y,-z
-x,-y,-z
x,-y,z
1/2+x,1/2+y,z
1/2-x,1/2+y,-z
1/2-x,1/2-y,-z
1/2+x,1/2-y,z
loop_
_atom_site_type_symbol
_atom_site_label
_atom_site_fract_x
_atom_site_fract_y
_atom_site_fract_z
Si Si1 0.576459 0.706709 0.271550
Si Si2 0.861647 0.699678 0.803543
Si Si3 0.173503 0.293325 0.754544
Si Si4 0.674593 0.292723 0.096506
Si Si5 0.928170 0.793073 0.211458
Si Si6 0.787294 0.696115 0.342092
Si Si7 0.273129 0.292800 0.581688
Si Si8 0.829498 0.793225 0.038494
O O1 0.577002 0.500000 0.275617
O O2 0.579541 0.753784 0.203948
O O3 0.506749 0.770142 0.255687
O O4 0.648703 0.769598 0.349928
O O5 0.844776 0.500000 0.785350
O O6 0.872665 0.737264 0.880251
O O7 0.792627 0.803666 0.736652
O O8 0.178614 0.500000 0.754182
O O9 0.246128 0.233592 0.834321
O O10 0.109275 0.250662 0.752628
O O11 0.171274 0.225717 0.685292
O O12 0.675284 0.500000 0.096068
O O13 0.654652 0.231163 0.017408
O O14 0.880043 0.727737 0.124541
O O15 0.929776 0.000000 0.208694
O O16 0.811742 0.500000 0.366041
O O17 0.778692 0.773779 0.401727
O O18 0.274066 0.500000 0.588138
O O19 0.250000 0.250000 0.500000
O O20 0.835447 0.000000 0.041815
O O21 0.750000 0.750000 0.000000
#
# Coordination Sequence:
#
# PCOD9171735 Si02
#       8
#     8   8   8   8   8   8   8   8
#     4   9  19  36  51  67  98 134 158 187 240 298
#     4  10  18  28  47  72  92 118 162 211 242 273
#     4   9  16  28  47  69  95 128 161 194 239 285
#     4   9  17  30  46  65  94 130 160 195 250 298
#     4  10  20  32  49  71  95 127 167 202 236 284
#     4   8  16  31  48  69 100 132 155 185 238 293
#     4   9  17  31  53  76  98 123 153 192 236 283
#     4  10  19  31  47  69  96 126 164 206 245 285
#
# _framework density 18.997885
#
# number of rings (size 3 to 8) (size 9 to 14) (size 15 to 20)
#    0.000    2.750    1.250    2.625    0.000    5.000 
#    0.000    0.625    0.000    4.500    0.000    5.250 
#    0.000    0.000    0.000    0.000    0.000    0.000 
#
# Total GULP energy -178294.675120 kJ/mol
# GULP energy per Si atom -5571.708598 kJ/mol
# Density = 1.895465 g / cm^3
# Si number density = 18.997885 Si / 1000 Ang^3
#
#
#
# Elastic Constant Matrix: (Units=GPa)
#
#
# Indices 1 2 3 4 5 6 
#
# 1 162.4735 3.2390 78.4663 0.0000 -36.8387 0.0000
# 2 3.2390 29.8613 4.8635 0.0000 1.0246 0.0000
# 3 78.4663 4.8635 105.7574 0.0000 -39.0906 0.0000
# 4 0.0000 0.0000 0.0000 13.8708 0.0000 -6.7570
# 5 -36.8387 1.0246 -39.0906 0.0000 34.7910 0.0000
# 6 0.0000 0.0000 0.0000 -6.7570 0.0000 21.3496
#
#
#
# Elastic Compliance Matrix: (Units=1/GPa)
#
#
# Indices 1 2 3 4 5 6 
#
# 1 0.009879 -0.000242 -0.005900 0.000000 0.003839 0.000000
# 2 -0.000242 0.034199 -0.003181 0.000000 -0.004838 0.000000
# 3 -0.005900 -0.003181 0.020019 0.000000 0.016339 0.000000
# 4 0.000000 0.000000 0.000000 0.085235 0.000000 0.026976
# 5 0.003839 -0.004838 0.016339 0.000000 0.051309 0.000000
# 6 0.000000 0.000000 0.000000 0.026976 0.000000 0.055377
#
#
# Mechanical properties :
#
#
# Convention : Reuss Voigt Hill
#
# Bulk Modulus (GPa) = 22.00225 52.35888 37.18056
# Shear Modulus (GPa) = 17.25238 28.10383 22.67810
#
# Velocity S-wave (km/s) = 3.01677 3.85036 3.45877
# Velocity P-wave (km/s) = 4.87249 6.88384 5.96357
#
# Compressibility (1/GPa) = 0.04544990
#
# Stress axis : x y z
#
# Youngs Moduli (GPa) = 101.21995 29.24100 49.95333
#
# Poissons Ratio (x) = 0.00709 0.29472
# Poissons Ratio (y) = 0.02454 0.15891
# Poissons Ratio (z) = 0.59718 0.09302
#
# Static dielectric constant tensor:
#      x y z
#    x 1.680270 0.000000 -0.040060 
#    y 0.000000 1.695460 0.000000 
#    z -0.040060 0.000000 1.663580 
# 
# From -- ./inp_files/323700.got.cif
#   From: 2010.05.17/outbox.cif.g08.bks.cpg/sg12_162_cif.got.tgz:323700.got - 2010.06.03 13:09:07.
