data_PCOD9171997
_publ_section_title
;
Structure prediction by ZEFSAII (Michael W. Deem and Ramdas Pophale) SiO2 
 PCOD9171997
Probable space group: C 2/M
;
_chemical_formula_sum "Si O2"
_cell_formula_units_Z 56
_cell_length_a 15.214645
_cell_length_b 18.368830
_cell_length_c 14.720903
_cell_angle_alpha 90.000000
_cell_angle_beta 50.469134
_cell_angle_gamma 90.000000
_cell_volume 3173.151861
_symmetry_space_group_name_H-M "C 2/M"
_symmetry_group_IT_number 12
_symmetry_cell_setting 'monoclinic'
loop_
_space_group_symop_operation_xyz
x,y,z
-x,y,-z
-x,-y,-z
x,-y,z
1/2+x,1/2+y,z
1/2-x,1/2+y,-z
1/2-x,1/2-y,-z
1/2+x,1/2-y,z
loop_
_atom_site_type_symbol
_atom_site_label
_atom_site_fract_x
_atom_site_fract_y
_atom_site_fract_z
Si Si1 0.376912 0.831307 0.223668
Si Si2 0.613088 0.179932 0.572377
Si Si3 0.108361 0.415842 0.292069
Si Si4 0.713402 0.585746 0.193127
Si Si5 0.895822 0.584074 0.921420
Si Si6 0.040517 0.809840 0.377257
Si Si7 0.738943 0.802200 0.310755
O O1 0.354126 0.839413 0.346644
O O2 0.292606 0.881737 0.221112
O O3 0.503597 0.859955 0.121422
O O4 0.350662 0.746376 0.221309
O O5 0.512050 0.124510 0.608736
O O6 0.555367 0.259924 0.605591
O O7 0.713250 0.180667 0.432947
O O8 0.101736 0.500000 0.322244
O O9 0.124401 0.410386 0.172800
O O10 0.211961 0.374472 0.272528
O O11 0.696203 0.500000 0.215899
O O12 0.596988 0.630765 0.275892
O O13 0.784322 0.598208 0.054280
O O14 0.932478 0.500000 0.916503
O O15 0.138505 0.752703 0.343512
O O16 0.000000 0.842752 0.500000
#
# Coordination Sequence:
#
# PCOD9171997 Si02
#       7
#     8   8   8   8   8   8   8
#     4  10  18  29  45  67  94 124 153 183 226 277
#     4   9  17  30  47  67  94 124 151 186 231 275
#     4   9  17  30  48  69  92 120 157 197 234 272
#     4  10  19  31  48  69  94 123 152 187 231 273
#     4   9  18  32  48  67  93 122 152 191 235 272
#     4   8  16  31  48  67  92 122 155 187 223 270
#     4   9  17  29  46  68  94 124 153 187 232 272
#
# _framework density 17.648067999999999
#
# number of rings (size 3 to 8) (size 9 to 14) (size 15 to 20)
#    0.000    2.857    0.000    2.571    0.000    3.143 
#    0.000   12.857    0.000    0.857    0.000    0.000 
#    0.000   24.000    0.000    0.000    0.000    0.000 
#
# Total GULP energy -156010.027151 kJ/mol
# GULP energy per Si atom -5571.786684 kJ/mol
# Density = 1.760790 g / cm^3
# Si number density = 17.648068 Si / 1000 Ang^3
#
#
#
# Elastic Constant Matrix: (Units=GPa)
#
#
# Indices 1 2 3 4 5 6 
#
# 1 25.3325 21.2688 12.7115 0.0000 -1.0786 0.0000
# 2 21.2688 109.4503 53.4767 0.0000 -11.7869 0.0000
# 3 12.7115 53.4767 78.2032 0.0000 -5.0459 0.0000
# 4 0.0000 0.0000 0.0000 27.9238 0.0000 -0.9163
# 5 -1.0786 -11.7869 -5.0459 0.0000 11.8530 0.0000
# 6 0.0000 0.0000 0.0000 -0.9163 0.0000 22.3036
#
#
#
# Elastic Compliance Matrix: (Units=1/GPa)
#
#
# Indices 1 2 3 4 5 6 
#
# 1 0.047700 -0.008840 -0.002052 0.000000 -0.005324 0.000000
# 2 -0.008840 0.016596 -0.009150 0.000000 0.011804 0.000000
# 3 -0.002052 -0.009150 0.019309 0.000000 -0.001066 0.000000
# 4 0.000000 0.000000 0.000000 0.035860 0.000000 0.001473
# 5 -0.005324 0.011804 -0.001066 0.000000 0.095167 0.000000
# 6 0.000000 0.000000 0.000000 0.001473 0.000000 0.044896
#
#
# Mechanical properties :
#
#
# Convention : Reuss Voigt Hill
#
# Bulk Modulus (GPa) = 22.97749 43.10000 33.03874
# Shear Modulus (GPa) = 15.91748 20.78469 18.35109
#
# Velocity S-wave (km/s) = 3.00649 3.43553 3.22815
# Velocity P-wave (km/s) = 5.01000 6.34130 5.71455
#
# Compressibility (1/GPa) = 0.04352086
#
# Stress axis : x y z
#
# Youngs Moduli (GPa) = 20.96440 60.25398 51.78902
#
# Poissons Ratio (x) = 0.53265 0.10626
# Poissons Ratio (y) = 0.18533 0.47389
# Poissons Ratio (z) = 0.04302 0.55135
#
# Static dielectric constant tensor:
#      x y z
#    x 1.627710 0.000000 -0.000510 
#    y 0.000000 1.605140 0.000000 
#    z -0.000510 0.000000 1.610310 
# 
# From -- ./inp_files/177058.got.cif
#   From: 2010.05.17/outbox.cif.g08.bks.cpg/sg12_89_cif.got.tgz:177058.got - 2010.06.03 13:09:07.
