data_PCOD9171511
_publ_section_title
;
Structure prediction by ZEFSAII (Michael W. Deem and Ramdas Pophale) SiO2 
 PCOD9171511
Probable space group: C 2/M
;
_chemical_formula_sum "Si O2"
_cell_formula_units_Z 60
_cell_length_a 24.171824
_cell_length_b 8.557902
_cell_length_c 14.367679
_cell_angle_alpha 90.000000
_cell_angle_beta 120.967647
_cell_angle_gamma 90.000000
_cell_volume 2548.450484
_symmetry_space_group_name_H-M "C 2/M"
_symmetry_group_IT_number 12
_symmetry_cell_setting 'monoclinic'
loop_
_space_group_symop_operation_xyz
x,y,z
-x,y,-z
-x,-y,-z
x,-y,z
1/2+x,1/2+y,z
1/2-x,1/2+y,-z
1/2-x,1/2-y,-z
1/2+x,1/2-y,z
loop_
_atom_site_type_symbol
_atom_site_label
_atom_site_fract_x
_atom_site_fract_y
_atom_site_fract_z
Si Si1 0.086057 0.329941 0.739093
Si Si2 0.896634 0.188135 0.732576
Si Si3 0.530513 0.816144 0.893372
Si Si4 0.292069 0.320424 0.140886
Si Si5 0.112080 0.691275 0.486260
Si Si6 0.754976 0.812607 0.610072
Si Si7 0.334715 0.684281 0.965532
Si Si8 0.500000 0.756938 0.500000
O O1 0.117676 0.500000 0.781716
O O2 0.048921 0.285902 0.800892
O O3 0.139405 0.207930 0.753411
O O4 0.035296 0.343148 0.614010
O O5 0.896393 0.270646 0.630758
O O6 0.825485 0.233262 0.710915
O O7 0.960721 0.237328 0.844878
O O8 0.898589 0.000000 0.723780
O O9 0.596839 0.760276 0.999981
O O10 0.523130 0.000000 0.902018
O O11 0.273177 0.500000 0.118785
O O12 0.314403 0.269439 0.054807
O O13 0.233468 0.230229 0.138578
O O14 0.102499 0.500000 0.490725
O O15 0.184071 0.729365 0.585103
O O16 0.061343 0.802362 0.495601
O O17 0.750000 0.750000 0.500000
O O18 0.755992 0.000000 0.608418
O O19 0.343970 0.500000 0.969192
#
# Coordination Sequence:
#
# PCOD9171511 Si02
#       8
#     8   8   8   8   8   8   8   4
#     4  10  19  30  43  60  85 119 157 193 227 265
#     4  10  18  29  43  63  90 118 150 191 235 277
#     4  10  18  28  44  66  91 119 151 187 230 276
#     4   9  17  29  43  60  84 116 152 186 224 271
#     4  10  18  31  47  63  84 117 158 196 233 272
#     4   8  16  28  44  62  82 111 149 191 234 276
#     4   9  16  27  44  65  88 114 145 184 229 276
#     4  12  21  32  49  68  91 124 165 202 229 264
#
# _framework density 23.543718999999999
#
# number of rings (size 3 to 8) (size 9 to 14) (size 15 to 20)
#    0.000    2.400    1.333    2.800    0.000    4.267 
#    0.000    1.333    0.000    0.000    0.000    0.000 
#    0.000    1.067    0.000   10.133    0.000    2.667 
#
# Total GULP energy -167013.481947 kJ/mol
# GULP energy per Si atom -5567.116065 kJ/mol
# Density = 2.349013 g / cm^3
# Si number density = 23.543719 Si / 1000 Ang^3
#
#
#
# Elastic Constant Matrix: (Units=GPa)
#
#
# Indices 1 2 3 4 5 6 
#
# 1 150.2164 42.4849 42.5145 0.0000 38.7108 0.0000
# 2 42.4849 42.0927 20.9695 0.0000 27.5839 0.0000
# 3 42.5145 20.9695 50.9463 0.0000 38.5836 0.0000
# 4 0.0000 0.0000 0.0000 -24.1736 0.0000 19.0679
# 5 38.7108 27.5839 38.5836 0.0000 62.1279 0.0000
# 6 0.0000 0.0000 0.0000 19.0679 0.0000 10.4341
#
#
#
# Elastic Compliance Matrix: (Units=1/GPa)
#
#
# Indices 1 2 3 4 5 6 
#
# 1 0.010427 -0.008067 -0.005990 0.000000 0.000805 0.000000
# 2 -0.008067 0.040372 -0.000221 0.000000 -0.012761 0.000000
# 3 -0.005990 -0.000221 0.041191 0.000000 -0.021750 0.000000
# 4 0.000000 0.000000 0.000000 -0.016944 0.000000 0.030964
# 5 0.000805 -0.012761 -0.021750 0.000000 0.034767 0.000000
# 6 0.000000 0.000000 0.000000 0.030964 0.000000 0.039255
#
#
# Mechanical properties :
#
#
# Convention : Reuss Voigt Hill
#
# Bulk Modulus (GPa) = 15.76480 50.57703 33.17091
# Shear Modulus (GPa) = 25.15495 18.83011 21.99253
#
# Velocity S-wave (km/s) = 3.27224 2.83113 3.05964
# Velocity P-wave (km/s) = 4.58118 5.67590 5.15767
#
# Compressibility (1/GPa) = 0.06343247
#
# Stress axis : x y z
#
# Youngs Moduli (GPa) = 95.90925 24.76978 24.27738
#
# Poissons Ratio (x) = 0.19982 0.14543
# Poissons Ratio (y) = 0.77372 0.00536
# Poissons Ratio (z) = 0.57453 0.00547
#
# Static dielectric constant tensor:
#      x y z
#    x 1.962590 0.000000 0.030610 
#    y 0.000000 1.832630 0.000000 
#    z 0.030610 0.000000 2.025120 
# 
# From -- ./inp_files/292222.got.cif
#   From: 2010.05.17/outbox.cif.g08.bks.cpg/sg12_147_cif.got.tgz:292222.got - 2010.06.03 13:09:07.
