data_PCOD9171706
_publ_section_title
;
Structure prediction by ZEFSAII (Michael W. Deem and Ramdas Pophale) SiO2 
 PCOD9171706
Probable space group: C 2/M
;
_chemical_formula_sum "Si O2"
_cell_formula_units_Z 64
_cell_length_a 18.189044
_cell_length_b 18.866275
_cell_length_c 23.204067
_cell_angle_alpha 90.000000
_cell_angle_beta 30.176354
_cell_angle_gamma 90.000000
_cell_volume 4002.554474
_symmetry_space_group_name_H-M "C 2/M"
_symmetry_group_IT_number 12
_symmetry_cell_setting 'monoclinic'
loop_
_space_group_symop_operation_xyz
x,y,z
-x,y,-z
-x,-y,-z
x,-y,z
1/2+x,1/2+y,z
1/2-x,1/2+y,-z
1/2-x,1/2-y,-z
1/2+x,1/2-y,z
loop_
_atom_site_type_symbol
_atom_site_label
_atom_site_fract_x
_atom_site_fract_y
_atom_site_fract_z
Si Si1 0.557460 0.077282 0.065962
Si Si2 0.894101 0.080582 0.847606
Si Si3 0.911280 0.420101 0.286339
Si Si4 0.918713 0.712187 0.107609
Si Si5 0.389160 0.670969 0.734630
Si Si6 0.435718 0.584355 0.478819
Si Si7 0.371487 0.795716 0.835987
Si Si8 0.054268 0.198084 0.104109
O O1 0.447943 0.079143 0.193504
O O2 0.522536 0.145428 0.052365
O O3 0.546520 0.000000 0.044062
O O4 0.721028 0.082937 0.979811
O O5 0.896957 0.115903 0.782661
O O6 0.973327 0.125560 0.843178
O O7 0.943188 0.000000 0.811888
O O8 0.937411 0.500000 0.290681
O O9 0.739121 0.404670 0.406772
O O10 0.024203 0.364107 0.236688
O O11 0.765315 0.680568 0.192767
O O12 0.923750 0.766701 0.156733
O O13 0.000000 0.749773 0.000000
O O14 0.493805 0.638288 0.614911
O O15 0.405087 0.745822 0.758114
O O16 0.500000 0.596289 0.500000
O O17 0.465029 0.500000 0.445956
O O18 0.412253 0.752580 0.866527
O O19 0.198019 0.808575 0.965392
#
# Coordination Sequence:
#
# PCOD9171706 Si02
#       8
#     8   8   8   8   8   8   8   8
#     4  10  18  28  46  74 101 128 166 206 251 311
#     4  10  19  32  52  77 103 135 175 219 260 307
#     4  10  19  33  54  72  96 138 176 207 252 309
#     4  12  19  30  46  74 106 141 168 201 259 317
#     4  11  22  33  52  77 106 137 173 220 262 305
#     4  10  22  38  52  72 107 143 168 202 259 318
#     4  10  18  32  51  75 103 132 173 220 253 307
#     4  10  18  31  49  74 108 140 169 207 267 315
#
# _framework density 15.989789
#
# number of rings (size 3 to 8) (size 9 to 14) (size 15 to 20)
#    0.000    1.625    5.000    1.875    0.000    2.750 
#    0.000    0.000    0.000    1.125    0.000    0.000 
#    0.000    0.500    0.000    0.250    0.000    0.125 
#
# Total GULP energy -178146.327180 kJ/mol
# GULP energy per Si atom -5567.072724 kJ/mol
# Density = 1.595340 g / cm^3
# Si number density = 15.989789 Si / 1000 Ang^3
#
#
#
# Elastic Constant Matrix: (Units=GPa)
#
#
# Indices 1 2 3 4 5 6 
#
# 1 57.1010 42.0435 9.2775 -0.0004 11.0787 -0.0004
# 2 42.0435 102.4955 21.2761 -0.0007 -0.8157 0.0001
# 3 9.2775 21.2761 66.7270 0.0010 11.4288 -0.0002
# 4 -0.0004 -0.0007 0.0010 15.7670 -0.0013 -0.6744
# 5 11.0787 -0.8157 11.4288 -0.0013 15.7720 -0.0001
# 6 -0.0004 0.0001 -0.0002 -0.6744 -0.0001 19.0183
#
#
#
# Elastic Compliance Matrix: (Units=1/GPa)
#
#
# Indices 1 2 3 4 5 6 
#
# 1 0.032843 -0.014684 0.004792 -0.000002 -0.027302 0.000001
# 2 -0.014684 0.017173 -0.006111 0.000002 0.015631 0.000000
# 3 0.004792 -0.006111 0.019294 -0.000003 -0.017663 0.000000
# 4 -0.000002 0.000002 -0.000003 0.063520 0.000009 0.002252
# 5 -0.027302 0.015631 -0.017663 0.000009 0.096188 0.000000
# 6 0.000001 0.000000 0.000000 0.002252 0.000000 0.052661
#
#
# Mechanical properties :
#
#
# Convention : Reuss Voigt Hill
#
# Bulk Modulus (GPa) = 26.80753 41.27974 34.04364
# Shear Modulus (GPa) = 15.33175 20.35989 17.84582
#
# Velocity S-wave (km/s) = 3.09988 3.57221 3.34440
# Velocity P-wave (km/s) = 5.44189 6.54879 6.02083
#
# Compressibility (1/GPa) = 0.03730295
#
# Stress axis : x y z
#
# Youngs Moduli (GPa) = 30.44763 58.23123 51.82958
#
# Poissons Ratio (x) = 0.85508 -0.24836
# Poissons Ratio (y) = 0.44710 0.31674
# Poissons Ratio (z) = -0.14590 0.35586
#
# Static dielectric constant tensor:
#      x y z
#    x 1.546500 0.000000 0.009990 
#    y 0.000000 1.571220 0.000000 
#    z 0.009990 0.000000 1.536310 
# 
# From -- ./inp_files/344362.got.cif
#   From: 2010.05.17/outbox.cif.g08.bks.cpg/sg12_173_cif.got.tgz:344362.got - 2010.06.03 13:09:07.
