data_PCOD9171064
_publ_section_title
;
Structure prediction by ZEFSAII (Michael W. Deem and Ramdas Pophale) SiO2 
 PCOD9171064
Probable space group: C 2/M
;
_chemical_formula_sum "Si O2"
_cell_formula_units_Z 64
_cell_length_a 25.274998
_cell_length_b 8.662697
_cell_length_c 16.942041
_cell_angle_alpha 90.000000
_cell_angle_beta 87.839810
_cell_angle_gamma 90.000000
_cell_volume 3706.817804
_symmetry_space_group_name_H-M "C 2/M"
_symmetry_group_IT_number 12
_symmetry_cell_setting 'monoclinic'
loop_
_space_group_symop_operation_xyz
x,y,z
-x,y,-z
-x,-y,-z
x,-y,z
1/2+x,1/2+y,z
1/2-x,1/2+y,-z
1/2-x,1/2-y,-z
1/2+x,1/2-y,z
loop_
_atom_site_type_symbol
_atom_site_label
_atom_site_fract_x
_atom_site_fract_y
_atom_site_fract_z
Si Si1 0.609936 0.815074 0.196533
Si Si2 0.185956 0.313824 0.338815
Si Si3 0.595292 0.315156 0.447697
Si Si4 0.174043 0.184230 0.057500
Si Si5 0.197011 0.188230 0.712426
Si Si6 0.590956 0.313374 0.630298
Si Si7 0.214066 0.186470 0.889636
Si Si8 0.480635 0.184992 0.682319
O O1 0.655425 0.776428 0.258689
O O2 0.625563 0.742873 0.112571
O O3 0.555047 0.766248 0.240565
O O4 0.609781 0.000000 0.188606
O O5 0.183549 0.500000 0.347835
O O6 0.151848 0.237007 0.409670
O O7 0.246863 0.264811 0.328587
O O8 0.590867 0.500000 0.443975
O O9 0.588939 0.266055 0.538612
O O10 0.551043 0.242917 0.393160
O O11 0.227753 0.250739 0.093176
O O12 0.176026 0.000000 0.060827
O O13 0.176598 0.231198 0.965216
O O14 0.145500 0.239092 0.667627
O O15 0.196264 0.237719 0.804011
O O16 0.197121 0.000000 0.712042
O O17 0.589801 0.500000 0.632308
O O18 0.539344 0.250784 0.677005
O O19 0.217537 0.000000 0.888073
O O20 0.481544 0.000000 0.680797
#
# Coordination Sequence:
#
# PCOD9171064 Si02
#       8
#     8   8   8   8   8   8   8   8
#     4   9  17  31  50  71  97 129 161 197 244 292
#     4   9  17  31  51  72  96 134 171 194 234 296
#     4  10  20  33  50  75 103 124 155 210 259 287
#     4  10  18  26  46  78 103 124 158 201 242 280
#     4   9  17  33  53  69  97 138 170 193 233 298
#     4  10  21  35  52  73  96 129 167 205 249 289
#     4   9  17  31  48  69 101 136 162 190 232 289
#     4  10  21  36  54  73  94 127 168 206 246 294
#
# _framework density 17.265484000000001
#
# number of rings (size 3 to 8) (size 9 to 14) (size 15 to 20)
#    0.000    2.500    1.250    2.250    0.000    6.000 
#    0.000    1.250    0.000    0.750    0.000    5.250 
#    0.000    0.000    0.000    0.000    0.000    0.000 
#
# Total GULP energy -178449.780900 kJ/mol
# GULP energy per Si atom -5576.555653 kJ/mol
# Density = 1.722619 g / cm^3
# Si number density = 17.265484 Si / 1000 Ang^3
#
#
#
# Elastic Constant Matrix: (Units=GPa)
#
#
# Indices 1 2 3 4 5 6 
#
# 1 105.2215 8.0478 20.5922 0.0000 -19.8995 0.0000
# 2 8.0478 6.2751 5.5468 0.0000 -6.4697 0.0000
# 3 20.5922 5.5468 34.5206 0.0000 -22.8122 0.0000
# 4 0.0000 0.0000 0.0000 19.8009 0.0000 -8.6681
# 5 -19.8995 -6.4697 -22.8122 0.0000 23.6493 0.0000
# 6 0.0000 0.0000 0.0000 -8.6681 0.0000 26.3684
#
#
#
# Elastic Compliance Matrix: (Units=1/GPa)
#
#
# Indices 1 2 3 4 5 6 
#
# 1 0.011532 -0.006923 -0.001671 0.000000 0.006198 0.000000
# 2 -0.006923 0.228030 0.013413 0.000000 0.069495 0.000000
# 3 -0.001671 0.013413 0.080828 0.000000 0.080230 0.000000
# 4 0.000000 0.000000 0.000000 0.058992 0.000000 0.019392
# 5 0.006198 0.069495 0.080230 0.000000 0.143901 0.000000
# 6 0.000000 0.000000 0.000000 0.019392 0.000000 0.044299
#
#
# Mechanical properties :
#
#
# Convention : Reuss Voigt Hill
#
# Bulk Modulus (GPa) = 3.03004 23.82123 13.42563
# Shear Modulus (GPa) = 7.48555 21.41909 14.45232
#
# Velocity S-wave (km/s) = 2.08446 3.52600 2.89634
# Velocity P-wave (km/s) = 2.74810 5.51397 4.35637
#
# Compressibility (1/GPa) = 0.33002887
#
# Stress axis : x y z
#
# Youngs Moduli (GPa) = 86.71162 4.38538 12.37198
#
# Poissons Ratio (x) = 0.03036 0.02067
# Poissons Ratio (y) = 0.60031 -0.16595
# Poissons Ratio (z) = 0.14490 -0.05882
#
# Static dielectric constant tensor:
#      x y z
#    x 1.574510 0.000000 -0.021010 
#    y 0.000000 1.584660 0.000000 
#    z -0.021010 0.000000 1.593680 
# 
# From -- ./inp_files/281301.got.cif
#   From: 2010.05.17/outbox.cif.g08.bks.cpg/sg12_141_cif.got.tgz:281301.got - 2010.06.03 13:09:07.
