data_PCOD9171481
_publ_section_title
;
Structure prediction by ZEFSAII (Michael W. Deem and Ramdas Pophale) SiO2 
 PCOD9171481
Probable space group: C 2/M
;
_chemical_formula_sum "Si O2"
_cell_formula_units_Z 56
_cell_length_a 20.250317
_cell_length_b 7.698005
_cell_length_c 18.770794
_cell_angle_alpha 90.000000
_cell_angle_beta 80.289753
_cell_angle_gamma 90.000000
_cell_volume 2884.201908
_symmetry_space_group_name_H-M "C 2/M"
_symmetry_group_IT_number 12
_symmetry_cell_setting 'monoclinic'
loop_
_space_group_symop_operation_xyz
x,y,z
-x,y,-z
-x,-y,-z
x,-y,z
1/2+x,1/2+y,z
1/2-x,1/2+y,-z
1/2-x,1/2-y,-z
1/2+x,1/2-y,z
loop_
_atom_site_type_symbol
_atom_site_label
_atom_site_fract_x
_atom_site_fract_y
_atom_site_fract_z
Si Si1 0.538608 0.288388 0.598932
Si Si2 0.764711 0.207047 0.916022
Si Si3 0.957288 0.213769 0.238675
Si Si4 0.186472 0.705016 0.302792
Si Si5 0.681324 0.705468 0.796490
Si Si6 0.103792 0.797983 0.184037
Si Si7 0.102311 0.790721 0.445795
O O1 0.538599 0.500000 0.599127
O O2 0.550010 0.232552 0.677454
O O3 0.592129 0.232927 0.529187
O O4 0.465353 0.234745 0.583604
O O5 0.708000 0.269866 0.871546
O O6 0.836534 0.278219 0.875155
O O7 0.766937 0.000000 0.907791
O O8 0.750000 0.250000 0.000000
O O9 0.892361 0.273876 0.207096
O O10 0.029105 0.276275 0.196541
O O11 0.959870 0.000000 0.237569
O O12 0.184749 0.500000 0.287856
O O13 0.259213 0.773534 0.265661
O O14 0.131963 0.788769 0.259666
O O15 0.165063 0.732078 0.387849
O O16 0.677307 0.500000 0.783340
O O17 0.097649 0.000000 0.164917
O O18 0.102760 0.000000 0.445671
#
# Coordination Sequence:
#
# PCOD9171481 Si02
#       7
#     8   8   8   8   8   8   8
#     4   8  14  24  45  71  91 118 164 215 247 269
#     4  10  20  35  56  79 101 125 155 192 233 282
#     4   9  15  29  52  74  94 121 164 210 240 272
#     4  10  18  28  43  68  99 129 159 196 245 294
#     4   9  19  33  51  73  99 129 158 193 241 290
#     4   9  17  31  54  76  91 120 167 205 229 267
#     4   9  15  26  45  68  91 122 169 213 242 275
#
# _framework density 19.416115999999999
#
# number of rings (size 3 to 8) (size 9 to 14) (size 15 to 20)
#    0.000    2.857    1.429    1.714    0.000    1.143 
#    0.000    3.571    0.000    4.286    0.000    0.000 
#    0.000    0.000    0.000    0.000    0.000    0.000 
#
# Total GULP energy -156056.417354 kJ/mol
# GULP energy per Si atom -5573.443477 kJ/mol
# Density = 1.937192 g / cm^3
# Si number density = 19.416116 Si / 1000 Ang^3
#
#
#
# Elastic Constant Matrix: (Units=GPa)
#
#
# Indices 1 2 3 4 5 6 
#
# 1 158.1369 4.6487 72.0427 0.0000 -3.1443 0.0000
# 2 4.6487 26.4796 -10.0609 0.0000 -1.1573 0.0000
# 3 72.0427 -10.0609 126.5391 0.0000 -14.0753 0.0000
# 4 0.0000 0.0000 0.0000 15.7747 0.0000 -0.2344
# 5 -3.1443 -1.1573 -14.0753 0.0000 18.3108 0.0000
# 6 0.0000 0.0000 0.0000 -0.2344 0.0000 10.7758
#
#
#
# Elastic Compliance Matrix: (Units=1/GPa)
#
#
# Indices 1 2 3 4 5 6 
#
# 1 0.009017 -0.003923 -0.005797 0.000000 -0.003155 0.000000
# 2 -0.003923 0.041123 0.006252 0.000000 0.006731 0.000000
# 3 -0.005797 0.006252 0.012721 0.000000 0.009178 0.000000
# 4 0.000000 0.000000 0.000000 0.063413 0.000000 0.001379
# 5 -0.003155 0.006731 0.009178 0.000000 0.061551 0.000000
# 6 0.000000 0.000000 0.000000 0.001379 0.000000 0.092830
#
#
# Mechanical properties :
#
#
# Convention : Reuss Voigt Hill
#
# Bulk Modulus (GPa) = 17.88090 49.37963 33.63027
# Shear Modulus (GPa) = 16.32741 25.27393 20.80067
#
# Velocity S-wave (km/s) = 2.90301 3.61182 3.27664
# Velocity P-wave (km/s) = 4.52393 6.54837 5.62792
#
# Compressibility (1/GPa) = 0.05592559
#
# Stress axis : x y z
#
# Youngs Moduli (GPa) = 110.90192 24.31706 78.61104
#
# Poissons Ratio (x) = 0.09540 0.45567
# Poissons Ratio (y) = 0.43510 -0.49148
# Poissons Ratio (z) = 0.64285 -0.15203
#
# Static dielectric constant tensor:
#      x y z
#    x 1.774760 0.000000 0.148050 
#    y 0.000000 1.734610 0.000000 
#    z 0.148050 0.000000 2.098130 
# 
# From -- ./inp_files/280171.got.cif
#   From: 2010.05.17/outbox.cif.g08.bks.cpg/sg12_141_cif.got.tgz:280171.got - 2010.06.03 13:09:07.
