data_PCOD9171901
_publ_section_title
;
Structure prediction by ZEFSAII (Michael W. Deem and Ramdas Pophale) SiO2 
 PCOD9171901
Probable space group: C 2/M
;
_chemical_formula_sum "Si O2"
_cell_formula_units_Z 64
_cell_length_a 30.043115
_cell_length_b 7.467652
_cell_length_c 17.399288
_cell_angle_alpha 90.000000
_cell_angle_beta 65.338850
_cell_angle_gamma 90.000000
_cell_volume 3547.518531
_symmetry_space_group_name_H-M "C 2/M"
_symmetry_group_IT_number 12
_symmetry_cell_setting 'monoclinic'
loop_
_space_group_symop_operation_xyz
x,y,z
-x,y,-z
-x,-y,-z
x,-y,z
1/2+x,1/2+y,z
1/2-x,1/2+y,-z
1/2-x,1/2-y,-z
1/2+x,1/2-y,z
loop_
_atom_site_type_symbol
_atom_site_label
_atom_site_fract_x
_atom_site_fract_y
_atom_site_fract_z
Si Si1 0.778880 0.287135 0.595788
Si Si2 0.729137 0.219169 0.230138
Si Si3 0.387132 0.783399 0.960352
Si Si4 0.675438 0.783287 0.594539
Si Si5 0.200219 0.285262 0.083960
Si Si6 0.495924 0.780775 0.913150
Si Si7 0.158553 0.791666 0.842348
Si Si8 0.089869 0.701961 0.756273
O O1 0.786789 0.500000 0.591385
O O2 0.790722 0.220109 0.672680
O O3 0.721506 0.259717 0.616632
O O4 0.809313 0.216516 0.501020
O O5 0.705255 0.280876 0.167819
O O6 0.786107 0.272665 0.188170
O O7 0.727860 0.000000 0.230367
O O8 0.347755 0.718244 0.926278
O O9 0.443647 0.727254 0.915787
O O10 0.386881 0.000000 0.958368
O O11 0.367575 0.726624 0.057436
O O12 0.623901 0.715979 0.665174
O O13 0.672697 0.000000 0.594637
O O14 0.196073 0.500000 0.090864
O O15 0.250000 0.250000 0.000000
O O16 0.540896 0.716285 0.828048
O O17 0.498359 0.000000 0.912905
O O18 0.500000 0.725006 0.000000
O O19 0.127250 0.693749 0.800909
O O20 0.160211 0.000000 0.818335
O O21 0.076875 0.500000 0.740764
#
# Coordination Sequence:
#
# PCOD9171901 Si02
#       8
#     8   8   8   8   8   8   8   8
#     4   9  16  28  42  58  84 112 133 161 206 253
#     4   9  17  28  41  59  84 113 136 160 203 251
#     4  10  19  31  45  60  80 112 147 177 204 238
#     4   9  17  26  41  63  82 105 138 171 201 238
#     4  10  19  30  44  62  82 107 142 173 203 245
#     4   9  16  27  43  60  81 110 141 173 209 242
#     4  11  19  27  42  62  87 114 140 169 207 247
#     4  10  18  29  43  61  85 111 144 176 202 241
#
# _framework density 18.040780999999999
#
# number of rings (size 3 to 8) (size 9 to 14) (size 15 to 20)
#    0.000    2.375    3.750    0.375    0.000    0.000 
#    0.000    1.875    0.000    0.000    0.000    0.875 
#    0.000    7.000    0.000    0.000    0.000   15.375 
#
# Total GULP energy -178451.799365 kJ/mol
# GULP energy per Si atom -5576.618730 kJ/mol
# Density = 1.799972 g / cm^3
# Si number density = 18.040781 Si / 1000 Ang^3
#
#
#
# Elastic Constant Matrix: (Units=GPa)
#
#
# Indices 1 2 3 4 5 6 
#
# 1 108.5357 4.6849 63.2348 0.0000 -9.7495 0.0000
# 2 4.6849 54.9400 0.8955 0.0000 0.1654 0.0001
# 3 63.2348 0.8955 151.8812 0.0000 -11.3185 0.0000
# 4 0.0000 0.0000 0.0000 3.0228 0.0000 -0.8840
# 5 -9.7495 0.1654 -11.3185 0.0000 30.0834 0.0000
# 6 0.0000 0.0001 0.0000 -0.8840 0.0000 5.3454
#
#
#
# Elastic Compliance Matrix: (Units=1/GPa)
#
#
# Indices 1 2 3 4 5 6 
#
# 1 0.012346 -0.000978 -0.004975 0.000000 0.002135 0.000000
# 2 -0.000978 0.018282 0.000276 0.000000 -0.000314 0.000000
# 3 -0.004975 0.000276 0.008780 0.000000 0.001689 0.000000
# 4 0.000000 0.000000 0.000000 0.347627 0.000000 0.057491
# 5 0.002135 -0.000314 0.001689 0.000000 0.034570 0.000000
# 6 0.000000 0.000000 0.000000 0.057491 0.000000 0.196585
#
#
# Mechanical properties :
#
#
# Convention : Reuss Voigt Hill
#
# Bulk Modulus (GPa) = 35.64727 50.33194 42.98960
# Shear Modulus (GPa) = 7.82600 24.12644 15.97622
#
# Velocity S-wave (km/s) = 2.08503 3.66092 2.97907
# Velocity P-wave (km/s) = 5.05951 6.76973 5.97612
#
# Compressibility (1/GPa) = 0.02805264
#
# Stress axis : x y z
#
# Youngs Moduli (GPa) = 80.99575 54.70007 113.89698
#
# Poissons Ratio (x) = 0.05350 0.56669
# Poissons Ratio (y) = 0.07923 -0.03145
# Poissons Ratio (z) = 0.40299 -0.01510
#
# Static dielectric constant tensor:
#      x y z
#    x 1.600390 0.000000 -0.008730 
#    y 0.000000 1.680990 0.000000 
#    z -0.008730 0.000000 1.648630 
# 
# From -- ./inp_files/294562.got.cif
#   From: 2010.05.17/outbox.cif.g08.bks.cpg/sg12_148_cif.got.tgz:294562.got - 2010.06.03 13:09:07.
