data_PCOD9171179
_publ_section_title
;
Structure prediction by ZEFSAII (Michael W. Deem and Ramdas Pophale) SiO2 
 PCOD9171179
Probable space group: C 2/M
;
_chemical_formula_sum "Si O2"
_cell_formula_units_Z 56
_cell_length_a 28.089391
_cell_length_b 8.545731
_cell_length_c 16.717018
_cell_angle_alpha 90.000000
_cell_angle_beta 65.565474
_cell_angle_gamma 90.000000
_cell_volume 3653.415674
_symmetry_space_group_name_H-M "C 2/M"
_symmetry_group_IT_number 12
_symmetry_cell_setting 'monoclinic'
loop_
_space_group_symop_operation_xyz
x,y,z
-x,y,-z
-x,-y,-z
x,-y,z
1/2+x,1/2+y,z
1/2-x,1/2+y,-z
1/2-x,1/2-y,-z
1/2+x,1/2-y,z
loop_
_atom_site_type_symbol
_atom_site_label
_atom_site_fract_x
_atom_site_fract_y
_atom_site_fract_z
Si Si1 0.239263 0.687648 0.310166
Si Si2 0.348510 0.810577 0.305925
Si Si3 0.669045 0.688952 0.032610
Si Si4 0.554734 0.187640 0.870093
Si Si5 0.942228 0.187507 0.952425
Si Si6 0.804548 0.311385 0.497805
Si Si7 0.237420 0.812801 0.135336
O O1 0.240419 0.500000 0.306901
O O2 0.296481 0.746412 0.298853
O O3 0.197800 0.738622 0.407919
O O4 0.227448 0.750968 0.230730
O O5 0.400365 0.761889 0.222781
O O6 0.346278 0.762492 0.401276
O O7 0.345884 0.000000 0.304558
O O8 0.670713 0.500000 0.027986
O O9 0.609505 0.737933 0.059282
O O10 0.694417 0.738383 0.099404
O O11 0.707114 0.752793 0.937087
O O12 0.496504 0.238342 0.885634
O O13 0.556333 0.000000 0.877106
O O14 0.564458 0.261985 0.950463
O O15 0.946668 0.000000 0.945887
O O16 0.804165 0.500000 0.498458
O O17 0.750000 0.250000 0.500000
O O18 0.238462 0.000000 0.136133
#
# Coordination Sequence:
#
# PCOD9171179 Si02
#       7
#     8   8   8   8   8   8   8
#     4  10  18  27  42  64  89 115 142 172 205 248
#     4   9  17  29  44  62  86 115 143 173 209 247
#     4   9  19  33  46  62  84 111 143 176 209 246
#     4  10  19  29  43  64  86 109 140 172 205 247
#     4  10  19  31  45  60  83 112 140 172 207 244
#     4   8  15  27  41  59  84 112 140 170 206 246
#     4  10  19  30  45  64  86 112 141 173 209 249
#
# _framework density 15.328122
#
# number of rings (size 3 to 8) (size 9 to 14) (size 15 to 20)
#    0.000    2.571    0.000    3.429    0.000    5.714 
#    0.000    0.000    0.000    0.000    0.000    1.000 
#    0.000    8.000    0.000    0.000    0.000    0.000 
#
# Total GULP energy -155970.833465 kJ/mol
# GULP energy per Si atom -5570.386909 kJ/mol
# Density = 1.529323 g / cm^3
# Si number density = 15.328122 Si / 1000 Ang^3
#
#
#
# Elastic Constant Matrix: (Units=GPa)
#
#
# Indices 1 2 3 4 5 6 
#
# 1 66.2474 6.7314 34.9778 0.0000 -7.0227 0.0000
# 2 6.7314 10.0544 11.6304 0.0000 -1.2988 0.0000
# 3 34.9778 11.6304 124.8040 0.0000 -6.1039 0.0000
# 4 0.0000 0.0000 0.0000 17.3282 0.0000 2.3288
# 5 -7.0227 -1.2988 -6.1039 0.0000 22.8984 0.0000
# 6 0.0000 0.0000 0.0000 2.3288 0.0000 16.1724
#
#
#
# Elastic Compliance Matrix: (Units=1/GPa)
#
#
# Indices 1 2 3 4 5 6 
#
# 1 0.018526 -0.006833 -0.004353 0.000000 0.004134 0.000000
# 2 -0.006833 0.114289 -0.008633 0.000000 0.002086 0.000000
# 3 -0.004353 -0.008633 0.010079 0.000000 0.000862 0.000000
# 4 0.000000 0.000000 0.000000 0.058848 0.000000 -0.008474
# 5 0.004134 0.002086 0.000862 0.000000 0.045287 0.000000
# 6 0.000000 0.000000 0.000000 -0.008474 0.000000 0.063054
#
#
# Mechanical properties :
#
#
# Convention : Reuss Voigt Hill
#
# Bulk Modulus (GPa) = 9.68480 34.19835 21.94157
# Shear Modulus (GPa) = 13.01603 21.13089 17.07346
#
# Velocity S-wave (km/s) = 2.91720 3.71694 3.34108
# Velocity P-wave (km/s) = 4.20461 6.38593 5.40643
#
# Compressibility (1/GPa) = 0.10325462
#
# Stress axis : x y z
#
# Youngs Moduli (GPa) = 53.97860 8.74972 99.21349
#
# Poissons Ratio (x) = 0.05979 0.43189
# Poissons Ratio (y) = 0.36886 0.85655
# Poissons Ratio (z) = 0.23498 0.07554
#
# Static dielectric constant tensor:
#      x y z
#    x 1.492220 0.000000 -0.001000 
#    y 0.000000 1.521580 0.000000 
#    z -0.001000 0.000000 1.536040 
# 
# From -- ./inp_files/243024.got.cif
#   From: 2010.05.17/outbox.cif.g08.bks.cpg/sg12_122_cif.got.tgz:243024.got - 2010.06.03 13:09:07.
