data_PCOD9171694
_publ_section_title
;
Structure prediction by ZEFSAII (Michael W. Deem and Ramdas Pophale) SiO2 
 PCOD9171694
Probable space group: C 2/M
;
_chemical_formula_sum "Si O2"
_cell_formula_units_Z 56
_cell_length_a 24.771059
_cell_length_b 14.940502
_cell_length_c 11.987524
_cell_angle_alpha 90.000000
_cell_angle_beta 43.347205
_cell_angle_gamma 90.000000
_cell_volume 3045.283570
_symmetry_space_group_name_H-M "C 2/M"
_symmetry_group_IT_number 12
_symmetry_cell_setting 'monoclinic'
loop_
_space_group_symop_operation_xyz
x,y,z
-x,y,-z
-x,-y,-z
x,-y,z
1/2+x,1/2+y,z
1/2-x,1/2+y,-z
1/2-x,1/2-y,-z
1/2+x,1/2-y,z
loop_
_atom_site_type_symbol
_atom_site_label
_atom_site_fract_x
_atom_site_fract_y
_atom_site_fract_z
Si Si1 0.655934 0.897988 0.195866
Si Si2 0.724110 0.606234 0.173896
Si Si3 0.776518 0.306052 0.565752
Si Si4 0.901050 0.601001 0.257829
Si Si5 0.892208 0.241331 0.567126
Si Si6 0.529055 0.184093 0.231776
Si Si7 0.850211 0.719482 0.124926
O O1 0.637897 0.827486 0.318886
O O2 0.584708 0.884224 0.215059
O O3 0.657412 0.000000 0.233438
O O4 0.735994 0.878099 0.007255
O O5 0.719555 0.500000 0.198228
O O6 0.640983 0.655697 0.317543
O O7 0.786514 0.651235 0.165865
O O8 0.750000 0.250000 0.500000
O O9 0.820939 0.391872 0.451629
O O10 0.843287 0.247818 0.526333
O O11 0.700465 0.304856 0.758997
O O12 0.913888 0.500000 0.199750
O O13 0.890378 0.668211 0.169180
O O14 0.969555 0.632406 0.238934
O O15 0.981310 0.257198 0.394082
O O16 0.586195 0.239754 0.065161
#
# Coordination Sequence:
#
# PCOD9171694 Si02
#       7
#     8   8   8   8   8   8   8
#     4  10  20  33  49  71  99 129 160 195 238 288
#     4   9  18  33  52  71  92 123 165 207 240 277
#     4   8  17  32  47  65  91 122 157 194 230 274
#     4  10  18  28  46  72  98 124 156 195 240 287
#     4  10  19  31  49  71  96 127 160 195 240 289
#     4  10  20  30  45  70 100 130 157 190 236 289
#     4   9  17  31  48  68  95 127 160 195 238 286
#
# _framework density 18.389092000000002
#
# number of rings (size 3 to 8) (size 9 to 14) (size 15 to 20)
#    0.000    2.571    0.000    2.143    0.000    5.714 
#    0.000    0.000    0.000    2.571    0.000    2.000 
#    0.000   13.714    0.000    0.143    0.000    0.000 
#
# Total GULP energy -155920.715643 kJ/mol
# GULP energy per Si atom -5568.596987 kJ/mol
# Density = 1.834724 g / cm^3
# Si number density = 18.389092 Si / 1000 Ang^3
#
#
#
# Elastic Constant Matrix: (Units=GPa)
#
#
# Indices 1 2 3 4 5 6 
#
# 1 11.6686 0.1854 5.1168 0.0000 -0.2209 0.0000
# 2 0.1854 44.0350 54.4695 0.0000 -5.3621 0.0000
# 3 5.1168 54.4695 137.5476 0.0000 -5.2358 0.0000
# 4 0.0000 0.0000 0.0000 16.0608 0.0000 0.7082
# 5 -0.2209 -5.3621 -5.2358 0.0000 18.5723 0.0000
# 6 0.0000 0.0000 0.0000 0.7082 0.0000 12.6204
#
#
#
# Elastic Compliance Matrix: (Units=1/GPa)
#
#
# Indices 1 2 3 4 5 6 
#
# 1 0.088320 0.007451 -0.006180 0.000000 0.001459 0.000000
# 2 0.007451 0.046340 -0.018312 0.000000 0.008305 0.000000
# 3 -0.006180 -0.018312 0.014706 0.000000 -0.001215 0.000000
# 4 0.000000 0.000000 0.000000 0.062418 0.000000 -0.003503
# 5 0.001459 0.008305 -0.001215 0.000000 0.055916 0.000000
# 6 0.000000 0.000000 0.000000 -0.003503 0.000000 0.079434
#
#
# Mechanical properties :
#
#
# Convention : Reuss Voigt Hill
#
# Bulk Modulus (GPa) = 8.67436 34.75494 21.71465
# Shear Modulus (GPa) = 11.91485 18.34933 15.13209
#
# Velocity S-wave (km/s) = 2.54821 3.16228 2.87171
# Velocity P-wave (km/s) = 3.65858 5.68104 4.77804
#
# Compressibility (1/GPa) = 0.11528224
#
# Stress axis : x y z
#
# Youngs Moduli (GPa) = 11.32249 21.57945 68.00165
#
# Poissons Ratio (x) = -0.16078 0.42028
# Poissons Ratio (y) = -0.08436 1.24525
# Poissons Ratio (z) = 0.06998 0.39516
#
# Static dielectric constant tensor:
#      x y z
#    x 1.659070 0.000000 0.000490 
#    y 0.000000 1.594460 0.000000 
#    z 0.000490 0.000000 1.720910 
# 
# From -- ./inp_files/155955.got.cif
#   From: 2010.05.17/outbox.cif.g08.bks.cpg/sg12_78_cif.got.tgz:155955.got - 2010.06.03 13:09:07.
