data_PCOD9171767
_publ_section_title
;
Structure prediction by ZEFSAII (Michael W. Deem and Ramdas Pophale) SiO2 
 PCOD9171767
Probable space group: C 2/M
;
_chemical_formula_sum "Si O2"
_cell_formula_units_Z 56
_cell_length_a 18.980554
_cell_length_b 17.647909
_cell_length_c 23.839236
_cell_angle_alpha 90.000000
_cell_angle_beta 158.507840
_cell_angle_gamma 90.000000
_cell_volume 2925.627390
_symmetry_space_group_name_H-M "C 2/M"
_symmetry_group_IT_number 12
_symmetry_cell_setting 'monoclinic'
loop_
_space_group_symop_operation_xyz
x,y,z
-x,y,-z
-x,-y,-z
x,-y,z
1/2+x,1/2+y,z
1/2-x,1/2+y,-z
1/2-x,1/2-y,-z
1/2+x,1/2-y,z
loop_
_atom_site_type_symbol
_atom_site_label
_atom_site_fract_x
_atom_site_fract_y
_atom_site_fract_z
Si Si1 0.628452 0.852008 0.642839
Si Si2 0.187564 0.144014 0.914676
Si Si3 0.786149 0.330360 0.864901
Si Si4 0.478317 0.680332 0.545276
Si Si5 0.998024 0.082968 0.117303
Si Si6 0.463624 0.199531 0.749037
Si Si7 0.178547 0.346918 0.803985
O O1 0.500000 0.890821 0.500000
O O2 0.552698 0.766791 0.593940
O O3 0.630704 0.881204 0.708053
O O4 0.841632 0.854280 0.775845
O O5 0.245722 0.128374 0.893996
O O6 0.084818 0.087237 0.881368
O O7 0.035644 0.213741 0.798855
O O8 0.384009 0.166685 0.092913
O O9 0.620567 0.352243 0.697756
O O10 0.765008 0.238623 0.859915
O O11 0.000000 0.343928 0.000000
O O12 0.500000 0.643726 0.500000
O O13 0.255364 0.686011 0.396630
O O14 0.080233 0.000000 0.167082
O O15 0.830216 0.102116 0.949398
O O16 0.503009 0.164170 0.716868
#
# Coordination Sequence:
#
# PCOD9171767 Si02
#       7
#     8   8   8   8   8   8   8
#     4  10  20  31  47  70 101 132 164 204 242 283
#     4   9  18  32  49  70  98 126 167 211 252 297
#     4  10  18  29  50  76 103 128 154 200 259 308
#     4  10  18  28  47  75 106 132 158 191 247 311
#     4  11  22  36  52  68  95 140 182 209 237 282
#     4   9  17  30  49  72  99 133 160 201 257 304
#     4   9  19  33  50  72  99 131 170 203 243 301
#
# _framework density 19.141193000000001
#
# number of rings (size 3 to 8) (size 9 to 14) (size 15 to 20)
#    0.000    2.286    0.000    5.571    0.000    7.714 
#    0.000    0.000    0.000    0.429    0.000    0.000 
#    0.000   14.286    0.000    0.000    0.000    0.000 
#
# Total GULP energy -155998.429647 kJ/mol
# GULP energy per Si atom -5571.372487 kJ/mol
# Density = 1.909763 g / cm^3
# Si number density = 19.141193 Si / 1000 Ang^3
#
#
#
# Elastic Constant Matrix: (Units=GPa)
#
#
# Indices 1 2 3 4 5 6 
#
# 1 193.7196 0.7231 102.0829 0.0088 1.3189 -0.0028
# 2 0.7231 26.9331 -30.3751 0.0027 -29.3673 0.0119
# 3 102.0829 -30.3751 195.0773 0.0355 71.1627 -0.0009
# 4 0.0088 0.0027 0.0355 -3.1971 0.0247 -1.2999
# 5 1.3189 -29.3673 71.1627 0.0247 80.8956 -0.0085
# 6 -0.0028 0.0119 -0.0009 -1.2999 -0.0085 -0.7523
#
#
#
# Elastic Compliance Matrix: (Units=1/GPa)
#
#
# Indices 1 2 3 4 5 6 
#
# 1 0.008661 -0.002505 -0.006684 0.000111 0.004829 -0.000309
# 2 -0.002505 0.062773 0.004060 -0.000254 0.019258 0.001216
# 3 -0.006684 0.004060 0.012779 -0.000074 -0.009659 0.000310
# 4 0.000111 -0.000254 -0.000074 -1.051615 0.000483 1.817146
# 5 0.004829 0.019258 -0.009659 0.000483 0.027771 -0.000851
# 6 -0.000309 0.001216 0.000310 1.817146 -0.000851 -4.469260
#
#
# Mechanical properties :
#
#
# Convention : Reuss Voigt Hill
#
# Bulk Modulus (GPa) = 13.52159 62.28798 37.90478
# Shear Modulus (GPa) = -0.93041 38.27587 18.67273
#
# Velocity S-wave (km/s) = -0.69795 4.47661 3.12673
# Velocity P-wave (km/s) = 2.53574 7.70273 5.73419
#
# Compressibility (1/GPa) = 0.07395582
#
# Stress axis : x y z
#
# Youngs Moduli (GPa) = 115.46557 15.93045 78.25108
#
# Poissons Ratio (x) = 0.03990 0.52300
# Poissons Ratio (y) = 0.28922 -0.31770
# Poissons Ratio (z) = 0.77173 -0.06468
#
# Static dielectric constant tensor:
#      x y z
#    x 1.711640 0.000000 -0.026730 
#    y 0.000000 1.649490 0.000000 
#    z -0.026730 0.000000 1.678400 
# 
# From -- ./inp_files/344811.got.cif
#   From: 2010.05.17/outbox.cif.g08.bks.cpg/sg12_173_cif.got.tgz:344811.got - 2010.06.03 13:09:07.
