data_PCOD9171052
_publ_section_title
;
Structure prediction by ZEFSAII (Michael W. Deem and Ramdas Pophale) SiO2 
 PCOD9171052
Probable space group: C 2/M
;
_chemical_formula_sum "Si O2"
_cell_formula_units_Z 64
_cell_length_a 28.063798
_cell_length_b 9.329223
_cell_length_c 17.291799
_cell_angle_alpha 90.000000
_cell_angle_beta 102.149215
_cell_angle_gamma 90.000000
_cell_volume 4425.828131
_symmetry_space_group_name_H-M "C 2/M"
_symmetry_group_IT_number 12
_symmetry_cell_setting 'monoclinic'
loop_
_space_group_symop_operation_xyz
x,y,z
-x,y,-z
-x,-y,-z
x,-y,z
1/2+x,1/2+y,z
1/2-x,1/2+y,-z
1/2-x,1/2-y,-z
1/2+x,1/2-y,z
loop_
_atom_site_type_symbol
_atom_site_label
_atom_site_fract_x
_atom_site_fract_y
_atom_site_fract_z
Si Si1 0.056897 0.671833 0.518091
Si Si2 0.214779 0.671129 0.160530
Si Si3 0.800206 0.828590 0.994025
Si Si4 0.370341 0.667120 0.569236
Si Si5 0.829442 0.169544 0.170576
Si Si6 0.703763 0.333991 0.595591
Si Si7 0.186731 0.330219 0.326891
Si Si8 0.630029 0.170296 0.677764
O O1 0.061776 0.500000 0.508552
O O2 0.086323 0.752485 0.460866
O O3 0.083329 0.706919 0.608657
O O4 0.000000 0.708262 0.500000
O O5 0.210458 0.500000 0.144992
O O6 0.187584 0.759473 0.084261
O O7 0.272953 0.703920 0.174638
O O8 0.194971 0.702578 0.239238
O O9 0.793173 0.000000 0.985500
O O10 0.750000 0.750000 0.000000
O O11 0.834089 0.802387 0.080359
O O12 0.381664 0.500000 0.583232
O O13 0.323919 0.677527 0.495109
O O14 0.354220 0.741201 0.643043
O O15 0.865514 0.256320 0.237591
O O16 0.835590 0.000000 0.185567
O O17 0.698603 0.500000 0.620974
O O18 0.760849 0.302470 0.614977
O O19 0.675589 0.230774 0.644319
O O20 0.176721 0.500000 0.330740
O O21 0.632808 0.000000 0.686075
#
# Coordination Sequence:
#
# PCOD9171052 Si02
#       8
#     8   8   8   8   8   8   8   8
#     4   9  19  36  52  64  84 113 142 176 222 269
#     4   9  17  28  41  57  81 117 153 180 211 247
#     4   9  17  27  39  55  79 113 149 182 215 249
#     4  10  20  30  44  66  86 108 143 183 218 252
#     4   9  16  28  41  56  84 117 145 176 217 257
#     4   9  17  30  42  55  84 119 145 175 214 252
#     4  10  18  29  43  58  85 121 150 175 209 254
#     4  10  18  26  43  68  85 106 145 185 216 252
#
# _framework density 14.460571
#
# number of rings (size 3 to 8) (size 9 to 14) (size 15 to 20)
#    0.000    2.625    1.250    2.250    0.000    4.750 
#    0.000    0.000    0.000    0.000    0.000    0.000 
#    0.000    1.000    0.000   11.250    0.000    5.625 
#
# Total GULP energy -178236.361654 kJ/mol
# GULP energy per Si atom -5569.886302 kJ/mol
# Density = 1.442766 g / cm^3
# Si number density = 14.460571 Si / 1000 Ang^3
#
#
#
# Elastic Constant Matrix: (Units=GPa)
#
#
# Indices 1 2 3 4 5 6 
#
# 1 66.0118 43.0545 51.8621 0.0000 -1.5291 0.0000
# 2 43.0545 52.2359 55.7511 0.0000 -0.6096 0.0000
# 3 51.8621 55.7511 94.1938 0.0000 -5.3723 0.0000
# 4 0.0000 0.0000 0.0000 29.3398 0.0000 -1.1133
# 5 -1.5291 -0.6096 -5.3723 0.0000 12.2314 0.0000
# 6 0.0000 0.0000 0.0000 -1.1133 0.0000 15.0725
#
#
#
# Elastic Compliance Matrix: (Units=1/GPa)
#
#
# Indices 1 2 3 4 5 6 
#
# 1 0.033883 -0.021853 -0.005684 0.000000 0.000650 0.000000
# 2 -0.021853 0.067615 -0.028670 0.000000 -0.011954 0.000000
# 3 -0.005684 -0.028670 0.031379 0.000000 0.011643 0.000000
# 4 0.000000 0.000000 0.000000 0.034179 0.000000 0.002525
# 5 0.000650 -0.011954 0.011643 0.000000 0.086356 0.000000
# 6 0.000000 0.000000 0.000000 0.002525 0.000000 0.066533
#
#
# Mechanical properties :
#
#
# Convention : Reuss Voigt Hill
#
# Bulk Modulus (GPa) = 48.86773 57.08632 52.97702
# Shear Modulus (GPa) = 11.38486 15.44698 13.41592
#
# Velocity S-wave (km/s) = 2.80894 3.27190 3.04922
# Velocity P-wave (km/s) = 6.66238 7.33735 7.00800
#
# Compressibility (1/GPa) = 0.02046340
#
# Stress axis : x y z
#
# Youngs Moduli (GPa) = 29.51369 14.78953 31.86846
#
# Poissons Ratio (x) = 0.32320 0.18114
# Poissons Ratio (y) = 0.64496 0.91366
# Poissons Ratio (z) = 0.16776 0.42401
#
# Static dielectric constant tensor:
#      x y z
#    x 1.441080 0.000000 0.009050 
#    y 0.000000 1.482500 0.000000 
#    z 0.009050 0.000000 1.513520 
# 
# From -- ./inp_files/291608.got.cif
#   From: 2010.05.17/outbox.cif.g08.bks.cpg/sg12_146_cif.got.tgz:291608.got - 2010.06.03 13:09:07.
