data_PCOD9171872
_publ_section_title
;
Structure prediction by ZEFSAII (Michael W. Deem and Ramdas Pophale) SiO2 
 PCOD9171872
Probable space group: C 2/M
;
_chemical_formula_sum "Si O2"
_cell_formula_units_Z 46
_cell_length_a 11.969108
_cell_length_b 29.258595
_cell_length_c 7.958062
_cell_angle_alpha 90.000000
_cell_angle_beta 41.896248
_cell_angle_gamma 90.000000
_cell_volume 1861.051790
_symmetry_space_group_name_H-M "C 2/M"
_symmetry_group_IT_number 12
_symmetry_cell_setting 'monoclinic'
loop_
_space_group_symop_operation_xyz
x,y,z
-x,y,-z
-x,-y,-z
x,-y,z
1/2+x,1/2+y,z
1/2-x,1/2+y,-z
1/2-x,1/2-y,-z
1/2+x,1/2-y,z
loop_
_atom_site_type_symbol
_atom_site_label
_atom_site_fract_x
_atom_site_fract_y
_atom_site_fract_z
Si Si1 0.275217 0.051574 0.108151
Si Si2 0.712166 0.723889 0.366023
Si Si3 0.914567 0.068806 0.337476
Si Si4 0.000000 0.299476 0.500000
Si Si5 0.000000 0.000000 0.000000
Si Si6 0.372494 0.848412 0.935309
Si Si7 0.477126 0.667370 0.841575
O O1 0.204618 0.056950 0.375563
O O2 0.385360 0.097495 0.959516
O O3 0.103887 0.054793 0.187344
O O4 0.344647 0.000000 0.006376
O O5 0.750000 0.750000 0.500000
O O6 0.658210 0.765416 0.305945
O O7 0.828455 0.686464 0.139426
O O8 0.549891 0.697021 0.611607
O O9 0.879725 0.039328 0.215153
O O10 0.915179 0.121220 0.288321
O O11 0.014612 0.328701 0.653687
O O12 0.209183 0.845965 0.998715
O O13 0.500000 0.688174 0.000000
#
# Coordination Sequence:
#
# PCOD9171872 Si02
#       7
#     8   8   8   4   2   8   8
#     4  10  18  35  57  84 118 167 205 246 316 374
#     4  12  25  41  67  92 124 167 206 263 323 382
#     4  10  18  28  51  85 128 155 192 254 312 373
#     4  12  26  44  61  88 129 168 218 260 316 374
#     4  12  16  26  44  88 128 152 188 242 316 370
#     4  11  24  43  61  90 130 168 211 268 310 378
#     4  11  21  36  59  92 129 162 203 254 319 380
#
# _framework density 24.717206000000001
#
# number of rings (size 3 to 8) (size 9 to 14) (size 15 to 20)
#    0.000    1.043    6.087    2.087    2.435    0.000 
#    0.000    0.435    0.000    0.000    0.000    2.435 
#    0.000    0.000    0.000    0.000    0.000    0.000 
#
# Total GULP energy -128188.691122 kJ/mol
# GULP energy per Si atom -5573.421353 kJ/mol
# Density = 2.466095 g / cm^3
# Si number density = 24.717206 Si / 1000 Ang^3
#
#
#
# Elastic Constant Matrix: (Units=GPa)
#
#
# Indices 1 2 3 4 5 6 
#
# 1 62.4576 15.1296 20.8246 0.0000 15.7952 0.0000
# 2 15.1296 210.8940 64.6250 0.0000 12.6018 0.0000
# 3 20.8246 64.6250 90.8271 0.0000 36.3670 0.0000
# 4 0.0000 0.0000 0.0000 43.6525 0.0000 12.8885
# 5 15.7952 12.6018 36.3670 0.0000 38.5659 0.0000
# 6 0.0000 0.0000 0.0000 12.8885 0.0000 3.9927
#
#
#
# Elastic Compliance Matrix: (Units=1/GPa)
#
#
# Indices 1 2 3 4 5 6 
#
# 1 0.018102 -0.000510 -0.001423 0.000000 -0.005905 0.000000
# 2 -0.000510 0.006361 -0.005881 0.000000 0.003676 0.000000
# 3 -0.001423 -0.005881 0.023324 0.000000 -0.019490 0.000000
# 4 0.000000 0.000000 0.000000 0.488252 0.000000 -1.576086
# 5 -0.005905 0.003676 -0.019490 0.000000 0.045525 0.000000
# 6 0.000000 0.000000 0.000000 -1.576086 0.000000 5.338094
#
#
# Mechanical properties :
#
#
# Convention : Reuss Voigt Hill
#
# Bulk Modulus (GPa) = 31.09468 62.81524 46.95496
# Shear Modulus (GPa) = 0.84090 34.81552 17.82821
#
# Velocity S-wave (km/s) = 0.58391 3.75714 2.68859
# Velocity P-wave (km/s) = 3.61415 6.65509 5.35501
#
# Compressibility (1/GPa) = 0.03215984
#
# Stress axis : x y z
#
# Youngs Moduli (GPa) = 55.24155 157.21670 42.87435
#
# Poissons Ratio (x) = 0.08012 0.06103
# Poissons Ratio (y) = 0.02815 0.25212
# Poissons Ratio (z) = 0.07863 0.92452
#
# Static dielectric constant tensor:
#      x y z
#    x 2.113760 0.000000 0.005290 
#    y 0.000000 1.787490 0.000000 
#    z 0.005290 0.000000 1.978040 
# 
# From -- ./inp_files/68089.got.cif
#   From: 2010.05.17/outbox.cif.g08.bks.cpg/sg12_35_cif.got.tgz:68089.got - 2010.06.03 13:09:07.
