data_PCOD9171561
_publ_section_title
;
Structure prediction by ZEFSAII (Michael W. Deem and Ramdas Pophale) SiO2 
 PCOD9171561
Probable space group: C 2/M
;
_chemical_formula_sum "Si O2"
_cell_formula_units_Z 56
_cell_length_a 24.660332
_cell_length_b 22.649012
_cell_length_c 5.549672
_cell_angle_alpha 90.000000
_cell_angle_beta 53.031725
_cell_angle_gamma 90.000000
_cell_volume 2476.539261
_symmetry_space_group_name_H-M "C 2/M"
_symmetry_group_IT_number 12
_symmetry_cell_setting 'monoclinic'
loop_
_space_group_symop_operation_xyz
x,y,z
-x,y,-z
-x,-y,-z
x,-y,z
1/2+x,1/2+y,z
1/2-x,1/2+y,-z
1/2-x,1/2-y,-z
1/2+x,1/2-y,z
loop_
_atom_site_type_symbol
_atom_site_label
_atom_site_fract_x
_atom_site_fract_y
_atom_site_fract_z
Si Si1 0.534837 0.919067 0.158001
Si Si2 0.165374 0.904866 0.597650
Si Si3 0.963217 0.275947 0.847998
Si Si4 0.179055 0.401158 0.792538
Si Si5 0.297188 0.158098 0.773579
Si Si6 0.177532 0.235467 0.575778
Si Si7 0.672904 0.433546 0.080400
O O1 0.500000 0.936601 0.500000
O O2 0.534794 0.847180 0.159026
O O3 0.500000 0.936184 0.000000
O O4 0.612294 0.939303 0.963970
O O5 0.244721 0.926825 0.400467
O O6 0.171293 0.834342 0.563760
O O7 0.134240 0.929091 0.436182
O O8 0.134180 0.924155 0.933914
O O9 0.000000 0.256416 0.500000
O O10 0.886185 0.254439 0.091661
O O11 0.000000 0.256801 0.000000
O O12 0.173038 0.366076 0.557209
O O13 0.173202 0.363243 0.053415
O O14 0.314589 0.227221 0.693041
O O15 0.224908 0.122844 0.955254
O O16 0.250000 0.250000 0.500000
O O17 0.704401 0.500000 0.989808
#
# Coordination Sequence:
#
# PCOD9171561 Si02
#       7
#     8   8   8   8   8   8   8
#     4  10  18  28  45  64  97 145 187 222 264 324
#     4  10  22  34  56  84 109 153 189 234 301 351
#     4  10  23  37  50  76 119 169 195 229 288 357
#     4  10  18  33  44  74 108 136 186 233 273 340
#     4  10  21  31  53  79 111 151 188 232 294 344
#     4  12  21  39  61  91 127 159 200 251 292 376
#     4  10  20  37  53  78 120 152 189 241 305 359
#
# _framework density 22.612200999999999
#
# number of rings (size 3 to 8) (size 9 to 14) (size 15 to 20)
#    0.000    1.714    4.286    1.286    4.000    4.571 
#    0.000    0.000    0.000    0.000    0.000    0.000 
#    0.000  213.714    0.000    0.000    0.000    0.000 
#
# Total GULP energy -156049.576348 kJ/mol
# GULP energy per Si atom -5573.199155 kJ/mol
# Density = 2.256073 g / cm^3
# Si number density = 22.612201 Si / 1000 Ang^3
#
#
#
# Elastic Constant Matrix: (Units=GPa)
#
#
# Indices 1 2 3 4 5 6 
#
# 1 80.8342 13.9389 72.3177 0.0000 34.6594 0.0000
# 2 13.9389 111.8298 37.6317 0.0000 12.2831 0.0000
# 3 72.3177 37.6317 158.1453 0.0000 43.1319 0.0000
# 4 0.0000 0.0000 0.0000 -19.0968 0.0000 23.7355
# 5 34.6594 12.2831 43.1319 0.0000 56.9956 0.0000
# 6 0.0000 0.0000 0.0000 23.7355 0.0000 -50.4804
#
#
#
# Elastic Compliance Matrix: (Units=1/GPa)
#
#
# Indices 1 2 3 4 5 6 
#
# 1 0.023429 0.000897 -0.008806 0.000000 -0.007777 0.000000
# 2 0.000897 0.009763 -0.002534 0.000000 -0.000732 0.000000
# 3 -0.008806 -0.002534 0.011774 0.000000 -0.003009 0.000000
# 4 0.000000 0.000000 0.000000 -0.125999 0.000000 -0.059244
# 5 -0.007777 -0.000732 -0.003009 0.000000 0.024709 0.000000
# 6 0.000000 0.000000 0.000000 -0.059244 0.000000 -0.047666
#
#
# Mechanical properties :
#
#
# Convention : Reuss Voigt Hill
#
# Bulk Modulus (GPa) = 41.52745 66.50956 54.01851
# Shear Modulus (GPa) = -66.59884 12.61176 -26.99354
#
# Velocity S-wave (km/s) = -5.43291 2.36422 -3.45883
# Velocity P-wave (km/s) = 4.57717 6.07698 2.82659
#
# Compressibility (1/GPa) = 0.02408046
#
# Stress axis : x y z
#
# Youngs Moduli (GPa) = 42.68168 102.42313 84.93364
#
# Poissons Ratio (x) = -0.09190 0.74797
# Poissons Ratio (y) = -0.03830 0.21521
# Poissons Ratio (z) = 0.37588 0.25953
#
# Static dielectric constant tensor:
#      x y z
#    x 1.875280 0.000000 0.039350 
#    y 0.000000 1.956890 0.000000 
#    z 0.039350 0.000000 1.891440 
# 
# From -- ./inp_files/29585.got.cif
#   From: 2010.05.17/outbox.cif.g08.bks.cpg/sg12_15_cif.got.tgz:29585.got - 2010.06.03 13:09:07.
