data_PCOD9171581
_publ_section_title
;
Structure prediction by ZEFSAII (Michael W. Deem and Ramdas Pophale) SiO2 
 PCOD9171581
Probable space group: C 2/M
;
_chemical_formula_sum "Si O2"
_cell_formula_units_Z 48
_cell_length_a 15.184319
_cell_length_b 7.637671
_cell_length_c 20.214463
_cell_angle_alpha 90.000000
_cell_angle_beta 54.252056
_cell_angle_gamma 90.000000
_cell_volume 1902.645196
_symmetry_space_group_name_H-M "C 2/M"
_symmetry_group_IT_number 12
_symmetry_cell_setting 'monoclinic'
loop_
_space_group_symop_operation_xyz
x,y,z
-x,y,-z
-x,-y,-z
x,-y,z
1/2+x,1/2+y,z
1/2-x,1/2+y,-z
1/2-x,1/2-y,-z
1/2+x,1/2-y,z
loop_
_atom_site_type_symbol
_atom_site_label
_atom_site_fract_x
_atom_site_fract_y
_atom_site_fract_z
Si Si1 0.011269 0.215623 0.860614
Si Si2 0.202167 0.198081 0.698821
Si Si3 0.878636 0.705209 0.527391
Si Si4 0.327560 0.292904 0.028921
Si Si5 0.137218 0.206126 0.198849
Si Si6 0.057900 0.706632 0.642312
O O1 0.933454 0.270723 0.833487
O O2 0.131922 0.278047 0.789209
O O3 0.015692 0.000000 0.858912
O O4 0.946161 0.273601 0.954281
O O5 0.301832 0.286132 0.617006
O O6 0.114076 0.194712 0.678007
O O7 0.232893 0.000000 0.705152
O O8 0.845187 0.500000 0.536352
O O9 0.888872 0.775300 0.448643
O O10 0.000000 0.707868 0.500000
O O11 0.338623 0.500000 0.028798
O O12 0.260792 0.240176 0.123108
O O13 0.250000 0.250000 0.000000
O O14 0.072684 0.277703 0.290933
O O15 0.125394 0.000000 0.208091
O O16 0.082124 0.500000 0.636589
#
# Coordination Sequence:
#
# PCOD9171581 Si02
#       6
#     8   8   8   8   8   8
#     4   7  12  21  35  57  83 112 142 174 215 258
#     4   9  16  29  48  67  91 121 151 184 223 270
#     4   9  18  31  47  68  92 119 151 186 227 275
#     4   9  14  21  34  56  88 120 148 180 222 270
#     4   9  16  26  39  58  86 118 151 185 225 270
#     4  10  18  28  45  68  92 118 151 190 228 269
#
# _framework density 25.228037
#
# number of rings (size 3 to 8) (size 9 to 14) (size 15 to 20)
#    0.000    3.167    0.000    4.000    0.000    0.000 
#    0.000    1.667    0.000    4.500    0.000    1.167 
#    0.000    9.333    0.000    0.000    0.000    0.000 
#
# Total GULP energy -133789.088078 kJ/mol
# GULP energy per Si atom -5574.545337 kJ/mol
# Density = 2.517062 g / cm^3
# Si number density = 25.228037 Si / 1000 Ang^3
#
#
#
# Elastic Constant Matrix: (Units=GPa)
#
#
# Indices 1 2 3 4 5 6 
#
# 1 23.6298 3.2702 85.7900 0.0001 21.8549 0.0003
# 2 3.2702 68.9230 4.0791 0.0002 -7.0574 0.0007
# 3 85.7900 4.0791 237.7905 0.0000 -74.6953 0.0000
# 4 0.0001 0.0002 0.0000 11.8519 0.0000 -1.5988
# 5 21.8549 -7.0574 -74.6953 0.0000 35.3539 0.0000
# 6 0.0003 0.0007 0.0000 -1.5988 0.0000 -2.9703
#
#
#
# Elastic Compliance Matrix: (Units=1/GPa)
#
#
# Indices 1 2 3 4 5 6 
#
# 1 -0.004598 0.001776 0.007828 0.000000 0.019735 0.000000
# 2 0.001776 0.014455 -0.000972 0.000000 -0.000266 0.000004
# 3 0.007828 -0.000972 -0.000544 0.000000 -0.006182 0.000001
# 4 0.000000 0.000000 0.000000 0.078663 0.000000 -0.042341
# 5 0.019735 -0.000266 -0.006182 0.000000 0.002970 0.000002
# 6 0.000000 0.000004 0.000001 -0.042341 0.000002 -0.313877
#
#
# Mechanical properties :
#
#
# Convention : Reuss Voigt Hill
#
# Bulk Modulus (GPa) = 37.62923 57.40243 47.51583
# Shear Modulus (GPa) = -21.61376 24.66070 1.52347
#
# Velocity S-wave (km/s) = -2.93018 3.12991 0.77794
# Velocity P-wave (km/s) = 1.87085 5.98871 4.43648
#
# Compressibility (1/GPa) = 0.02657509
#
# Stress axis : x y z
#
# Youngs Moduli (GPa) = -217.48282 69.18036 -1838.14714
#
# Poissons Ratio (x) = -0.12284 14.38840
# Poissons Ratio (y) = 0.38618 -1.78713
# Poissons Ratio (z) = 1.70238 0.06726
#
# Static dielectric constant tensor:
#      x y z
#    x 2.007270 0.000000 -0.023770 
#    y 0.000000 1.927670 0.000000 
#    z -0.023770 0.000000 2.146480 
# 
# From -- ./inp_files/309536.got.cif
#   From: 2010.05.17/outbox.cif.g08.bks.cpg/sg12_155_cif.got.tgz:309536.got - 2010.06.03 13:09:07.
