data_PCOD9171419
_publ_section_title
;
Structure prediction by ZEFSAII (Michael W. Deem and Ramdas Pophale) SiO2 
 PCOD9171419
Probable space group: C 2/M
;
_chemical_formula_sum "Si O2"
_cell_formula_units_Z 56
_cell_length_a 33.481014
_cell_length_b 8.340550
_cell_length_c 14.068694
_cell_angle_alpha 90.000000
_cell_angle_beta 64.940712
_cell_angle_gamma 90.000000
_cell_volume 3558.876753
_symmetry_space_group_name_H-M "C 2/M"
_symmetry_group_IT_number 12
_symmetry_cell_setting 'monoclinic'
loop_
_space_group_symop_operation_xyz
x,y,z
-x,y,-z
-x,-y,-z
x,-y,z
1/2+x,1/2+y,z
1/2-x,1/2+y,-z
1/2-x,1/2-y,-z
1/2+x,1/2-y,z
loop_
_atom_site_type_symbol
_atom_site_label
_atom_site_fract_x
_atom_site_fract_y
_atom_site_fract_z
Si Si1 0.251763 0.806973 0.389255
Si Si2 0.525129 0.189103 0.114424
Si Si3 0.151784 0.308389 0.707804
Si Si4 0.344373 0.691924 0.513262
Si Si5 0.980142 0.695394 0.666634
Si Si6 0.937456 0.813861 0.113962
Si Si7 0.569010 0.193831 0.472380
O O1 0.250000 0.750000 0.500000
O O2 0.299735 0.752495 0.304795
O O3 0.203916 0.757182 0.398129
O O4 0.253143 0.000000 0.385524
O O5 0.530607 0.249616 0.216397
O O6 0.474272 0.214611 0.134692
O O7 0.534985 0.000000 0.101140
O O8 0.554033 0.275146 0.005130
O O9 0.148552 0.500000 0.721668
O O10 0.149364 0.267287 0.597893
O O11 0.111129 0.229485 0.802621
O O12 0.343905 0.500000 0.501907
O O13 0.384728 0.740345 0.538947
O O14 0.980423 0.500000 0.667967
O O15 0.946317 0.743654 0.617798
O O16 0.029097 0.743804 0.582950
O O17 0.946547 0.000000 0.122191
O O18 0.570734 0.000000 0.472355
#
# Coordination Sequence:
#
# PCOD9171419 Si02
#       7
#     8   8   8   8   8   8   8
#     4   8  16  28  42  60  86 114 143 175 212 255
#     4  10  18  31  48  65  86 118 153 181 208 253
#     4  10  18  30  46  63  84 118 153 179 209 256
#     4  10  18  28  42  66  94 117 140 176 219 259
#     4   8  16  29  46  64  85 113 150 185 208 238
#     4  11  21  31  43  65  92 116 142 181 224 259
#     4   9  16  29  46  65  87 116 148 177 209 252
#
# _framework density 15.735302000000001
#
# number of rings (size 3 to 8) (size 9 to 14) (size 15 to 20)
#    0.000    2.571    0.000    5.143    0.000    2.286 
#    0.000    3.571    0.000    0.000    0.000    1.000 
#    0.000    0.000    0.000    0.000    0.000    0.000 
#
# Total GULP energy -155986.175565 kJ/mol
# GULP energy per Si atom -5570.934842 kJ/mol
# Density = 1.569949 g / cm^3
# Si number density = 15.735302 Si / 1000 Ang^3
#
#
#
# Elastic Constant Matrix: (Units=GPa)
#
#
# Indices 1 2 3 4 5 6 
#
# 1 111.2219 -3.5222 42.1291 0.0000 -13.1554 0.0000
# 2 -3.5222 13.7351 -3.1481 0.0000 -1.5330 0.0000
# 3 42.1291 -3.1481 77.9870 0.0000 -5.8832 0.0000
# 4 0.0000 0.0000 0.0000 13.1911 0.0000 -6.1029
# 5 -13.1554 -1.5330 -5.8832 0.0000 26.8035 0.0000
# 6 0.0000 0.0000 0.0000 -6.1029 0.0000 15.6457
#
#
#
# Elastic Compliance Matrix: (Units=1/GPa)
#
#
# Indices 1 2 3 4 5 6 
#
# 1 0.011873 0.002193 -0.005975 0.000000 0.004641 0.000000
# 2 0.002193 0.074539 0.002265 0.000000 0.005837 0.000000
# 3 -0.005975 0.002265 0.016199 0.000000 0.000752 0.000000
# 4 0.000000 0.000000 0.000000 0.092502 0.000000 0.036082
# 5 0.004641 0.005837 0.000752 0.000000 0.040085 0.000000
# 6 0.000000 0.000000 0.000000 0.036082 0.000000 0.077990
#
#
# Mechanical properties :
#
#
# Convention : Reuss Voigt Hill
#
# Bulk Modulus (GPa) = 10.04262 30.42906 20.23584
# Shear Modulus (GPa) = 14.30962 22.29372 18.30167
#
# Velocity S-wave (km/s) = 3.01889 3.76812 3.41412
# Velocity P-wave (km/s) = 4.30670 6.18964 5.33195
#
# Compressibility (1/GPa) = 0.09957557
#
# Stress axis : x y z
#
# Youngs Moduli (GPa) = 84.22684 13.41577 61.73382
#
# Poissons Ratio (x) = -0.02942 0.36886
# Poissons Ratio (y) = -0.18472 -0.13980
# Poissons Ratio (z) = 0.50326 -0.03038
#
# Static dielectric constant tensor:
#      x y z
#    x 1.541910 0.000000 -0.014400 
#    y 0.000000 1.542680 0.000000 
#    z -0.014400 0.000000 1.511930 
# 
# From -- ./inp_files/247715.got.cif
#   From: 2010.05.17/outbox.cif.g08.bks.cpg/sg12_124_cif.got.tgz:247715.got - 2010.06.03 13:09:07.
