data_PCOD9171811
_publ_section_title
;
Structure prediction by ZEFSAII (Michael W. Deem and Ramdas Pophale) SiO2 
 PCOD9171811
Probable space group: C 2/M
;
_chemical_formula_sum "Si O2"
_cell_formula_units_Z 56
_cell_length_a 25.467443
_cell_length_b 9.573949
_cell_length_c 13.524051
_cell_angle_alpha 90.000000
_cell_angle_beta 128.543211
_cell_angle_gamma 90.000000
_cell_volume 2579.092322
_symmetry_space_group_name_H-M "C 2/M"
_symmetry_group_IT_number 12
_symmetry_cell_setting 'monoclinic'
loop_
_space_group_symop_operation_xyz
x,y,z
-x,y,-z
-x,-y,-z
x,-y,z
1/2+x,1/2+y,z
1/2-x,1/2+y,-z
1/2-x,1/2-y,-z
1/2+x,1/2-y,z
loop_
_atom_site_type_symbol
_atom_site_label
_atom_site_fract_x
_atom_site_fract_y
_atom_site_fract_z
Si Si1 0.118483 0.164711 0.200743
Si Si2 0.384707 0.158916 0.322077
Si Si3 0.272659 0.166060 0.344873
Si Si4 0.095386 0.842974 0.958844
Si Si5 0.894708 0.334332 0.620835
Si Si6 0.306984 0.848830 0.027928
Si Si7 0.007175 0.837033 0.655531
O O1 0.195732 0.210140 0.267185
O O2 0.094073 0.259523 0.261666
O O3 0.118984 0.000000 0.231114
O O4 0.075374 0.173793 0.049403
O O5 0.322128 0.214473 0.314405
O O6 0.355834 0.138203 0.178490
O O7 0.443435 0.269327 0.368029
O O8 0.404498 0.000000 0.380477
O O9 0.318000 0.188408 0.495424
O O10 0.267791 0.000000 0.321496
O O11 0.151388 0.727798 0.006509
O O12 0.043565 0.833472 0.807288
O O13 0.125171 0.000000 0.987168
O O14 0.907715 0.500000 0.640073
O O15 0.942514 0.260356 0.596265
O O16 0.281403 0.000000 0.967867
O O17 0.250000 0.750000 0.000000
O O18 0.992457 0.000000 0.618297
#
# Coordination Sequence:
#
# PCOD9171811 Si02
#       7
#     8   8   8   8   8   8   8
#     4  10  20  38  61  83 108 142 183 229 277 325
#     4   9  18  35  57  80 107 143 183 224 269 323
#     4   9  19  36  59  83 109 143 183 224 273 327
#     4   9  19  35  56  79 106 140 180 224 273 326
#     4  11  23  38  56  80 110 147 187 228 270 320
#     4  10  18  28  48  77 110 144 178 218 269 324
#     4  10  21  38  57  82 113 145 181 223 273 327
#
# _framework density 21.713066000000001
#
# number of rings (size 3 to 8) (size 9 to 14) (size 15 to 20)
#    0.000    2.286    0.000    2.571    0.000    5.143 
#    0.000    8.571    0.000    0.000    0.000    0.000 
#    0.000    0.000    0.000    0.000    0.000    0.000 
#
# Total GULP energy -156197.225388 kJ/mol
# GULP energy per Si atom -5578.472335 kJ/mol
# Density = 2.166365 g / cm^3
# Si number density = 21.713066 Si / 1000 Ang^3
#
#
#
# Elastic Constant Matrix: (Units=GPa)
#
#
# Indices 1 2 3 4 5 6 
#
# 1 96.2758 48.5901 5.6201 0.0000 -10.8905 0.0000
# 2 48.5901 118.8435 22.1474 0.0000 2.2736 0.0000
# 3 5.6201 22.1474 42.6132 0.0000 -16.0405 0.0000
# 4 0.0000 0.0000 0.0000 23.1891 0.0000 -3.7103
# 5 -10.8905 2.2736 -16.0405 0.0000 32.7066 0.0000
# 6 0.0000 0.0000 0.0000 -3.7103 0.0000 33.4642
#
#
#
# Elastic Compliance Matrix: (Units=1/GPa)
#
#
# Indices 1 2 3 4 5 6 
#
# 1 0.014449 -0.006889 0.004496 0.000000 0.007495 0.000000
# 2 -0.006889 0.012983 -0.008636 0.000000 -0.007432 0.000000
# 3 0.004496 -0.008636 0.034526 0.000000 0.019030 0.000000
# 4 0.000000 0.000000 0.000000 0.043903 0.000000 0.004868
# 5 0.007495 -0.007432 0.019030 0.000000 0.042920 0.000000
# 6 0.000000 0.000000 0.000000 0.004868 0.000000 0.030422
#
#
# Mechanical properties :
#
#
# Convention : Reuss Voigt Hill
#
# Bulk Modulus (GPa) = 25.06330 45.60530 35.33430
# Shear Modulus (GPa) = 23.30340 29.96364 26.63352
#
# Velocity S-wave (km/s) = 3.27959 3.71884 3.50610
# Velocity P-wave (km/s) = 5.09009 6.28402 5.71830
#
# Compressibility (1/GPa) = 0.03989898
#
# Stress axis : x y z
#
# Youngs Moduli (GPa) = 69.20918 77.02607 28.96371
#
# Poissons Ratio (x) = 0.53062 -0.13022
# Poissons Ratio (y) = 0.47677 0.25014
# Poissons Ratio (z) = -0.31116 0.66523
#
# Static dielectric constant tensor:
#      x y z
#    x 1.792890 0.000000 0.002280 
#    y 0.000000 1.774970 0.000000 
#    z 0.002280 0.000000 1.879260 
# 
# From -- ./inp_files/238919.got.cif
#   From: 2010.05.17/outbox.cif.g08.bks.cpg/sg12_120_cif.got.tgz:238919.got - 2010.06.03 13:09:07.
