data_PCOD9171588
_publ_section_title
;
Structure prediction by ZEFSAII (Michael W. Deem and Ramdas Pophale) SiO2 
 PCOD9171588
Probable space group: C 2/M
;
_chemical_formula_sum "Si O2"
_cell_formula_units_Z 64
_cell_length_a 14.632599
_cell_length_b 15.870961
_cell_length_c 16.865410
_cell_angle_alpha 90.000000
_cell_angle_beta 53.336825
_cell_angle_gamma 90.000000
_cell_volume 3141.827777
_symmetry_space_group_name_H-M "C 2/M"
_symmetry_group_IT_number 12
_symmetry_cell_setting 'monoclinic'
loop_
_space_group_symop_operation_xyz
x,y,z
-x,y,-z
-x,-y,-z
x,-y,z
1/2+x,1/2+y,z
1/2-x,1/2+y,-z
1/2-x,1/2-y,-z
1/2+x,1/2-y,z
loop_
_atom_site_type_symbol
_atom_site_label
_atom_site_fract_x
_atom_site_fract_y
_atom_site_fract_z
Si Si1 0.509016 0.154981 0.815484
Si Si2 0.377233 0.594358 0.323417
Si Si3 0.576956 0.676722 0.131827
Si Si4 0.732153 0.256667 0.187181
Si Si5 0.394149 0.405359 0.495511
Si Si6 0.727016 0.231896 0.647684
Si Si7 0.753445 0.401922 0.916221
Si Si8 0.622272 0.912691 0.897844
O O1 0.476024 0.239987 0.882069
O O2 0.598708 0.193425 0.706131
O O3 0.389581 0.109179 0.861212
O O4 0.591461 0.094291 0.821826
O O5 0.331545 0.500000 0.334611
O O6 0.476253 0.614397 0.208659
O O7 0.429025 0.597254 0.385325
O O8 0.285963 0.669871 0.367016
O O9 0.623102 0.719133 0.189991
O O10 0.675806 0.634617 0.028314
O O11 0.730659 0.268756 0.282211
O O12 0.768133 0.162360 0.145221
O O13 0.816048 0.328275 0.111512
O O14 0.500000 0.397624 0.500000
O O15 0.343942 0.500000 0.534836
O O16 0.309393 0.328645 0.556569
O O17 0.728046 0.500000 0.916288
O O18 0.685576 0.000000 0.884200
O O19 0.500000 0.915352 0.000000
#
# Coordination Sequence:
#
# PCOD9171588 Si02
#       8
#     8   8   8   8   8   8   8   8
#     4   9  19  33  50  75 106 140 181 227 272 325
#     4  10  21  37  58  84 114 149 190 232 277 336
#     4  10  19  35  55  76 108 151 194 234 277 321
#     4  10  21  34  50  77 109 142 184 231 274 330
#     4  10  21  38  62  90 114 139 181 237 289 339
#     4  10  21  37  59  82 113 151 182 226 289 345
#     4  11  21  34  54  78 112 156 196 234 274 325
#     4  10  18  28  45  68  95 129 168 217 275 321
#
# _framework density 20.370308000000001
#
# number of rings (size 3 to 8) (size 9 to 14) (size 15 to 20)
#    0.000    2.000    0.000    4.875    0.000    5.000 
#    0.000    0.000    0.000    8.250    0.000    0.000 
#    0.000    0.000    0.000    0.000    0.000    0.000 
#
# Total GULP energy -178208.214583 kJ/mol
# GULP energy per Si atom -5569.006706 kJ/mol
# Density = 2.032394 g / cm^3
# Si number density = 20.370308 Si / 1000 Ang^3
#
#
#
# Elastic Constant Matrix: (Units=GPa)
#
#
# Indices 1 2 3 4 5 6 
#
# 1 31.2621 11.2241 5.4588 0.0000 -5.0918 0.0000
# 2 11.2241 156.1833 29.7288 0.0000 -13.2362 0.0000
# 3 5.4588 29.7288 52.5343 0.0000 -1.2195 0.0000
# 4 0.0000 0.0000 0.0000 33.2466 0.0000 -0.0430
# 5 -5.0918 -13.2362 -1.2195 0.0000 22.4710 0.0000
# 6 0.0000 0.0000 0.0000 -0.0430 0.0000 29.2719
#
#
#
# Elastic Compliance Matrix: (Units=1/GPa)
#
#
# Indices 1 2 3 4 5 6 
#
# 1 0.034037 -0.001378 -0.002600 0.000000 0.006760 0.000000
# 2 -0.001378 0.007612 -0.004073 0.000000 0.003950 0.000000
# 3 -0.002600 -0.004073 0.021568 0.000000 -0.001818 0.000000
# 4 0.000000 0.000000 0.000000 0.030078 0.000000 0.000044
# 5 0.006760 0.003950 -0.001818 0.000000 0.048262 0.000000
# 6 0.000000 0.000000 0.000000 0.000044 0.000000 0.034163
#
#
# Mechanical properties :
#
#
# Convention : Reuss Voigt Hill
#
# Bulk Modulus (GPa) = 21.22450 36.97814 29.10132
# Shear Modulus (GPa) = 24.09335 29.90244 26.99790
#
# Velocity S-wave (km/s) = 3.44287 3.83553 3.64449
# Velocity P-wave (km/s) = 5.12313 6.14877 5.65923
#
# Compressibility (1/GPa) = 0.04711537
#
# Stress axis : x y z
#
# Youngs Moduli (GPa) = 29.37942 131.37582 46.36553
#
# Poissons Ratio (x) = 0.18108 0.12055
# Poissons Ratio (y) = 0.04050 0.18882
# Poissons Ratio (z) = 0.07638 0.53503
#
# Static dielectric constant tensor:
#      x y z
#    x 1.816800 0.000000 0.044790 
#    y 0.000000 1.802600 0.000000 
#    z 0.044790 0.000000 1.781930 
# 
# From -- ./inp_files/270662.got.cif
#   From: 2010.05.17/outbox.cif.g08.bks.cpg/sg12_136_cif.got.tgz:270662.got - 2010.06.03 13:09:07.
