data_PCOD9171434
_publ_section_title
;
Structure prediction by ZEFSAII (Michael W. Deem and Ramdas Pophale) SiO2 
 PCOD9171434
Probable space group: C 2/M
;
_chemical_formula_sum "Si O2"
_cell_formula_units_Z 64
_cell_length_a 29.923501
_cell_length_b 9.371602
_cell_length_c 14.379650
_cell_angle_alpha 90.000000
_cell_angle_beta 91.839410
_cell_angle_gamma 90.000000
_cell_volume 4030.423795
_symmetry_space_group_name_H-M "C 2/M"
_symmetry_group_IT_number 12
_symmetry_cell_setting 'monoclinic'
loop_
_space_group_symop_operation_xyz
x,y,z
-x,y,-z
-x,-y,-z
x,-y,z
1/2+x,1/2+y,z
1/2-x,1/2+y,-z
1/2-x,1/2-y,-z
1/2+x,1/2-y,z
loop_
_atom_site_type_symbol
_atom_site_label
_atom_site_fract_x
_atom_site_fract_y
_atom_site_fract_z
Si Si1 0.239246 0.836283 0.811687
Si Si2 0.365915 0.668943 0.898713
Si Si3 0.189243 0.336009 0.957304
Si Si4 0.681891 0.331158 0.283348
Si Si5 0.399027 0.163564 0.181035
Si Si6 0.549394 0.329188 0.969922
Si Si7 0.348467 0.335731 0.325387
Si Si8 0.798061 0.827907 0.507206
O O1 0.225892 0.755403 0.904925
O O2 0.277243 0.754978 0.757922
O O3 0.195066 0.836132 0.744194
O O4 0.251577 0.000000 0.829438
O O5 0.357587 0.500000 0.915337
O O6 0.359789 0.694803 0.788488
O O7 0.413829 0.702118 0.947385
O O8 0.329080 0.760491 0.951506
O O9 0.202801 0.500000 0.971421
O O10 0.145818 0.336715 0.885953
O O11 0.692061 0.500000 0.278185
O O12 0.679091 0.296736 0.391918
O O13 0.385081 0.240696 0.275563
O O14 0.412342 0.000000 0.196667
O O15 0.434805 0.249475 0.122025
O O16 0.550355 0.500000 0.953997
O O17 0.500000 0.288954 0.000000
O O18 0.363887 0.500000 0.334597
O O19 0.329910 0.285283 0.423713
O O20 0.750000 0.750000 0.500000
O O21 0.791042 0.000000 0.498941
#
# Coordination Sequence:
#
# PCOD9171434 Si02
#       8
#     8   8   8   8   8   8   8   8
#     4  10  18  28  43  62  85 118 157 193 226 262
#     4   9  18  32  46  64  90 118 147 181 223 272
#     4   9  17  29  44  62  86 118 154 188 223 264
#     4  10  20  31  44  62  88 119 152 191 230 266
#     4   9  17  28  45  70  95 118 146 184 227 268
#     4   9  17  31  52  74  95 119 145 176 220 277
#     4   9  17  29  44  63  89 120 154 192 229 263
#     4  10  19  31  46  65  88 119 159 199 235 265
#
# _framework density 15.879223
#
# number of rings (size 3 to 8) (size 9 to 14) (size 15 to 20)
#    0.000    2.625    1.250    1.125    0.000    5.250 
#    0.000    0.000    0.000    0.000    0.000    0.875 
#    0.000    7.000    0.000    0.000    0.000    0.000 
#
# Total GULP energy -178382.924349 kJ/mol
# GULP energy per Si atom -5574.466386 kJ/mol
# Density = 1.584308 g / cm^3
# Si number density = 15.879223 Si / 1000 Ang^3
#
#
#
# Elastic Constant Matrix: (Units=GPa)
#
#
# Indices 1 2 3 4 5 6 
#
# 1 71.4475 41.1907 51.4264 0.0000 -20.8790 0.0000
# 2 41.1907 55.7863 58.2686 0.0000 -13.2379 0.0000
# 3 51.4264 58.2686 142.5370 0.0000 -20.2309 0.0000
# 4 0.0000 0.0000 0.0000 16.3959 0.0000 -6.3330
# 5 -20.8790 -13.2379 -20.2309 0.0000 21.1820 0.0000
# 6 0.0000 0.0000 0.0000 -6.3330 0.0000 16.3823
#
#
#
# Elastic Compliance Matrix: (Units=1/GPa)
#
#
# Indices 1 2 3 4 5 6 
#
# 1 0.029457 -0.015858 -0.001655 0.000000 0.017544 0.000000
# 2 -0.015858 0.041197 -0.011203 0.000000 -0.000584 0.000000
# 3 -0.001655 -0.011203 0.012687 0.000000 0.003485 0.000000
# 4 0.000000 0.000000 0.000000 0.071696 0.000000 0.027716
# 5 0.017544 -0.000584 0.003485 0.000000 0.067466 0.000000
# 6 0.000000 0.000000 0.000000 0.027716 0.000000 0.071756
#
#
# Mechanical properties :
#
#
# Convention : Reuss Voigt Hill
#
# Bulk Modulus (GPa) = 38.59590 63.50469 51.05029
# Shear Modulus (GPa) = 13.87626 18.71771 16.29699
#
# Velocity S-wave (km/s) = 2.95932 3.43702 3.20708
# Velocity P-wave (km/s) = 6.00296 7.47195 6.77737
#
# Compressibility (1/GPa) = 0.02590949
#
# Stress axis : x y z
#
# Youngs Moduli (GPa) = 33.94793 24.27355 78.82057
#
# Poissons Ratio (x) = 0.38493 0.13045
# Poissons Ratio (y) = 0.53835 0.88300
# Poissons Ratio (z) = 0.05618 0.27193
#
# Static dielectric constant tensor:
#      x y z
#    x 1.506990 0.000000 0.025630 
#    y 0.000000 1.536370 0.000000 
#    z 0.025630 0.000000 1.550580 
# 
# From -- ./inp_files/248323.got.cif
#   From: 2010.05.17/outbox.cif.g08.bks.cpg/sg12_125_cif.got.tgz:248323.got - 2010.06.03 13:09:07.
