data_PCOD9171454
_publ_section_title
;
Structure prediction by ZEFSAII (Michael W. Deem and Ramdas Pophale) SiO2 
 PCOD9171454
Probable space group: C 2/M
;
_chemical_formula_sum "Si O2"
_cell_formula_units_Z 56
_cell_length_a 29.647071
_cell_length_b 9.006780
_cell_length_c 14.063357
_cell_angle_alpha 90.000000
_cell_angle_beta 76.222661
_cell_angle_gamma 90.000000
_cell_volume 3647.218552
_symmetry_space_group_name_H-M "C 2/M"
_symmetry_group_IT_number 12
_symmetry_cell_setting 'monoclinic'
loop_
_space_group_symop_operation_xyz
x,y,z
-x,y,-z
-x,-y,-z
x,-y,z
1/2+x,1/2+y,z
1/2-x,1/2+y,-z
1/2-x,1/2-y,-z
1/2+x,1/2-y,z
loop_
_atom_site_type_symbol
_atom_site_label
_atom_site_fract_x
_atom_site_fract_y
_atom_site_fract_z
Si Si1 0.196662 0.823226 0.422734
Si Si2 0.696416 0.823584 0.630564
Si Si3 0.608661 0.323695 0.740821
Si Si4 0.464636 0.823372 0.735621
Si Si5 0.111719 0.322286 0.366912
Si Si6 0.515135 0.320921 0.887333
Si Si7 0.939904 0.325544 0.411059
O O1 0.250225 0.793130 0.368255
O O2 0.189433 0.747417 0.529397
O O3 0.159501 0.758406 0.367957
O O4 0.190830 0.000000 0.435774
O O5 0.658156 0.756277 0.720035
O O6 0.690223 0.000000 0.625820
O O7 0.614858 0.500000 0.742223
O O8 0.568320 0.278391 0.835138
O O9 0.587289 0.275770 0.649961
O O10 0.416467 0.773442 0.712397
O O11 0.482000 0.744425 0.822184
O O12 0.505804 0.802434 0.637247
O O13 0.461695 0.000000 0.754466
O O14 0.119282 0.500000 0.357427
O O15 0.077937 0.296646 0.474466
O O16 0.512849 0.500000 0.883483
O O17 0.500000 0.273604 0.000000
O O18 0.930050 0.500000 0.394926
#
# Coordination Sequence:
#
# PCOD9171454 Si02
#       7
#     8   8   8   8   8   8   8
#     4  10  20  30  43  63  90 124 161 193 220 261
#     4  10  19  31  44  62  90 124 157 191 230 264
#     4  10  18  28  46  69  91 118 154 191 225 269
#     4   9  18  30  45  67  92 120 155 187 221 271
#     4  10  18  28  43  64  93 127 155 184 224 264
#     4   9  19  35  51  69  94 120 147 186 236 280
#     4   9  16  27  42  61  90 125 154 181 217 262
#
# _framework density 15.354165
#
# number of rings (size 3 to 8) (size 9 to 14) (size 15 to 20)
#    0.000    2.429    1.429    1.714    0.000    4.857 
#    0.000    0.000    0.000    4.286    0.000    1.000 
#    0.000    0.000    0.000    0.000    0.000    0.000 
#
# Total GULP energy -156055.593586 kJ/mol
# GULP energy per Si atom -5573.414057 kJ/mol
# Density = 1.531922 g / cm^3
# Si number density = 15.354165 Si / 1000 Ang^3
#
#
#
# Elastic Constant Matrix: (Units=GPa)
#
#
# Indices 1 2 3 4 5 6 
#
# 1 135.6077 48.2336 60.6580 0.0000 -6.7059 0.0000
# 2 48.2336 38.8328 34.7242 0.0000 -6.0565 0.0000
# 3 60.6580 34.7242 80.8825 0.0000 -8.8932 0.0000
# 4 0.0000 0.0000 0.0000 16.1914 0.0000 -1.2487
# 5 -6.7059 -6.0565 -8.8932 0.0000 13.1379 0.0000
# 6 0.0000 0.0000 0.0000 -1.2487 0.0000 26.9672
#
#
#
# Elastic Compliance Matrix: (Units=1/GPa)
#
#
# Indices 1 2 3 4 5 6 
#
# 1 0.014454 -0.013638 -0.005256 0.000000 -0.002467 0.000000
# 2 -0.013638 0.055397 -0.012438 0.000000 0.010157 0.000000
# 3 -0.005256 -0.012438 0.022386 0.000000 0.006737 0.000000
# 4 0.000000 0.000000 0.000000 0.061983 0.000000 0.002870
# 5 -0.002467 0.010157 0.006737 0.000000 0.084099 0.000000
# 6 0.000000 0.000000 0.000000 0.002870 0.000000 0.037215
#
#
# Mechanical properties :
#
#
# Convention : Reuss Voigt Hill
#
# Bulk Modulus (GPa) = 33.81503 60.28383 47.04943
# Shear Modulus (GPa) = 14.36547 18.70643 16.53595
#
# Velocity S-wave (km/s) = 3.06209 3.49424 3.28528
# Velocity P-wave (km/s) = 5.87988 7.45836 6.71566
#
# Compressibility (1/GPa) = 0.02957265
#
# Stress axis : x y z
#
# Youngs Moduli (GPa) = 69.18423 18.05137 44.67037
#
# Poissons Ratio (x) = 0.24618 0.23480
# Poissons Ratio (y) = 0.94353 0.55563
# Poissons Ratio (z) = 0.36365 0.22453
#
# Static dielectric constant tensor:
#      x y z
#    x 1.535550 0.000000 -0.022860 
#    y 0.000000 1.513650 0.000000 
#    z -0.022860 0.000000 1.490140 
# 
# From -- ./inp_files/247751.got.cif
#   From: 2010.05.17/outbox.cif.g08.bks.cpg/sg12_124_cif.got.tgz:247751.got - 2010.06.03 13:09:07.
