data_PCOD9171203
_publ_section_title
;
Structure prediction by ZEFSAII (Michael W. Deem and Ramdas Pophale) SiO2 
 PCOD9171203
Probable space group: C 2/M
;
_chemical_formula_sum "Si O2"
_cell_formula_units_Z 44
_cell_length_a 22.673358
_cell_length_b 16.458734
_cell_length_c 14.420018
_cell_angle_alpha 90.000000
_cell_angle_beta 31.709604
_cell_angle_gamma 90.000000
_cell_volume 2828.428546
_symmetry_space_group_name_H-M "C 2/M"
_symmetry_group_IT_number 12
_symmetry_cell_setting 'monoclinic'
loop_
_space_group_symop_operation_xyz
x,y,z
-x,y,-z
-x,-y,-z
x,-y,z
1/2+x,1/2+y,z
1/2-x,1/2+y,-z
1/2-x,1/2-y,-z
1/2+x,1/2-y,z
loop_
_atom_site_type_symbol
_atom_site_label
_atom_site_fract_x
_atom_site_fract_y
_atom_site_fract_z
Si Si1 0.875610 0.098365 0.330705
Si Si2 0.868452 0.596110 0.276277
Si Si3 0.185728 0.901634 0.233276
Si Si4 0.988924 0.097919 0.367240
Si Si5 0.000000 0.184582 0.000000
Si Si6 0.602652 0.832431 0.964881
O O1 0.747453 0.123887 0.522609
O O2 0.950744 0.126979 0.317709
O O3 0.925744 0.132647 0.169482
O O4 0.877058 0.000000 0.327463
O O5 0.878412 0.500000 0.275123
O O6 0.866844 0.615103 0.168302
O O7 0.980782 0.638488 0.162592
O O8 0.106821 0.884509 0.428346
O O9 0.299505 0.851723 0.094251
O O10 0.109147 0.877491 0.247810
O O11 0.206175 0.000000 0.203869
O O12 0.993205 0.000000 0.357225
O O13 0.919305 0.243033 0.046675
#
# Coordination Sequence:
#
# PCOD9171203 Si02
#       6
#     8   8   8   8   4   8
#     4  10  18  33  49  65  85 118 160 195 216 248
#     4   9  16  26  45  67  89 117 146 181 226 269
#     4   9  14  26  45  71  96 114 139 179 227 278
#     4   8  15  25  46  70  89 113 147 186 224 258
#     4  10  23  32  41  64  92 128 160 180 213 256
#     4  10  18  27  42  69 100 118 137 172 235 284
#
# _framework density 15.556341
#
# number of rings (size 3 to 8) (size 9 to 14) (size 15 to 20)
#    0.000    2.909    1.818    3.545    0.000    2.909 
#    0.000    0.909    0.000    0.000    0.000    0.000 
#    0.000    7.273    0.000    0.000    0.000    0.000 
#
# Total GULP energy -122473.101598 kJ/mol
# GULP energy per Si atom -5566.959164 kJ/mol
# Density = 1.552093 g / cm^3
# Si number density = 15.556341 Si / 1000 Ang^3
#
#
#
# Elastic Constant Matrix: (Units=GPa)
#
#
# Indices 1 2 3 4 5 6 
#
# 1 89.2167 27.8692 74.1053 0.0000 -27.5932 0.0000
# 2 27.8692 25.1386 27.8554 0.0000 -5.3782 0.0000
# 3 74.1053 27.8554 111.6246 0.0000 -12.4689 0.0000
# 4 0.0000 0.0000 0.0000 142.1596 0.0000 39.2586
# 5 -27.5932 -5.3782 -12.4689 0.0000 28.7209 0.0000
# 6 0.0000 0.0000 0.0000 39.2586 0.0000 -37.4331
#
#
#
# Elastic Compliance Matrix: (Units=1/GPa)
#
#
# Indices 1 2 3 4 5 6 
#
# 1 0.043460 -0.018772 -0.020911 0.000000 0.029161 0.000000
# 2 -0.018772 0.063666 -0.004317 0.000000 -0.007987 0.000000
# 3 -0.020911 -0.004317 0.022684 0.000000 -0.011050 0.000000
# 4 0.000000 0.000000 0.000000 0.005455 0.000000 0.005721
# 5 0.029161 -0.007987 -0.011050 0.000000 0.056541 0.000000
# 6 0.000000 0.000000 0.000000 0.005721 0.000000 -0.020715
#
#
# Mechanical properties :
#
#
# Convention : Reuss Voigt Hill
#
# Bulk Modulus (GPa) = 23.91779 53.95997 38.93888
# Shear Modulus (GPa) = 18.31326 33.09947 25.70637
#
# Velocity S-wave (km/s) = 3.43479 4.61772 4.06947
# Velocity P-wave (km/s) = 5.58020 7.94942 6.86775
#
# Compressibility (1/GPa) = 0.04180988
#
# Stress axis : x y z
#
# Youngs Moduli (GPa) = 23.00957 15.70705 44.08444
#
# Poissons Ratio (x) = 0.29485 0.92183
# Poissons Ratio (y) = 0.43193 0.19033
# Poissons Ratio (z) = 0.48114 0.06781
#
# Static dielectric constant tensor:
#      x y z
#    x 1.538270 0.000000 -0.023770 
#    y 0.000000 1.514800 0.000000 
#    z -0.023770 0.000000 1.513230 
# 
# From -- ./inp_files/240338.got.cif
#   From: 2010.05.17/outbox.cif.g08.bks.cpg/sg12_121_cif.got.tgz:240338.got - 2010.06.03 13:09:07.
