data_PCOD9171776
_publ_section_title
;
Structure prediction by ZEFSAII (Michael W. Deem and Ramdas Pophale) SiO2 
 PCOD9171776
Probable space group: C 2/M
;
_chemical_formula_sum "Si O2"
_cell_formula_units_Z 56
_cell_length_a 10.438296
_cell_length_b 23.353090
_cell_length_c 18.277626
_cell_angle_alpha 90.000000
_cell_angle_beta 37.289902
_cell_angle_gamma 90.000000
_cell_volume 2699.339844
_symmetry_space_group_name_H-M "C 2/M"
_symmetry_group_IT_number 12
_symmetry_cell_setting 'monoclinic'
loop_
_space_group_symop_operation_xyz
x,y,z
-x,y,-z
-x,-y,-z
x,-y,z
1/2+x,1/2+y,z
1/2-x,1/2+y,-z
1/2-x,1/2-y,-z
1/2+x,1/2-y,z
loop_
_atom_site_type_symbol
_atom_site_label
_atom_site_fract_x
_atom_site_fract_y
_atom_site_fract_z
Si Si1 0.183386 0.564141 0.207384
Si Si2 0.285538 0.309404 0.145231
Si Si3 0.480171 0.859610 0.094745
Si Si4 0.536727 0.748276 0.146186
Si Si5 0.878006 0.062961 0.911030
Si Si6 0.430928 0.566178 0.717836
Si Si7 0.122012 0.432662 0.514302
O O1 0.145161 0.500000 0.189970
O O2 0.176055 0.629024 0.180230
O O3 0.426589 0.562393 0.123380
O O4 0.024531 0.567497 0.348344
O O5 0.377534 0.300052 0.186456
O O6 0.127047 0.259582 0.186706
O O7 0.500000 0.307173 0.000000
O O8 0.430113 0.806570 0.168116
O O9 0.290228 0.903181 0.192151
O O10 0.500000 0.842458 0.000000
O O11 0.704019 0.890067 0.007166
O O12 0.750000 0.750000 0.000000
O O13 0.969330 0.070345 0.787930
O O14 0.774254 0.000000 0.958077
O O15 0.402492 0.500000 0.710136
O O16 0.640824 0.590851 0.584402
O O17 0.159750 0.500000 0.478869
O O18 0.000000 0.407191 0.500000
#
# Coordination Sequence:
#
# PCOD9171776 Si02
#       7
#     8   8   8   8   8   8   8
#     4  10  19  31  53  82 111 145 182 230 287 338
#     4  10  21  37  56  81 112 147 190 233 279 337
#     4  10  18  28  47  76 106 141 184 229 281 338
#     4  10  20  36  55  77 107 147 188 230 275 334
#     4   9  15  24  41  71 111 144 174 221 278 334
#     4   9  16  26  43  72 111 148 182 225 276 326
#     4   9  15  28  48  75 110 147 191 233 271 329
#
# _framework density 20.745815
#
# number of rings (size 3 to 8) (size 9 to 14) (size 15 to 20)
#    0.000    2.429    1.429    3.429    0.000    3.143 
#    0.000    1.429    0.000    1.714    0.000    4.000 
#    0.000    0.000    0.000    0.000    0.000    0.000 
#
# Total GULP energy -155932.341951 kJ/mol
# GULP energy per Si atom -5569.012213 kJ/mol
# Density = 2.069860 g / cm^3
# Si number density = 20.745815 Si / 1000 Ang^3
#
#
#
# Elastic Constant Matrix: (Units=GPa)
#
#
# Indices 1 2 3 4 5 6 
#
# 1 58.2545 22.8536 24.7194 -0.0006 -4.9936 0.0013
# 2 22.8536 69.4057 9.7872 0.0036 -1.2788 -0.0018
# 3 24.7194 9.7872 65.8022 0.0063 -13.2147 -0.0122
# 4 -0.0006 0.0036 0.0063 -2.2580 0.0008 13.0828
# 5 -4.9936 -1.2788 -13.2147 0.0008 15.1875 -0.0002
# 6 0.0013 -0.0018 -0.0122 13.0828 -0.0002 9.9352
#
#
#
# Elastic Compliance Matrix: (Units=1/GPa)
#
#
# Indices 1 2 3 4 5 6 
#
# 1 0.022961 -0.006484 -0.007579 -0.000013 0.000409 0.000004
# 2 -0.006484 0.016556 -0.000212 0.000006 -0.000922 -0.000004
# 3 -0.007579 -0.000212 0.021292 0.000026 0.016017 -0.000007
# 4 -0.000013 0.000006 0.000026 -0.051320 0.000022 0.067579
# 5 0.000409 -0.000922 0.016017 0.000022 0.079837 -0.000008
# 6 0.000004 -0.000004 -0.000007 0.067579 -0.000008 0.011664
#
#
# Mechanical properties :
#
#
# Convention : Reuss Voigt Hill
#
# Bulk Modulus (GPa) = 30.99895 34.24253 32.62074
# Shear Modulus (GPa) = 35.63984 13.64642 24.64313
#
# Velocity S-wave (km/s) = 4.14929 2.56753 3.45027
# Velocity P-wave (km/s) = 6.15875 5.03301 5.62411
#
# Compressibility (1/GPa) = 0.03225916
#
# Stress axis : x y z
#
# Youngs Moduli (GPa) = 43.55229 60.40105 46.96556
#
# Poissons Ratio (x) = 0.39165 0.35595
# Poissons Ratio (y) = 0.28240 0.00995
# Poissons Ratio (z) = 0.33008 0.01279
#
# Static dielectric constant tensor:
#      x y z
#    x 1.844460 0.000000 0.000460 
#    y 0.000000 1.890380 0.000000 
#    z 0.000460 0.000000 1.825060 
# 
# From -- ./inp_files/307200.got.cif
#   From: 2010.05.17/outbox.cif.g08.bks.cpg/sg12_154_cif.got.tgz:307200.got - 2010.06.03 13:09:07.
