data_PCOD9171887
_publ_section_title
;
Structure prediction by ZEFSAII (Michael W. Deem and Ramdas Pophale) SiO2 
 PCOD9171887
Probable space group: C 2/M
;
_chemical_formula_sum "Si O2"
_cell_formula_units_Z 64
_cell_length_a 27.245315
_cell_length_b 21.942639
_cell_length_c 9.365912
_cell_angle_alpha 90.000000
_cell_angle_beta 42.853611
_cell_angle_gamma 90.000000
_cell_volume 3808.212123
_symmetry_space_group_name_H-M "C 2/M"
_symmetry_group_IT_number 12
_symmetry_cell_setting 'monoclinic'
loop_
_space_group_symop_operation_xyz
x,y,z
-x,y,-z
-x,-y,-z
x,-y,z
1/2+x,1/2+y,z
1/2-x,1/2+y,-z
1/2-x,1/2-y,-z
1/2+x,1/2-y,z
loop_
_atom_site_type_symbol
_atom_site_label
_atom_site_fract_x
_atom_site_fract_y
_atom_site_fract_z
Si Si1 0.194365 0.694165 0.599131
Si Si2 0.834532 0.149109 0.774855
Si Si3 0.036344 0.165345 0.069315
Si Si4 0.955636 0.706473 0.224595
Si Si5 0.808971 0.310670 0.072673
Si Si6 0.463458 0.431908 0.423383
Si Si7 0.577881 0.776989 0.397186
Si Si8 0.694698 0.669136 0.846700
O O1 0.250000 0.750000 0.500000
O O2 0.121667 0.718489 0.682530
O O3 0.178269 0.668481 0.791271
O O4 0.237283 0.651451 0.395931
O O5 0.760193 0.158202 0.849730
O O6 0.883861 0.096072 0.606632
O O7 0.878932 0.213452 0.667521
O O8 0.819348 0.135422 0.974319
O O9 0.002568 0.232854 0.157552
O O10 0.009138 0.117809 0.242141
O O11 0.122297 0.168809 0.905142
O O12 0.000000 0.144004 0.000000
O O13 0.935599 0.685546 0.427494
O O14 0.000000 0.674140 0.000000
O O15 0.792743 0.238332 0.124281
O O16 0.876091 0.312752 0.820780
O O17 0.500000 0.434943 0.500000
O O18 0.463792 0.500000 0.360524
O O19 0.500000 0.760772 0.500000
#
# Coordination Sequence:
#
# PCOD9171887 Si02
#       8
#     8   8   8   8   8   8   8   8
#     4  10  18  29  40  63  96 120 156 196 231 289
#     4  11  19  32  48  67  90 126 165 206 246 286
#     4  11  21  32  50  69  94 128 169 203 250 287
#     4  11  19  28  43  65  94 131 161 195 234 285
#     4  10  20  28  45  69  94 122 162 196 235 292
#     4  11  23  38  53  69  91 126 173 220 254 282
#     4  11  18  28  45  67  95 126 162 193 230 287
#     4  10  19  30  44  68  92 125 155 199 236 298
#
# _framework density 16.805786999999999
#
# number of rings (size 3 to 8) (size 9 to 14) (size 15 to 20)
#    0.000    1.375    2.500    9.375    1.750    0.250 
#    0.000    0.000    0.000    0.000    0.000    0.000 
#    0.000    0.500    0.000    0.000    0.000   27.000 
#
# Total GULP energy -178224.037594 kJ/mol
# GULP energy per Si atom -5569.501175 kJ/mol
# Density = 1.676754 g / cm^3
# Si number density = 16.805787 Si / 1000 Ang^3
#
#
#
# Elastic Constant Matrix: (Units=GPa)
#
#
# Indices 1 2 3 4 5 6 
#
# 1 82.3968 4.7406 22.6917 0.0000 1.9119 0.0000
# 2 4.7406 19.6497 9.2372 0.0000 -6.3781 0.0000
# 3 22.6917 9.2372 118.6692 0.0000 11.0709 0.0000
# 4 0.0000 0.0000 0.0000 13.8064 0.0000 -0.8307
# 5 1.9119 -6.3781 11.0709 0.0000 34.0459 0.0000
# 6 0.0000 0.0000 0.0000 -0.8307 0.0000 3.6057
#
#
#
# Elastic Compliance Matrix: (Units=1/GPa)
#
#
# Indices 1 2 3 4 5 6 
#
# 1 0.012893 -0.002178 -0.002259 0.000000 -0.000397 0.000000
# 2 -0.002178 0.058028 -0.005286 0.000000 0.012712 0.000000
# 3 -0.002259 -0.005286 0.009643 0.000000 -0.003999 0.000000
# 4 0.000000 0.000000 0.000000 0.073448 0.000000 0.016921
# 5 -0.000397 0.012712 -0.003999 0.000000 0.033076 0.000000
# 6 0.000000 0.000000 0.000000 0.016921 0.000000 0.281239
#
#
# Mechanical properties :
#
#
# Convention : Reuss Voigt Hill
#
# Bulk Modulus (GPa) = 16.36161 32.67274 24.51718
# Shear Modulus (GPa) = 9.83968 22.56134 16.20051
#
# Velocity S-wave (km/s) = 2.42232 3.66795 3.10818
# Velocity P-wave (km/s) = 4.19289 6.11736 5.24416
#
# Compressibility (1/GPa) = 0.06111868
#
# Stress axis : x y z
#
# Youngs Moduli (GPa) = 77.56165 17.23299 103.69888
#
# Poissons Ratio (x) = 0.03753 0.23423
# Poissons Ratio (y) = 0.16891 0.54820
# Poissons Ratio (z) = 0.17519 0.09110
#
# Static dielectric constant tensor:
#      x y z
#    x 1.551830 0.000000 0.039910 
#    y 0.000000 1.535870 0.000000 
#    z 0.039910 0.000000 1.681310 
# 
# From -- ./inp_files/99070.got.cif
#   From: 2010.05.17/outbox.cif.g08.bks.cpg/sg12_50_cif.got.tgz:99070.got - 2010.06.03 13:09:07.
