data_PCOD9171243
_publ_section_title
;
Structure prediction by ZEFSAII (Michael W. Deem and Ramdas Pophale) SiO2 
 PCOD9171243
Probable space group: C 2/M
;
_chemical_formula_sum "Si O2"
_cell_formula_units_Z 56
_cell_length_a 20.470746
_cell_length_b 7.514892
_cell_length_c 20.270815
_cell_angle_alpha 90.000000
_cell_angle_beta 121.338793
_cell_angle_gamma 90.000000
_cell_volume 2663.421164
_symmetry_space_group_name_H-M "C 2/M"
_symmetry_group_IT_number 12
_symmetry_cell_setting 'monoclinic'
loop_
_space_group_symop_operation_xyz
x,y,z
-x,y,-z
-x,-y,-z
x,-y,z
1/2+x,1/2+y,z
1/2-x,1/2+y,-z
1/2-x,1/2-y,-z
1/2+x,1/2-y,z
loop_
_atom_site_type_symbol
_atom_site_label
_atom_site_fract_x
_atom_site_fract_y
_atom_site_fract_z
Si Si1 0.513013 0.294989 0.343010
Si Si2 0.945842 0.218018 0.175779
Si Si3 0.198659 0.795953 0.179765
Si Si4 0.028404 0.781942 0.086862
Si Si5 0.079722 0.215180 0.507726
Si Si6 0.647481 0.208422 0.675069
Si Si7 0.772131 0.788636 0.086540
O O1 0.535742 0.500000 0.345467
O O2 0.499939 0.217938 0.263653
O O3 0.571460 0.219097 0.428219
O O4 0.428588 0.293327 0.332931
O O5 0.858933 0.274745 0.143196
O O6 0.974126 0.271841 0.118540
O O7 0.945659 0.000000 0.177102
O O8 0.114761 0.718883 0.145898
O O9 0.273815 0.716766 0.254005
O O10 0.216238 0.794292 0.110982
O O11 0.194887 0.000000 0.201441
O O12 0.029596 0.000000 0.086210
O O13 0.000000 0.724192 0.000000
O O14 0.142953 0.272940 0.593458
O O15 0.000000 0.271776 0.500000
O O16 0.080721 0.000000 0.506588
O O17 0.642521 0.000000 0.689472
O O18 0.769880 0.000000 0.095673
O O19 0.750000 0.750000 0.000000
#
# Coordination Sequence:
#
# PCOD9171243 Si02
#       7
#     8   8   8   8   8   8   8
#     4   9  16  29  47  70  96 123 164 206 239 281
#     4   9  17  30  51  74  94 125 167 207 244 284
#     4  10  20  33  50  74 101 128 162 202 246 294
#     4   9  17  31  51  72  95 125 166 210 244 284
#     4   8  15  26  43  66  95 127 159 200 238 279
#     4  10  18  27  43  70 102 129 155 192 242 298
#     4  11  21  33  52  75  99 126 159 204 253 296
#
# _framework density 21.025590000000001
#
# number of rings (size 3 to 8) (size 9 to 14) (size 15 to 20)
#    0.000    2.571    1.429    2.571    0.000    5.429 
#    0.000    0.000    0.000    6.429    0.000    0.000 
#    0.000    0.000    0.000    0.000    0.000    1.429 
#
# Total GULP energy -156172.191912 kJ/mol
# GULP energy per Si atom -5577.578283 kJ/mol
# Density = 2.097774 g / cm^3
# Si number density = 21.025590 Si / 1000 Ang^3
#
#
#
# Elastic Constant Matrix: (Units=GPa)
#
#
# Indices 1 2 3 4 5 6 
#
# 1 40.1361 -4.8643 -14.7831 0.0000 -3.7992 0.0000
# 2 -4.8643 59.5347 -5.2616 0.0000 -0.2164 0.0000
# 3 -14.7831 -5.2616 99.7345 0.0000 -17.0749 0.0000
# 4 0.0000 0.0000 0.0000 8.2708 0.0000 -6.4917
# 5 -3.7992 -0.2164 -17.0749 0.0000 30.3624 0.0000
# 6 0.0000 0.0000 0.0000 -6.4917 0.0000 -1.3637
#
#
#
# Elastic Compliance Matrix: (Units=1/GPa)
#
#
# Indices 1 2 3 4 5 6 
#
# 1 0.027858 0.002777 0.005395 0.000000 0.006540 0.000000
# 2 0.002777 0.017165 0.001546 0.000000 0.001340 0.000000
# 3 0.005395 0.001546 0.012200 0.000000 0.007547 0.000000
# 4 0.000000 0.000000 0.000000 0.025527 0.000000 -0.121520
# 5 0.006540 0.001340 0.007547 0.000000 0.038008 0.000000
# 6 0.000000 0.000000 0.000000 -0.121520 0.000000 -0.154823
#
#
# Mechanical properties :
#
#
# Convention : Reuss Voigt Hill
#
# Bulk Modulus (GPa) = 13.04449 16.62080 14.83265
# Shear Modulus (GPa) = -178.89808 22.40821 -78.24493
#
# Velocity S-wave (km/s) = -9.23421 3.26814 -6.10696
# Velocity P-wave (km/s) = 10.36709 4.70778 6.53121
#
# Compressibility (1/GPa) = 0.07666071
#
# Stress axis : x y z
#
# Youngs Moduli (GPa) = 35.89627 58.25687 81.96703
#
# Poissons Ratio (x) = -0.16176 -0.44224
# Poissons Ratio (y) = -0.09967 -0.12676
# Poissons Ratio (z) = -0.19367 -0.09009
#
# Static dielectric constant tensor:
#      x y z
#    x 1.706870 0.000000 -0.001820 
#    y 0.000000 1.798030 0.000000 
#    z -0.001820 0.000000 1.811280 
# 
# From -- ./inp_files/320248.got.cif
#   From: 2010.05.17/outbox.cif.g08.bks.cpg/sg12_161_cif.got.tgz:320248.got - 2010.06.03 13:09:07.
