data_PCOD9171762
_publ_section_title
;
Structure prediction by ZEFSAII (Michael W. Deem and Ramdas Pophale) SiO2 
 PCOD9171762
Probable space group: C 2/M
;
_chemical_formula_sum "Si O2"
_cell_formula_units_Z 56
_cell_length_a 24.087661
_cell_length_b 7.686862
_cell_length_c 19.711276
_cell_angle_alpha 90.000000
_cell_angle_beta 128.498986
_cell_angle_gamma 90.000000
_cell_volume 2856.333659
_symmetry_space_group_name_H-M "C 2/M"
_symmetry_group_IT_number 12
_symmetry_cell_setting 'monoclinic'
loop_
_space_group_symop_operation_xyz
x,y,z
-x,y,-z
-x,-y,-z
x,-y,z
1/2+x,1/2+y,z
1/2-x,1/2+y,-z
1/2-x,1/2-y,-z
1/2+x,1/2-y,z
loop_
_atom_site_type_symbol
_atom_site_label
_atom_site_fract_x
_atom_site_fract_y
_atom_site_fract_z
Si Si1 0.463096 0.709353 0.903786
Si Si2 0.307110 0.709637 0.743830
Si Si3 0.156605 0.791831 0.662858
Si Si4 0.881440 0.786808 0.516280
Si Si5 0.670334 0.302023 0.384372
Si Si6 0.515196 0.200793 0.226129
Si Si7 0.040179 0.209664 0.679775
O O1 0.460137 0.500000 0.906134
O O2 0.382130 0.771628 0.830602
O O3 0.503786 0.754753 0.865293
O O4 0.500000 0.775621 0.000000
O O5 0.311331 0.500000 0.741098
O O6 0.239165 0.754409 0.736488
O O7 0.296988 0.780530 0.658799
O O8 0.138587 0.724892 0.573659
O O9 0.102825 0.725384 0.679024
O O10 0.147183 0.000000 0.653162
O O11 0.831959 0.725657 0.541444
O O12 0.962732 0.734953 0.593403
O O13 0.879073 0.000000 0.515730
O O14 0.695318 0.500000 0.409108
O O15 0.586190 0.305775 0.300258
O O16 0.457546 0.235729 0.240050
O O17 0.535889 0.000000 0.245172
O O18 0.040842 0.000000 0.678582
#
# Coordination Sequence:
#
# PCOD9171762 Si02
#       7
#     8   8   8   8   8   8   8
#     4   9  18  35  58  77  93 119 152 182 222 285
#     4   9  18  31  46  68  97 124 149 184 235 287
#     4  10  19  29  45  68  93 127 166 201 235 270
#     4   8  14  27  47  67  86 118 170 214 232 256
#     4   8  15  30  48  63  88 128 165 194 229 278
#     4  10  18  28  47  75 100 119 146 192 242 276
#     4   9  17  31  48  64  90 130 171 201 225 266
#
# _framework density 19.605554000000001
#
# number of rings (size 3 to 8) (size 9 to 14) (size 15 to 20)
#    0.000    3.000    0.000    3.429    0.000    5.429 
#    0.000    2.857    0.000    5.143    0.000    0.000 
#    0.000    0.000    0.000    0.000    0.000    0.000 
#
# Total GULP energy -156139.168452 kJ/mol
# GULP energy per Si atom -5576.398873 kJ/mol
# Density = 1.956093 g / cm^3
# Si number density = 19.605554 Si / 1000 Ang^3
#
#
#
# Elastic Constant Matrix: (Units=GPa)
#
#
# Indices 1 2 3 4 5 6 
#
# 1 150.0218 8.0900 62.6636 0.0000 -17.6193 0.0000
# 2 8.0900 47.1851 11.5263 0.0000 1.1058 0.0001
# 3 62.6636 11.5263 124.5568 0.0000 -21.2785 0.0000
# 4 0.0000 0.0000 0.0000 -4.3604 0.0000 6.3193
# 5 -17.6193 1.1058 -21.2785 0.0000 19.4662 0.0000
# 6 0.0000 0.0001 0.0000 6.3193 0.0000 17.1599
#
#
#
# Elastic Compliance Matrix: (Units=1/GPa)
#
#
# Indices 1 2 3 4 5 6 
#
# 1 0.008682 -0.000693 -0.003633 0.000000 0.003926 0.000000
# 2 -0.000693 0.022023 -0.002472 0.000000 -0.004580 0.000000
# 3 -0.003633 -0.002472 0.011739 0.000000 0.009684 0.000000
# 4 0.000000 0.000000 0.000000 -0.149533 0.000000 0.055066
# 5 0.003926 -0.004580 0.009684 0.000000 0.065771 0.000000
# 6 0.000000 0.000000 0.000000 0.055066 0.000000 0.037997
#
#
# Mechanical properties :
#
#
# Convention : Reuss Voigt Hill
#
# Bulk Modulus (GPa) = 34.66356 54.03595 44.34976
# Shear Modulus (GPa) = 251.37777 22.41875 136.89826
#
# Velocity S-wave (km/s) = 11.33561 3.38522 8.36528
# Velocity P-wave (km/s) = 13.74943 6.54989 10.76912
#
# Compressibility (1/GPa) = 0.02884874
#
# Stress axis : x y z
#
# Youngs Moduli (GPa) = 115.18640 45.40684 85.18432
#
# Poissons Ratio (x) = 0.03147 0.30945
# Poissons Ratio (y) = 0.07983 0.21055
# Poissons Ratio (z) = 0.41844 0.11223
#
# Static dielectric constant tensor:
#      x y z
#    x 1.715620 0.000000 -0.021140 
#    y 0.000000 1.732110 0.000000 
#    z -0.021140 0.000000 1.698810 
# 
# From -- ./inp_files/287855.got.cif
#   From: 2010.05.17/outbox.cif.g08.bks.cpg/sg12_144_cif.got.tgz:287855.got - 2010.06.03 13:09:07.
