data_PCOD9171505
_publ_section_title
;
Structure prediction by ZEFSAII (Michael W. Deem and Ramdas Pophale) SiO2 
 PCOD9171505
Probable space group: C 2/M
;
_chemical_formula_sum "Si O2"
_cell_formula_units_Z 64
_cell_length_a 29.068697
_cell_length_b 7.549798
_cell_length_c 15.578984
_cell_angle_alpha 90.000000
_cell_angle_beta 89.744943
_cell_angle_gamma 90.000000
_cell_volume 3418.973425
_symmetry_space_group_name_H-M "C 2/M"
_symmetry_group_IT_number 12
_symmetry_cell_setting 'monoclinic'
loop_
_space_group_symop_operation_xyz
x,y,z
-x,y,-z
-x,-y,-z
x,-y,z
1/2+x,1/2+y,z
1/2-x,1/2+y,-z
1/2-x,1/2-y,-z
1/2+x,1/2-y,z
loop_
_atom_site_type_symbol
_atom_site_label
_atom_site_fract_x
_atom_site_fract_y
_atom_site_fract_z
Si Si1 0.662864 0.284258 0.781791
Si Si2 0.390477 0.217129 0.653694
Si Si3 0.418559 0.706245 0.323206
Si Si4 0.735006 0.204416 0.630540
Si Si5 0.260480 0.712252 0.098145
Si Si6 0.810027 0.296411 0.759955
Si Si7 0.653697 0.214679 0.525675
Si Si8 0.512001 0.204638 0.406254
O O1 0.662243 0.500000 0.776950
O O2 0.611628 0.224892 0.756919
O O3 0.696612 0.217525 0.706439
O O4 0.689263 0.229142 0.867979
O O5 0.359059 0.281985 0.732616
O O6 0.364529 0.268745 0.566373
O O7 0.442970 0.277841 0.641640
O O8 0.389724 0.000000 0.658638
O O9 0.428342 0.500000 0.309378
O O10 0.383826 0.724901 0.404211
O O11 0.466577 0.791366 0.348844
O O12 0.778692 0.296115 0.673471
O O13 0.705029 0.276586 0.551060
O O14 0.746923 0.000000 0.616424
O O15 0.260568 0.500000 0.108638
O O16 0.221262 0.783304 0.163949
O O17 0.250000 0.750000 0.000000
O O18 0.817990 0.500000 0.784637
O O19 0.654925 0.000000 0.529138
O O20 0.500000 0.285066 0.500000
O O21 0.524475 0.000000 0.424493
#
# Coordination Sequence:
#
# PCOD9171505 Si02
#       8
#     8   8   8   8   8   8   8   8
#     4   8  16  30  45  64  91 121 147 174 217 272
#     4   9  17  30  46  60  81 120 159 185 216 262
#     4  10  18  28  44  65  91 119 150 191 230 258
#     4   9  16  25  41  63  87 114 148 187 218 248
#     4   9  17  30  49  71  92 113 140 174 217 270
#     4   9  18  32  46  61  87 120 149 176 215 271
#     4   9  16  28  43  60  83 117 157 188 217 256
#     4  10  18  30  47  64  85 118 160 197 226 257
#
# _framework density 18.719071
#
# number of rings (size 3 to 8) (size 9 to 14) (size 15 to 20)
#    0.000    2.875    1.250    1.500    0.000    3.750 
#    0.000    1.250    0.000    0.000    0.000    0.875 
#    0.000    7.000    0.000    0.000    0.000    0.000 
#
# Total GULP energy -178255.649142 kJ/mol
# GULP energy per Si atom -5570.489036 kJ/mol
# Density = 1.867647 g / cm^3
# Si number density = 18.719071 Si / 1000 Ang^3
#
#
#
# Elastic Constant Matrix: (Units=GPa)
#
#
# Indices 1 2 3 4 5 6 
#
# 1 135.5294 -5.1568 67.4508 0.0000 -2.3421 0.0000
# 2 -5.1568 44.9606 1.0674 0.0000 -1.4740 0.0000
# 3 67.4508 1.0674 77.3764 0.0000 10.3882 0.0000
# 4 0.0000 0.0000 0.0000 10.6773 0.0000 7.4767
# 5 -2.3421 -1.4740 10.3882 0.0000 23.1357 0.0000
# 6 0.0000 0.0000 0.0000 7.4767 0.0000 10.2434
#
#
#
# Elastic Compliance Matrix: (Units=1/GPa)
#
#
# Indices 1 2 3 4 5 6 
#
# 1 0.014351 0.002220 -0.013573 0.000000 0.007688 0.000000
# 2 0.002220 0.022652 -0.002630 0.000000 0.002849 0.000000
# 3 -0.013573 -0.002630 0.026602 0.000000 -0.013486 0.000000
# 4 0.000000 0.000000 0.000000 0.191571 0.000000 -0.139828
# 5 0.007688 0.002849 -0.013486 0.000000 0.050239 0.000000
# 6 0.000000 0.000000 0.000000 -0.139828 0.000000 0.199685
#
#
# Mechanical properties :
#
#
# Convention : Reuss Voigt Hill
#
# Bulk Modulus (GPa) = 28.05870 42.73212 35.39541
# Shear Modulus (GPa) = 9.17524 21.77826 15.47675
#
# Velocity S-wave (km/s) = 2.21635 3.41460 2.87852
# Velocity P-wave (km/s) = 4.64451 6.19869 5.47701
#
# Compressibility (1/GPa) = 0.03563957
#
# Stress axis : x y z
#
# Youngs Moduli (GPa) = 69.68283 44.14579 37.59064
#
# Poissons Ratio (x) = -0.09801 0.51021
# Poissons Ratio (y) = -0.15471 0.09888
# Poissons Ratio (z) = 0.94579 0.11612
#
# Static dielectric constant tensor:
#      x y z
#    x 1.690370 0.000000 0.006140 
#    y 0.000000 1.505390 0.000000 
#    z 0.006140 0.000000 1.657900 
# 
# From -- ./inp_files/248241.got.cif
#   From: 2010.05.17/outbox.cif.g08.bks.cpg/sg12_125_cif.got.tgz:248241.got - 2010.06.03 13:09:07.
