data_PCOD9171782
_publ_section_title
;
Structure prediction by ZEFSAII (Michael W. Deem and Ramdas Pophale) SiO2 
 PCOD9171782
Probable space group: C 2/M
;
_chemical_formula_sum "Si O2"
_cell_formula_units_Z 56
_cell_length_a 21.169420
_cell_length_b 7.885246
_cell_length_c 20.530891
_cell_angle_alpha 90.000000
_cell_angle_beta 58.915704
_cell_angle_gamma 90.000000
_cell_volume 2935.033328
_symmetry_space_group_name_H-M "C 2/M"
_symmetry_group_IT_number 12
_symmetry_cell_setting 'monoclinic'
loop_
_space_group_symop_operation_xyz
x,y,z
-x,y,-z
-x,-y,-z
x,-y,z
1/2+x,1/2+y,z
1/2-x,1/2+y,-z
1/2-x,1/2-y,-z
1/2+x,1/2-y,z
loop_
_atom_site_type_symbol
_atom_site_label
_atom_site_fract_x
_atom_site_fract_y
_atom_site_fract_z
Si Si1 0.324254 0.795873 0.499632
Si Si2 0.466665 0.295950 0.825800
Si Si3 0.403937 0.797111 0.333967
Si Si4 0.799460 0.798529 0.911459
Si Si5 0.783186 0.204632 0.176686
Si Si6 0.244413 0.203642 0.665235
Si Si7 0.548104 0.707556 0.912853
O O1 0.250000 0.750000 0.500000
O O2 0.387740 0.734942 0.416473
O O3 0.306635 0.730971 0.581650
O O4 0.330782 0.000000 0.500485
O O5 0.463149 0.500000 0.832459
O O6 0.517978 0.254907 0.737047
O O7 0.383162 0.229185 0.869252
O O8 0.510156 0.234238 0.866530
O O9 0.336438 0.736963 0.323350
O O10 0.399959 0.000000 0.336572
O O11 0.761468 0.750213 0.863823
O O12 0.805199 0.000000 0.910220
O O13 0.750000 0.750000 0.000000
O O14 0.752321 0.267884 0.262607
O O15 0.867705 0.264186 0.126385
O O16 0.785005 0.000000 0.179106
O O17 0.251906 0.000000 0.663693
O O18 0.548789 0.500000 0.911727
O O19 0.500000 0.760779 0.000000
#
# Coordination Sequence:
#
# PCOD9171782 Si02
#       7
#     8   8   8   8   8   8   8
#     4   8  15  26  43  71 105 138 171 208 254 304
#     4  10  20  36  55  74 100 139 179 210 253 317
#     4  10  18  28  47  78 111 136 166 219 268 299
#     4  11  24  40  58  77 103 138 176 218 260 314
#     4  10  19  33  55  78 103 137 174 216 260 307
#     4   9  16  30  51  74 104 143 180 208 248 317
#     4   9  16  29  51  75  96 124 167 212 252 303
#
# _framework density 19.079851999999999
#
# number of rings (size 3 to 8) (size 9 to 14) (size 15 to 20)
#    0.000    2.429    1.429    1.714    0.000    4.571 
#    0.000    0.000    0.000    2.571    0.000    6.000 
#    0.000    0.000    0.000    0.000    0.000    0.000 
#
# Total GULP energy -156088.439805 kJ/mol
# GULP energy per Si atom -5574.587136 kJ/mol
# Density = 1.903642 g / cm^3
# Si number density = 19.079852 Si / 1000 Ang^3
#
#
#
# Elastic Constant Matrix: (Units=GPa)
#
#
# Indices 1 2 3 4 5 6 
#
# 1 99.6786 4.0699 66.7732 0.0005 -7.7616 0.0004
# 2 4.0699 17.0003 8.6791 0.0008 3.1919 0.0034
# 3 66.7732 8.6791 192.0831 0.0005 -9.4688 -0.0005
# 4 0.0005 0.0008 0.0005 15.8314 0.0002 2.1697
# 5 -7.7616 3.1919 -9.4688 0.0002 24.7386 -0.0002
# 6 0.0004 0.0034 -0.0005 2.1697 -0.0002 19.8545
#
#
#
# Elastic Compliance Matrix: (Units=1/GPa)
#
#
# Indices 1 2 3 4 5 6 
#
# 1 0.013252 -0.001418 -0.004412 0.000000 0.002652 0.000000
# 2 -0.001418 0.062386 -0.002797 -0.000001 -0.009565 -0.000011
# 3 -0.004412 -0.002797 0.006947 0.000000 0.001636 0.000001
# 4 0.000000 -0.000001 0.000000 0.064126 -0.000001 -0.007008
# 5 0.002652 -0.009565 0.001636 -0.000001 0.043115 0.000002
# 6 0.000000 -0.000011 0.000001 -0.007008 0.000002 0.051132
#
#
# Mechanical properties :
#
#
# Convention : Reuss Voigt Hill
#
# Bulk Modulus (GPa) = 15.30692 51.97848 33.64270
# Shear Modulus (GPa) = 17.85780 27.36755 22.61268
#
# Velocity S-wave (km/s) = 3.06265 3.79142 3.44635
# Velocity P-wave (km/s) = 4.53281 6.81676 5.78855
#
# Compressibility (1/GPa) = 0.06532992
#
# Stress axis : x y z
#
# Youngs Moduli (GPa) = 75.45925 16.02927 143.95045
#
# Poissons Ratio (x) = 0.02273 0.63511
# Poissons Ratio (y) = 0.10701 0.40268
# Poissons Ratio (z) = 0.33293 0.04484
#
# Static dielectric constant tensor:
#      x y z
#    x 1.395070 0.000000 -0.336830 
#    y 0.000000 1.673470 -0.000010 
#    z -0.336830 -0.000010 1.240130 
# 
# From -- ./inp_files/319000.got.cif
#   From: 2010.05.17/outbox.cif.g08.bks.cpg/sg12_160_cif.got.tgz:319000.got - 2010.06.03 13:09:07.
