data_PCOD9171837
_publ_section_title
;
Structure prediction by ZEFSAII (Michael W. Deem and Ramdas Pophale) SiO2 
 PCOD9171837
Probable space group: C 2/M
;
_chemical_formula_sum "Si O2"
_cell_formula_units_Z 58
_cell_length_a 24.273222
_cell_length_b 7.741361
_cell_length_c 13.639642
_cell_angle_alpha 90.000000
_cell_angle_beta 57.781309
_cell_angle_gamma 90.000000
_cell_volume 2168.343005
_symmetry_space_group_name_H-M "C 2/M"
_symmetry_group_IT_number 12
_symmetry_cell_setting 'monoclinic'
loop_
_space_group_symop_operation_xyz
x,y,z
-x,y,-z
-x,-y,-z
x,-y,z
1/2+x,1/2+y,z
1/2-x,1/2+y,-z
1/2-x,1/2-y,-z
1/2+x,1/2-y,z
loop_
_atom_site_type_symbol
_atom_site_label
_atom_site_fract_x
_atom_site_fract_y
_atom_site_fract_z
Si Si1 0.366634 0.699881 0.293351
Si Si2 0.488492 0.698370 0.290548
Si Si3 0.405957 0.797449 0.541183
Si Si4 0.000000 0.500000 0.000000
Si Si5 0.732144 0.299127 0.355207
Si Si6 0.732100 0.700310 0.897815
Si Si7 0.871793 0.706729 0.792223
Si Si8 0.093554 0.794826 0.974165
O O1 0.359195 0.500000 0.331835
O O2 0.428445 0.784153 0.289103
O O3 0.294599 0.777947 0.364984
O O4 0.386473 0.704731 0.160171
O O5 0.487435 0.500000 0.262080
O O6 0.464473 0.715656 0.425400
O O7 0.562961 0.754565 0.209519
O O8 0.338147 0.770369 0.546767
O O9 0.390724 0.729571 0.664420
O O10 0.420048 0.000000 0.536013
O O11 0.963139 0.654434 0.970620
O O12 0.724348 0.500000 0.341559
O O13 0.748834 0.207302 0.236407
O O14 0.725859 0.500000 0.928051
O O15 0.798403 0.774516 0.883718
O O16 0.658914 0.773028 0.967342
O O17 0.864919 0.500000 0.794199
O O18 0.080310 0.000000 0.008665
#
# Coordination Sequence:
#
# PCOD9171837 Si02
#       8
#     8   8   8   2   8   8   8   8
#     4   9  20  37  51  67 104 144 171 206 261 323
#     4  11  22  33  47  71  99 133 183 228 266 306
#     4  10  20  34  48  65  97 139 177 224 277 316
#     4  12  22  32  60  98 116 132 170 204 252 336
#     4  10  18  28  49  73  93 128 175 223 265 303
#     4   8  16  32  52  72 104 141 168 205 259 312
#     4   9  18  33  50  70  98 136 182 220 267 309
#     4   9  19  37  57  83 120 144 163 207 263 314
#
# _framework density 26.748536000000001
#
# number of rings (size 3 to 8) (size 9 to 14) (size 15 to 20)
#    0.000    2.483    0.000    4.345    3.862    6.069 
#    0.000    0.000    0.000    0.000    0.000    0.966 
#    0.000    0.000    0.000    0.000    0.000    0.000 
#
# Total GULP energy -161950.410004 kJ/mol
# GULP energy per Si atom -5584.496897 kJ/mol
# Density = 2.668766 g / cm^3
# Si number density = 26.748536 Si / 1000 Ang^3
#
#
#
# Elastic Constant Matrix: (Units=GPa)
#
#
# Indices 1 2 3 4 5 6 
#
# 1 267.9320 40.8025 52.0932 0.0000 -27.8734 0.0000
# 2 40.8025 81.3127 23.7366 0.0000 -12.2350 0.0001
# 3 52.0932 23.7366 100.4352 0.0000 -35.1169 0.0000
# 4 0.0000 0.0000 0.0000 11.8998 0.0000 -2.2570
# 5 -27.8734 -12.2350 -35.1169 0.0000 57.3572 0.0000
# 6 0.0000 0.0001 0.0000 -2.2570 0.0000 34.2397
#
#
#
# Elastic Compliance Matrix: (Units=1/GPa)
#
#
# Indices 1 2 3 4 5 6 
#
# 1 0.004373 -0.001604 -0.001610 0.000000 0.000797 0.000000
# 2 -0.001604 0.013858 -0.002140 0.000000 0.000866 0.000000
# 3 -0.001610 -0.002140 0.013824 0.000000 0.007225 0.000000
# 4 0.000000 0.000000 0.000000 0.085099 0.000000 0.005610
# 5 0.000797 0.000866 0.007225 0.000000 0.022430 0.000000
# 6 0.000000 0.000000 0.000000 0.005610 0.000000 0.029576
#
#
# Mechanical properties :
#
#
# Convention : Reuss Voigt Hill
#
# Bulk Modulus (GPa) = 46.84903 75.88269 61.36586
# Shear Modulus (GPa) = 26.74028 42.90249 34.82138
#
# Velocity S-wave (km/s) = 3.16522 4.00924 3.61197
# Velocity P-wave (km/s) = 5.55975 7.06134 6.35505
#
# Compressibility (1/GPa) = 0.02134516
#
# Stress axis : x y z
#
# Youngs Moduli (GPa) = 228.69955 72.15886 72.33954
#
# Poissons Ratio (x) = 0.11576 0.11648
# Poissons Ratio (y) = 0.36688 0.15483
# Poissons Ratio (z) = 0.36825 0.15444
#
# Static dielectric constant tensor:
#      x y z
#    x 2.204510 0.000000 0.054050 
#    y 0.000000 2.240770 0.000000 
#    z 0.054050 0.000000 2.178630 
# 
# From -- ./inp_files/281093.got.cif
#   From: 2010.05.17/outbox.cif.g08.bks.cpg/sg12_141_cif.got.tgz:281093.got - 2010.06.03 13:09:07.
