data_PCOD9171423
_publ_section_title
;
Structure prediction by ZEFSAII (Michael W. Deem and Ramdas Pophale) SiO2 
 PCOD9171423
Probable space group: C 2/M
;
_chemical_formula_sum "Si O2"
_cell_formula_units_Z 36
_cell_length_a 5.723587
_cell_length_b 33.378778
_cell_length_c 9.073915
_cell_angle_alpha 90.000000
_cell_angle_beta 117.057367
_cell_angle_gamma 90.000000
_cell_volume 1543.805127
_symmetry_space_group_name_H-M "C 2/M"
_symmetry_group_IT_number 12
_symmetry_cell_setting 'monoclinic'
loop_
_space_group_symop_operation_xyz
x,y,z
-x,y,-z
-x,-y,-z
x,-y,z
1/2+x,1/2+y,z
1/2-x,1/2+y,-z
1/2-x,1/2-y,-z
1/2+x,1/2-y,z
loop_
_atom_site_type_symbol
_atom_site_label
_atom_site_fract_x
_atom_site_fract_y
_atom_site_fract_z
Si Si1 0.060312 0.000000 0.846278
Si Si2 0.204273 0.500000 0.365250
Si Si3 0.499022 0.642749 0.177993
Si Si4 0.000000 0.594815 0.000000
Si Si5 0.090076 0.235318 0.805135
Si Si6 0.324716 0.930641 0.262107
O O1 0.913718 0.959144 0.759740
O O2 0.313860 0.000000 0.818329
O O3 0.000000 0.000000 0.000000
O O4 0.500000 0.500000 0.500000
O O5 0.071399 0.458318 0.374416
O O6 0.482408 0.688489 0.220125
O O7 0.742473 0.613805 0.290816
O O8 0.225428 0.621444 0.141043
O O9 0.500000 0.644082 0.000000
O O10 0.854841 0.572617 0.092184
O O11 0.304454 0.243768 0.738775
O O12 0.250000 0.250000 0.000000
#
# Coordination Sequence:
#
# PCOD9171423 Si02
#       6
#     4   4   8   4   8   8
#     4  11  20  37  56  84 109 143 192 234 289 357
#     4  11  24  41  58  77 111 152 195 252 301 346
#     4  10  18  28  46  71 107 148 188 232 285 351
#     4  10  18  31  50  78 110 146 184 232 288 349
#     4  10  18  28  42  69 106 155 194 230 288 358
#     4  10  21  32  52  78 103 144 190 239 286 351
#
# _framework density 23.319004
#
# number of rings (size 3 to 8) (size 9 to 14) (size 15 to 20)
#    0.000    1.778    2.222    6.000    3.111    3.556 
#    0.000    0.000    0.000    0.000    0.000    0.000 
#    0.000    1.778    0.000    0.444    0.000    0.000 
#
# Total GULP energy -100285.859379 kJ/mol
# GULP energy per Si atom -5571.436632 kJ/mol
# Density = 2.326593 g / cm^3
# Si number density = 23.319004 Si / 1000 Ang^3
#
#
#
# Elastic Constant Matrix: (Units=GPa)
#
#
# Indices 1 2 3 4 5 6 
#
# 1 159.4367 85.0077 21.5175 0.0000 3.4617 0.0000
# 2 85.0077 219.5679 26.5293 0.0000 28.4530 0.0000
# 3 21.5175 26.5293 46.6102 0.0000 0.2333 0.0000
# 4 0.0000 0.0000 0.0000-1092.9357 0.0000 -843.4507
# 5 3.4617 28.4530 0.2333 0.0000 40.5224 0.0000
# 6 0.0000 0.0000 0.0000 -843.4507 0.0000 -609.8334
#
#
#
# Elastic Compliance Matrix: (Units=1/GPa)
#
#
# Indices 1 2 3 4 5 6 
#
# 1 0.008172 -0.003116 -0.002006 0.000000 0.001501 0.000000
# 2 -0.003116 0.006603 -0.002298 0.000000 -0.004357 0.000000
# 3 -0.002006 -0.002298 0.023681 0.000000 0.001649 0.000000
# 4 0.000000 0.000000 0.000000 0.013582 0.000000 -0.018785
# 5 0.001501 -0.004357 0.001649 0.000000 0.027599 0.000000
# 6 0.000000 0.000000 0.000000 -0.018785 0.000000 0.024341
#
#
# Mechanical properties :
#
#
# Convention : Reuss Voigt Hill
#
# Bulk Modulus (GPa) = 42.34693 76.85821 59.60257
# Shear Modulus (GPa) = 39.46657 -312.94532 -136.73937
#
# Velocity S-wave (km/s) = 4.11842 -11.59712 -7.66589
# Velocity P-wave (km/s) = 6.38862 12.09517 7.26219
#
# Compressibility (1/GPa) = 0.02361446
#
# Stress axis : x y z
#
# Youngs Moduli (GPa) = 122.37590 151.44721 42.22881
#
# Poissons Ratio (x) = 0.47188 0.08473
# Poissons Ratio (y) = 0.38130 0.09704
# Poissons Ratio (z) = 0.24554 0.34803
#
# Static dielectric constant tensor:
#      x y z
#    x 1.921160 0.000000 0.014670 
#    y 0.000000 1.883780 0.000000 
#    z 0.014670 0.000000 2.034670 
# 
# From -- ./inp_files/115965.got.cif
#   From: 2010.05.17/outbox.cif.g08.bks.cpg/sg12_58_cif.got.tgz:115965.got - 2010.06.03 13:09:07.
