data_PCOD9171205
_publ_section_title
;
Structure prediction by ZEFSAII (Michael W. Deem and Ramdas Pophale) SiO2 
 PCOD9171205
Probable space group: C 2/M
;
_chemical_formula_sum "Si O2"
_cell_formula_units_Z 48
_cell_length_a 21.389467
_cell_length_b 15.646426
_cell_length_c 16.044364
_cell_angle_alpha 90.000000
_cell_angle_beta 25.675408
_cell_angle_gamma 90.000000
_cell_volume 2326.475782
_symmetry_space_group_name_H-M "C 2/M"
_symmetry_group_IT_number 12
_symmetry_cell_setting 'monoclinic'
loop_
_space_group_symop_operation_xyz
x,y,z
-x,y,-z
-x,-y,-z
x,-y,z
1/2+x,1/2+y,z
1/2-x,1/2+y,-z
1/2-x,1/2-y,-z
1/2+x,1/2-y,z
loop_
_atom_site_type_symbol
_atom_site_label
_atom_site_fract_x
_atom_site_fract_y
_atom_site_fract_z
Si Si1 0.939533 0.646684 0.874346
Si Si2 0.851541 0.777237 0.754619
Si Si3 0.547946 0.402200 0.220430
Si Si4 0.863914 0.591938 0.782339
Si Si5 0.730185 0.100248 0.579505
Si Si6 0.746077 0.594743 0.252083
O O1 0.910726 0.597675 0.823113
O O2 0.108965 0.657972 0.682300
O O3 0.821808 0.722928 0.013079
O O4 0.883963 0.598123 0.024326
O O5 0.921018 0.838225 0.740901
O O6 0.909056 0.681627 0.688174
O O7 0.848148 0.827805 0.671543
O O8 0.529017 0.500000 0.275970
O O9 0.396673 0.380030 0.359056
O O10 0.689642 0.406727 0.993745
O O11 0.912103 0.500000 0.690861
O O12 0.719622 0.107727 0.692678
O O13 0.702149 0.000000 0.591804
O O14 0.681900 0.500000 0.318740
#
# Coordination Sequence:
#
# PCOD9171205 Si02
#       6
#     8   8   8   8   8   8
#     4   9  17  28  45  66  92 119 147 173 212 263
#     4   9  19  30  44  63  88 120 154 183 213 256
#     4   9  17  28  43  66  96 118 139 176 221 264
#     4  10  18  33  49  62  83 117 158 195 218 249
#     4  10  18  27  42  70  99 122 139 164 217 280
#     4   9  17  27  45  67  95 123 144 168 208 269
#
# _framework density 20.632064
#
# number of rings (size 3 to 8) (size 9 to 14) (size 15 to 20)
#    1.000    1.667    0.000    4.500    0.000    2.000 
#    0.000    5.833    0.000    0.000    0.000    4.667 
#    0.000    0.000    0.000    0.000    0.000    0.000 
#
# Total GULP energy -133643.275785 kJ/mol
# GULP energy per Si atom -5568.469824 kJ/mol
# Density = 2.058511 g / cm^3
# Si number density = 20.632064 Si / 1000 Ang^3
#
#
#
# Elastic Constant Matrix: (Units=GPa)
#
#
# Indices 1 2 3 4 5 6 
#
# 1 34.6195 16.2866 30.8769 0.0000 -17.1096 0.0000
# 2 16.2866 140.1715 -8.8481 0.0001 -6.4432 0.0000
# 3 30.8769 -8.8481 69.5463 -0.0001 -18.6770 0.0000
# 4 0.0000 0.0001 -0.0001 6.6800 0.0000 0.4606
# 5 -17.1096 -6.4432 -18.6770 0.0000 36.0588 0.0000
# 6 0.0000 0.0000 0.0000 0.4606 0.0000 0.7958
#
#
#
# Elastic Compliance Matrix: (Units=1/GPa)
#
#
# Indices 1 2 3 4 5 6 
#
# 1 0.062076 -0.008051 -0.024464 0.000000 0.015344 -0.000001
# 2 -0.008051 0.008368 0.004664 0.000000 0.000090 0.000001
# 3 -0.024464 0.004664 0.026647 0.000000 0.003027 0.000001
# 4 0.000000 0.000000 0.000000 0.155923 0.000000 -0.090245
# 5 0.015344 0.000090 0.003027 0.000000 0.036598 0.000000
# 6 -0.000001 0.000001 0.000001 -0.090245 0.000000 1.308768
#
#
# Mechanical properties :
#
#
# Convention : Reuss Voigt Hill
#
# Bulk Modulus (GPa) = 24.16195 35.66312 29.91254
# Shear Modulus (GPa) = 2.99782 22.44172 12.71977
#
# Velocity S-wave (km/s) = 1.20671 3.30162 2.48565
# Velocity P-wave (km/s) = 3.69835 5.64421 4.77153
#
# Compressibility (1/GPa) = 0.04138738
#
# Stress axis : x y z
#
# Youngs Moduli (GPa) = 16.10936 119.50049 37.52834
#
# Poissons Ratio (x) = 0.96216 0.91808
# Poissons Ratio (y) = 0.12970 -0.17502
# Poissons Ratio (z) = 0.39409 -0.55730
#
# Static dielectric constant tensor:
#      x y z
#    x 1.685600 0.000000 -0.012170 
#    y 0.000000 1.769100 0.000000 
#    z -0.012170 0.000000 1.830870 
# 
# From -- ./inp_files/283986.got.cif
#   From: 2010.05.17/outbox.cif.g08.bks.cpg/sg12_142_cif.got.tgz:283986.got - 2010.06.03 13:09:07.
