data_PCOD9171060
_publ_section_title
;
Structure prediction by ZEFSAII (Michael W. Deem and Ramdas Pophale) SiO2 
 PCOD9171060
Probable space group: C 2/M
;
_chemical_formula_sum "Si O2"
_cell_formula_units_Z 48
_cell_length_a 19.250983
_cell_length_b 10.797204
_cell_length_c 27.060838
_cell_angle_alpha 90.000000
_cell_angle_beta 158.128043
_cell_angle_gamma 90.000000
_cell_volume 2095.419233
_symmetry_space_group_name_H-M "C 2/M"
_symmetry_group_IT_number 12
_symmetry_cell_setting 'monoclinic'
loop_
_space_group_symop_operation_xyz
x,y,z
-x,y,-z
-x,-y,-z
x,-y,z
1/2+x,1/2+y,z
1/2-x,1/2+y,-z
1/2-x,1/2-y,-z
1/2+x,1/2-y,z
loop_
_atom_site_type_symbol
_atom_site_label
_atom_site_fract_x
_atom_site_fract_y
_atom_site_fract_z
Si Si1 0.006047 0.634999 0.434814
Si Si2 0.870400 0.757298 0.799621
Si Si3 0.338477 0.361472 0.935795
Si Si4 0.288027 0.857876 0.645495
Si Si5 0.881986 0.636065 0.599570
Si Si6 0.281681 0.133070 0.842418
O O1 0.087752 0.500000 0.501895
O O2 0.799001 0.647416 0.319478
O O3 0.126499 0.754920 0.529816
O O4 0.987252 0.633578 0.362672
O O5 0.895178 0.682255 0.765759
O O6 0.788230 0.669991 0.789316
O O7 0.052071 0.822842 0.942379
O O8 0.255645 0.500000 0.883542
O O9 0.500000 0.370671 0.000000
O O10 0.220362 0.243367 0.838472
O O11 0.414953 0.854006 0.680202
O O12 0.218729 0.000000 0.605211
O O13 0.786538 0.500000 0.533164
O O14 0.750000 0.750000 0.500000
O O15 0.188753 0.000000 0.788679
O O16 0.500000 0.120064 0.000000
#
# Coordination Sequence:
#
# PCOD9171060 Si02
#       6
#     8   8   8   8   8   8
#     4  10  20  32  46  65  91 123 156 189 225 265
#     4  10  18  26  44  70  94 114 142 186 230 266
#     4   8  15  27  42  62  88 115 142 175 218 267
#     4  10  20  32  46  65  91 123 156 189 225 265
#     4   8  16  32  48  60  81 118 159 190 219 262
#     4   8  15  27  42  62  88 115 142 175 218 267
#
# _framework density 22.907111
#
# number of rings (size 3 to 8) (size 9 to 14) (size 15 to 20)
#    0.000    3.333    0.000    1.500    0.000    5.333 
#    0.000    0.000    0.000    0.000    0.000   18.667 
#    0.000   21.333    0.000    0.000    0.000    0.000 
#
# Total GULP energy -133657.398225 kJ/mol
# GULP energy per Si atom -5569.058259 kJ/mol
# Density = 2.285497 g / cm^3
# Si number density = 22.907111 Si / 1000 Ang^3
#
#
#
# Elastic Constant Matrix: (Units=GPa)
#
#
# Indices 1 2 3 4 5 6 
#
# 1 88.5825 46.6818 39.8432 0.0052 -35.1822 -0.0005
# 2 46.6818 217.2171 54.1835 0.0000 -24.9452 -0.0005
# 3 39.8432 54.1835 85.6939 0.0234 -40.3898 0.0033
# 4 0.0052 0.0000 0.0234 -62.8716 0.0028 -6.4046
# 5 -35.1822 -24.9452 -40.3898 0.0028 38.3359 -0.0019
# 6 -0.0005 -0.0005 0.0033 -6.4046 -0.0019 17.3059
#
#
#
# Elastic Compliance Matrix: (Units=1/GPa)
#
#
# Indices 1 2 3 4 5 6 
#
# 1 0.018701 -0.002248 0.000251 0.000002 0.015964 0.000003
# 2 -0.002248 0.005737 -0.003566 -0.000002 -0.002087 0.000000
# 3 0.000251 -0.003566 0.025470 0.000010 0.024745 0.000002
# 4 0.000002 -0.000002 0.000010 -0.015328 0.000013 -0.005672
# 5 0.015964 -0.002087 0.024745 0.000013 0.065449 0.000007
# 6 0.000003 0.000000 0.000002 -0.005672 0.000007 0.055685
#
#
# Mechanical properties :
#
#
# Convention : Reuss Voigt Hill
#
# Bulk Modulus (GPa) = 25.78524 74.76784 50.27654
# Shear Modulus (GPa) = 27.81371 15.27303 21.54337
#
# Velocity S-wave (km/s) = 3.48831 2.58493 3.07003
# Velocity P-wave (km/s) = 5.24455 6.45132 5.87898
#
# Compressibility (1/GPa) = 0.03878188
#
# Stress axis : x y z
#
# Youngs Moduli (GPa) = 53.47186 174.31946 39.26151
#
# Poissons Ratio (x) = 0.39192 -0.00984
# Poissons Ratio (y) = 0.12022 0.13999
# Poissons Ratio (z) = -0.01341 0.62155
#
# Static dielectric constant tensor:
#      x y z
#    x 1.856900 0.000000 0.021080 
#    y 0.000000 1.939240 -0.000010 
#    z 0.021080 -0.000010 1.973910 
# 
# From -- ./inp_files/346887.got.cif
#   From: 2010.05.17/outbox.cif.g08.bks.cpg/sg12_174_cif.got.tgz:346887.got - 2010.06.03 13:09:07.
