data_PCOD9171847
_publ_section_title
;
Structure prediction by ZEFSAII (Michael W. Deem and Ramdas Pophale) SiO2 
 PCOD9171847
Probable space group: C 2/M
;
_chemical_formula_sum "Si O2"
_cell_formula_units_Z 64
_cell_length_a 24.912252
_cell_length_b 8.949264
_cell_length_c 20.317747
_cell_angle_alpha 90.000000
_cell_angle_beta 126.305543
_cell_angle_gamma 90.000000
_cell_volume 3650.407823
_symmetry_space_group_name_H-M "C 2/M"
_symmetry_group_IT_number 12
_symmetry_cell_setting 'monoclinic'
loop_
_space_group_symop_operation_xyz
x,y,z
-x,y,-z
-x,-y,-z
x,-y,z
1/2+x,1/2+y,z
1/2-x,1/2+y,-z
1/2-x,1/2-y,-z
1/2+x,1/2-y,z
loop_
_atom_site_type_symbol
_atom_site_label
_atom_site_fract_x
_atom_site_fract_y
_atom_site_fract_z
Si Si1 0.163414 0.178867 0.885619
Si Si2 0.196512 0.822405 0.053370
Si Si3 0.705789 0.822108 0.193272
Si Si4 0.094111 0.820692 0.371679
Si Si5 0.831727 0.321130 0.687722
Si Si6 0.653154 0.823980 0.669875
Si Si7 0.190954 0.677200 0.548531
Si Si8 0.944541 0.179016 0.302292
O O1 0.228923 0.263772 0.908008
O O2 0.101233 0.215423 0.794321
O O3 0.175850 0.000000 0.889380
O O4 0.155331 0.213232 0.957165
O O5 0.174416 0.745968 0.104830
O O6 0.197716 0.000000 0.062878
O O7 0.168150 0.500000 0.320035
O O8 0.668643 0.786123 0.234683
O O9 0.780481 0.756987 0.255175
O O10 0.109817 0.753320 0.311583
O O11 0.148452 0.752409 0.460565
O O12 0.020614 0.779798 0.343708
O O13 0.099565 0.000000 0.373924
O O14 0.789543 0.500000 0.809374
O O15 0.762612 0.254308 0.609313
O O16 0.653734 0.802993 0.591640
O O17 0.589382 0.757952 0.660217
O O18 0.659006 0.000000 0.687599
O O19 0.199431 0.500000 0.542846
O O20 0.941393 0.000000 0.309635
#
# Coordination Sequence:
#
# PCOD9171847 Si02
#       8
#     8   8   8   8   8   8   8   8
#     4   9  18  32  49  73 107 141 170 206 252 304
#     4  10  18  28  49  80 107 133 170 210 253 304
#     4  10  19  32  52  77 106 136 167 209 262 312
#     4  11  23  37  54  76 101 136 179 215 255 308
#     4  10  21  37  57  78 101 133 173 218 264 305
#     4  10  20  33  52  78 104 134 172 211 255 305
#     4  10  21  37  56  78 105 133 167 217 266 306
#     4  10  21  36  53  73 105 144 174 207 253 308
#
# _framework density 17.532287
#
# number of rings (size 3 to 8) (size 9 to 14) (size 15 to 20)
#    0.000    2.000    1.250    2.625    0.000    5.000 
#    0.000    2.500    0.000    0.750    0.000    5.250 
#    0.000    0.000    0.000    0.000    0.000    0.000 
#
# Total GULP energy -178641.953594 kJ/mol
# GULP energy per Si atom -5582.561050 kJ/mol
# Density = 1.749238 g / cm^3
# Si number density = 17.532287 Si / 1000 Ang^3
#
#
#
# Elastic Constant Matrix: (Units=GPa)
#
#
# Indices 1 2 3 4 5 6 
#
# 1 92.3140 35.0591 10.8145 0.0000 -19.6030 0.0000
# 2 35.0591 50.1143 18.7531 0.0000 -15.1247 0.0000
# 3 10.8145 18.7531 37.7635 0.0000 -20.1349 0.0000
# 4 0.0000 0.0000 0.0000 24.2319 0.0000 -7.3938
# 5 -19.6030 -15.1247 -20.1349 0.0000 20.9946 0.0000
# 6 0.0000 0.0000 0.0000 -7.3938 0.0000 29.5937
#
#
#
# Elastic Compliance Matrix: (Units=1/GPa)
#
#
# Indices 1 2 3 4 5 6 
#
# 1 0.017547 -0.010451 0.009999 0.000000 0.018445 0.000000
# 2 -0.010451 0.032374 -0.011975 0.000000 0.002080 0.000000
# 3 0.009999 -0.011975 0.061276 0.000000 0.059476 0.000000
# 4 0.000000 0.000000 0.000000 0.044673 0.000000 0.011161
# 5 0.018445 0.002080 0.059476 0.000000 0.123394 0.000000
# 6 0.000000 0.000000 0.000000 0.011161 0.000000 0.036580
#
#
# Mechanical properties :
#
#
# Convention : Reuss Voigt Hill
#
# Bulk Modulus (GPa) = 11.58147 34.38280 22.98214
# Shear Modulus (GPa) = 13.53262 22.66838 18.10050
#
# Velocity S-wave (km/s) = 2.78127 3.59966 3.21660
# Velocity P-wave (km/s) = 4.11510 6.07704 5.18963
#
# Compressibility (1/GPa) = 0.08634480
#
# Stress axis : x y z
#
# Youngs Moduli (GPa) = 56.99004 30.88866 16.31969
#
# Poissons Ratio (x) = 0.32280 -0.16319
# Poissons Ratio (y) = 0.59558 0.19543
# Poissons Ratio (z) = -0.56986 0.36989
#
# Static dielectric constant tensor:
#      x y z
#    x 1.592010 0.000000 -0.035950 
#    y 0.000000 1.583950 0.000000 
#    z -0.035950 0.000000 1.599380 
# 
# From -- ./inp_files/320121.got.cif
#   From: 2010.05.17/outbox.cif.g08.bks.cpg/sg12_161_cif.got.tgz:320121.got - 2010.06.03 13:09:07.
