data_PCOD9171388
_publ_section_title
;
Structure prediction by ZEFSAII (Michael W. Deem and Ramdas Pophale) SiO2 
 PCOD9171388
Probable space group: C 2/M
;
_chemical_formula_sum "Si O2"
_cell_formula_units_Z 56
_cell_length_a 28.843117
_cell_length_b 8.348727
_cell_length_c 19.135559
_cell_angle_alpha 90.000000
_cell_angle_beta 48.765958
_cell_angle_gamma 90.000000
_cell_volume 3465.253179
_symmetry_space_group_name_H-M "C 2/M"
_symmetry_group_IT_number 12
_symmetry_cell_setting 'monoclinic'
loop_
_space_group_symop_operation_xyz
x,y,z
-x,y,-z
-x,-y,-z
x,-y,z
1/2+x,1/2+y,z
1/2-x,1/2+y,-z
1/2-x,1/2-y,-z
1/2+x,1/2-y,z
loop_
_atom_site_type_symbol
_atom_site_label
_atom_site_fract_x
_atom_site_fract_y
_atom_site_fract_z
Si Si1 0.747065 0.191578 0.171247
Si Si2 0.875521 0.694051 0.278209
Si Si3 0.127383 0.308481 0.026503
Si Si4 0.312386 0.193122 0.475904
Si Si5 0.000912 0.304223 0.079882
Si Si6 0.813226 0.189912 0.901058
Si Si7 0.249276 0.806047 0.673500
O O1 0.694713 0.256345 0.170848
O O2 0.741718 0.249902 0.256202
O O3 0.743769 0.000000 0.173511
O O4 0.813774 0.240910 0.074054
O O5 0.875249 0.500000 0.277043
O O6 0.865267 0.746075 0.369229
O O7 0.939299 0.749461 0.180928
O O8 0.816578 0.750563 0.291849
O O9 0.130727 0.500000 0.018352
O O10 0.134388 0.260296 0.100732
O O11 0.063599 0.252780 0.055676
O O12 0.250000 0.250000 0.500000
O O13 0.302363 0.246759 0.565768
O O14 0.314050 0.000000 0.475401
O O15 0.000745 0.500000 0.080631
O O16 0.000000 0.253736 0.000000
O O17 0.815346 0.000000 0.902647
O O18 0.750000 0.250000 0.000000
O O19 0.248614 0.000000 0.675041
#
# Coordination Sequence:
#
# PCOD9171388 Si02
#       7
#     8   8   8   8   8   8   8
#     4  10  18  28  42  61  85 109 135 167 207 249
#     4   9  16  27  43  60  81 112 145 171 196 238
#     4  10  18  29  44  60  83 112 140 169 200 237
#     4   8  14  25  40  58  80 106 136 168 204 242
#     4   9  17  27  40  61  86 111 140 170 197 229
#     4  10  18  29  44  61  82 106 136 170 205 246
#     4   9  17  27  40  61  87 110 132 168 212 246
#
# _framework density 16.160435
#
# number of rings (size 3 to 8) (size 9 to 14) (size 15 to 20)
#    0.000    2.714    0.000    4.714    0.000    2.286 
#    0.000    1.429    0.000    3.857    0.000    1.000 
#    0.000    8.000    0.000    0.000    0.000    0.000 
#
# Total GULP energy -155890.658693 kJ/mol
# GULP energy per Si atom -5567.523525 kJ/mol
# Density = 1.612365 g / cm^3
# Si number density = 16.160435 Si / 1000 Ang^3
#
#
#
# Elastic Constant Matrix: (Units=GPa)
#
#
# Indices 1 2 3 4 5 6 
#
# 1 110.5004 7.4755 65.0413 0.0003 20.7251 0.0010
# 2 7.4755 20.2773 5.0044 -0.0054 1.9697 -0.0051
# 3 65.0413 5.0044 136.5498 0.0013 18.6467 0.0000
# 4 0.0003 -0.0054 0.0013 5.5826 0.0000 1.8891
# 5 20.7251 1.9697 18.6467 0.0000 26.3796 0.0006
# 6 0.0010 -0.0051 0.0000 1.8891 0.0006 17.6174
#
#
#
# Elastic Compliance Matrix: (Units=1/GPa)
#
#
# Indices 1 2 3 4 5 6 
#
# 1 0.013766 -0.003061 -0.005533 -0.000002 -0.006675 -0.000001
# 2 -0.003061 0.050619 -0.000232 0.000046 -0.001211 0.000010
# 3 -0.005533 -0.000232 0.010373 -0.000003 -0.002968 0.000001
# 4 -0.000002 0.000046 -0.000003 0.185873 0.000000 -0.019931
# 5 -0.006675 -0.001211 -0.002968 0.000000 0.045341 -0.000002
# 6 -0.000001 0.000010 0.000001 -0.019931 -0.000002 0.058899
#
#
# Mechanical properties :
#
#
# Convention : Reuss Voigt Hill
#
# Bulk Modulus (GPa) = 17.51129 46.93000 32.22064
# Shear Modulus (GPa) = 12.45151 22.56967 17.51059
#
# Velocity S-wave (km/s) = 2.77879 3.74117 3.29530
# Velocity P-wave (km/s) = 4.59945 6.91121 5.87026
#
# Compressibility (1/GPa) = 0.05710603
#
# Stress axis : x y z
#
# Youngs Moduli (GPa) = 72.64464 19.75526 96.40784
#
# Poissons Ratio (x) = 0.06047 0.53344
# Poissons Ratio (y) = 0.22236 0.02235
# Poissons Ratio (z) = 0.40195 0.00458
#
# Static dielectric constant tensor:
#      x y z
#    x 1.532900 0.000000 0.030560 
#    y 0.000000 1.538180 0.000000 
#    z 0.030560 0.000000 1.579860 
# 
# From -- ./inp_files/291470.got.cif
#   From: 2010.05.17/outbox.cif.g08.bks.cpg/sg12_146_cif.got.tgz:291470.got - 2010.06.03 13:09:07.
