data_PCOD9171975
_publ_section_title
;
Structure prediction by ZEFSAII (Michael W. Deem and Ramdas Pophale) SiO2 
 PCOD9171975
Probable space group: C 2/M
;
_chemical_formula_sum "Si O2"
_cell_formula_units_Z 56
_cell_length_a 13.845444
_cell_length_b 30.299058
_cell_length_c 16.405110
_cell_angle_alpha 90.000000
_cell_angle_beta 147.561838
_cell_angle_gamma 90.000000
_cell_volume 3691.433578
_symmetry_space_group_name_H-M "C 2/M"
_symmetry_group_IT_number 12
_symmetry_cell_setting 'monoclinic'
loop_
_space_group_symop_operation_xyz
x,y,z
-x,y,-z
-x,-y,-z
x,-y,z
1/2+x,1/2+y,z
1/2-x,1/2+y,-z
1/2-x,1/2-y,-z
1/2+x,1/2-y,z
loop_
_atom_site_type_symbol
_atom_site_label
_atom_site_fract_x
_atom_site_fract_y
_atom_site_fract_z
Si Si1 0.458621 0.903178 0.567163
Si Si2 0.768726 0.183071 0.568298
Si Si3 0.033447 0.231438 0.431499
Si Si4 0.867870 0.183071 0.068298
Si Si5 0.460168 0.000000 0.567584
Si Si6 0.324295 0.403178 0.932837
Si Si7 0.329551 0.768562 0.931499
Si Si8 0.675000 0.500000 0.067584
O O1 0.500000 0.899487 0.500000
O O2 0.330166 0.863563 0.501728
O O3 0.375757 0.952054 0.524562
O O4 0.646710 0.900000 0.750000
O O5 0.842130 0.198436 0.532429
O O6 0.632736 0.221269 0.500885
O O7 0.939248 0.182016 0.750000
O O8 0.000000 0.217290 0.500000
O O9 0.845088 0.235438 0.250000
O O10 0.722729 0.198436 0.032430
O O11 0.826711 0.136437 0.998273
O O12 0.869034 0.221270 0.000885
O O13 0.500000 0.000000 0.500000
O O14 0.648967 0.000000 0.750000
O O15 0.326633 0.452054 0.975438
O O16 0.500000 0.399487 0.000000
O O17 0.500000 0.782710 0.000000
O O18 0.500000 0.500000 0.000000
#
# Coordination Sequence:
#
# PCOD9171975 Si02
#       8
#     8   8   8   8   4   8   8   4
#     4  10  18  29  45  65  91 120 149 181 217 258
#     4  10  20  32  46  66  90 117 149 180 216 261
#     4  10  20  33  48  65  88 117 148 183 219 257
#     4  10  20  32  46  66  90 117 149 180 216 261
#     4   8  16  28  42  62  87 116 147 178 215 258
#     4  10  18  29  45  65  91 120 149 181 217 258
#     4  10  20  33  48  65  88 117 148 183 219 257
#     4   8  16  28  42  62  87 116 147 178 215 258
#
# _framework density 15.170258
#
# number of rings (size 3 to 8) (size 9 to 14) (size 15 to 20)
#    0.000    2.286    0.000    3.429    0.000    4.571 
#    0.000    0.000    0.000    0.000    0.000    1.000 
#    0.000    0.000    0.000    0.000    0.000    0.000 
#
# Total GULP energy -156083.477781 kJ/mol
# GULP energy per Si atom -5574.409921 kJ/mol
# Density = 1.513573 g / cm^3
# Si number density = 15.170258 Si / 1000 Ang^3
#
#
#
# Elastic Constant Matrix: (Units=GPa)
#
#
# Indices 1 2 3 4 5 6 
#
# 1 72.6125 50.4210 35.6781 0.0000 0.3525 0.0000
# 2 50.4210 158.7718 49.0311 0.0000 -0.0410 0.0000
# 3 35.6781 49.0311 50.5857 0.0000 -1.0021 0.0000
# 4 0.0000 0.0000 0.0000 17.6151 0.0000 -0.0392
# 5 0.3525 -0.0410 -1.0021 0.0000 24.3955 0.0000
# 6 0.0000 0.0000 0.0000 -0.0392 0.0000 18.9357
#
#
#
# Elastic Compliance Matrix: (Units=1/GPa)
#
#
# Indices 1 2 3 4 5 6 
#
# 1 0.022144 -0.003146 -0.012586 0.000000 -0.000842 0.000000
# 2 -0.003146 0.009439 -0.006934 0.000000 -0.000224 0.000000
# 3 -0.012586 -0.006934 0.035399 0.000000 0.001624 0.000000
# 4 0.000000 0.000000 0.000000 0.056770 0.000000 0.000117
# 5 -0.000842 -0.000224 0.001624 0.000000 0.041070 0.000000
# 6 0.000000 0.000000 0.000000 0.000117 0.000000 0.052811
#
#
# Mechanical properties :
#
#
# Convention : Reuss Voigt Hill
#
# Bulk Modulus (GPa) = 46.19029 61.35892 53.77460
# Shear Modulus (GPa) = 18.50616 21.97858 20.24237
#
# Velocity S-wave (km/s) = 3.49649 3.81043 3.65683
# Velocity P-wave (km/s) = 6.84212 7.73911 7.30440
#
# Compressibility (1/GPa) = 0.02164957
#
# Stress axis : x y z
#
# Youngs Moduli (GPa) = 45.15838 105.94644 28.24971
#
# Poissons Ratio (x) = 0.33329 0.35555
# Poissons Ratio (y) = 0.14206 0.19589
# Poissons Ratio (z) = 0.56836 0.73467
#
# Static dielectric constant tensor:
#      x y z
#    x 1.481890 0.000000 0.000730 
#    y 0.000000 1.522220 0.000000 
#    z 0.000730 0.000000 1.506670 
# 
# From -- ./inp_files/209732.got.cif
#   From: 2010.05.17/outbox.cif.g08.bks.cpg/sg12_105_cif.got.tgz:209732.got - 2010.06.03 13:09:07.
