data_PCOD9171755
_publ_section_title
;
Structure prediction by ZEFSAII (Michael W. Deem and Ramdas Pophale) SiO2 
 PCOD9171755
Probable space group: C 2/M
;
_chemical_formula_sum "Si O2"
_cell_formula_units_Z 48
_cell_length_a 31.820286
_cell_length_b 8.378458
_cell_length_c 20.513105
_cell_angle_alpha 90.000000
_cell_angle_beta 150.058262
_cell_angle_gamma 90.000000
_cell_volume 2729.629974
_symmetry_space_group_name_H-M "C 2/M"
_symmetry_group_IT_number 12
_symmetry_cell_setting 'monoclinic'
loop_
_space_group_symop_operation_xyz
x,y,z
-x,y,-z
-x,-y,-z
x,-y,z
1/2+x,1/2+y,z
1/2-x,1/2+y,-z
1/2-x,1/2-y,-z
1/2+x,1/2-y,z
loop_
_atom_site_type_symbol
_atom_site_label
_atom_site_fract_x
_atom_site_fract_y
_atom_site_fract_z
Si Si1 0.387280 0.188865 0.180268
Si Si2 0.596462 0.188459 0.143266
Si Si3 0.154965 0.189561 0.087641
Si Si4 0.156996 0.813074 0.361667
Si Si5 0.262733 0.805806 0.114262
Si Si6 0.992135 0.690969 0.205661
O O1 0.351997 0.245653 0.202922
O O2 0.465742 0.249359 0.242862
O O3 0.399911 0.000000 0.204624
O O4 0.308977 0.224211 0.026537
O O5 0.647644 0.222377 0.146260
O O6 0.632391 0.277931 0.253889
O O7 0.595726 0.000000 0.156944
O O8 0.500000 0.238661 0.000000
O O9 0.236031 0.231824 0.152116
O O10 0.155063 0.000000 0.099126
O O11 0.073018 0.232677 0.933717
O O12 0.250000 0.750000 0.500000
O O13 0.086137 0.730806 0.310991
O O14 0.153752 0.000000 0.369950
O O15 0.255250 0.000000 0.097292
O O16 0.979732 0.500000 0.185838
#
# Coordination Sequence:
#
# PCOD9171755 Si02
#       6
#     8   8   8   8   8   8
#     4   8  14  24  40  62  94 132 165 201 246 297
#     4  11  22  36  55  77 104 137 175 215 258 309
#     4  10  18  28  47  74 103 135 172 212 255 301
#     4  12  25  40  57  76 103 135 173 216 261 310
#     4   8  14  24  38  63  97 130 164 203 247 295
#     4  10  18  30  48  72 101 135 173 210 254 303
#
# _framework density 17.584800999999999
#
# number of rings (size 3 to 8) (size 9 to 14) (size 15 to 20)
#    0.000    2.167    1.667    3.000    0.000    2.000 
#    0.000    0.000    0.000    0.000    0.000    1.167 
#    0.000    9.333    0.000    0.000    0.000    0.000 
#
# Total GULP energy -133694.613639 kJ/mol
# GULP energy per Si atom -5570.608902 kJ/mol
# Density = 1.754478 g / cm^3
# Si number density = 17.584801 Si / 1000 Ang^3
#
#
#
# Elastic Constant Matrix: (Units=GPa)
#
#
# Indices 1 2 3 4 5 6 
#
# 1 146.9863 -12.7559 25.9124 0.0000 17.5809 0.0000
# 2 -12.7559 13.4056 0.7610 0.0000 -1.9577 0.0000
# 3 25.9124 0.7610 40.6036 0.0000 7.6213 0.0000
# 4 0.0000 0.0000 0.0000 15.4604 0.0000 -6.1927
# 5 17.5809 -1.9577 7.6213 0.0000 13.1580 0.0000
# 6 0.0000 0.0000 0.0000 -6.1927 0.0000 10.9480
#
#
#
# Elastic Compliance Matrix: (Units=1/GPa)
#
#
# Indices 1 2 3 4 5 6 
#
# 1 0.009309 0.007842 -0.004457 0.000000 -0.008690 0.000000
# 2 0.007842 0.083440 -0.007777 0.000000 0.006442 0.000000
# 3 -0.004457 -0.007777 0.029977 0.000000 -0.012565 0.000000
# 4 0.000000 0.000000 0.000000 0.083629 0.000000 0.047304
# 5 -0.008690 0.006442 -0.012565 0.000000 0.095847 0.000000
# 6 0.000000 0.000000 0.000000 0.047304 0.000000 0.118098
#
#
# Mechanical properties :
#
#
# Convention : Reuss Voigt Hill
#
# Bulk Modulus (GPa) = 8.77650 25.42561 17.10106
# Shear Modulus (GPa) = 10.70515 20.38513 15.54514
#
# Velocity S-wave (km/s) = 2.47001 3.40847 2.97646
# Velocity P-wave (km/s) = 3.62442 5.47544 4.64310
#
# Compressibility (1/GPa) = 0.11394060
#
# Stress axis : x y z
#
# Youngs Moduli (GPa) = 107.42349 11.98472 33.35913
#
# Poissons Ratio (x) = -0.09398 0.14867
# Poissons Ratio (y) = -0.84238 0.25945
# Poissons Ratio (z) = 0.47875 0.09321
#
# Static dielectric constant tensor:
#      x y z
#    x 1.665690 0.000000 0.006910 
#    y 0.000000 1.623310 0.000000 
#    z 0.006910 0.000000 1.541820 
# 
# From -- ./inp_files/280050.got.cif
#   From: 2010.05.17/outbox.cif.g08.bks.cpg/sg12_141_cif.got.tgz:280050.got - 2010.06.03 13:09:07.
