data_PCOD9171377
_publ_section_title
;
Structure prediction by ZEFSAII (Michael W. Deem and Ramdas Pophale) SiO2 
 PCOD9171377
Probable space group: C 2/M
;
_chemical_formula_sum "Si O2"
_cell_formula_units_Z 48
_cell_length_a 24.376537
_cell_length_b 13.715241
_cell_length_c 8.262177
_cell_angle_alpha 90.000000
_cell_angle_beta 59.497170
_cell_angle_gamma 90.000000
_cell_volume 2380.004064
_symmetry_space_group_name_H-M "C 2/M"
_symmetry_group_IT_number 12
_symmetry_cell_setting 'monoclinic'
loop_
_space_group_symop_operation_xyz
x,y,z
-x,y,-z
-x,-y,-z
x,-y,z
1/2+x,1/2+y,z
1/2-x,1/2+y,-z
1/2-x,1/2-y,-z
1/2+x,1/2-y,z
loop_
_atom_site_type_symbol
_atom_site_label
_atom_site_fract_x
_atom_site_fract_y
_atom_site_fract_z
Si Si1 0.644219 0.883230 0.603074
Si Si2 0.710953 0.385524 0.926577
Si Si3 0.297230 0.387103 0.413630
Si Si4 0.789289 0.200868 0.754541
Si Si5 0.573614 0.881448 0.383997
Si Si6 0.854547 0.617795 0.047378
O O1 0.721109 0.872766 0.500418
O O2 0.608962 0.847375 0.494602
O O3 0.634462 0.000000 0.612728
O O4 0.619498 0.849365 0.815907
O O5 0.728988 0.500000 0.905625
O O6 0.675732 0.369702 0.807425
O O7 0.770898 0.311820 0.825365
O O8 0.677957 0.352566 0.142481
O O9 0.307309 0.500000 0.441416
O O10 0.317198 0.321958 0.535592
O O11 0.718829 0.150903 0.851597
O O12 0.500000 0.852877 0.500000
O O13 0.606279 0.848984 0.167576
O O14 0.576397 0.000000 0.377812
O O15 0.854362 0.500000 0.046946
#
# Coordination Sequence:
#
# PCOD9171377 Si02
#       6
#     8   8   8   8   8   8
#     4   8  14  23  35  51  71  98 127 151 178 217
#     4  10  19  28  40  59  81 104 133 169 201 229
#     4   9  16  27  42  58  78 104 134 164 192 228
#     4  10  18  28  42  58  78 106 137 164 196 234
#     4   9  16  24  35  53  76 100 125 154 189 227
#     4   9  16  26  39  53  72 100 131 158 186 227
#
# _framework density 20.168035
#
# number of rings (size 3 to 8) (size 9 to 14) (size 15 to 20)
#    0.000    2.833    0.000    4.000    0.000    3.333 
#    0.000    3.333    0.000    0.000    0.000    0.000 
#    0.000    0.667    0.000    7.333    0.000    3.333 
#
# Total GULP energy -133750.737137 kJ/mol
# GULP energy per Si atom -5572.947381 kJ/mol
# Density = 2.012213 g / cm^3
# Si number density = 20.168035 Si / 1000 Ang^3
#
#
#
# Elastic Constant Matrix: (Units=GPa)
#
#
# Indices 1 2 3 4 5 6 
#
# 1 63.0413 3.1322 45.4851 0.0000 17.6681 0.0000
# 2 3.1322 94.9946 13.2582 0.0000 20.4379 0.0000
# 3 45.4851 13.2582 132.4517 0.0000 45.9977 0.0000
# 4 0.0000 0.0000 0.0000 19.5608 0.0000 8.8545
# 5 17.6681 20.4379 45.9977 0.0000 38.7654 0.0000
# 6 0.0000 0.0000 0.0000 8.8545 0.0000 20.5027
#
#
#
# Elastic Compliance Matrix: (Units=1/GPa)
#
#
# Indices 1 2 3 4 5 6 
#
# 1 0.021196 0.000698 -0.006576 0.000000 -0.002226 0.000000
# 2 0.000698 0.012120 0.001491 0.000000 -0.008477 0.000000
# 3 -0.006576 0.001491 0.015123 0.000000 -0.015733 0.000000
# 4 0.000000 0.000000 0.000000 0.063545 0.000000 -0.027443
# 5 -0.002226 -0.008477 -0.015733 0.000000 0.049948 0.000000
# 6 0.000000 0.000000 0.000000 -0.027443 0.000000 0.060626
#
#
# Mechanical properties :
#
#
# Convention : Reuss Voigt Hill
#
# Bulk Modulus (GPa) = 25.21137 46.02650 35.61894
# Shear Modulus (GPa) = 20.44545 31.00661 25.72603
#
# Velocity S-wave (km/s) = 3.18741 3.92524 3.57541
# Velocity P-wave (km/s) = 5.10626 6.58896 5.89442
#
# Compressibility (1/GPa) = 0.03966464
#
# Stress axis : x y z
#
# Youngs Moduli (GPa) = 47.17796 82.51094 66.12607
#
# Poissons Ratio (x) = -0.05757 0.43484
# Poissons Ratio (y) = -0.03292 -0.09860
# Poissons Ratio (z) = 0.31024 -0.12303
#
# Static dielectric constant tensor:
#      x y z
#    x 1.688350 0.000000 0.064660 
#    y 0.000000 1.809630 0.000000 
#    z 0.064660 0.000000 1.871460 
# 
# From -- ./inp_files/95692.got.cif
#   From: 2010.05.17/outbox.cif.g08.bks.cpg/sg12_48_cif.got.tgz:95692.got - 2010.06.03 13:09:07.
