data_PCOD9171528
_publ_section_title
;
Structure prediction by ZEFSAII (Michael W. Deem and Ramdas Pophale) SiO2 
 PCOD9171528
Probable space group: C 2/M
;
_chemical_formula_sum "Si O2"
_cell_formula_units_Z 44
_cell_length_a 20.222580
_cell_length_b 7.239710
_cell_length_c 11.906440
_cell_angle_alpha 90.000000
_cell_angle_beta 112.624117
_cell_angle_gamma 90.000000
_cell_volume 1609.029932
_symmetry_space_group_name_H-M "C 2/M"
_symmetry_group_IT_number 12
_symmetry_cell_setting 'monoclinic'
loop_
_space_group_symop_operation_xyz
x,y,z
-x,y,-z
-x,-y,-z
x,-y,z
1/2+x,1/2+y,z
1/2-x,1/2+y,-z
1/2-x,1/2-y,-z
1/2+x,1/2-y,z
loop_
_atom_site_type_symbol
_atom_site_label
_atom_site_fract_x
_atom_site_fract_y
_atom_site_fract_z
Si Si1 0.217457 0.500000 0.877782
Si Si2 0.983694 0.775486 0.665557
Si Si3 0.266577 0.781528 0.642403
Si Si4 0.859264 0.205048 0.029533
Si Si5 0.920046 0.211572 0.843790
Si Si6 0.384521 0.724223 0.400168
O O1 0.160700 0.339348 0.884109
O O2 0.283345 0.657309 0.919250
O O3 0.972668 0.708806 0.784428
O O4 0.917199 0.721813 0.542359
O O5 0.055079 0.718411 0.647847
O O6 0.982247 0.000000 0.664971
O O7 0.250000 0.750000 0.500000
O O8 0.342883 0.708457 0.730263
O O9 0.196409 0.702805 0.661663
O O10 0.269430 0.000000 0.664550
O O11 0.907740 0.284784 0.960662
O O12 0.884786 0.000000 0.085823
O O13 0.940731 0.000000 0.875539
O O14 0.380922 0.500000 0.394452
#
# Coordination Sequence:
#
# PCOD9171528 Si02
#       6
#     4   8   8   8   8   8
#     4   8  14  28  44  62  92 118 134 172 234 288
#     4   8  13  24  42  59  78 108 150 189 210 243
#     4  11  20  29  41  60  88 120 151 182 216 258
#     4   8  15  26  43  65  91 116 139 177 227 278
#     4  10  18  28  44  68  89 109 146 186 219 255
#     4   8  14  25  40  56  78 115 153 179 211 247
#
# _framework density 27.345669999999998
#
# number of rings (size 3 to 8) (size 9 to 14) (size 15 to 20)
#    0.545    2.545    1.818    1.636    1.273    0.000 
#    0.000    0.000    0.000    3.273    0.000    0.000 
#    0.000    8.727    0.000    0.000    0.000    0.000 
#
# Total GULP energy -122588.673403 kJ/mol
# GULP energy per Si atom -5572.212427 kJ/mol
# Density = 2.728343 g / cm^3
# Si number density = 27.345670 Si / 1000 Ang^3
#
#
#
# Elastic Constant Matrix: (Units=GPa)
#
#
# Indices 1 2 3 4 5 6 
#
# 1 138.4636 0.8757 78.2912 0.0000 -0.4860 0.0000
# 2 0.8757 139.3256 -10.3962 0.0000 -6.2955 0.0000
# 3 78.2912 -10.3962 111.3592 0.0000 -11.8445 0.0000
# 4 0.0000 0.0000 0.0000 -14.6919 0.0000 -13.4895
# 5 -0.4860 -6.2955 -11.8445 0.0000 75.1744 0.0000
# 6 0.0000 0.0000 0.0000 -13.4895 0.0000 -5.4317
#
#
#
# Elastic Compliance Matrix: (Units=1/GPa)
#
#
# Indices 1 2 3 4 5 6 
#
# 1 0.012194 -0.000795 -0.008794 0.000000 -0.001373 0.000000
# 2 -0.000795 0.007319 0.001329 0.000000 0.000817 0.000000
# 3 -0.008794 0.001329 0.015553 0.000000 0.002505 0.000000
# 4 0.000000 0.000000 0.000000 0.053166 0.000000 -0.132037
# 5 -0.001373 0.000817 0.002505 0.000000 0.013757 0.000000
# 6 0.000000 0.000000 0.000000 -0.132037 0.000000 0.143807
#
#
# Mechanical properties :
#
#
# Convention : Reuss Voigt Hill
#
# Bulk Modulus (GPa) = 53.91758 58.52107 56.21933
# Shear Modulus (GPa) = 18.62220 32.36866 25.49543
#
# Velocity S-wave (km/s) = 2.61241 3.44420 3.05673
# Velocity P-wave (km/s) = 5.37210 6.10440 5.74992
#
# Compressibility (1/GPa) = 0.01854683
#
# Stress axis : x y z
#
# Youngs Moduli (GPa) = 82.00438 136.63974 64.29711
#
# Poissons Ratio (x) = 0.10861 0.56540
# Poissons Ratio (y) = 0.06518 -0.08545
# Poissons Ratio (z) = 0.72111 -0.18159
#
# Static dielectric constant tensor:
#      x y z
#    x 2.061260 0.000000 -0.029260 
#    y 0.000000 2.176270 0.000000 
#    z -0.029260 0.000000 2.160630 
# 
# From -- ./inp_files/279829.got.cif
#   From: 2010.05.17/outbox.cif.g08.bks.cpg/sg12_140_cif.got.tgz:279829.got - 2010.06.03 13:09:07.
