data_PCOD9171520
_publ_section_title
;
Structure prediction by ZEFSAII (Michael W. Deem and Ramdas Pophale) SiO2 
 PCOD9171520
Probable space group: C 2/M
;
_chemical_formula_sum "Si O2"
_cell_formula_units_Z 48
_cell_length_a 19.913205
_cell_length_b 7.423469
_cell_length_c 16.158985
_cell_angle_alpha 90.000000
_cell_angle_beta 79.549495
_cell_angle_gamma 90.000000
_cell_volume 2349.079039
_symmetry_space_group_name_H-M "C 2/M"
_symmetry_group_IT_number 12
_symmetry_cell_setting 'monoclinic'
loop_
_space_group_symop_operation_xyz
x,y,z
-x,y,-z
-x,-y,-z
x,-y,z
1/2+x,1/2+y,z
1/2-x,1/2+y,-z
1/2-x,1/2-y,-z
1/2+x,1/2-y,z
loop_
_atom_site_type_symbol
_atom_site_label
_atom_site_fract_x
_atom_site_fract_y
_atom_site_fract_z
Si Si1 0.076948 0.210223 0.628810
Si Si2 0.658010 0.781325 0.777541
Si Si3 0.548040 0.281440 0.237665
Si Si4 0.967185 0.710655 0.090295
Si Si5 0.810252 0.779931 0.721012
Si Si6 0.178209 0.784032 0.470610
O O1 0.128945 0.223834 0.694693
O O2 0.116075 0.287414 0.540779
O O3 0.005719 0.283668 0.680313
O O4 0.064276 0.000000 0.613837
O O5 0.604352 0.715396 0.858313
O O6 0.735991 0.723054 0.769585
O O7 0.656379 0.000000 0.777614
O O8 0.546133 0.500000 0.239051
O O9 0.519302 0.224245 0.155360
O O10 0.624450 0.222932 0.240833
O O11 0.954033 0.500000 0.076181
O O12 0.000000 0.789538 0.000000
O O13 0.819169 0.719443 0.624058
O O14 0.809949 0.000000 0.720655
O O15 0.250000 0.750000 0.500000
O O16 0.170427 0.000000 0.468479
#
# Coordination Sequence:
#
# PCOD9171520 Si02
#       6
#     8   8   8   8   8   8
#     4   9  17  28  44  67  92 120 154 192 224 257
#     4   9  16  29  49  67  88 121 155 184 222 274
#     4   9  18  32  48  68  95 121 149 186 230 274
#     4   9  18  33  52  71  90 116 151 188 227 276
#     4   9  17  29  46  68  93 123 154 186 226 268
#     4  10  18  28  44  67  93 122 158 191 220 258
#
# _framework density 20.433540000000001
#
# number of rings (size 3 to 8) (size 9 to 14) (size 15 to 20)
#    0.000    2.833    1.667    0.000    0.000    1.000 
#    0.000    5.833    0.000    0.000    0.000    5.833 
#    0.000    0.000    0.000    0.000    0.000    0.000 
#
# Total GULP energy -133884.736384 kJ/mol
# GULP energy per Si atom -5578.530683 kJ/mol
# Density = 2.038703 g / cm^3
# Si number density = 20.433540 Si / 1000 Ang^3
#
#
#
# Elastic Constant Matrix: (Units=GPa)
#
#
# Indices 1 2 3 4 5 6 
#
# 1 147.6615 -12.2469 73.3479 0.0000 -27.7864 0.0000
# 2 -12.2469 65.9292 0.2534 0.0000 -5.1839 0.0000
# 3 73.3479 0.2534 160.2648 0.0000 -35.2936 0.0000
# 4 0.0000 0.0000 0.0000 -27.8771 0.0000 24.7077
# 5 -27.7864 -5.1839 -35.2936 0.0000 21.9160 0.0000
# 6 0.0000 0.0000 0.0000 24.7077 0.0000 3.7936
#
#
#
# Elastic Compliance Matrix: (Units=1/GPa)
#
#
# Indices 1 2 3 4 5 6 
#
# 1 0.009977 0.002582 -0.002557 0.000000 0.009142 0.000000
# 2 0.002582 0.016276 0.000560 0.000000 0.008025 0.000000
# 3 -0.002557 0.000560 0.010419 0.000000 0.013670 0.000000
# 4 0.000000 0.000000 0.000000 -0.005297 0.000000 0.034497
# 5 0.009142 0.008025 0.013670 0.000000 0.081133 0.000000
# 6 0.000000 0.000000 0.000000 0.034497 0.000000 0.038922
#
#
# Mechanical properties :
#
#
# Convention : Reuss Voigt Hill
#
# Bulk Modulus (GPa) = 26.42530 55.17383 40.79957
# Shear Modulus (GPa) = 30.69838 20.39992 25.54915
#
# Velocity S-wave (km/s) = 3.88022 3.16310 3.53987
# Velocity P-wave (km/s) = 5.74763 6.35614 6.05953
#
# Compressibility (1/GPa) = 0.03784252
#
# Stress axis : x y z
#
# Youngs Moduli (GPa) = 100.23241 61.43929 95.97471
#
# Poissons Ratio (x) = -0.15863 0.24539
# Poissons Ratio (y) = -0.25879 -0.05373
# Poissons Ratio (z) = 0.25627 -0.03440
#
# Static dielectric constant tensor:
#      x y z
#    x 1.707140 0.000000 -0.043990 
#    y 0.000000 1.784680 0.000000 
#    z -0.043990 0.000000 1.717120 
# 
# From -- ./inp_files/212745.got.cif
#   From: 2010.05.17/outbox.cif.g08.bks.cpg/sg12_107_cif.got.tgz:212745.got - 2010.06.03 13:09:07.
