data_PCOD9171551
_publ_section_title
;
Structure prediction by ZEFSAII (Michael W. Deem and Ramdas Pophale) SiO2 
 PCOD9171551
Probable space group: C 2/M
;
_chemical_formula_sum "Si O2"
_cell_formula_units_Z 48
_cell_length_a 21.461859
_cell_length_b 14.460252
_cell_length_c 23.365587
_cell_angle_alpha 90.000000
_cell_angle_beta 155.866718
_cell_angle_gamma 90.000000
_cell_volume 2964.798607
_symmetry_space_group_name_H-M "C 2/M"
_symmetry_group_IT_number 12
_symmetry_cell_setting 'monoclinic'
loop_
_space_group_symop_operation_xyz
x,y,z
-x,y,-z
-x,-y,-z
x,-y,z
1/2+x,1/2+y,z
1/2-x,1/2+y,-z
1/2-x,1/2-y,-z
1/2+x,1/2-y,z
loop_
_atom_site_type_symbol
_atom_site_label
_atom_site_fract_x
_atom_site_fract_y
_atom_site_fract_z
Si Si1 0.118174 0.110097 0.048406
Si Si2 0.400176 0.224429 0.256207
Si Si3 0.006282 0.390925 0.232874
Si Si4 0.719715 0.606369 0.913657
Si Si5 0.764118 0.756926 0.442802
Si Si6 0.036890 0.892493 0.202909
O O1 0.274651 0.166025 0.184732
O O2 0.149946 0.000000 0.074408
O O3 0.000000 0.129457 0.000000
O O4 0.038890 0.132926 0.921140
O O5 0.447239 0.163033 0.239794
O O6 0.323629 0.318233 0.169245
O O7 0.557068 0.249710 0.419610
O O8 0.013163 0.500000 0.250617
O O9 0.168675 0.349585 0.350138
O O10 0.881705 0.374793 0.079096
O O11 0.717095 0.500000 0.891095
O O12 0.593885 0.614449 0.858505
O O13 0.750000 0.750000 0.500000
O O14 0.672439 0.674001 0.335986
O O15 0.085530 0.000000 0.240603
#
# Coordination Sequence:
#
# PCOD9171551 Si02
#       6
#     8   8   8   8   8   8
#     4  10  21  36  55  75  96 134 183 218 244 284
#     4  11  19  32  48  73 105 132 166 208 255 301
#     4  10  18  28  44  70 102 135 161 197 248 307
#     4  10  18  29  50  76 101 133 167 204 257 306
#     4  10  20  29  43  74 104 138 158 198 251 321
#     4  10  18  32  50  72 105 137 166 206 253 299
#
# _framework density 16.189969000000001
#
# number of rings (size 3 to 8) (size 9 to 14) (size 15 to 20)
#    0.000    1.833    5.000    2.000    0.000    4.000 
#    0.000    0.833    0.000    3.500    0.000    0.000 
#    0.000    5.333    0.000    0.000    0.000    0.000 
#
# Total GULP energy -133839.650317 kJ/mol
# GULP energy per Si atom -5576.652097 kJ/mol
# Density = 1.615312 g / cm^3
# Si number density = 16.189969 Si / 1000 Ang^3
#
#
#
# Elastic Constant Matrix: (Units=GPa)
#
#
# Indices 1 2 3 4 5 6 
#
# 1 44.2302 20.7248 23.3617 0.0005 20.3524 0.0004
# 2 20.7248 77.6658 59.2552 0.0016 20.0886 0.0017
# 3 23.3617 59.2552 107.4872 0.0059 33.6018 0.0028
# 4 0.0005 0.0016 0.0059 -3.3476 0.0012 -11.4567
# 5 20.3524 20.0886 33.6018 0.0012 18.8047 0.0006
# 6 0.0004 0.0017 0.0028 -11.4567 0.0006 11.3570
#
#
#
# Elastic Compliance Matrix: (Units=1/GPa)
#
#
# Indices 1 2 3 4 5 6 
#
# 1 0.055591 -0.006698 0.018537 0.000002 -0.086135 0.000002
# 2 -0.006698 0.023176 -0.013247 -0.000002 0.006161 -0.000003
# 3 0.018537 -0.013247 0.032681 0.000010 -0.064308 0.000006
# 4 0.000002 -0.000002 0.000010 -0.067093 -0.000011 -0.067681
# 5 -0.086135 0.006161 -0.064308 -0.000011 0.254731 -0.000007
# 6 0.000002 -0.000003 0.000006 -0.067681 -0.000007 0.019776
#
#
# Mechanical properties :
#
#
# Convention : Reuss Voigt Hill
#
# Bulk Modulus (GPa) = 9.20539 48.45184 28.82862
# Shear Modulus (GPa) = 13.97084 13.76559 13.86822
#
# Velocity S-wave (km/s) = 2.94076 2.91908 2.92994
# Velocity P-wave (km/s) = 4.15078 6.43066 5.41213
#
# Compressibility (1/GPa) = 0.10863200
#
# Stress axis : x y z
#
# Youngs Moduli (GPa) = 17.98846 43.14822 30.59926
#
# Poissons Ratio (x) = 0.28900 -0.56721
# Poissons Ratio (y) = 0.12048 0.40534
# Poissons Ratio (z) = -0.33345 0.57157
#
# Static dielectric constant tensor:
#      x y z
#    x 1.518310 0.000000 0.015320 
#    y 0.000000 1.558610 0.000000 
#    z 0.015320 0.000000 1.555170 
# 
# From -- ./inp_files/85140.got.cif
#   From: 2010.05.17/outbox.cif.g08.bks.cpg/sg12_43_cif.got.tgz:85140.got - 2010.06.03 13:09:07.
