data_PCOD9171063
_publ_section_title
;
Structure prediction by ZEFSAII (Michael W. Deem and Ramdas Pophale) SiO2 
 PCOD9171063
Probable space group: C 2/M
;
_chemical_formula_sum "Si O2"
_cell_formula_units_Z 44
_cell_length_a 13.809654
_cell_length_b 11.393492
_cell_length_c 20.406320
_cell_angle_alpha 90.000000
_cell_angle_beta 147.993727
_cell_angle_gamma 90.000000
_cell_volume 1701.727958
_symmetry_space_group_name_H-M "C 2/M"
_symmetry_group_IT_number 12
_symmetry_cell_setting 'monoclinic'
loop_
_space_group_symop_operation_xyz
x,y,z
-x,y,-z
-x,-y,-z
x,-y,z
1/2+x,1/2+y,z
1/2-x,1/2+y,-z
1/2-x,1/2-y,-z
1/2+x,1/2-y,z
loop_
_atom_site_type_symbol
_atom_site_label
_atom_site_fract_x
_atom_site_fract_y
_atom_site_fract_z
Si Si1 0.433544 0.500000 0.537910
Si Si2 0.500000 0.753326 0.000000
Si Si3 0.169088 0.000000 0.241106
Si Si4 0.116733 0.739561 0.812187
Si Si5 0.954273 0.753216 0.575787
Si Si6 0.373965 0.234552 0.793322
Si Si7 0.423434 0.000000 0.527998
Si Si8 0.442431 0.500000 0.236768
O O1 0.500000 0.500000 0.500000
O O2 0.347978 0.371224 0.495982
O O3 0.536349 0.500000 0.670799
O O4 0.683798 0.685755 0.083443
O O5 0.568967 0.820908 0.104831
O O6 0.090241 0.874154 0.177409
O O7 0.369071 0.000000 0.320843
O O8 0.131746 0.000000 0.300561
O O9 0.007284 0.739151 0.681747
O O10 0.997294 0.694064 0.803869
O O11 0.150895 0.880194 0.839695
O O12 0.154953 0.771286 0.656717
O O13 0.857825 0.632095 0.502452
O O14 0.500000 0.000000 0.500000
#
# Coordination Sequence:
#
# PCOD9171063 Si02
#       8
#     4   4   4   8   8   8   4   4
#     4  10  18  32  53  76 101 129 166 210 251 294
#     4  10  18  26  46  74  98 130 172 210 248 294
#     4   8  16  31  49  66  91 132 170 202 249 303
#     4   9  17  31  48  68  98 132 167 206 248 296
#     4   9  19  33  51  74 102 136 167 201 251 301
#     4   9  17  31  48  68  98 132 167 206 248 296
#     4  10  18  32  53  76 101 129 166 210 251 294
#     4   8  16  31  49  66  91 132 170 202 249 303
#
# _framework density 25.856072999999999
#
# number of rings (size 3 to 8) (size 9 to 14) (size 15 to 20)
#    0.000    2.909    0.000    1.091    0.000    0.727 
#    0.000    4.545    0.000    8.727    0.000    0.000 
#    0.000    0.000    0.000    0.000    0.000    0.000 
#
# Total GULP energy -122495.425424 kJ/mol
# GULP energy per Si atom -5567.973883 kJ/mol
# Density = 2.579722 g / cm^3
# Si number density = 25.856073 Si / 1000 Ang^3
#
#
#
# Elastic Constant Matrix: (Units=GPa)
#
#
# Indices 1 2 3 4 5 6 
#
# 1 214.2535 11.9068 29.6470 0.0002 12.7175 0.0001
# 2 11.9068 134.0121 38.8605 0.0003 -0.6589 0.0001
# 3 29.6470 38.8605 48.3472 0.0012 5.4836 0.0005
# 4 0.0002 0.0003 0.0012 9.1564 0.0003 4.1356
# 5 12.7175 -0.6589 5.4836 0.0003 41.2034 0.0001
# 6 0.0001 0.0001 0.0005 4.1356 0.0001 -30.6118
#
#
#
# Elastic Compliance Matrix: (Units=1/GPa)
#
#
# Indices 1 2 3 4 5 6 
#
# 1 0.005187 0.000546 -0.003492 0.000000 -0.001128 0.000000
# 2 0.000546 0.009848 -0.008375 0.000001 0.001104 0.000000
# 3 -0.003492 -0.008375 0.029901 -0.000004 -0.003036 0.000000
# 4 0.000000 0.000001 -0.000004 0.102933 0.000000 0.013906
# 5 -0.001128 0.001104 -0.003036 0.000000 0.025040 0.000000
# 6 0.000000 0.000000 0.000000 0.013906 0.000000 -0.030788
#
#
# Mechanical properties :
#
#
# Convention : Reuss Voigt Hill
#
# Bulk Modulus (GPa) = 44.85567 61.93792 53.39679
# Shear Modulus (GPa) = 29.03714 25.02949 27.03332
#
# Velocity S-wave (km/s) = 3.35480 3.11470 3.23697
# Velocity P-wave (km/s) = 5.69141 6.07799 5.88787
#
# Compressibility (1/GPa) = 0.02229373
#
# Stress axis : x y z
#
# Youngs Moduli (GPa) = 192.78470 101.54788 33.44348
#
# Poissons Ratio (x) = -0.05546 0.11678
# Poissons Ratio (y) = -0.10529 0.28010
# Poissons Ratio (z) = 0.67319 0.85050
#
# Static dielectric constant tensor:
#      x y z
#    x 1.960600 0.000000 -0.287710 
#    y 0.000000 2.006430 0.000000 
#    z -0.287710 0.000000 1.564010 
# 
# From -- ./inp_files/268516.got.cif
#   From: 2010.05.17/outbox.cif.g08.bks.cpg/sg12_135_cif.got.tgz:268516.got - 2010.06.03 13:09:07.
