data_PCOD9171864
_publ_section_title
;
Structure prediction by ZEFSAII (Michael W. Deem and Ramdas Pophale) SiO2 
 PCOD9171864
Probable space group: C 2/M
;
_chemical_formula_sum "Si O2"
_cell_formula_units_Z 48
_cell_length_a 18.807310
_cell_length_b 18.572586
_cell_length_c 13.928575
_cell_angle_alpha 90.000000
_cell_angle_beta 29.866040
_cell_angle_gamma 90.000000
_cell_volume 2422.770453
_symmetry_space_group_name_H-M "C 2/M"
_symmetry_group_IT_number 12
_symmetry_cell_setting 'monoclinic'
loop_
_space_group_symop_operation_xyz
x,y,z
-x,y,-z
-x,-y,-z
x,-y,z
1/2+x,1/2+y,z
1/2-x,1/2+y,-z
1/2-x,1/2-y,-z
1/2+x,1/2-y,z
loop_
_atom_site_type_symbol
_atom_site_label
_atom_site_fract_x
_atom_site_fract_y
_atom_site_fract_z
Si Si1 0.403971 0.774521 0.921897
Si Si2 0.810094 0.668299 0.424989
Si Si3 0.266100 0.420821 0.315618
Si Si4 0.435534 0.582197 0.399093
Si Si5 0.072302 0.888801 0.049954
Si Si6 0.076607 0.781953 0.319009
O O1 0.530942 0.827332 0.802082
O O2 0.432668 0.697231 0.936904
O O3 0.421562 0.759944 0.785963
O O4 0.244802 0.796656 0.136478
O O5 0.750000 0.750000 0.500000
O O6 0.814497 0.638150 0.528260
O O7 0.704310 0.616772 0.488916
O O8 0.207365 0.500000 0.402616
O O9 0.427319 0.416370 0.169909
O O10 0.292318 0.408992 0.172454
O O11 0.412446 0.500000 0.458591
O O12 0.559434 0.581907 0.172109
O O13 0.489434 0.643901 0.406947
O O14 0.000000 0.744858 0.500000
#
# Coordination Sequence:
#
# PCOD9171864 Si02
#       6
#     8   8   8   8   8   8
#     4  10  21  36  56  89 114 148 194 244 299 333
#     4  11  18  34  55  86 118 145 189 248 298 342
#     4  10  18  28  50  84 119 152 182 225 297 362
#     4  10  20  37  59  81 116 156 192 240 296 351
#     4   9  16  29  51  79 113 143 189 231 281 344
#     4  10  22  39  58  80 113 155 199 239 281 347
#
# _framework density 19.812028999999999
#
# number of rings (size 3 to 8) (size 9 to 14) (size 15 to 20)
#    0.000    2.000    5.000    3.500    2.333    0.333 
#    0.000    1.667    0.000    1.000    0.000    4.667 
#    0.000    0.000    0.000    0.000    0.000    0.000 
#
# Total GULP energy -133689.452006 kJ/mol
# GULP energy per Si atom -5570.393834 kJ/mol
# Density = 1.976694 g / cm^3
# Si number density = 19.812029 Si / 1000 Ang^3
#
#
#
# Elastic Constant Matrix: (Units=GPa)
#
#
# Indices 1 2 3 4 5 6 
#
# 1 33.9720 7.2314 28.8460 -0.0001 0.4531 0.0000
# 2 7.2314 76.4259 31.1500 -0.0001 -6.0664 0.0001
# 3 28.8460 31.1500 101.2603 -0.0001 -10.6611 0.0001
# 4 -0.0001 -0.0001 -0.0001 18.3733 0.0001 -5.9118
# 5 0.4531 -6.0664 -10.6611 0.0001 31.9961 -0.0001
# 6 0.0000 0.0001 0.0001 -5.9118 -0.0001 5.0261
#
#
#
# Elastic Compliance Matrix: (Units=1/GPa)
#
#
# Indices 1 2 3 4 5 6 
#
# 1 0.039473 0.000787 -0.011949 0.000000 -0.004391 0.000000
# 2 0.000787 0.015033 -0.004715 0.000000 0.001268 0.000000
# 3 -0.011949 -0.004715 0.015186 0.000000 0.004335 0.000000
# 4 0.000000 0.000000 0.000000 0.087568 0.000000 0.102999
# 5 -0.004391 0.001268 0.004335 0.000000 0.033001 0.000000
# 6 0.000000 0.000000 0.000000 0.102999 0.000000 0.320109
#
#
# Mechanical properties :
#
#
# Convention : Reuss Voigt Hill
#
# Bulk Modulus (GPa) = 26.35916 38.45700 32.40808
# Shear Modulus (GPa) = 9.01274 20.70782 14.86028
#
# Velocity S-wave (km/s) = 2.13518 3.23649 2.74170
# Velocity P-wave (km/s) = 4.40593 5.78096 5.13964
#
# Compressibility (1/GPa) = 0.03793748
#
# Stress axis : x y z
#
# Youngs Moduli (GPa) = 25.33363 66.52245 65.84864
#
# Poissons Ratio (x) = -0.05234 0.78683
# Poissons Ratio (y) = -0.01993 0.31047
# Poissons Ratio (z) = 0.30271 0.31365
#
# Static dielectric constant tensor:
#      x y z
#    x 1.779000 0.000000 0.031530 
#    y 0.000000 1.701320 0.000000 
#    z 0.031530 0.000000 1.742920 
# 
# From -- ./inp_files/234244.got.cif
#   From: 2010.05.17/outbox.cif.g08.bks.cpg/sg12_118_cif.got.tgz:234244.got - 2010.06.03 13:09:07.
