data_PCOD9171868
_publ_section_title
;
Structure prediction by ZEFSAII (Michael W. Deem and Ramdas Pophale) SiO2 
 PCOD9171868
Probable space group: C 2/M
;
_chemical_formula_sum "Si O2"
_cell_formula_units_Z 60
_cell_length_a 13.951321
_cell_length_b 19.007570
_cell_length_c 20.614589
_cell_angle_alpha 90.000000
_cell_angle_beta 36.430819
_cell_angle_gamma 90.000000
_cell_volume 3246.344831
_symmetry_space_group_name_H-M "C 2/M"
_symmetry_group_IT_number 12
_symmetry_cell_setting 'monoclinic'
loop_
_space_group_symop_operation_xyz
x,y,z
-x,y,-z
-x,-y,-z
x,-y,z
1/2+x,1/2+y,z
1/2-x,1/2+y,-z
1/2-x,1/2-y,-z
1/2+x,1/2-y,z
loop_
_atom_site_type_symbol
_atom_site_label
_atom_site_fract_x
_atom_site_fract_y
_atom_site_fract_z
Si Si1 0.116789 0.758205 0.516792
Si Si2 0.000000 0.372999 0.500000
Si Si3 0.640181 0.233026 0.716711
Si Si4 0.161234 0.674556 0.064256
Si Si5 0.813338 0.163255 0.118365
Si Si6 0.351491 0.419391 0.862098
Si Si7 0.888026 0.796090 0.748089
Si Si8 0.196131 0.112303 0.738139
O O1 0.250000 0.750000 0.500000
O O2 0.205742 0.794625 0.407281
O O3 0.067191 0.680734 0.518462
O O4 0.967307 0.794475 0.634032
O O5 0.149089 0.413838 0.386572
O O6 0.530214 0.186687 0.823867
O O7 0.514680 0.259679 0.729450
O O8 0.689587 0.304576 0.725051
O O9 0.221376 0.647523 0.101601
O O10 0.250000 0.750000 0.000000
O O11 0.222508 0.620906 0.977153
O O12 0.760963 0.242634 0.166093
O O13 0.782108 0.111577 0.196196
O O14 0.000000 0.161579 0.000000
O O15 0.310857 0.500000 0.872821
O O16 0.362224 0.372917 0.791159
O O17 0.525262 0.415940 0.805026
#
# Coordination Sequence:
#
# PCOD9171868 Si02
#       8
#     8   4   8   8   8   8   8   8
#     4   9  16  28  45  77 108 129 163 222 272 309
#     4  10  18  28  51  80 113 132 168 226 276 304
#     4   8  16  27  48  71 101 126 166 221 261 297
#     4  11  17  32  49  73 100 133 179 217 254 307
#     4  11  17  26  50  79 101 125 164 221 267 299
#     4  11  22  36  52  72 106 146 178 211 263 326
#     4   9  17  30  48  72 101 130 174 212 258 307
#     4  10  18  31  47  79 105 134 168 213 269 313
#
# _framework density 18.482324999999999
#
# number of rings (size 3 to 8) (size 9 to 14) (size 15 to 20)
#    0.000    2.133    6.667    0.800    0.000    0.000 
#    0.000    1.667    0.000    1.200    0.000    0.467 
#    0.000    0.000    0.000    0.000    0.000    0.000 
#
# Total GULP energy -167137.604467 kJ/mol
# GULP energy per Si atom -5571.253482 kJ/mol
# Density = 1.844026 g / cm^3
# Si number density = 18.482325 Si / 1000 Ang^3
#
#
#
# Elastic Constant Matrix: (Units=GPa)
#
#
# Indices 1 2 3 4 5 6 
#
# 1 34.4095 -6.6288 -3.8408 0.0005 16.9452 -0.0001
# 2 -6.6288 74.4112 41.0020 0.0019 9.2889 -0.0010
# 3 -3.8408 41.0020 163.4605 0.0026 8.1923 -0.0016
# 4 0.0005 0.0019 0.0026 5.7477 -0.0018 -0.0936
# 5 16.9452 9.2889 8.1923 -0.0018 26.9473 0.0007
# 6 -0.0001 -0.0010 -0.0016 -0.0936 0.0007 6.8072
#
#
#
# Elastic Compliance Matrix: (Units=1/GPa)
#
#
# Indices 1 2 3 4 5 6 
#
# 1 0.046442 0.007724 0.000762 -0.000017 -0.032098 0.000005
# 2 0.007724 0.017374 -0.003689 -0.000008 -0.009724 0.000003
# 3 0.000762 -0.003689 0.007130 -0.000002 -0.001375 0.000001
# 4 -0.000017 -0.000008 -0.000002 0.174021 0.000026 0.002393
# 5 -0.032098 -0.009724 -0.001375 0.000026 0.061064 -0.000008
# 6 0.000005 0.000003 0.000001 0.002393 -0.000008 0.146937
#
#
# Mechanical properties :
#
#
# Convention : Reuss Voigt Hill
#
# Bulk Modulus (GPa) = 12.41623 37.03846 24.72734
# Shear Modulus (GPa) = 10.63336 24.01703 17.32519
#
# Velocity S-wave (km/s) = 2.40120 3.60871 3.06501
# Velocity P-wave (km/s) = 3.79739 6.11941 5.09251
#
# Compressibility (1/GPa) = 0.08053972
#
# Stress axis : x y z
#
# Youngs Moduli (GPa) = 21.53237 57.55871 140.25453
#
# Poissons Ratio (x) = -0.44458 -0.10694
# Poissons Ratio (y) = -0.16631 0.51741
# Poissons Ratio (z) = -0.01642 0.21234
#
# Static dielectric constant tensor:
#      x y z
#    x 1.711310 0.000000 -0.013340 
#    y 0.000000 1.606550 0.000000 
#    z -0.013340 0.000000 1.722720 
# 
# From -- ./inp_files/311946.got.cif
#   From: 2010.05.17/outbox.cif.g08.bks.cpg/sg12_156_cif.got.tgz:311946.got - 2010.06.03 13:09:07.
