data_PCOD9171210
_publ_section_title
;
Structure prediction by ZEFSAII (Michael W. Deem and Ramdas Pophale) SiO2 
 PCOD9171210
Probable space group: C 2/M
;
_chemical_formula_sum "Si O2"
_cell_formula_units_Z 56
_cell_length_a 33.718865
_cell_length_b 9.177261
_cell_length_c 18.315506
_cell_angle_alpha 90.000000
_cell_angle_beta 41.187056
_cell_angle_gamma 90.000000
_cell_volume 3732.274402
_symmetry_space_group_name_H-M "C 2/M"
_symmetry_group_IT_number 12
_symmetry_cell_setting 'monoclinic'
loop_
_space_group_symop_operation_xyz
x,y,z
-x,y,-z
-x,-y,-z
x,-y,z
1/2+x,1/2+y,z
1/2-x,1/2+y,-z
1/2-x,1/2-y,-z
1/2+x,1/2-y,z
loop_
_atom_site_type_symbol
_atom_site_label
_atom_site_fract_x
_atom_site_fract_y
_atom_site_fract_z
Si Si1 0.294940 0.826965 0.040093
Si Si2 0.702103 0.326591 0.654799
Si Si3 0.357016 0.173365 0.560498
Si Si4 0.337337 0.326103 0.841042
Si Si5 0.170349 0.172231 0.544042
Si Si6 0.070097 0.174979 0.412663
Si Si7 0.283476 0.328294 0.204844
O O1 0.225517 0.792902 0.113555
O O2 0.305219 0.762524 0.105850
O O3 0.301926 0.000000 0.030201
O O4 0.335008 0.755227 0.921296
O O5 0.719485 0.500000 0.627314
O O6 0.760895 0.227588 0.561141
O O7 0.658159 0.300966 0.647079
O O8 0.682879 0.300113 0.764796
O O9 0.365415 0.241315 0.468372
O O10 0.400572 0.245587 0.559032
O O11 0.287499 0.203135 0.681232
O O12 0.364259 0.000000 0.548097
O O13 0.338998 0.500000 0.851112
O O14 0.391710 0.285139 0.712332
O O15 0.166104 0.000000 0.536203
O O16 0.000000 0.209326 0.500000
O O17 0.076276 0.000000 0.413817
O O18 0.288094 0.500000 0.181761
#
# Coordination Sequence:
#
# PCOD9171210 Si02
#       7
#     8   8   8   8   8   8   8
#     4  10  18  27  43  64  85 112 146 178 212 257
#     4   8  15  25  36  56  83 113 144 175 213 255
#     4  10  19  29  42  60  85 115 148 180 217 261
#     4   9  18  31  44  61  85 111 141 178 220 258
#     4   9  15  24  39  56  80 112 146 179 211 252
#     4  10  20  34  50  66  85 111 147 187 223 259
#     4   9  16  26  40  59  86 116 144 175 212 254
#
# _framework density 15.004255000000001
#
# number of rings (size 3 to 8) (size 9 to 14) (size 15 to 20)
#    0.000    2.714    1.429    2.143    0.000    4.286 
#    0.000    0.000    0.000    0.000    0.000    0.000 
#    0.000    1.143    0.000   13.143    0.000    5.429 
#
# Total GULP energy -155880.449423 kJ/mol
# GULP energy per Si atom -5567.158908 kJ/mol
# Density = 1.497010 g / cm^3
# Si number density = 15.004255 Si / 1000 Ang^3
#
#
#
# Elastic Constant Matrix: (Units=GPa)
#
#
# Indices 1 2 3 4 5 6 
#
# 1 112.6374 54.3254 63.4893 0.0000 36.7125 -0.0001
# 2 54.3254 39.5706 36.8653 -0.0001 17.1430 -0.0001
# 3 63.4893 36.8653 72.3264 -0.0001 20.0366 0.0000
# 4 0.0000 -0.0001 -0.0001 15.8226 -0.0001 7.3896
# 5 36.7125 17.1430 20.0366 -0.0001 27.3858 0.0001
# 6 -0.0001 -0.0001 0.0000 7.3896 0.0001 24.5054
#
#
#
# Elastic Compliance Matrix: (Units=1/GPa)
#
#
# Indices 1 2 3 4 5 6 
#
# 1 0.037652 -0.032210 -0.010331 -0.000001 -0.022755 0.000000
# 2 -0.032210 0.081374 -0.013863 0.000000 0.002383 0.000000
# 3 -0.010331 -0.013863 0.029750 0.000000 0.000761 0.000000
# 4 -0.000001 0.000000 0.000000 0.073560 0.000001 -0.022182
# 5 -0.022755 0.002383 0.000761 0.000001 0.064971 0.000000
# 6 0.000000 0.000000 0.000000 -0.022182 0.000000 0.047496
#
#
# Mechanical properties :
#
#
# Convention : Reuss Voigt Hill
#
# Bulk Modulus (GPa) = 27.80127 59.32159 43.56143
# Shear Modulus (GPa) = 10.87903 18.19973 14.53938
#
# Velocity S-wave (km/s) = 2.69562 3.48655 3.11628
# Velocity P-wave (km/s) = 5.31579 7.47197 6.48414
#
# Compressibility (1/GPa) = 0.03596958
#
# Stress axis : x y z
#
# Youngs Moduli (GPa) = 26.55876 12.28901 33.61346
#
# Poissons Ratio (x) = 0.39582 0.34725
# Poissons Ratio (y) = 0.85545 0.46598
# Poissons Ratio (z) = 0.27437 0.17036
#
# Static dielectric constant tensor:
#      x y z
#    x 1.514260 0.000000 0.031710 
#    y 0.000000 1.495420 0.000000 
#    z 0.031710 0.000000 1.479370 
# 
# From -- ./inp_files/287398.got.cif
#   From: 2010.05.17/outbox.cif.g08.bks.cpg/sg12_144_cif.got.tgz:287398.got - 2010.06.03 13:09:07.
