data_PCOD9171025
_publ_section_title
;
Structure prediction by ZEFSAII (Michael W. Deem and Ramdas Pophale) SiO2 
 PCOD9171025
Probable space group: C 2/M
;
_chemical_formula_sum "Si O2"
_cell_formula_units_Z 56
_cell_length_a 29.261570
_cell_length_b 9.228208
_cell_length_c 29.588534
_cell_angle_alpha 90.000000
_cell_angle_beta 151.868078
_cell_angle_gamma 90.000000
_cell_volume 3767.238926
_symmetry_space_group_name_H-M "C 2/M"
_symmetry_group_IT_number 12
_symmetry_cell_setting 'monoclinic'
loop_
_space_group_symop_operation_xyz
x,y,z
-x,y,-z
-x,-y,-z
x,-y,z
1/2+x,1/2+y,z
1/2-x,1/2+y,-z
1/2-x,1/2-y,-z
1/2+x,1/2-y,z
loop_
_atom_site_type_symbol
_atom_site_label
_atom_site_fract_x
_atom_site_fract_y
_atom_site_fract_z
Si Si1 0.606026 0.173088 0.573033
Si Si2 0.469502 0.171228 0.867778
Si Si3 0.353402 0.327015 0.582282
Si Si4 0.388521 0.671659 0.712355
Si Si5 0.157345 0.327673 0.515835
Si Si6 0.286954 0.171597 0.775908
Si Si7 0.407660 0.666976 0.953607
O O1 0.500000 0.204443 0.500000
O O2 0.613616 0.207992 0.526427
O O3 0.689207 0.258008 0.672081
O O4 0.624105 0.000000 0.593105
O O5 0.448895 0.237260 0.800782
O O6 0.371484 0.193895 0.812032
O O7 0.487715 0.000000 0.881899
O O8 0.554757 0.252412 0.968994
O O9 0.340623 0.500000 0.567524
O O10 0.250000 0.250000 0.500000
O O11 0.410683 0.299027 0.678868
O O12 0.388433 0.260306 0.565684
O O13 0.401488 0.500000 0.732155
O O14 0.273353 0.702552 0.618775
O O15 0.147400 0.500000 0.498782
O O16 0.324320 0.248733 0.853975
O O17 0.276925 0.000000 0.774007
O O18 0.381983 0.500000 0.939814
O O19 0.500000 0.667822 0.000000
#
# Coordination Sequence:
#
# PCOD9171025 Si02
#       7
#     8   8   8   8   8   8   8
#     4  10  20  33  48  64  84 115 155 191 222 260
#     4  10  18  26  40  63  88 114 143 176 214 257
#     4   9  17  27  40  59  82 111 144 177 214 259
#     4   9  16  26  40  59  84 114 145 175 209 257
#     4   9  17  29  43  59  82 112 146 184 221 257
#     4  10  19  30  43  61  86 113 144 184 223 258
#     4   9  17  28  43  60  81 113 146 175 211 259
#
# _framework density 14.864998
#
# number of rings (size 3 to 8) (size 9 to 14) (size 15 to 20)
#    0.000    2.571    1.429    2.571    0.000    6.571 
#    0.000    0.000    0.000    0.000    0.000    0.000 
#    0.000    1.143    0.000    3.429    0.000    5.286 
#
# Total GULP energy -155992.808973 kJ/mol
# GULP energy per Si atom -5571.171749 kJ/mol
# Density = 1.483116 g / cm^3
# Si number density = 14.864998 Si / 1000 Ang^3
#
#
#
# Elastic Constant Matrix: (Units=GPa)
#
#
# Indices 1 2 3 4 5 6 
#
# 1 76.3129 49.8187 61.0454 0.0000 -25.0418 0.0000
# 2 49.8187 84.9249 76.3121 0.0000 -26.5186 0.0000
# 3 61.0454 76.3121 97.3295 0.0000 -34.8568 0.0000
# 4 0.0000 0.0000 0.0000 26.4868 0.0000 -9.8306
# 5 -25.0418 -26.5186 -34.8568 0.0000 28.9598 0.0000
# 6 0.0000 0.0000 0.0000 -9.8306 0.0000 19.4544
#
#
#
# Elastic Compliance Matrix: (Units=1/GPa)
#
#
# Indices 1 2 3 4 5 6 
#
# 1 0.026858 -0.002264 -0.013174 0.000000 0.005294 0.000000
# 2 -0.002264 0.040108 -0.030891 0.000000 -0.002412 0.000000
# 3 -0.013174 -0.030891 0.050176 0.000000 0.020715 0.000000
# 4 0.000000 0.000000 0.000000 0.046470 0.000000 0.023482
# 5 0.005294 -0.002412 0.020715 0.000000 0.061833 0.000000
# 6 0.000000 0.000000 0.000000 0.023482 0.000000 0.063268
#
#
# Mechanical properties :
#
#
# Convention : Reuss Voigt Hill
#
# Bulk Modulus (GPa) = 40.84305 70.32440 55.58373
# Shear Modulus (GPa) = 12.83594 19.73959 16.28777
#
# Velocity S-wave (km/s) = 2.94173 3.64802 3.31375
# Velocity P-wave (km/s) = 6.25092 8.07190 7.21905
#
# Compressibility (1/GPa) = 0.02448397
#
# Stress axis : x y z
#
# Youngs Moduli (GPa) = 37.23332 24.93262 19.93000
#
# Poissons Ratio (x) = 0.05646 0.26255
# Poissons Ratio (y) = 0.08431 0.61565
# Poissons Ratio (z) = 0.49050 0.77018
#
# Static dielectric constant tensor:
#      x y z
#    x 1.494550 0.000000 -0.025740 
#    y 0.000000 1.494130 0.000000 
#    z -0.025740 0.000000 1.470680 
# 
# From -- ./inp_files/247913.got.cif
#   From: 2010.05.17/outbox.cif.g08.bks.cpg/sg12_124_cif.got.tgz:247913.got - 2010.06.03 13:09:07.
