data_PCOD9171448
_publ_section_title
;
Structure prediction by ZEFSAII (Michael W. Deem and Ramdas Pophale) SiO2 
 PCOD9171448
Probable space group: C 2/M
;
_chemical_formula_sum "Si O2"
_cell_formula_units_Z 64
_cell_length_a 27.886836
_cell_length_b 8.807919
_cell_length_c 17.582868
_cell_angle_alpha 90.000000
_cell_angle_beta 101.856964
_cell_angle_gamma 90.000000
_cell_volume 4226.644324
_symmetry_space_group_name_H-M "C 2/M"
_symmetry_group_IT_number 12
_symmetry_cell_setting 'monoclinic'
loop_
_space_group_symop_operation_xyz
x,y,z
-x,y,-z
-x,-y,-z
x,-y,z
1/2+x,1/2+y,z
1/2-x,1/2+y,-z
1/2-x,1/2-y,-z
1/2+x,1/2-y,z
loop_
_atom_site_type_symbol
_atom_site_label
_atom_site_fract_x
_atom_site_fract_y
_atom_site_fract_z
Si Si1 0.539234 0.180487 0.907004
Si Si2 0.196680 0.818641 0.973278
Si Si3 0.607996 0.682889 0.052864
Si Si4 0.620172 0.681705 0.822824
Si Si5 0.037830 0.681273 0.340099
Si Si6 0.060119 0.819490 0.187234
Si Si7 0.923769 0.318849 0.333549
Si Si8 0.441422 0.674699 0.496567
O O1 0.578035 0.230208 0.855283
O O2 0.489458 0.265795 0.870552
O O3 0.531710 0.000000 0.904271
O O4 0.564301 0.235615 0.992944
O O5 0.170105 0.781779 0.884396
O O6 0.200741 0.000000 0.978524
O O7 0.250000 0.750000 0.000000
O O8 0.158300 0.772176 0.027176
O O9 0.602203 0.500000 0.041190
O O10 0.602904 0.716513 0.140489
O O11 0.612302 0.500000 0.826170
O O12 0.613979 0.736033 0.734728
O O13 0.040019 0.500000 0.344822
O O14 0.060324 0.739378 0.268756
O O15 0.063909 0.751958 0.422323
O O16 0.979667 0.723198 0.325881
O O17 0.058727 0.000000 0.198391
O O18 0.919240 0.500000 0.325798
O O19 0.918579 0.266211 0.418938
O O20 0.500000 0.677281 0.500000
O O21 0.425367 0.500000 0.490629
#
# Coordination Sequence:
#
# PCOD9171448 Si02
#       8
#     8   8   8   8   8   8   8   8
#     4  11  20  29  42  63  89 117 150 189 226 260
#     4   9  19  35  52  69  89 114 146 187 233 276
#     4   9  20  35  47  63  86 116 151 185 223 271
#     4  10  19  31  47  66  90 120 154 187 223 273
#     4  10  19  29  41  61  90 120 155 194 227 258
#     4  11  20  30  45  61  86 122 156 186 219 264
#     4  10  18  28  43  64  90 118 152 194 230 259
#     4   9  17  28  42  59  83 120 160 189 221 266
#
# _framework density 15.142037
#
# number of rings (size 3 to 8) (size 9 to 14) (size 15 to 20)
#    0.000    2.125    1.250    4.125    0.000    7.500 
#    0.000    0.000    0.000    0.000    0.000    0.000 
#    0.000    1.000    0.000    3.000    0.000    4.625 
#
# Total GULP energy -178432.553127 kJ/mol
# GULP energy per Si atom -5576.017285 kJ/mol
# Density = 1.510757 g / cm^3
# Si number density = 15.142037 Si / 1000 Ang^3
#
#
#
# Elastic Constant Matrix: (Units=GPa)
#
#
# Indices 1 2 3 4 5 6 
#
# 1 44.6946 10.7923 38.6319 0.0000 4.2411 0.0000
# 2 10.7923 34.7416 28.4032 0.0000 -1.1645 0.0000
# 3 38.6319 28.4032 123.1174 0.0000 -9.3480 0.0000
# 4 0.0000 0.0000 0.0000 26.3725 0.0000 2.9829
# 5 4.2411 -1.1645 -9.3480 0.0000 14.4392 0.0000
# 6 0.0000 0.0000 0.0000 2.9829 0.0000 15.9732
#
#
#
# Elastic Compliance Matrix: (Units=1/GPa)
#
#
# Indices 1 2 3 4 5 6 
#
# 1 0.034773 -0.001684 -0.011893 0.000000 -0.018049 0.000000
# 2 -0.001684 0.035647 -0.007824 0.000000 -0.001696 0.000000
# 3 -0.011893 -0.007824 0.014594 0.000000 0.012310 0.000000
# 4 0.000000 0.000000 0.000000 0.038736 0.000000 -0.007234
# 5 -0.018049 -0.001696 0.012310 0.000000 0.082390 0.000000
# 6 0.000000 0.000000 0.000000 -0.007234 0.000000 0.063956
#
#
# Mechanical properties :
#
#
# Convention : Reuss Voigt Hill
#
# Bulk Modulus (GPa) = 23.69007 39.80092 31.74550
# Shear Modulus (GPa) = 15.29197 19.67207 17.48202
#
# Velocity S-wave (km/s) = 3.18134 3.60831 3.40153
# Velocity P-wave (km/s) = 5.40128 6.61075 6.03638
#
# Compressibility (1/GPa) = 0.04221178
#
# Stress axis : x y z
#
# Youngs Moduli (GPa) = 28.75776 28.05300 68.52171
#
# Poissons Ratio (x) = 0.04723 0.81494
# Poissons Ratio (y) = 0.04842 0.53612
# Poissons Ratio (z) = 0.34202 0.21949
#
# Static dielectric constant tensor:
#      x y z
#    x 1.483360 0.000000 -0.019260 
#    y 0.000000 1.503690 0.000000 
#    z -0.019260 0.000000 1.530650 
# 
# From -- ./inp_files/287742.got.cif
#   From: 2010.05.17/outbox.cif.g08.bks.cpg/sg12_144_cif.got.tgz:287742.got - 2010.06.03 13:09:07.
