data_PCOD9171141
_publ_section_title
;
Structure prediction by ZEFSAII (Michael W. Deem and Ramdas Pophale) SiO2 
 PCOD9171141
Probable space group: C 2/M
;
_chemical_formula_sum "Si O2"
_cell_formula_units_Z 56
_cell_length_a 15.667617
_cell_length_b 7.555018
_cell_length_c 17.160610
_cell_angle_alpha 90.000000
_cell_angle_beta 79.607715
_cell_angle_gamma 90.000000
_cell_volume 1997.964758
_symmetry_space_group_name_H-M "C 2/M"
_symmetry_group_IT_number 12
_symmetry_cell_setting 'monoclinic'
loop_
_space_group_symop_operation_xyz
x,y,z
-x,y,-z
-x,-y,-z
x,-y,z
1/2+x,1/2+y,z
1/2-x,1/2+y,-z
1/2-x,1/2-y,-z
1/2+x,1/2-y,z
loop_
_atom_site_type_symbol
_atom_site_label
_atom_site_fract_x
_atom_site_fract_y
_atom_site_fract_z
Si Si1 0.555508 0.283869 0.379391
Si Si2 0.795876 0.795402 0.333612
Si Si3 0.700665 0.786359 0.911111
Si Si4 0.437833 0.792850 0.198257
Si Si5 0.132063 0.215272 0.523495
Si Si6 0.159773 0.796148 0.225923
Si Si7 0.934291 0.208220 0.946294
O O1 0.557814 0.500000 0.376012
O O2 0.461751 0.233834 0.425517
O O3 0.623153 0.227015 0.435591
O O4 0.582504 0.215303 0.290250
O O5 0.893934 0.794291 0.280671
O O6 0.801946 0.720900 0.420705
O O7 0.735018 0.698283 0.281560
O O8 0.769662 0.000000 0.339306
O O9 0.625408 0.730568 0.862128
O O10 0.787980 0.716360 0.855451
O O11 0.706208 0.000000 0.909655
O O12 0.660785 0.734223 0.000931
O O13 0.533004 0.767738 0.144139
O O14 0.425288 0.000000 0.211182
O O15 0.136508 0.000000 0.523494
O O16 0.137897 0.000000 0.210024
O O17 0.947718 0.000000 0.942695
O O18 0.000000 0.291309 0.000000
#
# Coordination Sequence:
#
# PCOD9171141 Si02
#       7
#     8   8   8   8   8   8   8
#     4   8  14  28  47  65  86 114 151 186 216 257
#     4  10  18  27  41  65  94 117 142 181 226 264
#     4   8  14  23  34  53  81 111 142 174 210 254
#     4   9  16  26  39  56  82 116 148 177 212 257
#     4   8  15  27  45  67  88 113 147 187 222 255
#     4   9  17  28  44  65  89 118 149 181 217 260
#     4   9  15  22  35  56  81 111 143 175 214 256
#
# _framework density 28.028521999999999
#
# number of rings (size 3 to 8) (size 9 to 14) (size 15 to 20)
#    0.000    3.286    0.000    3.000    0.000    5.714 
#    0.000    0.000    0.000    2.571    0.000    6.000 
#    0.000    0.000    0.000    0.000    0.000    0.000 
#
# Total GULP energy -156582.586914 kJ/mol
# GULP energy per Si atom -5592.235247 kJ/mol
# Density = 2.796473 g / cm^3
# Si number density = 28.028522 Si / 1000 Ang^3
#
#
#
# Elastic Constant Matrix: (Units=GPa)
#
#
# Indices 1 2 3 4 5 6 
#
# 1 81.7766 -1.4501 6.3965 0.0000 -10.5601 0.0000
# 2 -1.4501 101.7418 8.2261 0.0000 -4.5436 0.0000
# 3 6.3965 8.2261 224.8009 0.0000 11.7637 0.0000
# 4 0.0000 0.0000 0.0000 20.5180 0.0000 -6.8203
# 5 -10.5601 -4.5436 11.7637 0.0000 65.6403 0.0000
# 6 0.0000 0.0000 0.0000 -6.8203 0.0000 15.5708
#
#
#
# Elastic Compliance Matrix: (Units=1/GPa)
#
#
# Indices 1 2 3 4 5 6 
#
# 1 0.012546 0.000313 -0.000480 0.000000 0.002126 0.000000
# 2 0.000313 0.009903 -0.000414 0.000000 0.000810 0.000000
# 3 -0.000480 -0.000414 0.004525 0.000000 -0.000917 0.000000
# 4 0.000000 0.000000 0.000000 0.057043 0.000000 0.024986
# 5 0.002126 0.000810 -0.000917 0.000000 0.015797 0.000000
# 6 0.000000 0.000000 0.000000 0.024986 0.000000 0.075167
#
#
# Mechanical properties :
#
#
# Convention : Reuss Voigt Hill
#
# Bulk Modulus (GPa) = 38.74095 48.29602 43.51849
# Shear Modulus (GPa) = 27.06404 46.68894 36.87649
#
# Velocity S-wave (km/s) = 3.11076 4.08581 3.63116
# Velocity P-wave (km/s) = 5.17247 6.28704 5.75679
#
# Compressibility (1/GPa) = 0.02581248
#
# Stress axis : x y z
#
# Youngs Moduli (GPa) = 79.70642 100.98087 220.98759
#
# Poissons Ratio (x) = -0.03156 0.10600
# Poissons Ratio (y) = -0.02491 0.09141
# Poissons Ratio (z) = 0.03823 0.04177
#
# Static dielectric constant tensor:
#      x y z
#    x 2.381920 0.000000 -0.002330 
#    y 0.000000 1.987500 0.000000 
#    z -0.002330 0.000000 2.198300 
# 
# From -- ./inp_files/287409.got.cif
#   From: 2010.05.17/outbox.cif.g08.bks.cpg/sg12_144_cif.got.tgz:287409.got - 2010.06.03 13:09:07.
