data_PCOD9171516
_publ_section_title
;
Structure prediction by ZEFSAII (Michael W. Deem and Ramdas Pophale) SiO2 
 PCOD9171516
Probable space group: C 2/M
;
_chemical_formula_sum "Si O2"
_cell_formula_units_Z 44
_cell_length_a 13.247081
_cell_length_b 25.339418
_cell_length_c 7.463073
_cell_angle_alpha 90.000000
_cell_angle_beta 82.934649
_cell_angle_gamma 90.000000
_cell_volume 2486.131629
_symmetry_space_group_name_H-M "C 2/M"
_symmetry_group_IT_number 12
_symmetry_cell_setting 'monoclinic'
loop_
_space_group_symop_operation_xyz
x,y,z
-x,y,-z
-x,-y,-z
x,-y,z
1/2+x,1/2+y,z
1/2-x,1/2+y,-z
1/2-x,1/2-y,-z
1/2+x,1/2-y,z
loop_
_atom_site_type_symbol
_atom_site_label
_atom_site_fract_x
_atom_site_fract_y
_atom_site_fract_z
Si Si1 0.338437 0.179877 0.988614
Si Si2 0.300245 0.165753 0.407610
Si Si3 0.385220 0.272334 0.472939
Si Si4 0.000000 0.401236 0.000000
Si Si5 0.405074 0.059065 0.384843
Si Si6 0.615303 0.704517 0.947183
O O1 0.345904 0.173384 0.201156
O O2 0.419119 0.136248 0.911131
O O3 0.373020 0.240195 0.944710
O O4 0.219655 0.173010 0.965848
O O5 0.346440 0.212698 0.519871
O O6 0.183451 0.183144 0.420555
O O7 0.328147 0.106480 0.451179
O O8 0.500000 0.276951 0.500000
O O9 0.375685 0.282160 0.263802
O O10 0.056226 0.433231 0.829556
O O11 0.500000 0.063377 0.500000
O O12 0.362159 0.000000 0.412175
O O13 0.500000 0.683627 0.000000
#
# Coordination Sequence:
#
# PCOD9171516 Si02
#       6
#     8   8   8   4   8   8
#     4   9  18  30  45  68  97 135 169 204 253 301
#     4   9  19  33  47  72 101 134 168 209 253 305
#     4  10  19  30  48  73 102 137 166 204 253 310
#     4  10  19  34  54  74 104 136 170 214 259 310
#     4  10  21  35  54  77 103 134 174 218 258 305
#     4  10  18  28  44  67 100 133 171 204 243 308
#
# _framework density 17.698177000000001
#
# number of rings (size 3 to 8) (size 9 to 14) (size 15 to 20)
#    0.000    2.364    0.909    1.909    2.545    1.455 
#    0.000    0.000    0.000    0.545    0.000    0.000 
#    0.000    8.364    0.000    0.000    0.000    0.000 
#
# Total GULP energy -122555.703495 kJ/mol
# GULP energy per Si atom -5570.713795 kJ/mol
# Density = 1.765790 g / cm^3
# Si number density = 17.698177 Si / 1000 Ang^3
#
#
#
# Elastic Constant Matrix: (Units=GPa)
#
#
# Indices 1 2 3 4 5 6 
#
# 1 111.5127 58.2133 -3.6578 0.0000 -13.7546 0.0000
# 2 58.2133 114.8155 7.1811 0.0000 -7.4564 0.0000
# 3 -3.6578 7.1811 30.3480 0.0000 0.1152 0.0000
# 4 0.0000 0.0000 0.0000 13.9976 0.0000 -7.2117
# 5 -13.7546 -7.4564 0.1152 0.0000 27.5070 0.0000
# 6 0.0000 0.0000 0.0000 -7.2117 0.0000 20.6521
#
#
#
# Elastic Compliance Matrix: (Units=1/GPa)
#
#
# Indices 1 2 3 4 5 6 
#
# 1 0.013049 -0.006501 0.003093 0.000000 0.004750 0.000000
# 2 -0.006501 0.012241 -0.003680 0.000000 0.000083 0.000000
# 3 0.003093 -0.003680 0.034193 0.000000 0.000406 0.000000
# 4 0.000000 0.000000 0.000000 0.087114 0.000000 0.030420
# 5 0.004750 0.000083 0.000406 0.000000 0.038750 0.000000
# 6 0.000000 0.000000 0.000000 0.030420 0.000000 0.059044
#
#
# Mechanical properties :
#
#
# Convention : Reuss Voigt Hill
#
# Bulk Modulus (GPa) = 22.07194 42.23882 32.15538
# Shear Modulus (GPa) = 18.27021 25.42731 21.84876
#
# Velocity S-wave (km/s) = 3.21646 3.79452 3.51739
# Velocity P-wave (km/s) = 5.12763 6.56627 5.89103
#
# Compressibility (1/GPa) = 0.04530640
#
# Stress axis : x y z
#
# Youngs Moduli (GPa) = 76.63709 81.69118 29.24553
#
# Poissons Ratio (x) = 0.53106 -0.09045
# Poissons Ratio (y) = 0.49820 0.10764
# Poissons Ratio (z) = -0.23703 0.30066
#
# Static dielectric constant tensor:
#      x y z
#    x 1.626670 0.000000 -0.003120 
#    y 0.000000 1.623010 0.000000 
#    z -0.003120 0.000000 1.666710 
# 
# From -- ./inp_files/50511.got.cif
#   From: 2010.05.17/outbox.cif.g08.bks.cpg/sg12_26_cif.got.tgz:50511.got - 2010.06.03 13:09:07.
