data_PCOD9171620
_publ_section_title
;
Structure prediction by ZEFSAII (Michael W. Deem and Ramdas Pophale) SiO2 
 PCOD9171620
Probable space group: C 2/M
;
_chemical_formula_sum "Si O2"
_cell_formula_units_Z 64
_cell_length_a 19.636189
_cell_length_b 9.204353
_cell_length_c 22.299523
_cell_angle_alpha 90.000000
_cell_angle_beta 68.227630
_cell_angle_gamma 90.000000
_cell_volume 3742.872471
_symmetry_space_group_name_H-M "C 2/M"
_symmetry_group_IT_number 12
_symmetry_cell_setting 'monoclinic'
loop_
_space_group_symop_operation_xyz
x,y,z
-x,y,-z
-x,-y,-z
x,-y,z
1/2+x,1/2+y,z
1/2-x,1/2+y,-z
1/2-x,1/2-y,-z
1/2+x,1/2-y,z
loop_
_atom_site_type_symbol
_atom_site_label
_atom_site_fract_x
_atom_site_fract_y
_atom_site_fract_z
Si Si1 0.400554 0.829821 0.646780
Si Si2 0.922755 0.329427 0.397146
Si Si3 0.173396 0.826084 0.216827
Si Si4 0.911045 0.832462 0.522297
Si Si5 0.338537 0.827005 0.188839
Si Si6 0.903369 0.827274 0.279331
Si Si7 0.444209 0.672583 0.840245
Si Si8 0.012700 0.674410 0.927795
O O1 0.488314 0.817156 0.629013
O O2 0.359825 0.754341 0.715004
O O3 0.382538 0.750053 0.590311
O O4 0.382928 0.000000 0.648734
O O5 0.904541 0.500000 0.402952
O O6 0.893846 0.250796 0.466412
O O7 0.896883 0.251253 0.345127
O O8 0.259755 0.797400 0.185907
O O9 0.127723 0.782751 0.172975
O O10 0.162535 0.000000 0.227993
O O11 0.000000 0.831918 0.500000
O O12 0.887323 0.000000 0.528283
O O13 0.350086 0.739687 0.246579
O O14 0.405649 0.790077 0.122731
O O15 0.343205 0.000000 0.200151
O O16 0.985368 0.800735 0.225877
O O17 0.893590 0.000000 0.288529
O O18 0.441645 0.500000 0.852407
O O19 0.458218 0.755196 0.897413
O O20 0.004623 0.500000 0.928670
O O21 0.000000 0.723166 0.000000
#
# Coordination Sequence:
#
# PCOD9171620 Si02
#       8
#     8   8   8   8   8   8   8   8
#     4  10  19  29  45  70 100 132 166 208 256 302
#     4  10  18  28  45  70  99 129 167 212 256 301
#     4  10  19  33  51  72 101 134 168 207 251 302
#     4   9  17  28  43  65  96 132 169 210 254 300
#     4   9  19  34  52  73 100 134 169 204 248 300
#     4  10  18  30  49  72  99 129 167 212 254 298
#     4   9  18  31  50  75 100 129 166 206 247 292
#     4   9  18  34  55  77 102 133 168 204 244 293
#
# _framework density 17.099167000000001
#
# number of rings (size 3 to 8) (size 9 to 14) (size 15 to 20)
#    0.000    2.500    1.250    1.500    0.000    4.250 
#    0.000    0.625    0.000    0.750    0.000    0.000 
#    0.000    0.000    0.000    0.000    0.000    0.000 
#
# Total GULP energy -178480.729850 kJ/mol
# GULP energy per Si atom -5577.522808 kJ/mol
# Density = 1.706025 g / cm^3
# Si number density = 17.099167 Si / 1000 Ang^3
#
#
#
# Elastic Constant Matrix: (Units=GPa)
#
#
# Indices 1 2 3 4 5 6 
#
# 1 103.6149 53.2324 61.7919 0.0000 24.1820 0.0000
# 2 53.2324 70.3921 64.5606 0.0000 18.3152 0.0001
# 3 61.7919 64.5606 132.6594 0.0000 39.8976 0.0000
# 4 0.0000 0.0000 0.0000 27.0220 0.0000 8.5970
# 5 24.1820 18.3152 39.8976 0.0000 23.4865 0.0000
# 6 0.0000 0.0001 0.0000 8.5970 0.0000 21.7471
#
#
#
# Elastic Compliance Matrix: (Units=1/GPa)
#
#
# Indices 1 2 3 4 5 6 
#
# 1 0.017344 -0.010575 -0.000086 0.000000 -0.009466 0.000000
# 2 -0.010575 0.032176 -0.013211 0.000000 0.008239 0.000000
# 3 -0.000086 -0.013211 0.022250 0.000000 -0.027407 0.000000
# 4 0.000000 0.000000 0.000000 0.042331 0.000000 -0.016734
# 5 -0.009466 0.008239 -0.027407 0.000000 0.092456 0.000000
# 6 0.000000 0.000000 0.000000 -0.016734 0.000000 0.052599
#
#
# Mechanical properties :
#
#
# Convention : Reuss Voigt Hill
#
# Bulk Modulus (GPa) = 41.61895 73.98181 57.80038
# Shear Modulus (GPa) = 15.87767 22.92320 19.40044
#
# Velocity S-wave (km/s) = 3.05054 3.66540 3.37201
# Velocity P-wave (km/s) = 6.06633 7.82776 7.00265
#
# Compressibility (1/GPa) = 0.02402751
#
# Stress axis : x y z
#
# Youngs Moduli (GPa) = 57.65645 31.07901 44.94406
#
# Poissons Ratio (x) = 0.32865 0.00384
# Poissons Ratio (y) = 0.60970 0.59376
# Poissons Ratio (z) = 0.00493 0.41059
#
# Static dielectric constant tensor:
#      x y z
#    x 1.575210 0.000000 -0.006580 
#    y 0.000000 1.568570 0.000000 
#    z -0.006580 0.000000 1.549030 
# 
# From -- ./inp_files/319116.got.cif
#   From: 2010.05.17/outbox.cif.g08.bks.cpg/sg12_160_cif.got.tgz:319116.got - 2010.06.03 13:09:07.
