data_PCOD9171848
_publ_section_title
;
Structure prediction by ZEFSAII (Michael W. Deem and Ramdas Pophale) SiO2 
 PCOD9171848
Probable space group: C 2/M
;
_chemical_formula_sum "Si O2"
_cell_formula_units_Z 64
_cell_length_a 20.989952
_cell_length_b 8.541970
_cell_length_c 25.009965
_cell_angle_alpha 90.000000
_cell_angle_beta 53.473580
_cell_angle_gamma 90.000000
_cell_volume 3603.404675
_symmetry_space_group_name_H-M "C 2/M"
_symmetry_group_IT_number 12
_symmetry_cell_setting 'monoclinic'
loop_
_space_group_symop_operation_xyz
x,y,z
-x,y,-z
-x,-y,-z
x,-y,z
1/2+x,1/2+y,z
1/2-x,1/2+y,-z
1/2-x,1/2-y,-z
1/2+x,1/2-y,z
loop_
_atom_site_type_symbol
_atom_site_label
_atom_site_fract_x
_atom_site_fract_y
_atom_site_fract_z
Si Si1 0.151180 0.812769 0.292772
Si Si2 0.679886 0.189236 0.497186
Si Si3 0.201529 0.189823 0.150440
Si Si4 0.182121 0.311464 0.994035
Si Si5 0.565034 0.187900 0.138660
Si Si6 0.922897 0.812640 0.273592
Si Si7 0.523678 0.187653 0.637869
Si Si8 0.240430 0.311052 0.351808
O O1 0.190837 0.760380 0.216861
O O2 0.197472 0.750080 0.320767
O O3 0.060547 0.756143 0.337017
O O4 0.152399 0.000000 0.292940
O O5 0.750000 0.250000 0.500000
O O6 0.595500 0.239267 0.563371
O O7 0.696817 0.240517 0.428118
O O8 0.681970 0.000000 0.497143
O O9 0.284832 0.235406 0.080621
O O10 0.130133 0.258823 0.150284
O O11 0.194806 0.000000 0.151552
O O12 0.181988 0.500000 0.995315
O O13 0.250000 0.250000 0.000000
O O14 0.100329 0.261846 0.063165
O O15 0.481977 0.260944 0.197186
O O16 0.559061 0.000000 0.143067
O O17 0.954791 0.741066 0.312999
O O18 0.832444 0.761868 0.309086
O O19 0.924556 0.000000 0.277921
O O20 0.519026 0.000000 0.638943
O O21 0.239013 0.500000 0.351498
#
# Coordination Sequence:
#
# PCOD9171848 Si02
#       8
#     8   8   8   8   8   8   8   8
#     4  11  23  37  56  82 113 147 184 225 270 324
#     4  10  21  38  60  84 109 142 180 225 275 323
#     4   9  17  31  50  73 107 145 179 220 270 321
#     4   8  15  27  44  71 105 139 175 218 268 318
#     4  10  18  28  49  80 109 138 178 225 270 322
#     4  11  21  35  56  80 109 144 182 225 274 325
#     4  11  22  36  59  85 110 141 180 226 273 325
#     4  10  23  41  58  78 109 146 183 224 274 328
#
# _framework density 17.760981000000001
#
# number of rings (size 3 to 8) (size 9 to 14) (size 15 to 20)
#    0.000    2.000    2.500    1.500    0.000    3.500 
#    0.000    2.500    0.000    0.750    0.000    5.250 
#    0.000    0.000    0.000    0.000    0.000    0.000 
#
# Total GULP energy -178494.135744 kJ/mol
# GULP energy per Si atom -5577.941742 kJ/mol
# Density = 1.772056 g / cm^3
# Si number density = 17.760981 Si / 1000 Ang^3
#
#
#
# Elastic Constant Matrix: (Units=GPa)
#
#
# Indices 1 2 3 4 5 6 
#
# 1 93.7583 13.7857 62.1902 -0.0002 -2.2602 -0.0004
# 2 13.7857 12.7041 20.5508 -0.0007 -0.9095 -0.0011
# 3 62.1902 20.5508 172.6262 0.0000 -19.2621 -0.0001
# 4 -0.0002 -0.0007 0.0000 21.9014 0.0000 0.1166
# 5 -2.2602 -0.9095 -19.2621 0.0000 26.6367 -0.0001
# 6 -0.0004 -0.0011 -0.0001 0.1166 -0.0001 26.6215
#
#
#
# Elastic Compliance Matrix: (Units=1/GPa)
#
#
# Indices 1 2 3 4 5 6 
#
# 1 0.014974 -0.008999 -0.004586 0.000000 -0.002353 0.000000
# 2 -0.008999 0.103646 -0.009558 0.000003 -0.004137 0.000004
# 3 -0.004586 -0.009558 0.009249 0.000000 0.005973 0.000000
# 4 0.000000 0.000003 0.000000 0.045660 0.000000 -0.000200
# 5 -0.002353 -0.004137 0.005973 0.000000 0.041521 0.000000
# 6 0.000000 0.000004 0.000000 -0.000200 0.000000 0.037564
#
#
# Mechanical properties :
#
#
# Convention : Reuss Voigt Hill
#
# Bulk Modulus (GPa) = 12.25752 52.46021 32.35887
# Shear Modulus (GPa) = 15.33297 27.20272 21.26784
#
# Velocity S-wave (km/s) = 2.94138 3.91781 3.46417
# Velocity P-wave (km/s) = 4.29557 7.07577 5.85314
#
# Compressibility (1/GPa) = 0.08158256
#
# Stress axis : x y z
#
# Youngs Moduli (GPa) = 66.78295 9.64826 108.11639
#
# Poissons Ratio (x) = 0.08683 0.49579
# Poissons Ratio (y) = 0.60099 1.03341
# Poissons Ratio (z) = 0.30625 0.09222
#
# Static dielectric constant tensor:
#      x y z
#    x 1.556090 0.000000 -0.023540 
#    y 0.000000 1.607990 0.000000 
#    z -0.023540 0.000000 1.653820 
# 
# From -- ./inp_files/319952.got.cif
#   From: 2010.05.17/outbox.cif.g08.bks.cpg/sg12_160_cif.got.tgz:319952.got - 2010.06.03 13:09:07.
