data_PCOD9171379
_publ_section_title
;
Structure prediction by ZEFSAII (Michael W. Deem and Ramdas Pophale) SiO2 
 PCOD9171379
Probable space group: C 2/M
;
_chemical_formula_sum "Si O2"
_cell_formula_units_Z 64
_cell_length_a 33.110560
_cell_length_b 8.990880
_cell_length_c 16.387299
_cell_angle_alpha 90.000000
_cell_angle_beta 69.581832
_cell_angle_gamma 90.000000
_cell_volume 4571.883317
_symmetry_space_group_name_H-M "C 2/M"
_symmetry_group_IT_number 12
_symmetry_cell_setting 'monoclinic'
loop_
_space_group_symop_operation_xyz
x,y,z
-x,y,-z
-x,-y,-z
x,-y,z
1/2+x,1/2+y,z
1/2-x,1/2+y,-z
1/2-x,1/2-y,-z
1/2+x,1/2-y,z
loop_
_atom_site_type_symbol
_atom_site_label
_atom_site_fract_x
_atom_site_fract_y
_atom_site_fract_z
Si Si1 0.512480 0.321535 0.859028
Si Si2 0.917573 0.677348 0.676445
Si Si3 0.342868 0.321070 0.835903
Si Si4 0.048293 0.828673 0.504113
Si Si5 0.987877 0.676978 0.315817
Si Si6 0.930235 0.178491 0.025816
Si Si7 0.751819 0.677979 0.087901
Si Si8 0.653661 0.821477 0.985747
O O1 0.513017 0.500000 0.846767
O O2 0.518919 0.240617 0.769325
O O3 0.548256 0.285330 0.902192
O O4 0.466267 0.283518 0.932154
O O5 0.911977 0.500000 0.678653
O O6 0.878946 0.754452 0.751906
O O7 0.922960 0.740974 0.581425
O O8 0.962758 0.709336 0.691249
O O9 0.347019 0.500000 0.837783
O O10 0.294128 0.282603 0.840088
O O11 0.348159 0.252392 0.922896
O O12 0.000000 0.826599 0.500000
O O13 0.043060 0.752144 0.595427
O O14 0.061832 0.000000 0.501576
O O15 0.982330 0.500000 0.321695
O O16 0.924115 0.000000 0.026978
O O17 0.886067 0.260430 0.037883
O O18 0.751418 0.500000 0.079593
O O19 0.750000 0.750000 0.000000
O O20 0.799455 0.717197 0.086272
O O21 0.650844 0.000000 0.996252
#
# Coordination Sequence:
#
# PCOD9171379 Si02
#       8
#     8   8   8   8   8   8   8   8
#     4   9  18  31  44  58  80 109 141 175 206 240
#     4  10  19  29  41  61  87 110 135 170 207 241
#     4  10  18  28  42  59  81 111 143 170 199 242
#     4   9  17  29  44  60  79 107 140 169 199 240
#     4  10  19  29  42  60  83 110 138 170 208 244
#     4   9  18  31  44  59  80 108 141 175 208 241
#     4   8  16  28  40  56  79 106 136 169 203 240
#     4  10  18  28  42  60  82 108 138 173 211 245
#
# _framework density 13.998607
#
# number of rings (size 3 to 8) (size 9 to 14) (size 15 to 20)
#    0.000    2.625    0.000    3.375    0.000    7.000 
#    0.000    1.250    0.000    0.000    0.000    0.000 
#    0.000    1.000    0.000    3.000    0.000    4.625 
#
# Total GULP energy -178246.040622 kJ/mol
# GULP energy per Si atom -5570.188769 kJ/mol
# Density = 1.396675 g / cm^3
# Si number density = 13.998607 Si / 1000 Ang^3
#
#
#
# Elastic Constant Matrix: (Units=GPa)
#
#
# Indices 1 2 3 4 5 6 
#
# 1 91.1057 41.9719 37.2124 0.0000 -7.9073 0.0000
# 2 41.9719 48.5871 42.8261 0.0000 -5.2279 0.0000
# 3 37.2124 42.8261 94.2327 0.0000 -3.5723 0.0000
# 4 0.0000 0.0000 0.0000 23.4101 0.0000 -1.5667
# 5 -7.9073 -5.2279 -3.5723 0.0000 18.8354 0.0000
# 6 0.0000 0.0000 0.0000 -1.5667 0.0000 19.0974
#
#
#
# Elastic Compliance Matrix: (Units=1/GPa)
#
#
# Indices 1 2 3 4 5 6 
#
# 1 0.018445 -0.015446 -0.000134 0.000000 0.003431 0.000000
# 2 -0.015446 0.048111 -0.015617 0.000000 0.003907 0.000000
# 3 -0.000134 -0.015617 0.017723 0.000000 -0.001029 0.000000
# 4 0.000000 0.000000 0.000000 0.042952 0.000000 0.003524
# 5 0.003431 0.003907 -0.001029 0.000000 0.055421 0.000000
# 6 0.000000 0.000000 0.000000 0.003524 0.000000 0.052652
#
#
# Mechanical properties :
#
#
# Convention : Reuss Voigt Hill
#
# Bulk Modulus (GPa) = 45.69501 53.10516 49.40009
# Shear Modulus (GPa) = 16.39380 19.72959 18.06170
#
# Velocity S-wave (km/s) = 3.42585 3.75827 3.59590
# Velocity P-wave (km/s) = 6.95428 7.53997 7.25304
#
# Compressibility (1/GPa) = 0.02188423
#
# Stress axis : x y z
#
# Youngs Moduli (GPa) = 54.21600 20.78546 56.42277
#
# Poissons Ratio (x) = 0.32106 0.00755
# Poissons Ratio (y) = 0.83744 0.88115
# Poissons Ratio (z) = 0.00726 0.32461
#
# Static dielectric constant tensor:
#      x y z
#    x 1.470410 0.000000 -0.012560 
#    y 0.000000 1.465910 0.000000 
#    z -0.012560 0.000000 1.435230 
# 
# From -- ./inp_files/248327.got.cif
#   From: 2010.05.17/outbox.cif.g08.bks.cpg/sg12_125_cif.got.tgz:248327.got - 2010.06.03 13:09:07.
