data_PCOD9171324
_publ_section_title
;
Structure prediction by ZEFSAII (Michael W. Deem and Ramdas Pophale) SiO2 
 PCOD9171324
Probable space group: C 2/M
;
_chemical_formula_sum "Si O2"
_cell_formula_units_Z 64
_cell_length_a 22.761463
_cell_length_b 7.443199
_cell_length_c 17.562627
_cell_angle_alpha 90.000000
_cell_angle_beta 94.233183
_cell_angle_gamma 90.000000
_cell_volume 2967.309593
_symmetry_space_group_name_H-M "C 2/M"
_symmetry_group_IT_number 12
_symmetry_cell_setting 'monoclinic'
loop_
_space_group_symop_operation_xyz
x,y,z
-x,y,-z
-x,-y,-z
x,-y,z
1/2+x,1/2+y,z
1/2-x,1/2+y,-z
1/2-x,1/2-y,-z
1/2+x,1/2-y,z
loop_
_atom_site_type_symbol
_atom_site_label
_atom_site_fract_x
_atom_site_fract_y
_atom_site_fract_z
Si Si1 0.416874 0.285384 0.120312
Si Si2 0.679440 0.205401 0.584797
Si Si3 0.155418 0.781898 0.022407
Si Si4 0.734332 0.281222 0.160834
Si Si5 0.350435 0.214967 0.256078
Si Si6 0.453054 0.718741 0.877138
Si Si7 0.873121 0.784295 0.738162
Si Si8 0.312039 0.790189 0.582035
O O1 0.417570 0.500000 0.109906
O O2 0.405848 0.249145 0.207765
O O3 0.480967 0.217892 0.101129
O O4 0.362918 0.216107 0.062903
O O5 0.651184 0.286559 0.658091
O O6 0.670956 0.284245 0.499503
O O7 0.750418 0.205109 0.603463
O O8 0.874106 0.000000 0.737130
O O9 0.212211 0.718486 0.075522
O O10 0.097843 0.734195 0.067856
O O11 0.159720 0.000000 0.021267
O O12 0.736361 0.500000 0.158646
O O13 0.794909 0.214392 0.202060
O O14 0.682970 0.231415 0.215559
O O15 0.342702 0.000000 0.261691
O O16 0.454643 0.500000 0.878648
O O17 0.429789 0.775354 0.791558
O O18 0.861073 0.725410 0.651345
O O19 0.658123 0.000000 0.577879
O O20 0.297902 0.000000 0.570109
#
# Coordination Sequence:
#
# PCOD9171324 Si02
#       8
#     8   8   8   8   8   8   8   8
#     4  10  19  30  46  71  95 116 154 203 236 258
#     4   9  18  32  47  65  93 129 157 178 215 280
#     4   8  14  26  47  71  91 114 151 199 237 265
#     4   8  14  26  45  66  88 121 158 182 214 276
#     4  10  19  32  47  62  91 132 161 176 211 284
#     4   8  15  28  49  71  90 119 157 193 230 275
#     4   9  15  28  49  69  91 122 155 184 225 280
#     4  10  18  27  46  75  98 113 144 194 238 265
#
# _framework density 21.568359999999998
#
# number of rings (size 3 to 8) (size 9 to 14) (size 15 to 20)
#    0.000    3.000    1.250    2.250    0.000    3.000 
#    0.000    0.625    0.000    5.250    0.000    5.250 
#    0.000    0.000    0.000    0.000    0.000    0.000 
#
# Total GULP energy -178461.629492 kJ/mol
# GULP energy per Si atom -5576.925922 kJ/mol
# Density = 2.151927 g / cm^3
# Si number density = 21.568360 Si / 1000 Ang^3
#
#
#
# Elastic Constant Matrix: (Units=GPa)
#
#
# Indices 1 2 3 4 5 6 
#
# 1 14.5978 -3.7718 -1.2399 0.0000 1.8299 0.0000
# 2 -3.7718 66.9974 -3.2669 0.0000 1.7496 0.0000
# 3 -1.2399 -3.2669 124.0465 0.0000 6.1414 0.0000
# 4 0.0000 0.0000 0.0000 5.2375 0.0000 -1.2695
# 5 1.8299 1.7496 6.1414 0.0000 24.9534 0.0000
# 6 0.0000 0.0000 0.0000 -1.2695 0.0000 3.4274
#
#
#
# Elastic Compliance Matrix: (Units=1/GPa)
#
#
# Indices 1 2 3 4 5 6 
#
# 1 0.070390 0.004166 0.001097 0.000000 -0.005724 0.000000
# 2 0.004166 0.015225 0.000517 0.000000 -0.001500 0.000000
# 3 0.001097 0.000517 0.008192 0.000000 -0.002133 0.000000
# 4 0.000000 0.000000 0.000000 0.209764 0.000000 0.077697
# 5 -0.005724 -0.001500 -0.002133 0.000000 0.041124 0.000000
# 6 0.000000 0.000000 0.000000 0.077697 0.000000 0.320546
#
#
# Mechanical properties :
#
#
# Convention : Reuss Voigt Hill
#
# Bulk Modulus (GPa) = 9.49077 21.00940 15.25008
# Shear Modulus (GPa) = 7.25895 20.98502 14.12198
#
# Velocity S-wave (km/s) = 1.83653 3.12260 2.56159
# Velocity P-wave (km/s) = 2.98446 4.77104 3.97931
#
# Compressibility (1/GPa) = 0.10536550
#
# Stress axis : x y z
#
# Youngs Moduli (GPa) = 14.20647 65.68212 122.07543
#
# Poissons Ratio (x) = -0.27361 -0.13387
# Poissons Ratio (y) = -0.05918 -0.06310
# Poissons Ratio (z) = -0.01558 -0.03395
#
# Static dielectric constant tensor:
#      x y z
#    x 1.757010 0.000000 0.009690 
#    y 0.000000 1.943560 0.000000 
#    z 0.009690 0.000000 1.835060 
# 
# From -- ./inp_files/287691.got.cif
#   From: 2010.05.17/outbox.cif.g08.bks.cpg/sg12_144_cif.got.tgz:287691.got - 2010.06.03 13:09:07.
