data_PCOD9171351
_publ_section_title
;
Structure prediction by ZEFSAII (Michael W. Deem and Ramdas Pophale) SiO2 
 PCOD9171351
Probable space group: C 2/M
;
_chemical_formula_sum "Si O2"
_cell_formula_units_Z 56
_cell_length_a 27.544534
_cell_length_b 9.388004
_cell_length_c 17.715091
_cell_angle_alpha 90.000000
_cell_angle_beta 54.228260
_cell_angle_gamma 90.000000
_cell_volume 3716.734354
_symmetry_space_group_name_H-M "C 2/M"
_symmetry_group_IT_number 12
_symmetry_cell_setting 'monoclinic'
loop_
_space_group_symop_operation_xyz
x,y,z
-x,y,-z
-x,-y,-z
x,-y,z
1/2+x,1/2+y,z
1/2-x,1/2+y,-z
1/2-x,1/2-y,-z
1/2+x,1/2-y,z
loop_
_atom_site_type_symbol
_atom_site_label
_atom_site_fract_x
_atom_site_fract_y
_atom_site_fract_z
Si Si1 0.534581 0.170749 0.045468
Si Si2 0.327465 0.170410 0.060859
Si Si3 0.901973 0.670120 0.601991
Si Si4 0.483138 0.334304 0.787142
Si Si5 0.203779 0.829293 0.229258
Si Si6 0.660371 0.335503 0.100848
Si Si7 0.988006 0.329366 0.386928
O O1 0.605257 0.207557 0.975031
O O2 0.530607 0.000000 0.061929
O O3 0.500000 0.204481 0.000000
O O4 0.508654 0.253508 0.141106
O O5 0.273874 0.210424 0.166043
O O6 0.324686 0.000000 0.054475
O O7 0.317104 0.240614 0.988653
O O8 0.893169 0.500000 0.613029
O O9 0.840622 0.750529 0.673942
O O10 0.951040 0.705830 0.622263
O O11 0.933942 0.703713 0.493504
O O12 0.500122 0.500000 0.776402
O O13 0.411715 0.327690 0.835848
O O14 0.513886 0.255025 0.689226
O O15 0.182164 0.793023 0.163809
O O16 0.198006 0.000000 0.243751
O O17 0.678126 0.500000 0.072392
O O18 0.988573 0.500000 0.373347
#
# Coordination Sequence:
#
# PCOD9171351 Si02
#       7
#     8   8   8   8   8   8   8
#     4   9  18  33  50  67  88 115 148 185 225 267
#     4   9  18  29  43  62  84 114 149 182 216 259
#     4   9  18  29  43  62  87 121 157 186 211 248
#     4  10  18  28  45  68  92 117 147 182 222 265
#     4  10  18  28  40  60  90 119 148 180 215 256
#     4   9  17  27  38  58  88 118 146 176 209 253
#     4   9  17  30  44  62  88 119 155 187 213 250
#
# _framework density 15.066989
#
# number of rings (size 3 to 8) (size 9 to 14) (size 15 to 20)
#    0.000    2.714    1.429    1.714    0.000    2.571 
#    0.000    1.429    0.000    0.000    0.000    1.000 
#    0.000    0.000    0.000    0.000    0.000    0.000 
#
# Total GULP energy -156014.520686 kJ/mol
# GULP energy per Si atom -5571.947167 kJ/mol
# Density = 1.503270 g / cm^3
# Si number density = 15.066989 Si / 1000 Ang^3
#
#
#
# Elastic Constant Matrix: (Units=GPa)
#
#
# Indices 1 2 3 4 5 6 
#
# 1 53.6244 31.2573 51.3086 0.0000 5.4563 0.0000
# 2 31.2573 39.6802 62.5627 -0.0001 1.0077 -0.0001
# 3 51.3086 62.5627 135.8593 0.0000 -6.2491 0.0000
# 4 0.0000 -0.0001 0.0000 29.1049 0.0000 -1.8749
# 5 5.4563 1.0077 -6.2491 0.0000 23.4201 0.0000
# 6 0.0000 -0.0001 0.0000 -1.8749 0.0000 13.8023
#
#
#
# Elastic Compliance Matrix: (Units=1/GPa)
#
#
# Indices 1 2 3 4 5 6 
#
# 1 0.036100 -0.022319 -0.003745 0.000000 -0.008449 0.000000
# 2 -0.022319 0.111667 -0.043509 0.000000 -0.011214 0.000001
# 3 -0.003745 -0.043509 0.029296 0.000000 0.010561 0.000000
# 4 0.000000 0.000000 0.000000 0.034662 0.000000 0.004709
# 5 -0.008449 -0.011214 0.010561 0.000000 0.047967 0.000000
# 6 0.000000 0.000001 0.000000 0.004709 0.000000 0.073091
#
#
# Mechanical properties :
#
#
# Convention : Reuss Voigt Hill
#
# Bulk Modulus (GPa) = 26.37219 57.71346 42.04283
# Shear Modulus (GPa) = 10.31844 18.86783 14.59314
#
# Velocity S-wave (km/s) = 2.61978 3.54257 3.11553
# Velocity P-wave (km/s) = 5.16646 7.42434 6.39582
#
# Compressibility (1/GPa) = 0.03791873
#
# Stress axis : x y z
#
# Youngs Moduli (GPa) = 27.70071 8.95517 34.13387
#
# Poissons Ratio (x) = 0.19987 0.12782
# Poissons Ratio (y) = 0.61824 1.48514
# Poissons Ratio (z) = 0.10373 0.38963
#
# Static dielectric constant tensor:
#      x y z
#    x 1.495110 0.000000 -0.022540 
#    y 0.000000 1.501590 0.000000 
#    z -0.022540 0.000000 1.491640 
# 
# From -- ./inp_files/243643.got.cif
#   From: 2010.05.17/outbox.cif.g08.bks.cpg/sg12_122_cif.got.tgz:243643.got - 2010.06.03 13:09:07.
