data_PCOD9171795
_publ_section_title
;
Structure prediction by ZEFSAII (Michael W. Deem and Ramdas Pophale) SiO2 
 PCOD9171795
Probable space group: C 2/M
;
_chemical_formula_sum "Si O2"
_cell_formula_units_Z 56
_cell_length_a 8.404215
_cell_length_b 28.755744
_cell_length_c 17.107498
_cell_angle_alpha 90.000000
_cell_angle_beta 142.555627
_cell_angle_gamma 90.000000
_cell_volume 2513.653069
_symmetry_space_group_name_H-M "C 2/M"
_symmetry_group_IT_number 12
_symmetry_cell_setting 'monoclinic'
loop_
_space_group_symop_operation_xyz
x,y,z
-x,y,-z
-x,-y,-z
x,-y,z
1/2+x,1/2+y,z
1/2-x,1/2+y,-z
1/2-x,1/2-y,-z
1/2+x,1/2-y,z
loop_
_atom_site_type_symbol
_atom_site_label
_atom_site_fract_x
_atom_site_fract_y
_atom_site_fract_z
Si Si1 0.113267 0.591053 0.345448
Si Si2 0.857673 0.682560 0.744031
Si Si3 0.457601 0.404788 0.793160
Si Si4 0.334381 0.688091 0.054060
Si Si5 0.205704 0.054266 0.423023
Si Si6 0.608995 0.500000 0.923666
Si Si7 0.555092 0.000000 0.802216
Si Si8 0.822016 0.753074 0.202095
O O1 0.183087 0.635583 0.320040
O O2 0.825772 0.598249 0.273916
O O3 0.089335 0.546302 0.280549
O O4 0.285361 0.575551 0.486976
O O5 0.917516 0.723204 0.705379
O O6 0.656526 0.706381 0.725313
O O7 0.117908 0.680403 0.902315
O O8 0.612029 0.361288 0.885954
O O9 0.434024 0.410543 0.690993
O O10 0.592188 0.452853 0.869794
O O11 0.599497 0.714094 0.130616
O O12 0.262265 0.721837 0.097109
O O13 0.500000 0.051634 0.500000
O O14 0.114704 0.000000 0.388158
O O15 0.335866 0.500000 0.866355
O O16 0.862225 0.500000 0.076307
#
# Coordination Sequence:
#
# PCOD9171795 Si02
#       8
#     8   8   8   8   8   4   4   8
#     4  10  18  28  48  73 103 135 170 212 251 303
#     4  11  19  32  52  78 105 136 171 208 257 305
#     4  10  18  28  48  73 103 135 170 212 251 303
#     4  11  19  32  52  78 105 136 171 208 257 305
#     4   9  16  30  48  70 102 137 176 209 253 298
#     4   9  16  25  39  70 106 130 156 206 259 300
#     4   9  16  25  39  70 106 130 156 206 259 300
#     4  10  21  34  52  75 106 139 172 210 251 310
#
# _framework density 22.278333
#
# number of rings (size 3 to 8) (size 9 to 14) (size 15 to 20)
#    0.000    2.000    2.857    4.286    0.000    1.143 
#    0.000    0.000    0.000    6.857    0.000    4.000 
#    0.000    0.000    0.000    0.000    0.000    0.000 
#
# Total GULP energy -156331.670036 kJ/mol
# GULP energy per Si atom -5583.273930 kJ/mol
# Density = 2.222763 g / cm^3
# Si number density = 22.278333 Si / 1000 Ang^3
#
#
#
# Elastic Constant Matrix: (Units=GPa)
#
#
# Indices 1 2 3 4 5 6 
#
# 1 48.0361 20.2126 25.3726 0.0000 -20.9459 0.0000
# 2 20.2126 158.2488 65.7433 0.0000 -17.8295 0.0000
# 3 25.3726 65.7433 88.0582 0.0000 -28.1237 0.0000
# 4 0.0000 0.0000 0.0000 30.9670 0.0000 -18.8276
# 5 -20.9459 -17.8295 -28.1237 0.0000 23.2598 0.0000
# 6 0.0000 0.0000 0.0000 -18.8276 0.0000 17.6212
#
#
#
# Elastic Compliance Matrix: (Units=1/GPa)
#
#
# Indices 1 2 3 4 5 6 
#
# 1 0.034462 -0.001309 0.001040 0.000000 0.031288 0.000000
# 2 -0.001309 0.009269 -0.007576 0.000000 -0.003233 0.000000
# 3 0.001040 -0.007576 0.024692 0.000000 0.024985 0.000000
# 4 0.000000 0.000000 0.000000 0.092162 0.000000 0.098472
# 5 0.031288 -0.003233 0.024985 0.000000 0.098899 0.000000
# 6 0.000000 0.000000 0.000000 0.098472 0.000000 0.161964
#
#
# Mechanical properties :
#
#
# Convention : Reuss Voigt Hill
#
# Bulk Modulus (GPa) = 18.96307 57.44445 38.20376
# Shear Modulus (GPa) = 10.99587 26.57058 18.78323
#
# Velocity S-wave (km/s) = 2.22405 3.45724 2.90680
# Velocity P-wave (km/s) = 3.88916 6.46356 5.33400
#
# Compressibility (1/GPa) = 0.05273407
#
# Stress axis : x y z
#
# Youngs Moduli (GPa) = 29.01754 107.88153 40.49858
#
# Poissons Ratio (x) = 0.14118 -0.04212
# Poissons Ratio (y) = 0.03797 0.30682
# Poissons Ratio (z) = -0.03018 0.81732
#
# Static dielectric constant tensor:
#      x y z
#    x 1.932960 0.000000 0.037040 
#    y 0.000000 1.777620 0.000000 
#    z 0.037040 0.000000 1.825400 
# 
# From -- ./inp_files/200884.got.cif
#   From: 2010.05.17/outbox.cif.g08.bks.cpg/sg12_101_cif.got.tgz:200884.got - 2010.06.03 13:09:07.
