data_PCOD9171065
_publ_section_title
;
Structure prediction by ZEFSAII (Michael W. Deem and Ramdas Pophale) SiO2 
 PCOD9171065
Probable space group: C 2/M
;
_chemical_formula_sum "Si O2"
_cell_formula_units_Z 64
_cell_length_a 24.752360
_cell_length_b 8.305979
_cell_length_c 20.246637
_cell_angle_alpha 90.000000
_cell_angle_beta 126.550566
_cell_angle_gamma 90.000000
_cell_volume 3343.914649
_symmetry_space_group_name_H-M "C 2/M"
_symmetry_group_IT_number 12
_symmetry_cell_setting 'monoclinic'
loop_
_space_group_symop_operation_xyz
x,y,z
-x,y,-z
-x,-y,-z
x,-y,z
1/2+x,1/2+y,z
1/2-x,1/2+y,-z
1/2-x,1/2-y,-z
1/2+x,1/2-y,z
loop_
_atom_site_type_symbol
_atom_site_label
_atom_site_fract_x
_atom_site_fract_y
_atom_site_fract_z
Si Si1 0.274146 0.194059 0.620459
Si Si2 0.004051 0.305132 0.156573
Si Si3 0.639717 0.313942 0.937457
Si Si4 0.353045 0.307576 0.548519
Si Si5 0.506640 0.193620 0.312782
Si Si6 0.143022 0.696851 0.193484
Si Si7 0.142507 0.688229 0.793701
Si Si8 0.784677 0.689566 0.885277
O O1 0.322226 0.242322 0.594733
O O2 0.199106 0.248731 0.546025
O O3 0.306008 0.252229 0.711928
O O4 0.273554 0.000000 0.622874
O O5 0.997870 0.500000 0.149128
O O6 0.016255 0.260325 0.242473
O O7 0.067804 0.255587 0.159454
O O8 0.933337 0.227738 0.085542
O O9 0.643103 0.500000 0.920143
O O10 0.645468 0.209263 0.875414
O O11 0.695165 0.275657 0.032327
O O12 0.350738 0.500000 0.548980
O O13 0.429921 0.253795 0.600042
O O14 0.432104 0.248473 0.279706
O O15 0.506160 0.000000 0.313861
O O16 0.143845 0.500000 0.194114
O O17 0.169038 0.748690 0.141160
O O18 0.148001 0.500000 0.781461
O O19 0.206708 0.779836 0.812406
O O20 0.796084 0.500000 0.903066
#
# Coordination Sequence:
#
# PCOD9171065 Si02
#       8
#     8   8   8   8   8   8   8   8
#     4   9  17  32  49  71 105 141 170 199 243 300
#     4   9  17  33  54  75 100 137 175 207 247 301
#     4  11  22  36  54  77 105 132 163 214 263 303
#     4  10  18  26  47  80 108 131 164 209 251 292
#     4   9  17  31  53  74 101 135 167 204 253 306
#     4   9  18  34  55  73 100 141 177 205 244 305
#     4  10  21  38  57  76  99 132 171 214 259 302
#     4  11  22  36  55  77  98 131 176 216 253 301
#
# _framework density 19.139244000000001
#
# number of rings (size 3 to 8) (size 9 to 14) (size 15 to 20)
#    0.000    2.250    1.250    3.375    0.000    3.500 
#    0.000    5.000    0.000    0.750    0.000    5.250 
#    0.000    0.000    0.000    0.000    0.000    0.000 
#
# Total GULP energy -178553.375890 kJ/mol
# GULP energy per Si atom -5579.792997 kJ/mol
# Density = 1.909568 g / cm^3
# Si number density = 19.139244 Si / 1000 Ang^3
#
#
#
# Elastic Constant Matrix: (Units=GPa)
#
#
# Indices 1 2 3 4 5 6 
#
# 1 62.6197 -5.4131 6.3207 0.0000 22.5231 0.0000
# 2 -5.4131 10.2518 0.1952 0.0000 2.6278 -0.0001
# 3 6.3207 0.1952 50.6064 0.0000 27.7418 0.0000
# 4 0.0000 0.0000 0.0000 22.6787 0.0000 9.6448
# 5 22.5231 2.6278 27.7418 0.0000 30.5605 0.0000
# 6 0.0000 -0.0001 0.0000 9.6448 0.0000 19.2769
#
#
#
# Elastic Compliance Matrix: (Units=1/GPa)
#
#
# Indices 1 2 3 4 5 6 
#
# 1 0.032560 0.028355 0.020533 0.000000 -0.045074 0.000000
# 2 0.028355 0.126347 0.026638 0.000000 -0.055943 0.000000
# 3 0.020533 0.026638 0.053037 0.000000 -0.065568 0.000000
# 4 0.000000 0.000000 0.000000 0.056013 0.000000 -0.028025
# 5 -0.045074 -0.055943 -0.065568 0.000000 0.130272 0.000000
# 6 0.000000 0.000000 0.000000 -0.028025 0.000000 0.065897
#
#
# Mechanical properties :
#
#
# Convention : Reuss Voigt Hill
#
# Bulk Modulus (GPa) = 2.75485 13.96484 8.35985
# Shear Modulus (GPa) = 11.51880 22.66157 17.09019
#
# Velocity S-wave (km/s) = 2.45591 3.44472 2.99145
# Velocity P-wave (km/s) = 3.07969 4.80975 4.03845
#
# Compressibility (1/GPa) = 0.36299598
#
# Stress axis : x y z
#
# Youngs Moduli (GPa) = 30.71226 7.91470 18.85491
#
# Poissons Ratio (x) = -0.22442 -0.38715
# Poissons Ratio (y) = -0.87084 -0.50226
# Poissons Ratio (z) = -0.63061 -0.21083
#
# Static dielectric constant tensor:
#      x y z
#    x 1.673720 0.000000 0.033000 
#    y 0.000000 1.666610 0.000000 
#    z 0.033000 0.000000 1.675260 
# 
# From -- ./inp_files/324249.got.cif
#   From: 2010.05.17/outbox.cif.g08.bks.cpg/sg12_163_cif.got.tgz:324249.got - 2010.06.03 13:09:07.
