data_PCOD9171792
_publ_section_title
;
Structure prediction by ZEFSAII (Michael W. Deem and Ramdas Pophale) SiO2 
 PCOD9171792
Probable space group: C 2/M
;
_chemical_formula_sum "Si O2"
_cell_formula_units_Z 56
_cell_length_a 27.864793
_cell_length_b 9.030784
_cell_length_c 14.708074
_cell_angle_alpha 90.000000
_cell_angle_beta 103.372719
_cell_angle_gamma 90.000000
_cell_volume 3600.800719
_symmetry_space_group_name_H-M "C 2/M"
_symmetry_group_IT_number 12
_symmetry_cell_setting 'monoclinic'
loop_
_space_group_symop_operation_xyz
x,y,z
-x,y,-z
-x,-y,-z
x,-y,z
1/2+x,1/2+y,z
1/2-x,1/2+y,-z
1/2-x,1/2-y,-z
1/2+x,1/2-y,z
loop_
_atom_site_type_symbol
_atom_site_label
_atom_site_fract_x
_atom_site_fract_y
_atom_site_fract_z
Si Si1 0.184966 0.175599 0.393271
Si Si2 0.318472 0.824603 0.219889
Si Si3 0.710505 0.323703 0.608601
Si Si4 0.366558 0.325085 0.075737
Si Si5 0.869707 0.675343 0.782276
Si Si6 0.294078 0.672999 0.881814
Si Si7 0.557422 0.178135 0.028441
O O1 0.235325 0.251725 0.379589
O O2 0.183231 0.203127 0.500526
O O3 0.139904 0.240828 0.315929
O O4 0.189030 0.000000 0.380393
O O5 0.316332 0.748308 0.317289
O O6 0.357022 0.754030 0.166956
O O7 0.263769 0.801036 0.153305
O O8 0.326139 0.000000 0.232105
O O9 0.715748 0.500000 0.623514
O O10 0.373734 0.500000 0.091034
O O11 0.410938 0.256392 0.036306
O O12 0.317870 0.303952 0.991053
O O13 0.869484 0.500000 0.767169
O O14 0.824146 0.722995 0.826803
O O15 0.917430 0.715998 0.863502
O O16 0.303427 0.500000 0.861287
O O17 0.562161 0.000000 0.019633
O O18 0.500000 0.217287 0.000000
#
# Coordination Sequence:
#
# PCOD9171792 Si02
#       7
#     8   8   8   8   8   8   8
#     4  10  19  31  45  65  95 128 162 200 238 276
#     4  11  20  30  45  66  95 131 164 194 234 277
#     4  10  20  31  45  65  92 129 168 201 232 271
#     4  10  20  32  47  68  95 125 160 197 234 283
#     4  10  18  28  48  72  94 125 161 196 236 282
#     4   9  18  30  43  63  93 128 161 194 229 271
#     4   9  19  36  54  73  97 123 155 197 242 287
#
# _framework density 15.552096000000001
#
# number of rings (size 3 to 8) (size 9 to 14) (size 15 to 20)
#    0.000    2.143    1.429    2.571    0.000    3.714 
#    0.000    0.000    0.000    0.000    0.000    1.000 
#    0.000    8.000    0.000    0.000    0.000    0.000 
#
# Total GULP energy -156175.840102 kJ/mol
# GULP energy per Si atom -5577.708575 kJ/mol
# Density = 1.551670 g / cm^3
# Si number density = 15.552096 Si / 1000 Ang^3
#
#
#
# Elastic Constant Matrix: (Units=GPa)
#
#
# Indices 1 2 3 4 5 6 
#
# 1 66.8593 46.6035 64.5794 0.0000 1.1593 0.0000
# 2 46.6035 72.8512 71.1926 0.0000 -4.2388 0.0000
# 3 64.5794 71.1926 131.8456 0.0000 -10.8916 0.0000
# 4 0.0000 0.0000 0.0000 28.6828 0.0000 -4.1719
# 5 1.1593 -4.2388 -10.8916 0.0000 19.6828 0.0000
# 6 0.0000 0.0000 0.0000 -4.1719 0.0000 18.7109
#
#
#
# Elastic Compliance Matrix: (Units=1/GPa)
#
#
# Indices 1 2 3 4 5 6 
#
# 1 0.034078 -0.011104 -0.011589 0.000000 -0.010811 0.000000
# 2 -0.011104 0.032802 -0.012193 0.000000 0.000971 0.000000
# 3 -0.011589 -0.012193 0.020627 0.000000 0.009471 0.000000
# 4 0.000000 0.000000 0.000000 0.036033 0.000000 0.008034
# 5 -0.010811 0.000971 0.009471 0.000000 0.056892 0.000000
# 6 0.000000 0.000000 0.000000 0.008034 0.000000 0.055236
#
#
# Mechanical properties :
#
#
# Convention : Reuss Voigt Hill
#
# Bulk Modulus (GPa) = 56.38485 70.70080 63.54283
# Shear Modulus (GPa) = 16.05903 19.36068 17.70986
#
# Velocity S-wave (km/s) = 3.21689 3.53213 3.37819
# Velocity P-wave (km/s) = 7.08040 7.88631 7.49420
#
# Compressibility (1/GPa) = 0.01773526
#
# Stress axis : x y z
#
# Youngs Moduli (GPa) = 29.34451 30.48640 48.47922
#
# Poissons Ratio (x) = 0.33851 0.56184
# Poissons Ratio (y) = 0.32583 0.59111
# Poissons Ratio (z) = 0.34008 0.37172
#
# Static dielectric constant tensor:
#      x y z
#    x 1.481430 0.000000 0.007380 
#    y 0.000000 1.520090 0.000000 
#    z 0.007380 0.000000 1.545330 
# 
# From -- ./inp_files/242984.got.cif
#   From: 2010.05.17/outbox.cif.g08.bks.cpg/sg12_122_cif.got.tgz:242984.got - 2010.06.03 13:09:07.
