data_PCOD9171002
_publ_section_title
;
Structure prediction by ZEFSAII (Michael W. Deem and Ramdas Pophale) SiO2 
 PCOD9171002
Probable space group: C 2/M
;
_chemical_formula_sum "Si O2"
_cell_formula_units_Z 56
_cell_length_a 24.415185
_cell_length_b 7.440899
_cell_length_c 19.652427
_cell_angle_alpha 90.000000
_cell_angle_beta 127.670826
_cell_angle_gamma 90.000000
_cell_volume 2825.996628
_symmetry_space_group_name_H-M "C 2/M"
_symmetry_group_IT_number 12
_symmetry_cell_setting 'monoclinic'
loop_
_space_group_symop_operation_xyz
x,y,z
-x,y,-z
-x,-y,-z
x,-y,z
1/2+x,1/2+y,z
1/2-x,1/2+y,-z
1/2-x,1/2-y,-z
1/2+x,1/2-y,z
loop_
_atom_site_type_symbol
_atom_site_label
_atom_site_fract_x
_atom_site_fract_y
_atom_site_fract_z
Si Si1 0.888208 0.213859 0.183996
Si Si2 0.686398 0.284630 0.402379
Si Si3 0.120562 0.779322 0.978150
Si Si4 0.682902 0.720464 0.245223
Si Si5 0.963377 0.792225 0.702459
Si Si6 0.248028 0.715520 0.835204
Si Si7 0.530560 0.292546 0.127098
O O1 0.872316 0.278323 0.095252
O O2 0.824730 0.241198 0.185963
O O3 0.963063 0.287074 0.264175
O O4 0.897753 0.000000 0.184046
O O5 0.678635 0.500000 0.391605
O O6 0.750000 0.250000 0.500000
O O7 0.697574 0.220559 0.333372
O O8 0.611786 0.213443 0.371302
O O9 0.045148 0.718436 0.948262
O O10 0.118884 0.000000 0.978366
O O11 0.187140 0.719832 0.070484
O O12 0.680522 0.500000 0.244205
O O13 0.738324 0.777012 0.231343
O O14 0.605567 0.781827 0.164526
O O15 0.967460 0.791776 0.788416
O O16 0.961926 0.000000 0.678282
O O17 0.252544 0.500000 0.838204
O O18 0.530618 0.500000 0.104175
#
# Coordination Sequence:
#
# PCOD9171002 Si02
#       7
#     8   8   8   8   8   8   8
#     4   9  16  28  43  58  80 115 150 174 195 229
#     4   9  16  29  49  70  86 102 127 166 211 254
#     4   8  14  23  38  60  83 107 144 183 206 226
#     4   8  15  26  40  60  88 113 132 160 209 258
#     4   7  12  24  43  62  80 104 136 168 200 237
#     4  10  18  26  38  61  89 114 138 171 207 239
#     4   7  10  20  37  57  80 107 136 169 204 240
#
# _framework density 19.816018
#
# number of rings (size 3 to 8) (size 9 to 14) (size 15 to 20)
#    0.000    3.714    0.000    3.857    0.000    0.571 
#    0.000    4.286    0.000    0.857    0.000   10.000 
#    0.000    0.000    0.000    0.000    0.000    0.000 
#
# Total GULP energy -155952.297300 kJ/mol
# GULP energy per Si atom -5569.724904 kJ/mol
# Density = 1.977092 g / cm^3
# Si number density = 19.816018 Si / 1000 Ang^3
#
#
#
# Elastic Constant Matrix: (Units=GPa)
#
#
# Indices 1 2 3 4 5 6 
#
# 1 122.4706 2.9361 84.6856 0.0000 11.3424 0.0000
# 2 2.9361 58.0541 4.2410 -0.0001 1.0959 -0.0001
# 3 84.6856 4.2410 128.9050 0.0000 29.3575 0.0000
# 4 0.0000 -0.0001 0.0000 3.8655 0.0000 3.8314
# 5 11.3424 1.0959 29.3575 0.0000 22.2654 0.0000
# 6 0.0000 -0.0001 0.0000 3.8314 0.0000 12.5793
#
#
#
# Elastic Compliance Matrix: (Units=1/GPa)
#
#
# Indices 1 2 3 4 5 6 
#
# 1 0.015928 -0.000059 -0.012312 0.000000 0.008123 0.000000
# 2 -0.000059 0.017267 -0.000489 0.000000 -0.000174 0.000000
# 3 -0.012312 -0.000489 0.020620 0.000000 -0.020892 0.000000
# 4 0.000000 0.000000 0.000000 0.370575 0.000000 -0.112869
# 5 0.008123 -0.000174 -0.020892 0.000000 0.068331 0.000000
# 6 0.000000 0.000000 0.000000 -0.112869 0.000000 0.113873
#
#
# Mechanical properties :
#
#
# Convention : Reuss Voigt Hill
#
# Bulk Modulus (GPa) = 35.59455 54.79502 45.19478
# Shear Modulus (GPa) = 7.79204 22.24651 15.01927
#
# Velocity S-wave (km/s) = 1.98513 3.35424 2.75605
# Velocity P-wave (km/s) = 4.82243 6.53553 5.74321
#
# Compressibility (1/GPa) = 0.02809419
#
# Stress axis : x y z
#
# Youngs Moduli (GPa) = 62.78348 57.91278 48.49587
#
# Poissons Ratio (x) = 0.00344 0.59707
# Poissons Ratio (y) = 0.00373 0.02373
# Poissons Ratio (z) = 0.77298 0.02834
#
# Static dielectric constant tensor:
#      x y z
#    x 1.727890 0.000000 0.029660 
#    y 0.000000 1.809140 0.000000 
#    z 0.029660 0.000000 1.689100 
# 
# From -- ./inp_files/320695.got.cif
#   From: 2010.05.17/outbox.cif.g08.bks.cpg/sg12_161_cif.got.tgz:320695.got - 2010.06.03 13:09:07.
