data_PCOD9171590
_publ_section_title
;
Structure prediction by ZEFSAII (Michael W. Deem and Ramdas Pophale) SiO2 
 PCOD9171590
Probable space group: C 2/M
;
_chemical_formula_sum "Si O2"
_cell_formula_units_Z 48
_cell_length_a 8.576391
_cell_length_b 14.595160
_cell_length_c 17.013662
_cell_angle_alpha 90.000000
_cell_angle_beta 90.000046
_cell_angle_gamma 90.000000
_cell_volume 2129.664705
_symmetry_space_group_name_H-M "C 2/M"
_symmetry_group_IT_number 12
_symmetry_cell_setting 'monoclinic'
loop_
_space_group_symop_operation_xyz
x,y,z
-x,y,-z
-x,-y,-z
x,-y,z
1/2+x,1/2+y,z
1/2-x,1/2+y,-z
1/2-x,1/2-y,-z
1/2+x,1/2-y,z
loop_
_atom_site_type_symbol
_atom_site_label
_atom_site_fract_x
_atom_site_fract_y
_atom_site_fract_z
Si Si1 0.324870 0.394872 0.338341
Si Si2 0.683667 0.854214 0.000000
Si Si3 0.681530 0.648448 0.840918
Si Si4 0.818470 0.148448 0.840918
Si Si5 0.824870 0.105128 0.661659
Si Si6 0.000000 0.610643 0.407003
O O1 0.331005 0.500000 0.367551
O O2 0.303875 0.396909 0.244037
O O3 0.500000 0.355352 0.353884
O O4 0.164690 0.353274 0.372466
O O5 0.739450 0.895023 0.082630
O O6 0.500000 0.850881 0.000000
O O7 0.750000 0.750000 0.000000
O O8 0.739450 0.895023 0.917370
O O9 0.750000 0.750000 0.830728
O O10 0.500000 0.655401 0.859745
O O11 0.803875 0.103091 0.755963
O O12 0.664690 0.146726 0.627534
O O13 0.831005 0.000000 0.632449
O O14 0.000000 0.500000 0.390835
O O15 0.000000 0.624229 0.500000
#
# Coordination Sequence:
#
# PCOD9171590 Si02
#       6
#     8   8   8   8   8   8
#     4   9  19  34  52  76 103 131 166 207 249 297
#     4  10  18  28  45  68  99 129 168 210 242 284
#     4  10  19  31  50  73  98 133 168 208 247 293
#     4  10  19  31  50  73  98 133 168 208 247 293
#     4   9  19  34  52  76 103 131 166 207 249 297
#     4   9  18  32  54  79 101 129 162 205 254 299
#
# _framework density 22.53876
#
# number of rings (size 3 to 8) (size 9 to 14) (size 15 to 20)
#    0.000    2.500    0.000    4.500    4.667    0.667 
#    0.000    4.167    0.000    6.000    0.000    0.000 
#    0.000    0.000    0.000    0.000    0.000    0.000 
#
# Total GULP energy -133881.992824 kJ/mol
# GULP energy per Si atom -5578.416368 kJ/mol
# Density = 2.248746 g / cm^3
# Si number density = 22.538760 Si / 1000 Ang^3
#
#
#
# Elastic Constant Matrix: (Units=GPa)
#
#
# Indices 1 2 3 4 5 6 
#
# 1 268.5230 23.6067 102.0491 0.0000 -0.0002 0.0000
# 2 23.6067 58.4604 -1.5224 0.0000 0.0000 0.0000
# 3 102.0491 -1.5224 66.5906 0.0000 -0.0001 0.0000
# 4 0.0000 0.0000 0.0000 12.0051 0.0000 -0.0001
# 5 -0.0002 0.0000 -0.0001 0.0000 37.6216 0.0000
# 6 0.0000 0.0000 0.0000 -0.0001 0.0000 9.2992
#
#
#
# Elastic Compliance Matrix: (Units=1/GPa)
#
#
# Indices 1 2 3 4 5 6 
#
# 1 0.009939 -0.004413 -0.015332 0.000000 0.000000 0.000000
# 2 -0.004413 0.019075 0.007198 0.000000 0.000000 0.000000
# 3 -0.015332 0.007198 0.038677 0.000000 0.000000 0.000000
# 4 0.000000 0.000000 0.000000 0.083298 0.000000 0.000000
# 5 0.000000 0.000000 0.000000 0.000000 0.026580 0.000000
# 6 0.000000 0.000000 0.000000 0.000000 0.000000 0.107536
#
#
# Mechanical properties :
#
#
# Convention : Reuss Voigt Hill
#
# Bulk Modulus (GPa) = 23.47484 71.31567 47.39525
# Shear Modulus (GPa) = 15.41324 29.74788 22.58056
#
# Velocity S-wave (km/s) = 2.61790 3.63692 3.16864
# Velocity P-wave (km/s) = 4.42445 7.02469 5.87035
#
# Compressibility (1/GPa) = 0.04259880
#
# Stress axis : x y z
#
# Youngs Moduli (GPa) = 100.61745 52.42500 25.85497
#
# Poissons Ratio (x) = 0.23133 0.39640
# Poissons Ratio (y) = 0.44398 -0.18611
# Poissons Ratio (z) = 1.54264 -0.37737
#
# Static dielectric constant tensor:
#      x y z
#    x 1.826680 0.000000 0.000000 
#    y 0.000000 1.896460 0.000000 
#    z 0.000000 0.000000 1.819220 
# 
# From -- ./inp_files/196513.got.cif
#   From: 2010.05.17/outbox.cif.g08.bks.cpg/sg12_99_cif.got.tgz:196513.got - 2010.06.03 13:09:07.
