data_PCOD9171582
_publ_section_title
;
Structure prediction by ZEFSAII (Michael W. Deem and Ramdas Pophale) SiO2 
 PCOD9171582
Probable space group: C 2/M
;
_chemical_formula_sum "Si O2"
_cell_formula_units_Z 56
_cell_length_a 23.073925
_cell_length_b 9.285313
_cell_length_c 21.958773
_cell_angle_alpha 90.000000
_cell_angle_beta 130.973247
_cell_angle_gamma 90.000000
_cell_volume 3552.075198
_symmetry_space_group_name_H-M "C 2/M"
_symmetry_group_IT_number 12
_symmetry_cell_setting 'monoclinic'
loop_
_space_group_symop_operation_xyz
x,y,z
-x,y,-z
-x,-y,-z
x,-y,z
1/2+x,1/2+y,z
1/2-x,1/2+y,-z
1/2-x,1/2-y,-z
1/2+x,1/2-y,z
loop_
_atom_site_type_symbol
_atom_site_label
_atom_site_fract_x
_atom_site_fract_y
_atom_site_fract_z
Si Si1 0.305376 0.671219 0.451668
Si Si2 0.653416 0.670750 0.380347
Si Si3 0.022107 0.827791 0.768894
Si Si4 0.869416 0.665222 0.068999
Si Si5 0.623894 0.172995 0.737791
Si Si6 0.240070 0.835143 0.086962
Si Si7 0.588977 0.827966 0.573275
O O1 0.302000 0.500000 0.441056
O O2 0.341201 0.700203 0.543433
O O3 0.220490 0.739029 0.395005
O O4 0.357047 0.744180 0.436028
O O5 0.668245 0.500000 0.382294
O O6 0.568284 0.702783 0.298069
O O7 0.062029 0.758777 0.855624
O O8 0.064800 0.757136 0.740267
O O9 0.033459 0.000000 0.776063
O O10 0.891864 0.500000 0.074639
O O11 0.803746 0.666136 0.076597
O O12 0.828733 0.734695 0.982394
O O13 0.709981 0.208927 0.820037
O O14 0.609800 0.204183 0.657613
O O15 0.614235 0.000000 0.740972
O O16 0.213685 0.000000 0.075568
O O17 0.500000 0.792106 0.500000
O O18 0.598124 0.000000 0.570284
#
# Coordination Sequence:
#
# PCOD9171582 Si02
#       7
#     8   8   8   8   8   8   8
#     4  10  20  33  50  70  91 119 155 193 229 264
#     4   9  19  34  49  67  92 121 153 189 229 272
#     4  10  18  28  45  68  93 121 152 188 229 270
#     4   9  16  25  39  61  89 118 148 184 226 272
#     4   9  18  30  44  65  93 125 157 187 223 269
#     4   8  14  25  39  57  85 119 153 185 218 263
#     4  10  20  33  49  69  95 126 155 185 225 271
#
# _framework density 15.765432000000001
#
# number of rings (size 3 to 8) (size 9 to 14) (size 15 to 20)
#    0.000    2.714    0.000    3.000    0.000    6.000 
#    0.000    0.000    0.000    0.000    0.000    1.000 
#    0.000    8.000    0.000    0.000    0.000    0.000 
#
# Total GULP energy -156056.768034 kJ/mol
# GULP energy per Si atom -5573.456001 kJ/mol
# Density = 1.572955 g / cm^3
# Si number density = 15.765432 Si / 1000 Ang^3
#
#
#
# Elastic Constant Matrix: (Units=GPa)
#
#
# Indices 1 2 3 4 5 6 
#
# 1 77.8369 55.4101 67.0910 0.0000 5.6365 0.0000
# 2 55.4101 75.1342 79.3867 0.0000 10.1534 0.0000
# 3 67.0910 79.3867 158.0385 0.0000 7.7638 0.0000
# 4 0.0000 0.0000 0.0000 24.8144 0.0000 2.1853
# 5 5.6365 10.1534 7.7638 0.0000 17.7988 0.0000
# 6 0.0000 0.0000 0.0000 2.1853 0.0000 21.9073
#
#
#
# Elastic Compliance Matrix: (Units=1/GPa)
#
#
# Indices 1 2 3 4 5 6 
#
# 1 0.027895 -0.017634 -0.003111 0.000000 0.002583 0.000000
# 2 -0.017634 0.041440 -0.012716 0.000000 -0.012509 0.000000
# 3 -0.003111 -0.012716 0.013929 0.000000 0.002163 0.000000
# 4 0.000000 0.000000 0.000000 0.040656 0.000000 -0.004056
# 5 0.002583 -0.012509 0.002163 0.000000 0.061558 0.000000
# 6 0.000000 0.000000 0.000000 -0.004056 0.000000 0.046052
#
#
# Mechanical properties :
#
#
# Convention : Reuss Voigt Hill
#
# Bulk Modulus (GPa) = 61.18835 79.42059 70.30447
# Shear Modulus (GPa) = 16.45278 20.17890 18.31584
#
# Velocity S-wave (km/s) = 3.23398 3.58151 3.41218
# Velocity P-wave (km/s) = 7.26917 8.22124 7.75982
#
# Compressibility (1/GPa) = 0.01634298
#
# Stress axis : x y z
#
# Youngs Moduli (GPa) = 35.84864 24.13106 71.79013
#
# Poissons Ratio (x) = 0.42553 0.22333
# Poissons Ratio (y) = 0.63216 0.91288
# Poissons Ratio (z) = 0.11152 0.30685
#
# Static dielectric constant tensor:
#      x y z
#    x 1.485650 0.000000 -0.005290 
#    y 0.000000 1.526430 0.000000 
#    z -0.005290 0.000000 1.541130 
# 
# From -- ./inp_files/323811.got.cif
#   From: 2010.05.17/outbox.cif.g08.bks.cpg/sg12_162_cif.got.tgz:323811.got - 2010.06.03 13:09:07.
