data_PCOD9171497
_publ_section_title
;
Structure prediction by ZEFSAII (Michael W. Deem and Ramdas Pophale) SiO2 
 PCOD9171497
Probable space group: C 2/M
;
_chemical_formula_sum "Si O2"
_cell_formula_units_Z 64
_cell_length_a 27.958471
_cell_length_b 8.910828
_cell_length_c 19.858933
_cell_angle_alpha 90.000000
_cell_angle_beta 121.283362
_cell_angle_gamma 90.000000
_cell_volume 4228.196710
_symmetry_space_group_name_H-M "C 2/M"
_symmetry_group_IT_number 12
_symmetry_cell_setting 'monoclinic'
loop_
_space_group_symop_operation_xyz
x,y,z
-x,y,-z
-x,-y,-z
x,-y,z
1/2+x,1/2+y,z
1/2-x,1/2+y,-z
1/2-x,1/2-y,-z
1/2+x,1/2-y,z
loop_
_atom_site_type_symbol
_atom_site_label
_atom_site_fract_x
_atom_site_fract_y
_atom_site_fract_z
Si Si1 0.970893 0.678014 0.325665
Si Si2 0.794195 0.321039 0.481538
Si Si3 0.415652 0.676157 0.568916
Si Si4 0.802000 0.179827 0.997282
Si Si5 0.791087 0.320596 0.323124
Si Si6 0.087200 0.823742 0.592580
Si Si7 0.631888 0.679065 0.826829
Si Si8 0.750641 0.820272 0.163929
O O1 0.974376 0.500000 0.326157
O O2 0.951969 0.733010 0.385951
O O3 0.921686 0.736679 0.241075
O O4 0.031459 0.749693 0.356137
O O5 0.796153 0.500000 0.490966
O O6 0.750000 0.250000 0.500000
O O7 0.856129 0.254074 0.538368
O O8 0.777494 0.289478 0.391374
O O9 0.411975 0.500000 0.581639
O O10 0.426173 0.690668 0.496030
O O11 0.854239 0.211367 0.084697
O O12 0.795728 0.000000 0.988423
O O13 0.750000 0.250000 0.000000
O O14 0.796382 0.253006 0.919976
O O15 0.796440 0.500000 0.318701
O O16 0.850497 0.240539 0.353646
O O17 0.750210 0.253001 0.237203
O O18 0.085102 0.000000 0.608979
O O19 0.623695 0.500000 0.813551
O O20 0.688448 0.716330 0.825616
O O21 0.746618 0.000000 0.163988
#
# Coordination Sequence:
#
# PCOD9171497 Si02
#       8
#     8   8   8   8   8   8   8   8
#     4  12  22  29  43  65  92 124 158 196 230 270
#     4  10  21  37  55  74  95 119 151 191 238 286
#     4  10  21  35  50  66  88 120 155 193 234 276
#     4   9  17  28  42  59  84 119 159 198 233 271
#     4  10  19  30  47  70  93 120 156 195 231 274
#     4  10  19  31  45  62  88 122 157 191 231 274
#     4   9  18  30  42  59  87 125 162 193 230 273
#     4  10  18  28  44  64  90 122 157 195 233 276
#
# _framework density 15.136476
#
# number of rings (size 3 to 8) (size 9 to 14) (size 15 to 20)
#    0.000    2.000    1.250    4.500    0.000    7.000 
#    0.000    0.000    0.000    0.000    0.000    0.000 
#    0.000    1.000    0.000   10.500    0.000    5.000 
#
# Total GULP energy -178474.068070 kJ/mol
# GULP energy per Si atom -5577.314627 kJ/mol
# Density = 1.510203 g / cm^3
# Si number density = 15.136476 Si / 1000 Ang^3
#
#
#
# Elastic Constant Matrix: (Units=GPa)
#
#
# Indices 1 2 3 4 5 6 
#
# 1 63.3173 40.7698 50.3116 0.0000 3.1926 0.0000
# 2 40.7698 88.3593 63.6020 0.0000 4.7122 0.0000
# 3 50.3116 63.6020 95.4642 0.0000 5.9748 0.0000
# 4 0.0000 0.0000 0.0000 25.7541 0.0000 -0.1620
# 5 3.1926 4.7122 5.9748 0.0000 10.1370 0.0000
# 6 0.0000 0.0000 0.0000 -0.1620 0.0000 20.4259
#
#
#
# Elastic Compliance Matrix: (Units=1/GPa)
#
#
# Indices 1 2 3 4 5 6 
#
# 1 0.028044 -0.004425 -0.011845 0.000000 0.000206 0.000000
# 2 -0.004425 0.022470 -0.012534 0.000000 -0.001664 0.000000
# 3 -0.011845 -0.012534 0.025408 0.000000 -0.005418 0.000000
# 4 0.000000 0.000000 0.000000 0.038831 0.000000 0.000308
# 5 0.000206 -0.001664 -0.005418 0.000000 0.102551 0.000000
# 6 0.000000 0.000000 0.000000 0.000308 0.000000 0.048960
#
#
# Mechanical properties :
#
#
# Convention : Reuss Voigt Hill
#
# Bulk Modulus (GPa) = 54.60327 61.83416 58.21871
# Shear Modulus (GPa) = 15.15264 17.42723 16.28994
#
# Velocity S-wave (km/s) = 3.16740 3.39682 3.28411
# Velocity P-wave (km/s) = 7.03767 7.50495 7.27506
#
# Compressibility (1/GPa) = 0.01831392
#
# Stress axis : x y z
#
# Youngs Moduli (GPa) = 35.65842 44.50333 39.35838
#
# Poissons Ratio (x) = 0.19692 0.46619
# Poissons Ratio (y) = 0.15778 0.49334
# Poissons Ratio (z) = 0.42236 0.55782
#
# Static dielectric constant tensor:
#      x y z
#    x 1.470220 0.000000 -0.013130 
#    y 0.000000 1.498250 0.000000 
#    z -0.013130 0.000000 1.562930 
# 
# From -- ./inp_files/326916.got.cif
#   From: 2010.05.17/outbox.cif.g08.bks.cpg/sg12_164_cif.got.tgz:326916.got - 2010.06.03 13:09:07.
