data_PCOD9171047
_publ_section_title
;
Structure prediction by ZEFSAII (Michael W. Deem and Ramdas Pophale) SiO2 
 PCOD9171047
Probable space group: C 2/M
;
_chemical_formula_sum "Si O2"
_cell_formula_units_Z 64
_cell_length_a 22.289646
_cell_length_b 14.673995
_cell_length_c 19.773280
_cell_angle_alpha 90.000000
_cell_angle_beta 24.690121
_cell_angle_gamma 90.000000
_cell_volume 2701.503689
_symmetry_space_group_name_H-M "C 2/M"
_symmetry_group_IT_number 12
_symmetry_cell_setting 'monoclinic'
loop_
_space_group_symop_operation_xyz
x,y,z
-x,y,-z
-x,-y,-z
x,-y,z
1/2+x,1/2+y,z
1/2-x,1/2+y,-z
1/2-x,1/2-y,-z
1/2+x,1/2-y,z
loop_
_atom_site_type_symbol
_atom_site_label
_atom_site_fract_x
_atom_site_fract_y
_atom_site_fract_z
Si Si1 0.578147 0.602248 0.482679
Si Si2 0.828887 0.652776 0.142872
Si Si3 0.399681 0.302992 0.256106
Si Si4 0.042095 0.601124 0.811693
Si Si5 0.523853 0.609261 0.686959
Si Si6 0.694554 0.104567 0.064537
Si Si7 0.843901 0.855236 0.175916
Si Si8 0.756818 0.194517 0.133209
O O1 0.500000 0.650801 0.500000
O O2 0.514071 0.500000 0.554441
O O3 0.737446 0.595992 0.289036
O O4 0.566886 0.641700 0.568286
O O5 0.955243 0.605541 0.972022
O O6 0.861593 0.745637 0.149609
O O7 0.736532 0.701098 0.177020
O O8 0.391062 0.343117 0.339485
O O9 0.315234 0.361022 0.285106
O O10 0.370604 0.194861 0.284085
O O11 0.570914 0.311454 0.060288
O O12 0.109271 0.500000 0.736274
O O13 0.924339 0.610522 0.871840
O O14 0.546814 0.500000 0.667956
O O15 0.353750 0.624934 0.873388
O O16 0.698362 0.000000 0.084220
O O17 0.672321 0.165782 0.153586
O O18 0.740008 0.869346 0.217748
O O19 0.000000 0.897101 0.000000
#
# Coordination Sequence:
#
# PCOD9171047 Si02
#       8
#     8   8   8   8   8   8   8   8
#     4  10  19  30  43  63  93 121 147 183 221 269
#     4   9  17  28  45  64  90 118 154 182 224 270
#     4   9  16  30  46  63  93 118 151 189 230 266
#     4  10  18  26  42  69  97 123 149 180 233 281
#     4   9  18  30  45  65  89 121 155 185 225 270
#     4   9  16  27  41  66  96 118 148 188 225 279
#     4   8  14  30  45  64  89 117 145 194 222 271
#     4   7  15  26  45  62  85 116 146 184 233 267
#
# _framework density 23.69051
#
# number of rings (size 3 to 8) (size 9 to 14) (size 15 to 20)
#    0.750    2.375    1.250    1.125    0.000    7.500 
#    0.000    3.125    0.000    3.750    0.000    0.875 
#    0.000    3.000    0.000    0.000    0.000    0.000 
#
# Total GULP energy -178200.264058 kJ/mol
# GULP energy per Si atom -5568.758252 kJ/mol
# Density = 2.363659 g / cm^3
# Si number density = 23.690510 Si / 1000 Ang^3
#
#
#
# Elastic Constant Matrix: (Units=GPa)
#
#
# Indices 1 2 3 4 5 6 
#
# 1 138.1837 37.6392 51.2335 -0.0007 46.8892 0.0005
# 2 37.6392 67.7887 15.5736 -0.0009 19.5385 0.0009
# 3 51.2335 15.5736 68.2036 -0.0006 30.9581 0.0006
# 4 -0.0007 -0.0009 -0.0006 7.9294 0.0004 10.1359
# 5 46.8892 19.5385 30.9581 0.0004 43.9943 -0.0005
# 6 0.0005 0.0009 0.0006 10.1359 -0.0005 9.9318
#
#
#
# Elastic Compliance Matrix: (Units=1/GPa)
#
#
# Indices 1 2 3 4 5 6 
#
# 1 0.013046 -0.003557 -0.004986 -0.000005 -0.008816 0.000005
# 2 -0.003557 0.017908 0.000694 -0.000014 -0.004650 0.000012
# 3 -0.004986 0.000694 0.023475 -0.000014 -0.011513 0.000012
# 4 -0.000005 -0.000014 -0.000014 -0.414120 0.000030 0.422629
# 5 -0.008816 -0.004650 -0.011513 0.000030 0.042293 -0.000027
# 6 0.000005 0.000012 0.000012 0.422629 -0.000027 -0.330627
#
#
# Mechanical properties :
#
#
# Convention : Reuss Voigt Hill
#
# Bulk Modulus (GPa) = 25.82013 53.67426 39.74719
# Shear Modulus (GPa) = -8.07211 23.68641 7.80715
#
# Velocity S-wave (km/s) = -1.84789 3.16543 1.81731
# Velocity P-wave (km/s) = 2.52382 6.00546 4.60626
#
# Compressibility (1/GPa) = 0.03872947
#
# Stress axis : x y z
#
# Youngs Moduli (GPa) = 76.65370 55.84193 42.59908
#
# Poissons Ratio (x) = 0.19864 0.21239
# Poissons Ratio (y) = 0.27267 -0.02955
# Poissons Ratio (z) = 0.38219 -0.03874
#
# Static dielectric constant tensor:
#      x y z
#    x 2.028900 0.000000 -0.007810 
#    y 0.000000 1.908460 0.000000 
#    z -0.007810 0.000000 1.934380 
# 
# From -- ./inp_files/328447.got.cif
#   From: 2010.05.17/outbox.cif.g08.bks.cpg/sg12_165_cif.got.tgz:328447.got - 2010.06.03 13:09:07.
