data_PCOD9171384
_publ_section_title
;
Structure prediction by ZEFSAII (Michael W. Deem and Ramdas Pophale) SiO2 
 PCOD9171384
Probable space group: C 2/M
;
_chemical_formula_sum "Si O2"
_cell_formula_units_Z 64
_cell_length_a 28.180972
_cell_length_b 8.614043
_cell_length_c 24.714583
_cell_angle_alpha 90.000000
_cell_angle_beta 44.380666
_cell_angle_gamma 90.000000
_cell_volume 4196.195451
_symmetry_space_group_name_H-M "C 2/M"
_symmetry_group_IT_number 12
_symmetry_cell_setting 'monoclinic'
loop_
_space_group_symop_operation_xyz
x,y,z
-x,y,-z
-x,-y,-z
x,-y,z
1/2+x,1/2+y,z
1/2-x,1/2+y,-z
1/2-x,1/2-y,-z
1/2+x,1/2-y,z
loop_
_atom_site_type_symbol
_atom_site_label
_atom_site_fract_x
_atom_site_fract_y
_atom_site_fract_z
Si Si1 0.888167 0.314332 0.443019
Si Si2 0.932525 0.688372 0.525700
Si Si3 0.945431 0.679606 0.995272
Si Si4 0.782523 0.313893 0.675993
Si Si5 0.744292 0.184097 0.590748
Si Si6 0.946589 0.815468 0.166425
Si Si7 0.660263 0.186570 0.833805
Si Si8 0.099139 0.815282 0.678825
O O1 0.881224 0.500000 0.449812
O O2 0.924333 0.264422 0.469515
O O3 0.812953 0.241292 0.506282
O O4 0.923159 0.262324 0.359098
O O5 0.935875 0.500000 0.522703
O O6 0.862111 0.728184 0.613376
O O7 0.000000 0.747311 0.500000
O O8 0.937453 0.500000 0.985338
O O9 0.980885 0.773543 0.918618
O O10 0.876873 0.735996 0.080228
O O11 0.000000 0.682051 0.000000
O O12 0.777549 0.500000 0.673062
O O13 0.754341 0.231443 0.645092
O O14 0.733648 0.259431 0.763688
O O15 0.677446 0.268692 0.624282
O O16 0.736499 0.000000 0.591120
O O17 0.889136 0.737660 0.175345
O O18 0.938435 0.765373 0.235318
O O19 0.935447 0.000000 0.173035
O O20 0.663670 0.000000 0.830935
O O21 0.093345 0.000000 0.678420
#
# Coordination Sequence:
#
# PCOD9171384 Si02
#       8
#     8   8   8   8   8   8   8   8
#     4  10  20  32  47  65  84 110 146 181 217 261
#     4   8  16  32  51  68  87 110 139 180 225 265
#     4   8  16  28  40  56  81 114 150 183 217 255
#     4  10  18  28  45  68  89 113 148 184 218 261
#     4  11  20  30  44  60  85 118 148 181 219 254
#     4  10  19  28  41  59  83 117 153 186 217 251
#     4  10  18  28  42  60  86 118 149 183 218 256
#     4  11  21  31  42  60  89 118 149 183 214 253
#
# _framework density 15.251911
#
# number of rings (size 3 to 8) (size 9 to 14) (size 15 to 20)
#    0.000    2.250    1.250    4.875    0.000    4.250 
#    0.000    0.000    0.000   13.500    0.000    0.000 
#    0.000    1.000    0.000    2.250    0.000    3.500 
#
# Total GULP energy -178367.191063 kJ/mol
# GULP energy per Si atom -5573.974721 kJ/mol
# Density = 1.521720 g / cm^3
# Si number density = 15.251911 Si / 1000 Ang^3
#
#
#
# Elastic Constant Matrix: (Units=GPa)
#
#
# Indices 1 2 3 4 5 6 
#
# 1 52.5461 -0.9893 46.9200 0.0001 -4.6432 0.0007
# 2 -0.9893 18.7189 15.7404 0.0011 2.0297 0.0050
# 3 46.9200 15.7404 122.4944 -0.0012 6.1856 0.0020
# 4 0.0001 0.0011 -0.0012 26.9446 0.0011 2.6051
# 5 -4.6432 2.0297 6.1856 0.0011 12.9331 -0.0003
# 6 0.0007 0.0050 0.0020 2.6051 -0.0003 8.2705
#
#
#
# Elastic Compliance Matrix: (Units=1/GPa)
#
#
# Indices 1 2 3 4 5 6 
#
# 1 0.035388 0.013519 -0.016218 -0.000002 0.018340 -0.000006
# 2 0.013519 0.065495 -0.013650 0.000000 0.001104 -0.000037
# 3 -0.016218 -0.013650 0.016719 0.000001 -0.011677 0.000005
# 4 -0.000002 0.000000 0.000001 0.038279 -0.000005 -0.012057
# 5 0.018340 0.001104 -0.011677 -0.000005 0.089317 0.000005
# 6 -0.000006 -0.000037 0.000005 -0.012057 0.000005 0.124710
#
#
# Mechanical properties :
#
#
# Convention : Reuss Voigt Hill
#
# Bulk Modulus (GPa) = 11.77800 35.23351 23.50576
# Shear Modulus (GPa) = 11.60343 18.43553 15.01948
#
# Velocity S-wave (km/s) = 2.76123 3.48046 3.14149
# Velocity P-wave (km/s) = 4.23142 6.26918 5.34825
#
# Compressibility (1/GPa) = 0.08490404
#
# Stress axis : x y z
#
# Youngs Moduli (GPa) = 28.25848 15.26834 59.81056
#
# Poissons Ratio (x) = -0.20642 0.97001
# Poissons Ratio (y) = -0.38203 0.81642
# Poissons Ratio (z) = 0.45830 0.20841
#
# Static dielectric constant tensor:
#      x y z
#    x 1.483900 0.000000 0.008570 
#    y 0.000000 1.516960 0.000000 
#    z 0.008570 0.000000 1.559990 
# 
# From -- ./inp_files/350943.got.cif
#   From: 2010.05.17/outbox.cif.g08.bks.cpg/sg12_176_cif.got.tgz:350943.got - 2010.06.03 13:09:07.
