data_PCOD9171450
_publ_section_title
;
Structure prediction by ZEFSAII (Michael W. Deem and Ramdas Pophale) SiO2 
 PCOD9171450
Probable space group: C 2/M
;
_chemical_formula_sum "Si O2"
_cell_formula_units_Z 64
_cell_length_a 27.420871
_cell_length_b 9.054009
_cell_length_c 17.322990
_cell_angle_alpha 90.000000
_cell_angle_beta 101.208629
_cell_angle_gamma 90.000000
_cell_volume 4218.725035
_symmetry_space_group_name_H-M "C 2/M"
_symmetry_group_IT_number 12
_symmetry_cell_setting 'monoclinic'
loop_
_space_group_symop_operation_xyz
x,y,z
-x,y,-z
-x,-y,-z
x,-y,z
1/2+x,1/2+y,z
1/2-x,1/2+y,-z
1/2-x,1/2-y,-z
1/2+x,1/2-y,z
loop_
_atom_site_type_symbol
_atom_site_label
_atom_site_fract_x
_atom_site_fract_y
_atom_site_fract_z
Si Si1 0.576679 0.176505 0.664791
Si Si2 0.802747 0.323036 0.033365
Si Si3 0.456802 0.330401 0.080472
Si Si4 0.890092 0.674527 0.939432
Si Si5 0.130326 0.172241 0.820353
Si Si6 0.059357 0.170020 0.501662
Si Si7 0.039880 0.323545 0.338474
Si Si8 0.435393 0.675464 0.813935
O O1 0.614525 0.248862 0.736720
O O2 0.582469 0.245066 0.581485
O O3 0.519656 0.209136 0.674520
O O4 0.581950 0.000000 0.664509
O O5 0.798924 0.500000 0.039204
O O6 0.827153 0.254528 0.117949
O O7 0.750000 0.250000 0.000000
O O8 0.841099 0.290736 0.974843
O O9 0.455838 0.500000 0.051096
O O10 0.418327 0.321522 0.139546
O O11 0.511159 0.296644 0.128897
O O12 0.435787 0.225080 0.008039
O O13 0.892168 0.500000 0.926745
O O14 0.895032 0.760016 0.860587
O O15 0.142626 0.000000 0.812192
O O16 0.064616 0.252983 0.422082
O O17 0.000000 0.169083 0.500000
O O18 0.075913 0.000000 0.502703
O O19 0.045242 0.500000 0.340644
O O20 0.062027 0.254217 0.267767
O O21 0.430015 0.500000 0.802784
#
# Coordination Sequence:
#
# PCOD9171450 Si02
#       8
#     8   8   8   8   8   8   8   8
#     4  10  18  28  43  64  91 121 157 197 233 271
#     4  10  21  37  54  71  92 118 150 191 239 286
#     4   9  18  30  43  61  88 121 155 189 224 265
#     4  10  21  33  46  66  89 115 150 190 232 275
#     4  10  18  30  48  69  93 122 156 192 232 276
#     4   9  17  28  42  59  84 120 160 196 231 272
#     4  10  19  29  42  61  89 124 160 196 234 269
#     4  11  20  30  44  63  90 123 159 192 224 269
#
# _framework density 15.17046
#
# number of rings (size 3 to 8) (size 9 to 14) (size 15 to 20)
#    0.000    2.125    1.250    3.000    0.000    7.000 
#    0.000    0.000    0.000    0.000    0.000    0.000 
#    0.000    1.000    0.000    3.750    0.000    5.750 
#
# Total GULP energy -178528.523929 kJ/mol
# GULP energy per Si atom -5579.016373 kJ/mol
# Density = 1.513593 g / cm^3
# Si number density = 15.170460 Si / 1000 Ang^3
#
#
#
# Elastic Constant Matrix: (Units=GPa)
#
#
# Indices 1 2 3 4 5 6 
#
# 1 47.6475 40.9738 49.9678 0.0000 8.9998 0.0000
# 2 40.9738 93.0151 85.8427 0.0000 0.6276 0.0000
# 3 49.9678 85.8427 144.8156 0.0000 -0.5107 0.0000
# 4 0.0000 0.0000 0.0000 33.5288 0.0000 1.0194
# 5 8.9998 0.6276 -0.5107 0.0000 16.6260 0.0000
# 6 0.0000 0.0000 0.0000 1.0194 0.0000 12.2463
#
#
#
# Elastic Compliance Matrix: (Units=1/GPa)
#
#
# Indices 1 2 3 4 5 6 
#
# 1 0.044349 -0.011426 -0.008614 0.000000 -0.023840 0.000000
# 2 -0.011426 0.026709 -0.011873 0.000000 0.004812 0.000000
# 3 -0.008614 -0.011873 0.016935 0.000000 0.005631 0.000000
# 4 0.000000 0.000000 0.000000 0.029901 0.000000 -0.002489
# 5 -0.023840 0.004812 0.005631 0.000000 0.073043 0.000000
# 6 0.000000 0.000000 0.000000 -0.002489 0.000000 0.081865
#
#
# Mechanical properties :
#
#
# Convention : Reuss Voigt Hill
#
# Bulk Modulus (GPa) = 41.37615 71.00519 56.19067
# Shear Modulus (GPa) = 14.50610 19.72646 17.11628
#
# Velocity S-wave (km/s) = 3.09561 3.60991 3.36261
# Velocity P-wave (km/s) = 6.33328 8.01759 7.22469
#
# Compressibility (1/GPa) = 0.02416851
#
# Stress axis : x y z
#
# Youngs Moduli (GPa) = 22.54848 37.44030 59.04835
#
# Poissons Ratio (x) = 0.42779 0.50861
# Poissons Ratio (y) = 0.25764 0.70109
# Poissons Ratio (z) = 0.19422 0.44453
#
# Static dielectric constant tensor:
#      x y z
#    x 1.478850 0.000000 -0.012680 
#    y 0.000000 1.505640 0.000000 
#    z -0.012680 0.000000 1.497780 
# 
# From -- ./inp_files/248527.got.cif
#   From: 2010.05.17/outbox.cif.g08.bks.cpg/sg12_125_cif.got.tgz:248527.got - 2010.06.03 13:09:07.
