data_PCOD9171640
_publ_section_title
;
Structure prediction by ZEFSAII (Michael W. Deem and Ramdas Pophale) SiO2 
 PCOD9171640
Probable space group: C 2/M
;
_chemical_formula_sum "Si O2"
_cell_formula_units_Z 64
_cell_length_a 24.924494
_cell_length_b 7.402147
_cell_length_c 31.304653
_cell_angle_alpha 90.000000
_cell_angle_beta 152.156636
_cell_angle_gamma 90.000000
_cell_volume 2697.502792
_symmetry_space_group_name_H-M "C 2/M"
_symmetry_group_IT_number 12
_symmetry_cell_setting 'monoclinic'
loop_
_space_group_symop_operation_xyz
x,y,z
-x,y,-z
-x,-y,-z
x,-y,z
1/2+x,1/2+y,z
1/2-x,1/2+y,-z
1/2-x,1/2-y,-z
1/2+x,1/2-y,z
loop_
_atom_site_type_symbol
_atom_site_label
_atom_site_fract_x
_atom_site_fract_y
_atom_site_fract_z
Si Si1 0.769370 0.283763 0.923331
Si Si2 0.253816 0.778763 0.686913
Si Si3 0.053617 0.794514 0.603211
Si Si4 0.895807 0.289379 0.637864
Si Si5 0.006209 0.706803 0.117898
Si Si6 0.436302 0.717906 0.164546
Si Si7 0.398723 0.214692 0.272919
Si Si8 0.301676 0.279501 0.446350
O O1 0.777370 0.500000 0.933693
O O2 0.687257 0.220707 0.904179
O O3 0.699943 0.248434 0.831170
O O4 0.898472 0.211095 0.016999
O O5 0.134609 0.715689 0.623809
O O6 0.366159 0.713385 0.791057
O O7 0.259909 0.730432 0.641515
O O8 0.253442 0.000000 0.688357
O O9 0.124284 0.794637 0.697012
O O10 0.931391 0.714033 0.530721
O O11 0.027672 0.000000 0.571503
O O12 0.880916 0.500000 0.617458
O O13 0.772434 0.213771 0.565470
O O14 0.972982 0.276122 0.735323
O O15 0.980157 0.211302 0.661122
O O16 0.019563 0.500000 0.112571
O O17 0.966609 0.707765 0.139634
O O18 0.438078 0.500000 0.163557
O O19 0.409311 0.000000 0.285015
O O20 0.302939 0.500000 0.450305
#
# Coordination Sequence:
#
# PCOD9171640 Si02
#       8
#     8   8   8   8   8   8   8   8
#     4   9  19  33  51  75 102 134 172 211 250 297
#     4   9  17  31  54  81 104 129 169 213 253 299
#     4  10  20  34  55  78 100 133 174 216 255 295
#     4   9  17  32  53  75 101 136 172 207 251 303
#     4  10  18  31  52  76 103 135 169 208 253 302
#     4  10  18  28  45  75 110 136 163 202 254 307
#     4  10  21  36  53  73 103 140 174 208 253 305
#     4   9  16  30  55  82 103 126 167 216 257 299
#
# _framework density 23.725649000000001
#
# number of rings (size 3 to 8) (size 9 to 14) (size 15 to 20)
#    0.000    2.500    1.250    1.500    0.000    3.500 
#    0.000    1.875    0.000    4.500    0.000    0.000 
#    0.000    0.000    0.000    0.000    0.000    0.000 
#
# Total GULP energy -178761.492585 kJ/mol
# GULP energy per Si atom -5586.296643 kJ/mol
# Density = 2.367165 g / cm^3
# Si number density = 23.725649 Si / 1000 Ang^3
#
#
#
# Elastic Constant Matrix: (Units=GPa)
#
#
# Indices 1 2 3 4 5 6 
#
# 1 82.5877 -0.5414 18.6674 0.0011 1.8239 -0.0018
# 2 -0.5414 90.6578 3.8843 0.0041 7.9005 -0.0146
# 3 18.6674 3.8843 103.6999 -0.0001 22.2931 -0.0002
# 4 0.0011 0.0041 -0.0001 6.9023 0.0001 -4.2312
# 5 1.8239 7.9005 22.2931 0.0001 31.1303 0.0018
# 6 -0.0018 -0.0146 -0.0002 -4.2312 0.0018 6.2763
#
#
#
# Elastic Compliance Matrix: (Units=1/GPa)
#
#
# Indices 1 2 3 4 5 6 
#
# 1 0.012652 0.000093 -0.002502 0.000000 0.001027 0.000004
# 2 0.000093 0.011285 0.000210 0.000017 -0.003020 0.000039
# 3 -0.002502 0.000210 0.011897 0.000003 -0.008426 0.000005
# 4 0.000000 0.000017 0.000003 0.246922 -0.000017 0.166463
# 5 0.001027 -0.003020 -0.008426 -0.000017 0.038864 -0.000030
# 6 0.000004 0.000039 0.000005 0.166463 -0.000030 0.271550
#
#
# Mechanical properties :
#
#
# Convention : Reuss Voigt Hill
#
# Bulk Modulus (GPa) = 31.80997 35.66288 33.73643
# Shear Modulus (GPa) = 8.22306 25.85746 17.04026
#
# Velocity S-wave (km/s) = 1.86371 3.30487 2.68287
# Velocity P-wave (km/s) = 4.25062 5.44306 4.88337
#
# Compressibility (1/GPa) = 0.03143668
#
# Stress axis : x y z
#
# Youngs Moduli (GPa) = 79.04055 88.61147 84.05342
#
# Poissons Ratio (x) = -0.00827 0.21027
# Poissons Ratio (y) = -0.00737 -0.01762
# Poissons Ratio (z) = 0.19773 -0.01858
#
# Static dielectric constant tensor:
#      x y z
#    x 1.854160 0.000000 0.035370 
#    y 0.000000 2.025740 0.000000 
#    z 0.035370 0.000000 1.955170 
# 
# From -- ./inp_files/243998.got.cif
#   From: 2010.05.17/outbox.cif.g08.bks.cpg/sg12_122_cif.got.tgz:243998.got - 2010.06.03 13:09:07.
