data_PCOD9171873
_publ_section_title
;
Structure prediction by ZEFSAII (Michael W. Deem and Ramdas Pophale) SiO2 
 PCOD9171873
Probable space group: C 2/M
;
_chemical_formula_sum "Si O2"
_cell_formula_units_Z 64
_cell_length_a 19.191430
_cell_length_b 17.265052
_cell_length_c 15.901742
_cell_angle_alpha 90.000000
_cell_angle_beta 37.564495
_cell_angle_gamma 90.000000
_cell_volume 3212.206196
_symmetry_space_group_name_H-M "C 2/M"
_symmetry_group_IT_number 12
_symmetry_cell_setting 'monoclinic'
loop_
_space_group_symop_operation_xyz
x,y,z
-x,y,-z
-x,-y,-z
x,-y,z
1/2+x,1/2+y,z
1/2-x,1/2+y,-z
1/2-x,1/2-y,-z
1/2+x,1/2-y,z
loop_
_atom_site_type_symbol
_atom_site_label
_atom_site_fract_x
_atom_site_fract_y
_atom_site_fract_z
Si Si1 0.920395 0.413655 0.644009
Si Si2 0.048877 0.616846 0.684905
Si Si3 0.717096 0.406616 0.951026
Si Si4 0.869822 0.408947 0.139865
Si Si5 0.378120 0.282275 0.371270
Si Si6 0.653669 0.146873 0.010344
Si Si7 0.527869 0.302879 0.072585
Si Si8 0.274719 0.588512 0.564107
O O1 0.892294 0.500000 0.637287
O O2 0.803711 0.380869 0.793293
O O3 0.000000 0.371905 0.500000
O O4 0.999119 0.420505 0.650410
O O5 0.046691 0.709521 0.671341
O O6 0.173956 0.589687 0.590577
O O7 0.961083 0.604055 0.845427
O O8 0.727905 0.500000 0.951435
O O9 0.758390 0.363777 0.996964
O O10 0.593591 0.380069 0.038860
O O11 0.881715 0.500000 0.146277
O O12 0.793294 0.377644 0.289640
O O13 0.807087 0.394484 0.112012
O O14 0.000000 0.378457 0.000000
O O15 0.250000 0.250000 0.500000
O O16 0.416780 0.297118 0.238709
O O17 0.375296 0.357544 0.432717
O O18 0.612122 0.232405 0.021630
O O19 0.500000 0.300832 0.000000
O O20 0.310138 0.500000 0.545888
#
# Coordination Sequence:
#
# PCOD9171873 Si02
#       8
#     8   8   8   8   8   8   8   8
#     4   9  18  33  53  79 110 145 188 241 290 344
#     4   9  17  31  52  75 108 143 184 234 294 348
#     4  10  22  39  59  85 118 159 200 240 296 360
#     4  10  18  28  51  87 117 142 185 243 302 357
#     4   9  21  37  53  78 115 148 192 240 295 351
#     4  10  19  35  59  82 115 148 189 241 297 350
#     4  11  24  39  62  88 117 157 202 251 296 349
#     4  10  19  31  51  80 112 149 187 235 298 354
#
# _framework density 19.924001000000001
#
# number of rings (size 3 to 8) (size 9 to 14) (size 15 to 20)
#    0.000    2.250    1.250    1.500    3.500    3.750 
#    0.000    1.250    0.000    0.000    0.000    2.625 
#    0.000    0.000    0.000    0.000    0.000    0.000 
#
# Total GULP energy -178214.143239 kJ/mol
# GULP energy per Si atom -5569.191976 kJ/mol
# Density = 1.987865 g / cm^3
# Si number density = 19.924001 Si / 1000 Ang^3
#
#
#
# Elastic Constant Matrix: (Units=GPa)
#
#
# Indices 1 2 3 4 5 6 
#
# 1 59.5758 24.5260 39.5853 0.0000 8.6011 0.0000
# 2 24.5260 71.3305 34.1433 0.0000 11.6648 0.0000
# 3 39.5853 34.1433 117.3050 0.0000 27.7425 0.0000
# 4 0.0000 0.0000 0.0000 80.8908 0.0000 -18.1169
# 5 8.6011 11.6648 27.7425 0.0000 23.6415 0.0000
# 6 0.0000 0.0000 0.0000 -18.1169 0.0000 25.8156
#
#
#
# Elastic Compliance Matrix: (Units=1/GPa)
#
#
# Indices 1 2 3 4 5 6 
#
# 1 0.023081 -0.005011 -0.006823 0.000000 0.002081 0.000000
# 2 -0.005011 0.017579 -0.002499 0.000000 -0.003918 0.000000
# 3 -0.006823 -0.002499 0.014777 0.000000 -0.013625 0.000000
# 4 0.000000 0.000000 0.000000 0.014668 0.000000 0.010294
# 5 0.002081 -0.003918 -0.013625 0.000000 0.059463 0.000000
# 6 0.000000 0.000000 0.000000 0.010294 0.000000 0.045960
#
#
# Mechanical properties :
#
#
# Convention : Reuss Voigt Hill
#
# Bulk Modulus (GPa) = 37.35257 49.41339 43.38298
# Shear Modulus (GPa) = 23.46142 36.06669 29.76405
#
# Velocity S-wave (km/s) = 3.43526 4.25928 3.86927
# Velocity P-wave (km/s) = 5.87562 7.00310 6.46399
#
# Compressibility (1/GPa) = 0.02677192
#
# Stress axis : x y z
#
# Youngs Moduli (GPa) = 43.32584 56.88590 67.67387
#
# Poissons Ratio (x) = 0.28504 0.46171
# Poissons Ratio (y) = 0.21709 0.16913
# Poissons Ratio (z) = 0.29559 0.14217
#
# Static dielectric constant tensor:
#      x y z
#    x 1.703390 0.000000 0.010510 
#    y 0.000000 1.796360 0.000000 
#    z 0.010510 0.000000 1.751950 
# 
# From -- ./inp_files/226849.got.cif
#   From: 2010.05.17/outbox.cif.g08.bks.cpg/sg12_114_cif.got.tgz:226849.got - 2010.06.03 13:09:07.
