data_PCOD9171938
_publ_section_title
;
Structure prediction by ZEFSAII (Michael W. Deem and Ramdas Pophale) SiO2 
 PCOD9171938
Probable space group: C 2/M
;
_chemical_formula_sum "Si O2"
_cell_formula_units_Z 56
_cell_length_a 35.232979
_cell_length_b 9.069271
_cell_length_c 14.926233
_cell_angle_alpha 90.000000
_cell_angle_beta 130.713555
_cell_angle_gamma 90.000000
_cell_volume 3615.178384
_symmetry_space_group_name_H-M "C 2/M"
_symmetry_group_IT_number 12
_symmetry_cell_setting 'monoclinic'
loop_
_space_group_symop_operation_xyz
x,y,z
-x,y,-z
-x,-y,-z
x,-y,z
1/2+x,1/2+y,z
1/2-x,1/2+y,-z
1/2-x,1/2-y,-z
1/2+x,1/2-y,z
loop_
_atom_site_type_symbol
_atom_site_label
_atom_site_fract_x
_atom_site_fract_y
_atom_site_fract_z
Si Si1 0.315547 0.177210 0.911224
Si Si2 0.715698 0.829694 0.822030
Si Si3 0.941019 0.175645 0.416382
Si Si4 0.866979 0.321940 0.164365
Si Si5 0.819324 0.824450 0.533255
Si Si6 0.125623 0.328499 0.540272
Si Si7 0.297401 0.176857 0.684154
O O1 0.262913 0.233287 0.868944
O O2 0.319022 0.225671 0.813380
O O3 0.314282 0.000000 0.908355
O O4 0.358456 0.220598 0.048034
O O5 0.684456 0.784336 0.861704
O O6 0.674681 0.822416 0.679675
O O7 0.731405 0.000000 0.856809
O O8 0.911375 0.244395 0.286348
O O9 0.917282 0.248035 0.468776
O O10 0.000000 0.204820 0.500000
O O11 0.932823 0.000000 0.405995
O O12 0.872860 0.500000 0.180828
O O13 0.858689 0.749855 0.527223
O O14 0.762531 0.793606 0.410676
O O15 0.820908 0.758099 0.635321
O O16 0.825758 0.000000 0.544333
O O17 0.113235 0.500000 0.507265
O O18 0.303574 0.000000 0.683933
#
# Coordination Sequence:
#
# PCOD9171938 Si02
#       7
#     8   8   8   8   8   8   8
#     4  10  18  29  44  64  93 128 163 194 229 271
#     4   9  17  27  40  63  93 124 158 191 226 271
#     4  10  21  36  53  73  95 119 152 195 239 285
#     4   9  19  32  46  67  93 123 157 193 233 281
#     4  10  18  29  45  66  93 128 166 201 235 272
#     4  10  19  31  49  71  96 125 158 196 237 283
#     4   9  18  29  42  63  94 131 166 200 232 267
#
# _framework density 15.490246000000001
#
# number of rings (size 3 to 8) (size 9 to 14) (size 15 to 20)
#    0.000    2.429    1.429    2.571    0.000    5.143 
#    0.000    0.000    0.000    0.000    0.000    1.000 
#    0.000    8.000    0.000    0.000    0.000    0.000 
#
# Total GULP energy -156096.784366 kJ/mol
# GULP energy per Si atom -5574.885156 kJ/mol
# Density = 1.545499 g / cm^3
# Si number density = 15.490246 Si / 1000 Ang^3
#
#
#
# Elastic Constant Matrix: (Units=GPa)
#
#
# Indices 1 2 3 4 5 6 
#
# 1 108.7349 60.9819 72.7542 0.0000 -18.4955 0.0000
# 2 60.9819 51.2245 44.9504 0.0000 -8.5782 0.0000
# 3 72.7542 44.9504 86.5077 0.0000 -25.2510 0.0000
# 4 0.0000 0.0000 0.0000 16.2759 0.0000 -1.1334
# 5 -18.4955 -8.5782 -25.2510 0.0000 26.8498 0.0000
# 6 0.0000 0.0000 0.0000 -1.1334 0.0000 25.1557
#
#
#
# Elastic Compliance Matrix: (Units=1/GPa)
#
#
# Indices 1 2 3 4 5 6 
#
# 1 0.035445 -0.029800 -0.013753 0.000000 0.001962 0.000000
# 2 -0.029800 0.062355 -0.010359 0.000000 -0.010348 0.000000
# 3 -0.013753 -0.010359 0.034153 0.000000 0.019336 0.000000
# 4 0.000000 0.000000 0.000000 0.061634 0.000000 0.002777
# 5 0.001962 -0.010348 0.019336 0.000000 0.053474 0.000000
# 6 0.000000 0.000000 0.000000 0.002777 0.000000 0.039878
#
#
# Mechanical properties :
#
#
# Convention : Reuss Voigt Hill
#
# Bulk Modulus (GPa) = 41.44266 67.09335 54.26800
# Shear Modulus (GPa) = 12.41297 18.17498 15.29397
#
# Velocity S-wave (km/s) = 2.83387 3.42909 3.14559
# Velocity P-wave (km/s) = 6.12535 7.68671 6.95001
#
# Compressibility (1/GPa) = 0.02412973
#
# Stress axis : x y z
#
# Youngs Moduli (GPa) = 28.21278 16.03714 29.28038
#
# Poissons Ratio (x) = 0.47790 0.40269
# Poissons Ratio (y) = 0.84073 0.30331
# Poissons Ratio (z) = 0.38801 0.16613
#
# Static dielectric constant tensor:
#      x y z
#    x 1.496290 0.000000 -0.028930 
#    y 0.000000 1.515780 0.000000 
#    z -0.028930 0.000000 1.524340 
# 
# From -- ./inp_files/237823.got.cif
#   From: 2010.05.17/outbox.cif.g08.bks.cpg/sg12_119_cif.got.tgz:237823.got - 2010.06.03 13:09:07.
