data_PCOD9171369
_publ_section_title
;
Structure prediction by ZEFSAII (Michael W. Deem and Ramdas Pophale) SiO2 
 PCOD9171369
Probable space group: C 2/M
;
_chemical_formula_sum "Si O2"
_cell_formula_units_Z 64
_cell_length_a 25.516849
_cell_length_b 7.825122
_cell_length_c 16.619639
_cell_angle_alpha 90.000000
_cell_angle_beta 100.657455
_cell_angle_gamma 90.000000
_cell_volume 3261.241596
_symmetry_space_group_name_H-M "C 2/M"
_symmetry_group_IT_number 12
_symmetry_cell_setting 'monoclinic'
loop_
_space_group_symop_operation_xyz
x,y,z
-x,y,-z
-x,-y,-z
x,-y,z
1/2+x,1/2+y,z
1/2-x,1/2+y,-z
1/2-x,1/2-y,-z
1/2+x,1/2-y,z
loop_
_atom_site_type_symbol
_atom_site_label
_atom_site_fract_x
_atom_site_fract_y
_atom_site_fract_z
Si Si1 0.975710 0.694626 0.766205
Si Si2 0.646195 0.706264 0.979630
Si Si3 0.448492 0.304792 0.930104
Si Si4 0.360300 0.207254 0.722264
Si Si5 0.692153 0.205011 0.725228
Si Si6 0.240865 0.297229 0.405488
Si Si7 0.791673 0.794221 0.856721
Si Si8 0.095671 0.295716 0.794991
O O1 0.978689 0.500000 0.736201
O O2 0.962672 0.694427 0.857378
O O3 0.919816 0.772055 0.718566
O O4 0.034977 0.774211 0.776012
O O5 0.648150 0.500000 0.975245
O O6 0.629018 0.767038 0.886848
O O7 0.598004 0.756447 0.025247
O O8 0.696146 0.765978 0.048764
O O9 0.436079 0.500000 0.899787
O O10 0.500000 0.313007 0.000000
O O11 0.314517 0.270596 0.648431
O O12 0.338503 0.253400 0.805345
O O13 0.362558 0.000000 0.720370
O O14 0.712174 0.242127 0.641470
O O15 0.737650 0.271972 0.799846
O O16 0.634273 0.269109 0.735251
O O17 0.691390 0.000000 0.734015
O O18 0.237605 0.500000 0.399568
O O19 0.250000 0.250000 0.500000
O O20 0.788411 0.000000 0.859544
O O21 0.089838 0.500000 0.786742
#
# Coordination Sequence:
#
# PCOD9171369 Si02
#       8
#     8   8   8   8   8   8   8   8
#     4  10  19  30  46  68  96 130 166 204 244 285
#     4  10  19  29  43  65  94 131 176 218 252 285
#     4  10  18  28  41  61  91 128 172 218 252 280
#     4   9  18  31  49  75 102 124 154 199 245 288
#     4   9  19  36  53  72 100 131 164 201 241 289
#     4  10  20  36  60  86 104 120 147 188 241 297
#     4   9  17  30  48  67  92 129 170 212 253 286
#     4  10  21  33  46  67  98 137 174 205 241 285
#
# _framework density 19.624428000000002
#
# number of rings (size 3 to 8) (size 9 to 14) (size 15 to 20)
#    0.000    2.375    2.500    0.375    0.000    2.750 
#    0.000    0.000    0.000    0.750    0.000    5.250 
#    0.000    0.000    0.000    0.000    0.000    0.000 
#
# Total GULP energy -178283.137273 kJ/mol
# GULP energy per Si atom -5571.348040 kJ/mol
# Density = 1.957976 g / cm^3
# Si number density = 19.624428 Si / 1000 Ang^3
#
#
#
# Elastic Constant Matrix: (Units=GPa)
#
#
# Indices 1 2 3 4 5 6 
#
# 1 121.4966 10.0205 68.9585 0.0000 -15.4574 0.0000
# 2 10.0205 23.1550 -1.7078 0.0000 -0.1600 0.0000
# 3 68.9585 -1.7078 95.7218 0.0000 2.0502 0.0000
# 4 0.0000 0.0000 0.0000 18.8737 0.0000 -0.0703
# 5 -15.4574 -0.1600 2.0502 0.0000 17.4285 0.0000
# 6 0.0000 0.0000 0.0000 -0.0703 0.0000 12.7117
#
#
#
# Elastic Compliance Matrix: (Units=1/GPa)
#
#
# Indices 1 2 3 4 5 6 
#
# 1 0.020014 -0.009634 -0.015006 0.000000 0.019427 0.000000
# 2 -0.009634 0.047883 0.007988 0.000000 -0.009044 0.000000
# 3 -0.015006 0.007988 0.021738 0.000000 -0.015793 0.000000
# 4 0.000000 0.000000 0.000000 0.052985 0.000000 0.000293
# 5 0.019427 -0.009044 -0.015793 0.000000 0.076382 0.000000
# 6 0.000000 0.000000 0.000000 0.000293 0.000000 0.078669
#
#
# Mechanical properties :
#
#
# Convention : Reuss Voigt Hill
#
# Bulk Modulus (GPa) = 17.75190 43.87952 30.81571
# Shear Modulus (GPa) = 14.29583 20.67627 17.48605
#
# Velocity S-wave (km/s) = 2.70195 3.24944 2.98826
# Velocity P-wave (km/s) = 4.33584 6.04042 5.25767
#
# Compressibility (1/GPa) = 0.05633198
#
# Stress axis : x y z
#
# Youngs Moduli (GPa) = 49.96486 20.88418 46.00173
#
# Poissons Ratio (x) = 0.20119 0.69031
# Poissons Ratio (y) = 0.48135 -0.36748
# Poissons Ratio (z) = 0.74978 -0.16683
#
# Static dielectric constant tensor:
#      x y z
#    x 1.773540 0.000000 0.057480 
#    y 0.000000 1.748530 0.000000 
#    z 0.057480 0.000000 1.548060 
# 
# From -- ./inp_files/248474.got.cif
#   From: 2010.05.17/outbox.cif.g08.bks.cpg/sg12_125_cif.got.tgz:248474.got - 2010.06.03 13:09:07.
