data_PCOD9171971
_publ_section_title
;
Structure prediction by ZEFSAII (Michael W. Deem and Ramdas Pophale) SiO2 
 PCOD9171971
Probable space group: C 2/M
;
_chemical_formula_sum "Si O2"
_cell_formula_units_Z 64
_cell_length_a 29.944386
_cell_length_b 7.671622
_cell_length_c 22.080536
_cell_angle_alpha 90.000000
_cell_angle_beta 133.521337
_cell_angle_gamma 90.000000
_cell_volume 3678.077637
_symmetry_space_group_name_H-M "C 2/M"
_symmetry_group_IT_number 12
_symmetry_cell_setting 'monoclinic'
loop_
_space_group_symop_operation_xyz
x,y,z
-x,y,-z
-x,-y,-z
x,-y,z
1/2+x,1/2+y,z
1/2-x,1/2+y,-z
1/2-x,1/2-y,-z
1/2+x,1/2-y,z
loop_
_atom_site_type_symbol
_atom_site_label
_atom_site_fract_x
_atom_site_fract_y
_atom_site_fract_z
Si Si1 0.552129 0.289341 0.002432
Si Si2 0.468579 0.294922 0.152718
Si Si3 0.217136 0.714159 0.325490
Si Si4 0.649147 0.294848 0.894527
Si Si5 0.191966 0.291734 0.167092
Si Si6 0.393875 0.202233 0.691343
Si Si7 0.193354 0.207098 0.491890
Si Si8 0.256103 0.787330 0.910778
O O1 0.547846 0.500000 0.997199
O O2 0.540548 0.222441 0.923544
O O3 0.500000 0.225313 0.000000
O O4 0.620086 0.242966 0.088222
O O5 0.453878 0.500000 0.134205
O O6 0.417969 0.220893 0.152082
O O7 0.538929 0.280856 0.238585
O O8 0.216284 0.500000 0.326057
O O9 0.211358 0.774555 0.251255
O O10 0.157856 0.772723 0.309998
O O11 0.279773 0.768084 0.418573
O O12 0.642507 0.500000 0.874840
O O13 0.692046 0.224255 0.880585
O O14 0.689937 0.273014 0.993466
O O15 0.200636 0.500000 0.176904
O O16 0.229351 0.226848 0.143460
O O17 0.365750 0.218924 0.597690
O O18 0.400748 0.000000 0.712436
O O19 0.314930 0.500000 0.513120
O O20 0.250000 0.250000 0.500000
O O21 0.257002 0.000000 0.912539
#
# Coordination Sequence:
#
# PCOD9171971 Si02
#       8
#     8   8   8   8   8   8   8   8
#     4  10  20  31  41  58  87 122 155 180 208 252
#     4  10  19  30  43  60  86 119 148 179 219 260
#     4   8  16  29  44  64  89 116 141 174 217 259
#     4   9  17  30  45  61  85 114 145 183 225 261
#     4  10  18  29  45  65  88 114 147 180 216 258
#     4  10  19  30  45  65  89 115 148 184 219 259
#     4   9  16  29  47  65  88 116 147 180 219 259
#     4   9  17  28  45  66  84 109 146 186 221 258
#
# _framework density 17.400393000000001
#
# number of rings (size 3 to 8) (size 9 to 14) (size 15 to 20)
#    0.000    2.625    1.250    2.250    0.000    1.250 
#    0.000    3.125    0.000    0.000    0.000    0.875 
#    0.000    7.000    0.000    0.000    0.000    0.000 
#
# Total GULP energy -178317.781761 kJ/mol
# GULP energy per Si atom -5572.430680 kJ/mol
# Density = 1.736079 g / cm^3
# Si number density = 17.400393 Si / 1000 Ang^3
#
#
#
# Elastic Constant Matrix: (Units=GPa)
#
#
# Indices 1 2 3 4 5 6 
#
# 1 125.3739 -0.2923 60.3798 0.0000 -16.6113 0.0000
# 2 -0.2923 25.9745 -15.1382 0.0000 -1.2452 -0.0002
# 3 60.3798 -15.1382 110.5900 0.0000 -18.0303 0.0000
# 4 0.0000 0.0000 0.0000 19.1188 0.0000 2.3810
# 5 -16.6113 -1.2452 -18.0303 0.0000 9.8353 0.0000
# 6 0.0000 -0.0002 0.0000 2.3810 0.0000 -2.1328
#
#
#
# Elastic Compliance Matrix: (Units=1/GPa)
#
#
# Indices 1 2 3 4 5 6 
#
# 1 0.011777 -0.002328 -0.005069 0.000000 0.010304 0.000000
# 2 -0.002328 0.046117 0.011260 0.000000 0.022549 -0.000003
# 3 -0.005069 0.011260 0.017383 0.000000 0.024732 -0.000001
# 4 0.000000 0.000000 0.000000 0.045920 0.000000 0.051263
# 5 0.010304 0.022549 0.024732 0.000000 0.167272 -0.000001
# 6 0.000000 -0.000003 -0.000001 0.051263 -0.000001 -0.411632
#
#
# Mechanical properties :
#
#
# Convention : Reuss Voigt Hill
#
# Bulk Modulus (GPa) = 12.04756 39.09298 25.57027
# Shear Modulus (GPa) = -48.43945 19.83020 -14.30463
#
# Velocity S-wave (km/s) = -5.28191 3.37952 -2.87032
# Velocity P-wave (km/s) = 5.50085 6.14359 1.93447
#
# Compressibility (1/GPa) = 0.08300433
#
# Stress axis : x y z
#
# Youngs Moduli (GPa) = 84.91140 21.68419 57.52608
#
# Poissons Ratio (x) = 0.05047 0.29158
# Poissons Ratio (y) = 0.19764 -0.64774
# Poissons Ratio (z) = 0.43039 -0.24416
#
# Static dielectric constant tensor:
#      x y z
#    x 1.612920 0.000000 -0.016040 
#    y 0.000000 1.632350 0.000000 
#    z -0.016040 0.000000 1.582120 
# 
# From -- ./inp_files/326911.got.cif
#   From: 2010.05.17/outbox.cif.g08.bks.cpg/sg12_164_cif.got.tgz:326911.got - 2010.06.03 13:09:07.
