data_PCOD9171328
_publ_section_title
;
Structure prediction by ZEFSAII (Michael W. Deem and Ramdas Pophale) SiO2 
 PCOD9171328
Probable space group: C 2/M
;
_chemical_formula_sum "Si O2"
_cell_formula_units_Z 56
_cell_length_a 13.983275
_cell_length_b 24.195681
_cell_length_c 15.182408
_cell_angle_alpha 90.000000
_cell_angle_beta 44.725617
_cell_angle_gamma 90.000000
_cell_volume 3614.786321
_symmetry_space_group_name_H-M "C 2/M"
_symmetry_group_IT_number 12
_symmetry_cell_setting 'monoclinic'
loop_
_space_group_symop_operation_xyz
x,y,z
-x,y,-z
-x,-y,-z
x,-y,z
1/2+x,1/2+y,z
1/2-x,1/2+y,-z
1/2-x,1/2-y,-z
1/2+x,1/2-y,z
loop_
_atom_site_type_symbol
_atom_site_label
_atom_site_fract_x
_atom_site_fract_y
_atom_site_fract_z
Si Si1 0.850409 0.386554 0.084157
Si Si2 0.915413 0.234032 0.254225
Si Si3 0.333184 0.193904 0.926416
Si Si4 0.933726 0.838952 0.407836
Si Si5 0.209831 0.817052 0.322742
Si Si6 0.928597 0.936244 0.787110
Si Si7 0.572149 0.360985 0.043934
O O1 0.808516 0.354848 0.200446
O O2 0.727433 0.427495 0.141872
O O3 0.852313 0.341082 0.003890
O O4 0.000000 0.410685 0.000000
O O5 0.882080 0.201045 0.364776
O O6 0.784605 0.259962 0.293937
O O7 0.021949 0.284199 0.202345
O O8 0.991661 0.190690 0.140548
O O9 0.250000 0.250000 0.000000
O O10 0.230214 0.157965 0.933907
O O11 0.832876 0.843302 0.555882
O O12 0.072791 0.812392 0.355274
O O13 0.979430 0.896985 0.335251
O O14 0.936583 0.910085 0.879350
O O15 0.966674 0.000000 0.759028
O O16 0.500000 0.374321 0.000000
#
# Coordination Sequence:
#
# PCOD9171328 Si02
#       7
#     8   8   8   8   8   8   8
#     4  10  18  30  46  72  92 124 156 191 238 291
#     4  10  18  27  47  67 100 134 150 184 232 279
#     4   9  17  26  41  69 100 127 151 180 226 284
#     4   9  20  33  43  72  95 123 170 192 227 284
#     4  10  18  30  48  65 100 131 151 194 230 278
#     4   9  19  36  51  64  93 125 157 211 245 263
#     4   9  19  28  45  75  99 119 162 188 224 297
#
# _framework density 15.491925999999999
#
# number of rings (size 3 to 8) (size 9 to 14) (size 15 to 20)
#    0.000    2.571    1.429    3.000    6.000    0.571 
#    0.000    5.714    0.000    0.000    0.000    0.000 
#    0.000    1.143    0.000    0.000    0.000    0.000 
#
# Total GULP energy -155936.975910 kJ/mol
# GULP energy per Si atom -5569.177711 kJ/mol
# Density = 1.545667 g / cm^3
# Si number density = 15.491926 Si / 1000 Ang^3
#
#
#
# Elastic Constant Matrix: (Units=GPa)
#
#
# Indices 1 2 3 4 5 6 
#
# 1 82.2439 38.1032 29.6295 0.0000 11.5124 0.0000
# 2 38.1032 84.2472 17.6851 0.0000 4.2445 0.0000
# 3 29.6295 17.6851 45.7197 0.0000 6.5290 0.0000
# 4 0.0000 0.0000 0.0000 5.9831 0.0000 -1.7893
# 5 11.5124 4.2445 6.5290 0.0000 18.3615 0.0000
# 6 0.0000 0.0000 0.0000 -1.7893 0.0000 10.1958
#
#
#
# Elastic Compliance Matrix: (Units=1/GPa)
#
#
# Indices 1 2 3 4 5 6 
#
# 1 0.019494 -0.006543 -0.009031 0.000000 -0.007498 0.000000
# 2 -0.006543 0.015143 -0.001794 0.000000 0.001240 0.000000
# 3 -0.009031 -0.001794 0.029026 0.000000 -0.004244 0.000000
# 4 0.000000 0.000000 0.000000 0.176395 0.000000 0.030956
# 5 -0.007498 0.001240 -0.004244 0.000000 0.060385 0.000000
# 6 0.000000 0.000000 0.000000 0.030956 0.000000 0.103512
#
#
# Mechanical properties :
#
#
# Convention : Reuss Voigt Hill
#
# Bulk Modulus (GPa) = 34.57247 42.56069 38.56658
# Shear Modulus (GPa) = 11.15240 15.36095 13.25668
#
# Velocity S-wave (km/s) = 2.68598 3.15230 2.92843
# Velocity P-wave (km/s) = 5.65546 6.38606 6.03183
#
# Compressibility (1/GPa) = 0.02892475
#
# Stress axis : x y z
#
# Youngs Moduli (GPa) = 51.29907 66.03598 34.45237
#
# Poissons Ratio (x) = 0.43206 0.31116
# Poissons Ratio (y) = 0.33564 0.06182
# Poissons Ratio (z) = 0.46331 0.11850
#
# Static dielectric constant tensor:
#      x y z
#    x 1.531510 0.000000 -0.013750 
#    y 0.000000 1.491600 0.000000 
#    z -0.013750 0.000000 1.528120 
# 
# From -- ./inp_files/178066.got.cif
#   From: 2010.05.17/outbox.cif.g08.bks.cpg/sg12_90_cif.got.tgz:178066.got - 2010.06.03 13:09:07.
