data_PCOD9171436
_publ_section_title
;
Structure prediction by ZEFSAII (Michael W. Deem and Ramdas Pophale) SiO2 
 PCOD9171436
Probable space group: C 2/M
;
_chemical_formula_sum "Si O2"
_cell_formula_units_Z 56
_cell_length_a 32.862952
_cell_length_b 9.192510
_cell_length_c 13.910219
_cell_angle_alpha 90.000000
_cell_angle_beta 115.707934
_cell_angle_gamma 90.000000
_cell_volume 3786.235453
_symmetry_space_group_name_H-M "C 2/M"
_symmetry_group_IT_number 12
_symmetry_cell_setting 'monoclinic'
loop_
_space_group_symop_operation_xyz
x,y,z
-x,y,-z
-x,-y,-z
x,-y,z
1/2+x,1/2+y,z
1/2-x,1/2+y,-z
1/2-x,1/2-y,-z
1/2+x,1/2-y,z
loop_
_atom_site_type_symbol
_atom_site_label
_atom_site_fract_x
_atom_site_fract_y
_atom_site_fract_z
Si Si1 0.817143 0.174662 0.521796
Si Si2 0.277692 0.672945 0.892035
Si Si3 0.996135 0.332653 0.379498
Si Si4 0.319918 0.172407 0.112976
Si Si5 0.904296 0.172762 0.298508
Si Si6 0.734298 0.325458 0.337706
Si Si7 0.412554 0.673062 0.535866
O O1 0.781199 0.249640 0.414381
O O2 0.800912 0.209947 0.613255
O O3 0.868129 0.217664 0.549108
O O4 0.814136 0.000000 0.506528
O O5 0.286882 0.500000 0.911018
O O6 0.225733 0.696282 0.871563
O O7 0.281786 0.716048 0.784977
O O8 0.308755 0.761513 0.997121
O O9 0.992297 0.500000 0.344921
O O10 0.042132 0.258503 0.390864
O O11 0.000000 0.330967 0.500000
O O12 0.951149 0.242623 0.310242
O O13 0.361840 0.251994 0.205012
O O14 0.327879 0.000000 0.115924
O O15 0.902652 0.197158 0.412264
O O16 0.903932 0.000000 0.281946
O O17 0.741023 0.500000 0.344517
O O18 0.420029 0.500000 0.555822
#
# Coordination Sequence:
#
# PCOD9171436 Si02
#       7
#     8   8   8   8   8   8   8
#     4   9  17  28  43  64  88 114 144 175 208 248
#     4   9  18  31  44  60  85 115 145 177 212 249
#     4   9  17  28  42  61  85 112 142 175 209 247
#     4  10  19  29  43  63  85 111 145 180 212 249
#     4  10  18  28  43  62  87 116 142 171 209 253
#     4   9  17  29  44  62  86 115 145 177 210 246
#     4   9  17  28  42  62  88 116 143 171 207 251
#
# _framework density 14.790417
#
# number of rings (size 3 to 8) (size 9 to 14) (size 15 to 20)
#    0.000    2.714    0.000    2.143    0.000    4.000 
#    0.000    0.000    0.000    0.000    0.000    1.000 
#    0.000    8.000    0.000    0.000    0.000    0.000 
#
# Total GULP energy -156059.274896 kJ/mol
# GULP energy per Si atom -5573.545532 kJ/mol
# Density = 1.475675 g / cm^3
# Si number density = 14.790417 Si / 1000 Ang^3
#
#
#
# Elastic Constant Matrix: (Units=GPa)
#
#
# Indices 1 2 3 4 5 6 
#
# 1 87.3207 46.1940 32.1743 0.0000 14.6608 0.0000
# 2 46.1940 64.1193 51.2036 0.0000 14.8594 0.0000
# 3 32.1743 51.2036 76.3522 0.0000 9.7353 0.0000
# 4 0.0000 0.0000 0.0000 25.5610 0.0000 7.7053
# 5 14.6608 14.8594 9.7353 0.0000 24.2799 0.0000
# 6 0.0000 0.0000 0.0000 7.7053 0.0000 22.5082
#
#
#
# Elastic Compliance Matrix: (Units=1/GPa)
#
#
# Indices 1 2 3 4 5 6 
#
# 1 0.018953 -0.014726 0.002318 0.000000 -0.003361 0.000000
# 2 -0.014726 0.048800 -0.025131 0.000000 -0.010897 0.000000
# 3 0.002318 -0.025131 0.028657 0.000000 0.002491 0.000000
# 4 0.000000 0.000000 0.000000 0.043624 0.000000 -0.014934
# 5 -0.003361 -0.010897 0.002491 0.000000 0.048886 0.000000
# 6 0.000000 0.000000 0.000000 -0.014934 0.000000 0.049541
#
#
# Mechanical properties :
#
#
# Convention : Reuss Voigt Hill
#
# Bulk Modulus (GPa) = 46.88368 54.10399 50.49383
# Shear Modulus (GPa) = 15.59340 21.01784 18.30562
#
# Velocity S-wave (km/s) = 3.25051 3.77376 3.52187
# Velocity P-wave (km/s) = 6.77165 7.45977 7.12403
#
# Compressibility (1/GPa) = 0.02132938
#
# Stress axis : x y z
#
# Youngs Moduli (GPa) = 52.76278 20.49199 34.89610
#
# Poissons Ratio (x) = 0.30177 -0.08088
# Poissons Ratio (y) = 0.77700 0.87698
# Poissons Ratio (z) = -0.12229 0.51499
#
# Static dielectric constant tensor:
#      x y z
#    x 1.484570 0.000000 -0.009730 
#    y 0.000000 1.491360 0.000000 
#    z -0.009730 0.000000 1.461870 
# 
# From -- ./inp_files/243012.got.cif
#   From: 2010.05.17/outbox.cif.g08.bks.cpg/sg12_122_cif.got.tgz:243012.got - 2010.06.03 13:09:07.
