data_PCOD9171760
_publ_section_title
;
Structure prediction by ZEFSAII (Michael W. Deem and Ramdas Pophale) SiO2 
 PCOD9171760
Probable space group: C 2/M
;
_chemical_formula_sum "Si O2"
_cell_formula_units_Z 48
_cell_length_a 23.013625
_cell_length_b 8.687292
_cell_length_c 16.527739
_cell_angle_alpha 90.000000
_cell_angle_beta 120.355881
_cell_angle_gamma 90.000000
_cell_volume 2851.313116
_symmetry_space_group_name_H-M "C 2/M"
_symmetry_group_IT_number 12
_symmetry_cell_setting 'monoclinic'
loop_
_space_group_symop_operation_xyz
x,y,z
-x,y,-z
-x,-y,-z
x,-y,z
1/2+x,1/2+y,z
1/2-x,1/2+y,-z
1/2-x,1/2-y,-z
1/2+x,1/2-y,z
loop_
_atom_site_type_symbol
_atom_site_label
_atom_site_fract_x
_atom_site_fract_y
_atom_site_fract_z
Si Si1 0.129271 0.686384 0.780423
Si Si2 0.679277 0.185176 0.982404
Si Si3 0.353431 0.684199 0.541545
Si Si4 0.271375 0.815331 0.816120
Si Si5 0.269463 0.315956 0.640308
Si Si6 0.995544 0.314051 0.590926
O O1 0.134723 0.500000 0.778507
O O2 0.196909 0.756763 0.789359
O O3 0.062659 0.734514 0.685867
O O4 0.127549 0.729207 0.874875
O O5 0.677781 0.232822 0.075308
O O6 0.681932 0.000000 0.984404
O O7 0.750000 0.250000 0.000000
O O8 0.352687 0.500000 0.535525
O O9 0.321414 0.729155 0.605754
O O10 0.303034 0.751579 0.438485
O O11 0.427972 0.746610 0.581483
O O12 0.288555 0.747682 0.741145
O O13 0.270216 0.000000 0.810814
O O14 0.265671 0.500000 0.640540
O O15 0.991924 0.500000 0.591551
O O16 0.000000 0.268383 0.500000
#
# Coordination Sequence:
#
# PCOD9171760 Si02
#       6
#     8   8   8   8   8   8
#     4   9  17  30  47  68  99 134 160 189 234 283
#     4   8  15  27  43  66  95 125 158 194 232 275
#     4  10  21  35  51  71  94 122 156 194 234 276
#     4  10  18  28  47  74  98 122 158 200 237 274
#     4  10  20  34  51  70  94 123 155 192 236 284
#     4  10  20  32  48  71  98 128 158 187 227 282
#
# _framework density 16.834350000000001
#
# number of rings (size 3 to 8) (size 9 to 14) (size 15 to 20)
#    0.000    2.500    0.000    2.500    0.000    5.000 
#    0.000    0.000    0.000    1.000    0.000    7.000 
#    0.000    0.000    0.000    0.000    0.000    0.000 
#
# Total GULP energy -133751.833130 kJ/mol
# GULP energy per Si atom -5572.993047 kJ/mol
# Density = 1.679603 g / cm^3
# Si number density = 16.834350 Si / 1000 Ang^3
#
#
#
# Elastic Constant Matrix: (Units=GPa)
#
#
# Indices 1 2 3 4 5 6 
#
# 1 54.3862 15.4299 44.2907 0.0000 5.7634 0.0000
# 2 15.4299 16.6442 29.2058 0.0000 -0.7058 0.0000
# 3 44.2907 29.2058 175.0036 0.0000 -4.7580 0.0000
# 4 0.0000 0.0000 0.0000 14.8844 0.0000 -1.4377
# 5 5.7634 -0.7058 -4.7580 0.0000 23.5476 0.0000
# 6 0.0000 0.0000 0.0000 -1.4377 0.0000 24.9262
#
#
#
# Elastic Compliance Matrix: (Units=1/GPa)
#
#
# Indices 1 2 3 4 5 6 
#
# 1 0.028051 -0.019095 -0.004137 0.000000 -0.008274 0.000000
# 2 -0.019095 0.097962 -0.011371 0.000000 0.005312 0.000000
# 3 -0.004137 -0.011371 0.008725 0.000000 0.002435 0.000000
# 4 0.000000 0.000000 0.000000 0.067561 0.000000 0.003897
# 5 -0.008274 0.005312 0.002435 0.000000 0.045143 0.000000
# 6 0.000000 0.000000 0.000000 0.003897 0.000000 0.040343
#
#
# Mechanical properties :
#
#
# Convention : Reuss Voigt Hill
#
# Bulk Modulus (GPa) = 15.26021 47.09852 31.17936
# Shear Modulus (GPa) = 13.19833 23.14550 18.17192
#
# Velocity S-wave (km/s) = 2.80306 3.71198 3.28907
# Velocity P-wave (km/s) = 4.42276 6.81250 5.74330
#
# Compressibility (1/GPa) = 0.06552990
#
# Stress axis : x y z
#
# Youngs Moduli (GPa) = 35.64976 10.20807 114.61009
#
# Poissons Ratio (x) = 0.19492 0.47419
# Poissons Ratio (y) = 0.68073 1.30328
# Poissons Ratio (z) = 0.14750 0.11608
#
# Static dielectric constant tensor:
#      x y z
#    x 1.528120 0.000000 -0.014360 
#    y 0.000000 1.568890 0.000000 
#    z -0.014360 0.000000 1.612270 
# 
# From -- ./inp_files/230333.got.cif
#   From: 2010.05.17/outbox.cif.g08.bks.cpg/sg12_116_cif.got.tgz:230333.got - 2010.06.03 13:09:07.
