data_PCOD9171459
_publ_section_title
;
Structure prediction by ZEFSAII (Michael W. Deem and Ramdas Pophale) SiO2 
 PCOD9171459
Probable space group: C 2/M
;
_chemical_formula_sum "Si O2"
_cell_formula_units_Z 56
_cell_length_a 28.078013
_cell_length_b 8.708594
_cell_length_c 16.763828
_cell_angle_alpha 90.000000
_cell_angle_beta 115.359265
_cell_angle_gamma 90.000000
_cell_volume 3704.103111
_symmetry_space_group_name_H-M "C 2/M"
_symmetry_group_IT_number 12
_symmetry_cell_setting 'monoclinic'
loop_
_space_group_symop_operation_xyz
x,y,z
-x,y,-z
-x,-y,-z
x,-y,z
1/2+x,1/2+y,z
1/2-x,1/2+y,-z
1/2-x,1/2-y,-z
1/2+x,1/2-y,z
loop_
_atom_site_type_symbol
_atom_site_label
_atom_site_fract_x
_atom_site_fract_y
_atom_site_fract_z
Si Si1 0.555818 0.685245 0.639147
Si Si2 0.765316 0.814509 0.634949
Si Si3 0.833192 0.316553 0.546201
Si Si4 0.744827 0.686477 0.191306
Si Si5 0.934884 0.815019 0.537648
Si Si6 0.804279 0.184302 0.002558
Si Si7 0.645523 0.816201 0.813999
O O1 0.559063 0.500000 0.646192
O O2 0.571883 0.730135 0.560258
O O3 0.494409 0.728385 0.604922
O O4 0.594572 0.758418 0.730823
O O5 0.812292 0.749769 0.614652
O O6 0.710893 0.770254 0.551395
O O7 0.764903 0.759695 0.725943
O O8 0.768169 0.000000 0.636552
O O9 0.833843 0.500000 0.550473
O O10 0.889465 0.255555 0.558796
O O11 0.746143 0.500000 0.194642
O O12 0.802083 0.734544 0.198124
O O13 0.700490 0.728598 0.094028
O O14 0.931753 0.000000 0.538607
O O15 0.848730 0.250727 0.092430
O O16 0.804321 0.000000 0.007805
O O17 0.750000 0.250000 0.000000
O O18 0.646375 0.000000 0.818147
#
# Coordination Sequence:
#
# PCOD9171459 Si02
#       7
#     8   8   8   8   8   8   8
#     4   9  18  31  46  65  87 114 149 181 212 255
#     4   9  17  30  45  61  85 117 149 179 213 252
#     4  10  19  29  43  65  90 115 145 180 215 254
#     4   8  15  27  43  62  85 115 148 179 211 251
#     4   9  18  32  47  63  87 117 146 179 218 257
#     4   9  16  27  42  62  88 116 147 181 218 260
#     4  10  18  28  43  65  92 119 146 177 217 261
#
# _framework density 15.118370000000001
#
# number of rings (size 3 to 8) (size 9 to 14) (size 15 to 20)
#    0.000    2.857    0.000    3.857    0.000    2.857 
#    0.000    5.714    0.000    0.000    0.000    1.000 
#    0.000    8.000    0.000    0.000    0.000    0.000 
#
# Total GULP energy -155963.233046 kJ/mol
# GULP energy per Si atom -5570.115466 kJ/mol
# Density = 1.508396 g / cm^3
# Si number density = 15.118370 Si / 1000 Ang^3
#
#
#
# Elastic Constant Matrix: (Units=GPa)
#
#
# Indices 1 2 3 4 5 6 
#
# 1 85.8871 21.3482 57.1812 0.0000 -6.3821 0.0000
# 2 21.3482 24.6145 32.1238 0.0000 1.3242 0.0000
# 3 57.1812 32.1238 147.0130 0.0000 -1.5459 0.0000
# 4 0.0000 0.0000 0.0000 20.3438 0.0000 3.2543
# 5 -6.3821 1.3242 -1.5459 0.0000 23.7426 0.0000
# 6 0.0000 0.0000 0.0000 3.2543 0.0000 20.4658
#
#
#
# Elastic Compliance Matrix: (Units=1/GPa)
#
#
# Indices 1 2 3 4 5 6 
#
# 1 0.017442 -0.009239 -0.004714 0.000000 0.004897 0.000000
# 2 -0.009239 0.062106 -0.010047 0.000000 -0.006601 0.000000
# 3 -0.004714 -0.010047 0.010831 0.000000 -0.000002 0.000000
# 4 0.000000 0.000000 0.000000 0.050438 0.000000 -0.008020
# 5 0.004897 -0.006601 -0.000002 0.000000 0.043803 0.000000
# 6 0.000000 0.000000 0.000000 -0.008020 0.000000 0.050137
#
#
# Mechanical properties :
#
#
# Convention : Reuss Voigt Hill
#
# Bulk Modulus (GPa) = 23.59598 53.20232 38.39915
# Shear Modulus (GPa) = 16.84169 22.70120 19.77144
#
# Velocity S-wave (km/s) = 3.34127 3.87921 3.62024
# Velocity P-wave (km/s) = 5.52511 7.43850 6.55202
#
# Compressibility (1/GPa) = 0.04238010
#
# Stress axis : x y z
#
# Youngs Moduli (GPa) = 57.33367 16.10144 92.32886
#
# Poissons Ratio (x) = 0.14876 0.43522
# Poissons Ratio (y) = 0.52970 0.92761
# Poissons Ratio (z) = 0.27026 0.16177
#
# Static dielectric constant tensor:
#      x y z
#    x 1.480820 0.000000 0.003480 
#    y 0.000000 1.506660 0.000000 
#    z 0.003480 0.000000 1.522900 
# 
# From -- ./inp_files/243256.got.cif
#   From: 2010.05.17/outbox.cif.g08.bks.cpg/sg12_122_cif.got.tgz:243256.got - 2010.06.03 13:09:07.
