data_PCOD9171305
_publ_section_title
;
Structure prediction by ZEFSAII (Michael W. Deem and Ramdas Pophale) SiO2 
 PCOD9171305
Probable space group: C 2/M
;
_chemical_formula_sum "Si O2"
_cell_formula_units_Z 56
_cell_length_a 27.447215
_cell_length_b 14.826975
_cell_length_c 9.122139
_cell_angle_alpha 90.000000
_cell_angle_beta 120.336500
_cell_angle_gamma 90.000000
_cell_volume 3204.022395
_symmetry_space_group_name_H-M "C 2/M"
_symmetry_group_IT_number 12
_symmetry_cell_setting 'monoclinic'
loop_
_space_group_symop_operation_xyz
x,y,z
-x,y,-z
-x,-y,-z
x,-y,z
1/2+x,1/2+y,z
1/2-x,1/2+y,-z
1/2-x,1/2-y,-z
1/2+x,1/2-y,z
loop_
_atom_site_type_symbol
_atom_site_label
_atom_site_fract_x
_atom_site_fract_y
_atom_site_fract_z
Si Si1 0.953480 0.179413 0.031932
Si Si2 0.846634 0.107983 0.681261
Si Si3 0.509236 0.500000 0.755181
Si Si4 0.718891 0.895702 0.043635
Si Si5 0.333368 0.325062 0.341446
Si Si6 0.372496 0.240173 0.130257
Si Si7 0.792333 0.102586 0.885779
Si Si8 0.095398 0.000000 0.619719
O O1 0.930192 0.238344 0.132938
O O2 0.983356 0.090176 0.141050
O O3 0.900747 0.143768 0.854314
O O4 0.000000 0.226111 0.000000
O O5 0.839439 0.167216 0.525064
O O6 0.793973 0.116726 0.714183
O O7 0.852370 0.000000 0.657067
O O8 0.559337 0.500000 0.712437
O O9 0.450621 0.500000 0.579760
O O10 0.658441 0.850112 0.969432
O O11 0.736231 0.892548 0.897492
O O12 0.721934 0.000000 0.095375
O O13 0.767559 0.837282 0.198295
O O14 0.365660 0.248466 0.296213
O O15 0.365190 0.414328 0.333413
O O16 0.332665 0.322423 0.015094
O O17 0.814810 0.000000 0.941375
#
# Coordination Sequence:
#
# PCOD9171305 Si02
#       8
#     8   8   4   8   8   8   8   4
#     4  11  21  33  48  69 104 143 171 201 242 307
#     4  10  18  27  45  74 106 140 169 189 234 304
#     4  11  21  32  48  74 112 148 176 190 237 306
#     4  10  19  35  55  69  92 131 178 222 262 301
#     4  11  18  31  48  76 107 132 167 211 247 301
#     4  10  21  33  49  71  96 135 175 212 257 303
#     4   8  16  28  46  69  99 132 161 190 241 307
#     4  11  20  28  48  80 108 140 173 204 235 289
#
# _framework density 17.478028999999999
#
# number of rings (size 3 to 8) (size 9 to 14) (size 15 to 20)
#    0.000    1.857    3.571    2.786    2.000    0.000 
#    0.000    6.429    0.000    0.429    0.000    0.000 
#    0.000    8.000    0.000    0.000    0.000    0.143 
#
# Total GULP energy -156004.565595 kJ/mol
# GULP energy per Si atom -5571.591628 kJ/mol
# Density = 1.743825 g / cm^3
# Si number density = 17.478029 Si / 1000 Ang^3
#
#
#
# Elastic Constant Matrix: (Units=GPa)
#
#
# Indices 1 2 3 4 5 6 
#
# 1 55.0562 10.2603 12.2300 0.0000 -9.7534 0.0000
# 2 10.2603 20.9777 5.3570 0.0000 -0.2185 0.0000
# 3 12.2300 5.3570 71.5819 0.0000 -18.5853 0.0000
# 4 0.0000 0.0000 0.0000 -12.5603 0.0000 -37.6240
# 5 -9.7534 -0.2185 -18.5853 0.0000 25.5371 0.0000
# 6 0.0000 0.0000 0.0000 -37.6240 0.0000 -58.7843
#
#
#
# Elastic Compliance Matrix: (Units=1/GPa)
#
#
# Indices 1 2 3 4 5 6 
#
# 1 0.021611 -0.010239 -0.000994 0.000000 0.007443 0.000000
# 2 -0.010239 0.053606 -0.003895 0.000000 -0.006286 0.000000
# 3 -0.000994 -0.003895 0.017661 0.000000 0.012441 0.000000
# 4 0.000000 0.000000 0.000000 0.086802 0.000000 -0.055556
# 5 0.007443 -0.006286 0.012441 0.000000 0.051002 0.000000
# 6 0.000000 0.000000 0.000000 -0.055556 0.000000 0.018547
#
#
# Mechanical properties :
#
#
# Convention : Reuss Voigt Hill
#
# Bulk Modulus (GPa) = 15.96810 22.59005 19.27907
# Shear Modulus (GPa) = 16.64685 -1.17693 7.73496
#
# Velocity S-wave (km/s) = 3.08952 -0.82148 2.10598
# Velocity P-wave (km/s) = 4.67790 3.47176 4.11921
#
# Compressibility (1/GPa) = 0.06262486
#
# Stress axis : x y z
#
# Youngs Moduli (GPa) = 46.27358 18.65450 56.62105
#
# Poissons Ratio (x) = 0.19100 0.05625
# Poissons Ratio (y) = 0.47378 0.22052
# Poissons Ratio (z) = 0.04597 0.07265
#
# Static dielectric constant tensor:
#      x y z
#    x 1.649140 0.000000 -0.049230 
#    y 0.000000 1.584730 0.000000 
#    z -0.049230 0.000000 1.639490 
# 
# From -- ./inp_files/111325.got.cif
#   From: 2010.05.17/outbox.cif.g08.bks.cpg/sg12_56_cif.got.tgz:111325.got - 2010.06.03 13:09:07.
