data_PCOD9171875
_publ_section_title
;
Structure prediction by ZEFSAII (Michael W. Deem and Ramdas Pophale) SiO2 
 PCOD9171875
Probable space group: C 2/M
;
_chemical_formula_sum "Si O2"
_cell_formula_units_Z 40
_cell_length_a 9.121218
_cell_length_b 21.371057
_cell_length_c 12.599929
_cell_angle_alpha 90.000000
_cell_angle_beta 123.252648
_cell_angle_gamma 90.000000
_cell_volume 2053.944402
_symmetry_space_group_name_H-M "C 2/M"
_symmetry_group_IT_number 12
_symmetry_cell_setting 'monoclinic'
loop_
_space_group_symop_operation_xyz
x,y,z
-x,y,-z
-x,-y,-z
x,-y,z
1/2+x,1/2+y,z
1/2-x,1/2+y,-z
1/2-x,1/2-y,-z
1/2+x,1/2-y,z
loop_
_atom_site_type_symbol
_atom_site_label
_atom_site_fract_x
_atom_site_fract_y
_atom_site_fract_z
Si Si1 0.022640 0.285847 0.840345
Si Si2 0.882780 0.308176 0.557589
Si Si3 0.831342 0.396856 0.863441
Si Si4 0.710421 0.430788 0.581484
Si Si5 0.390674 0.347957 0.054159
O O1 0.009472 0.213366 0.863976
O O2 0.998623 0.295233 0.706947
O O3 0.878515 0.325195 0.848712
O O4 0.206144 0.318336 0.942681
O O5 0.750000 0.250000 0.500000
O O6 0.786436 0.373672 0.543649
O O7 0.000000 0.310961 0.500000
O O8 0.788090 0.427032 0.732788
O O9 0.664101 0.394788 0.874176
O O10 0.000000 0.419726 0.000000
O O11 0.500000 0.424333 0.500000
O O12 0.753025 0.500000 0.555957
O O13 0.500000 0.375223 0.000000
#
# Coordination Sequence:
#
# PCOD9171875 Si02
#       5
#     8   8   8   8   8
#     4   9  19  32  47  77 115 152 186 227 298 348
#     4  11  25  37  59  91 121 154 196 250 297 355
#     4   9  19  35  54  82 112 150 199 241 290 351
#     4  10  23  43  63  84 117 163 205 246 303 362
#     4  10  18  28  52  77 113 153 184 235 288 354
#
# _framework density 19.474724999999999
#
# number of rings (size 3 to 8) (size 9 to 14) (size 15 to 20)
#    0.000    2.200    0.000    3.600   11.200    0.800 
#    0.000    0.000    0.000    0.600    0.000    0.000 
#    0.000    0.000    0.000    0.000    0.000    0.000 
#
# Total GULP energy -111605.873207 kJ/mol
# GULP energy per Si atom -5580.293660 kJ/mol
# Density = 1.943040 g / cm^3
# Si number density = 19.474725 Si / 1000 Ang^3
#
#
#
# Elastic Constant Matrix: (Units=GPa)
#
#
# Indices 1 2 3 4 5 6 
#
# 1 109.6873 49.8185 31.6112 0.0000 -39.0023 0.0000
# 2 49.8185 113.7899 30.5011 0.0000 -8.7518 0.0000
# 3 31.6112 30.5011 100.1779 0.0000 -14.7523 0.0000
# 4 0.0000 0.0000 0.0000 -3.6494 0.0000 -0.4205
# 5 -39.0023 -8.7518 -14.7523 0.0000 36.0800 0.0000
# 6 0.0000 0.0000 0.0000 -0.4205 0.0000 10.7991
#
#
#
# Elastic Compliance Matrix: (Units=1/GPa)
#
#
# Indices 1 2 3 4 5 6 
#
# 1 0.019034 -0.006568 -0.001288 0.000000 0.018455 0.000000
# 2 -0.006568 0.011885 -0.002306 0.000000 -0.005160 0.000000
# 3 -0.001288 -0.002306 0.011496 0.000000 0.002748 0.000000
# 4 0.000000 0.000000 0.000000 -0.272792 0.000000 -0.010623
# 5 0.018455 -0.005160 0.002748 0.000000 0.047538 0.000000
# 6 0.000000 0.000000 0.000000 -0.010623 0.000000 0.092187
#
#
# Mechanical properties :
#
#
# Convention : Reuss Voigt Hill
#
# Bulk Modulus (GPa) = 45.27178 60.83520 53.05349
# Shear Modulus (GPa) = -79.40994 22.76089 -28.32452
#
# Velocity S-wave (km/s) = -6.39253 3.42239 -3.81783
# Velocity P-wave (km/s) = 5.58471 6.85003 2.80481
#
# Compressibility (1/GPa) = 0.02208881
#
# Stress axis : x y z
#
# Youngs Moduli (GPa) = 52.53851 84.13955 86.98991
#
# Poissons Ratio (x) = 0.55266 0.11209
# Poissons Ratio (y) = 0.34509 0.20059
# Poissons Ratio (z) = 0.06770 0.19402
#
# Static dielectric constant tensor:
#      x y z
#    x 1.711340 0.000000 -0.000110 
#    y 0.000000 1.677090 0.000000 
#    z -0.000110 0.000000 1.723440 
# 
# From -- ./inp_files/120416.got.cif
#   From: 2010.05.17/outbox.cif.g08.bks.cpg/sg12_61_cif.got.tgz:120416.got - 2010.06.03 13:09:07.
