data_PCOD9171932
_publ_section_title
;
Structure prediction by ZEFSAII (Michael W. Deem and Ramdas Pophale) SiO2 
 PCOD9171932
Probable space group: C 2/M
;
_chemical_formula_sum "Si O2"
_cell_formula_units_Z 48
_cell_length_a 21.178868
_cell_length_b 7.838279
_cell_length_c 24.131031
_cell_angle_alpha 90.000000
_cell_angle_beta 40.883443
_cell_angle_gamma 90.000000
_cell_volume 2621.946523
_symmetry_space_group_name_H-M "C 2/M"
_symmetry_group_IT_number 12
_symmetry_cell_setting 'monoclinic'
loop_
_space_group_symop_operation_xyz
x,y,z
-x,y,-z
-x,-y,-z
x,-y,z
1/2+x,1/2+y,z
1/2-x,1/2+y,-z
1/2-x,1/2-y,-z
1/2+x,1/2-y,z
loop_
_atom_site_type_symbol
_atom_site_label
_atom_site_fract_x
_atom_site_fract_y
_atom_site_fract_z
Si Si1 0.444099 0.297977 0.266233
Si Si2 0.762078 0.202848 0.556334
Si Si3 0.751294 0.803523 0.905664
Si Si4 0.080589 0.790659 0.276888
Si Si5 0.611525 0.202298 0.085468
Si Si6 0.470494 0.709117 0.458395
O O1 0.455798 0.500000 0.256952
O O2 0.332210 0.258589 0.347546
O O3 0.501408 0.235933 0.283390
O O4 0.500690 0.227110 0.175443
O O5 0.750000 0.250000 0.500000
O O6 0.863543 0.268674 0.512481
O O7 0.766616 0.000000 0.556080
O O8 0.814475 0.728656 0.813597
O O9 0.827220 0.793603 0.906683
O O10 0.731800 0.000000 0.904001
O O11 0.653713 0.734011 0.998671
O O12 0.044661 0.737985 0.360992
O O13 0.082269 0.000000 0.274725
O O14 0.632852 0.000000 0.074763
O O15 0.500000 0.764651 0.500000
O O16 0.469898 0.500000 0.458621
#
# Coordination Sequence:
#
# PCOD9171932 Si02
#       6
#     8   8   8   8   8   8
#     4  10  18  29  44  64  90 122 153 190 234 276
#     4  11  20  31  48  71  94 122 157 193 232 276
#     4   8  14  23  37  57  88 122 149 182 228 278
#     4   8  13  24  41  62  87 118 151 183 224 270
#     4   9  15  23  36  60  89 118 149 186 229 275
#     4   9  17  29  46  69  95 122 155 191 227 272
#
# _framework density 18.307009000000001
#
# number of rings (size 3 to 8) (size 9 to 14) (size 15 to 20)
#    0.000    2.833    1.667    2.500    0.000    0.667 
#    0.000    0.000    0.000    2.000    0.000    1.167 
#    0.000    9.333    0.000    0.000    0.000    0.000 
#
# Total GULP energy -133611.503384 kJ/mol
# GULP energy per Si atom -5567.145974 kJ/mol
# Density = 1.826534 g / cm^3
# Si number density = 18.307009 Si / 1000 Ang^3
#
#
#
# Elastic Constant Matrix: (Units=GPa)
#
#
# Indices 1 2 3 4 5 6 
#
# 1 67.9974 2.2988 64.7245 0.0003 6.4801 -0.0008
# 2 2.2988 31.5103 6.1826 0.0007 0.3013 -0.0015
# 3 64.7245 6.1826 235.8967 0.0003 4.6873 -0.0003
# 4 0.0003 0.0007 0.0003 21.7055 -0.0001 -2.4626
# 5 6.4801 0.3013 4.6873 -0.0001 15.0440 0.0005
# 6 -0.0008 -0.0015 -0.0003 -2.4626 0.0005 8.2562
#
#
#
# Elastic Compliance Matrix: (Units=1/GPa)
#
#
# Indices 1 2 3 4 5 6 
#
# 1 0.020651 -0.000356 -0.005514 0.000000 -0.007170 0.000002
# 2 -0.000356 0.031908 -0.000733 0.000000 -0.000257 0.000006
# 3 -0.005514 -0.000733 0.005760 0.000000 0.000595 0.000000
# 4 0.000000 0.000000 0.000000 0.047685 0.000000 0.014223
# 5 -0.007170 -0.000257 0.000595 0.000000 0.069380 -0.000005
# 6 0.000002 0.000006 0.000000 0.014223 -0.000005 0.125363
#
#
# Mechanical properties :
#
#
# Convention : Reuss Voigt Hill
#
# Bulk Modulus (GPa) = 22.16772 53.53512 37.85142
# Shear Modulus (GPa) = 15.19803 26.48106 20.83954
#
# Velocity S-wave (km/s) = 2.88440 3.80741 3.37759
# Velocity P-wave (km/s) = 4.81956 6.97388 5.99430
#
# Compressibility (1/GPa) = 0.04511063
#
# Stress axis : x y z
#
# Youngs Moduli (GPa) = 48.42475 31.34011 173.62583
#
# Poissons Ratio (x) = 0.01116 0.95741
# Poissons Ratio (y) = 0.01724 0.12735
# Poissons Ratio (z) = 0.26703 0.02299
#
# Static dielectric constant tensor:
#      x y z
#    x 1.585350 0.000000 -0.008160 
#    y 0.000000 1.680410 0.000000 
#    z -0.008160 0.000000 1.703580 
# 
# From -- ./inp_files/229321.got.cif
#   From: 2010.05.17/outbox.cif.g08.bks.cpg/sg12_115_cif.got.tgz:229321.got - 2010.06.03 13:09:07.
