data_PCOD9171152
_publ_section_title
;
Structure prediction by ZEFSAII (Michael W. Deem and Ramdas Pophale) SiO2 
 PCOD9171152
Probable space group: C 2/M
;
_chemical_formula_sum "Si O2"
_cell_formula_units_Z 44
_cell_length_a 23.881206
_cell_length_b 7.734766
_cell_length_c 12.182411
_cell_angle_alpha 90.000000
_cell_angle_beta 133.135256
_cell_angle_gamma 90.000000
_cell_volume 1642.123606
_symmetry_space_group_name_H-M "C 2/M"
_symmetry_group_IT_number 12
_symmetry_cell_setting 'monoclinic'
loop_
_space_group_symop_operation_xyz
x,y,z
-x,y,-z
-x,-y,-z
x,-y,z
1/2+x,1/2+y,z
1/2-x,1/2+y,-z
1/2-x,1/2-y,-z
1/2+x,1/2-y,z
loop_
_atom_site_type_symbol
_atom_site_label
_atom_site_fract_x
_atom_site_fract_y
_atom_site_fract_z
Si Si1 0.675825 0.814023 0.018730
Si Si2 0.147308 0.209116 0.281034
Si Si3 0.041646 0.701073 0.448680
Si Si4 0.790890 0.500000 0.137980
Si Si5 0.303471 0.702245 0.410945
Si Si6 0.986714 0.800258 0.136733
O O1 0.730183 0.650554 0.097819
O O2 0.594159 0.794148 0.967326
O O3 0.715637 0.000000 0.097693
O O4 0.660809 0.849364 0.868142
O O5 0.212114 0.272577 0.284382
O O6 0.175321 0.271476 0.438774
O O7 0.058586 0.263032 0.160074
O O8 0.149006 0.000000 0.281342
O O9 0.020726 0.500000 0.409139
O O10 0.134745 0.706317 0.584030
O O11 0.000000 0.772367 0.500000
O O12 0.018607 0.792937 0.304933
O O13 0.321198 0.500000 0.432753
O O14 0.971635 0.000000 0.088368
#
# Coordination Sequence:
#
# PCOD9171152 Si02
#       6
#     8   8   8   4   8   8
#     4   9  15  26  41  59  84 112 138 167 204 253
#     4   8  15  25  37  56  78 102 132 166 204 246
#     4  10  20  31  41  55  77 111 149 180 211 243
#     4   8  16  26  40  60  82 112 138 160 208 258
#     4   9  16  26  40  54  73 101 135 172 207 245
#     4  10  18  27  42  62  84 110 142 175 207 247
#
# _framework density 26.794571999999999
#
# number of rings (size 3 to 8) (size 9 to 14) (size 15 to 20)
#    0.545    2.364    0.909    2.727    0.000    6.545 
#    0.000    0.000    0.000    0.000    0.000    0.000 
#    0.000    0.000    0.000    9.818    0.000    3.636 
#
# Total GULP energy -122560.116159 kJ/mol
# GULP energy per Si atom -5570.914371 kJ/mol
# Density = 2.673359 g / cm^3
# Si number density = 26.794572 Si / 1000 Ang^3
#
#
#
# Elastic Constant Matrix: (Units=GPa)
#
#
# Indices 1 2 3 4 5 6 
#
# 1 237.5108 37.3415 37.6959 0.0000 29.7677 0.0000
# 2 37.3415 118.9376 -0.2586 0.0000 12.7469 0.0000
# 3 37.6959 -0.2586 121.0561 0.0000 23.7203 0.0000
# 4 0.0000 0.0000 0.0000 2.2393 0.0000 18.8333
# 5 29.7677 12.7469 23.7203 0.0000 53.0258 0.0000
# 6 0.0000 0.0000 0.0000 18.8333 0.0000 42.9606
#
#
#
# Elastic Compliance Matrix: (Units=1/GPa)
#
#
# Indices 1 2 3 4 5 6 
#
# 1 0.004835 -0.001318 -0.001138 0.000000 -0.001888 0.000000
# 2 -0.001318 0.009013 0.000777 0.000000 -0.001775 0.000000
# 3 -0.001138 0.000777 0.009348 0.000000 -0.003729 0.000000
# 4 0.000000 0.000000 0.000000 -0.166197 0.000000 0.072859
# 5 -0.001888 -0.001775 -0.003729 0.000000 0.022014 0.000000
# 6 0.000000 0.000000 0.000000 0.072859 0.000000 -0.008663
#
#
# Mechanical properties :
#
#
# Convention : Reuss Voigt Hill
#
# Bulk Modulus (GPa) = 50.40895 69.67358 60.04127
# Shear Modulus (GPa) = -41.77809 46.49352 2.35772
#
# Velocity S-wave (km/s) = -3.95295 4.17007 0.93906
# Velocity P-wave (km/s) = 1.40730 7.01750 4.86132
#
# Compressibility (1/GPa) = 0.01983775
#
# Stress axis : x y z
#
# Youngs Moduli (GPa) = 206.83029 110.94509 106.98031
#
# Poissons Ratio (x) = 0.14623 0.12179
# Poissons Ratio (y) = 0.27262 -0.08317
# Poissons Ratio (z) = 0.23545 -0.08625
#
# Static dielectric constant tensor:
#      x y z
#    x 2.116190 0.000000 -0.136770 
#    y 0.000000 4.328290 0.000000 
#    z -0.136770 0.000000 2.330650 
# 
# From -- ./inp_files/279895.got.cif
#   From: 2010.05.17/outbox.cif.g08.bks.cpg/sg12_140_cif.got.tgz:279895.got - 2010.06.03 13:09:07.
