data_PCOD9171660
_publ_section_title
;
Structure prediction by ZEFSAII (Michael W. Deem and Ramdas Pophale) SiO2 
 PCOD9171660
Probable space group: C 2/M
;
_chemical_formula_sum "Si O2"
_cell_formula_units_Z 64
_cell_length_a 26.621101
_cell_length_b 8.263345
_cell_length_c 22.132866
_cell_angle_alpha 90.000000
_cell_angle_beta 126.970112
_cell_angle_gamma 90.000000
_cell_volume 3889.903185
_symmetry_space_group_name_H-M "C 2/M"
_symmetry_group_IT_number 12
_symmetry_cell_setting 'monoclinic'
loop_
_space_group_symop_operation_xyz
x,y,z
-x,y,-z
-x,-y,-z
x,-y,z
1/2+x,1/2+y,z
1/2-x,1/2+y,-z
1/2-x,1/2-y,-z
1/2+x,1/2-y,z
loop_
_atom_site_type_symbol
_atom_site_label
_atom_site_fract_x
_atom_site_fract_y
_atom_site_fract_z
Si Si1 0.508432 0.804817 0.820266
Si Si2 0.150909 0.304637 0.912877
Si Si3 0.110161 0.195350 0.336871
Si Si4 0.226223 0.192574 0.335902
Si Si5 0.543591 0.197862 0.087298
Si Si6 0.762037 0.304584 0.912958
Si Si7 0.306766 0.693530 0.497700
Si Si8 0.187871 0.305059 0.179315
O O1 0.579171 0.746783 0.858992
O O2 0.456915 0.754553 0.733996
O O3 0.484307 0.748727 0.868654
O O4 0.510209 0.000000 0.823529
O O5 0.150084 0.500000 0.913176
O O6 0.194831 0.250089 0.889608
O O7 0.186183 0.250768 0.999952
O O8 0.164433 0.252299 0.328774
O O9 0.131886 0.246014 0.419961
O O10 0.110780 0.000000 0.335932
O O11 0.287816 0.240376 0.418705
O O12 0.222922 0.257325 0.265912
O O13 0.222364 0.000000 0.331739
O O14 0.615496 0.251901 0.131444
O O15 0.543773 0.000000 0.087585
O O16 0.500000 0.248930 0.000000
O O17 0.763036 0.500000 0.913190
O O18 0.780007 0.246467 0.859206
O O19 0.693139 0.500000 0.505419
O O20 0.250000 0.750000 0.500000
O O21 0.185907 0.500000 0.175014
#
# Coordination Sequence:
#
# PCOD9171660 Si02
#       8
#     8   8   8   8   8   8   8   8
#     4  10  18  28  46  69  91 121 157 191 229 274
#     4   9  18  32  48  68  92 119 158 203 238 273
#     4   9  18  30  43  64  95 125 151 186 227 273
#     4  10  19  30  44  66  96 127 156 190 230 278
#     4   9  16  26  42  65  91 119 152 189 228 270
#     4   9  18  32  49  68  90 120 160 201 239 276
#     4   9  17  29  45  65  91 125 159 190 227 272
#     4  10  18  29  47  69  92 122 158 195 232 278
#
# _framework density 16.452852
#
# number of rings (size 3 to 8) (size 9 to 14) (size 15 to 20)
#    0.000    2.625    1.250    2.250    0.000    6.500 
#    0.000    0.000    0.000    3.000    0.000    0.875 
#    0.000    7.000    0.000    0.000    0.000    0.000 
#
# Total GULP energy -178337.606910 kJ/mol
# GULP energy per Si atom -5573.050216 kJ/mol
# Density = 1.641540 g / cm^3
# Si number density = 16.452852 Si / 1000 Ang^3
#
#
#
# Elastic Constant Matrix: (Units=GPa)
#
#
# Indices 1 2 3 4 5 6 
#
# 1 119.5957 15.1148 90.1585 0.0000 -0.1252 0.0000
# 2 15.1148 5.4741 10.1733 0.0000 -1.1929 0.0000
# 3 90.1585 10.1733 160.8141 0.0000 -0.5648 0.0000
# 4 0.0000 0.0000 0.0000 22.3011 0.0000 0.0186
# 5 -0.1252 -1.1929 -0.5648 0.0000 18.9337 0.0000
# 6 0.0000 0.0000 0.0000 0.0186 0.0000 18.2320
#
#
#
# Elastic Compliance Matrix: (Units=1/GPa)
#
#
# Indices 1 2 3 4 5 6 
#
# 1 0.019844 -0.039285 -0.008649 0.000000 -0.002602 0.000000
# 2 -0.039285 0.287865 0.003877 0.000000 0.017992 0.000000
# 3 -0.008649 0.003877 0.010824 0.000000 0.000510 0.000000
# 4 0.000000 0.000000 0.000000 0.044841 0.000000 -0.000046
# 5 -0.002602 0.017992 0.000510 0.000000 0.053947 0.000000
# 6 0.000000 0.000000 0.000000 -0.000046 0.000000 0.054849
#
#
# Mechanical properties :
#
#
# Convention : Reuss Voigt Hill
#
# Bulk Modulus (GPa) = 4.33993 57.41970 30.87982
# Shear Modulus (GPa) = 7.84819 23.25585 15.55202
#
# Velocity S-wave (km/s) = 2.18643 3.76371 3.07782
# Velocity P-wave (km/s) = 3.00291 7.33912 5.60715
#
# Compressibility (1/GPa) = 0.23041827
#
# Stress axis : x y z
#
# Youngs Moduli (GPa) = 50.39287 3.47386 92.38757
#
# Poissons Ratio (x) = 0.13647 0.79908
# Poissons Ratio (y) = 1.97969 -0.35821
# Poissons Ratio (z) = 0.43586 -0.01347
#
# Static dielectric constant tensor:
#      x y z
#    x 1.534350 0.000000 -0.000320 
#    y 0.000000 1.579740 0.000000 
#    z -0.000320 0.000000 1.568140 
# 
# From -- ./inp_files/326931.got.cif
#   From: 2010.05.17/outbox.cif.g08.bks.cpg/sg12_164_cif.got.tgz:326931.got - 2010.06.03 13:09:07.
