data_PCOD9171976
_publ_section_title
;
Structure prediction by ZEFSAII (Michael W. Deem and Ramdas Pophale) SiO2 
 PCOD9171976
Probable space group: C 2/M
;
_chemical_formula_sum "Si O2"
_cell_formula_units_Z 64
_cell_length_a 35.802094
_cell_length_b 7.503411
_cell_length_c 12.253170
_cell_angle_alpha 90.000000
_cell_angle_beta 70.193843
_cell_angle_gamma 90.000000
_cell_volume 3096.944412
_symmetry_space_group_name_H-M "C 2/M"
_symmetry_group_IT_number 12
_symmetry_cell_setting 'monoclinic'
loop_
_space_group_symop_operation_xyz
x,y,z
-x,y,-z
-x,-y,-z
x,-y,z
1/2+x,1/2+y,z
1/2-x,1/2+y,-z
1/2-x,1/2-y,-z
1/2+x,1/2-y,z
loop_
_atom_site_type_symbol
_atom_site_label
_atom_site_fract_x
_atom_site_fract_y
_atom_site_fract_z
Si Si1 0.137752 0.281234 0.194899
Si Si2 0.831497 0.292738 0.605442
Si Si3 0.098590 0.704601 0.856586
Si Si4 0.289977 0.787314 0.027571
Si Si5 0.831516 0.719077 0.364011
Si Si6 0.933977 0.285422 0.878481
Si Si7 0.482993 0.709523 0.132036
Si Si8 0.739109 0.215964 0.710326
O O1 0.139052 0.500000 0.195014
O O2 0.148233 0.217494 0.305945
O O3 0.095339 0.227827 0.188366
O O4 0.172119 0.220877 0.076982
O O5 0.843185 0.500000 0.590012
O O6 0.840356 0.216597 0.477193
O O7 0.783921 0.283094 0.666083
O O8 0.109387 0.500000 0.870476
O O9 0.135970 0.781296 0.755889
O O10 0.060383 0.708046 0.814297
O O11 0.084023 0.781508 0.987251
O O12 0.283069 0.723055 0.157270
O O13 0.294912 0.000000 0.030394
O O14 0.250000 0.750000 0.000000
O O15 0.832452 0.500000 0.364689
O O16 0.787903 0.770339 0.365046
O O17 0.933247 0.500000 0.883454
O O18 0.980193 0.235144 0.823589
O O19 0.476111 0.500000 0.127203
O O20 0.500000 0.782217 0.000000
O O21 0.741111 0.000000 0.710081
#
# Coordination Sequence:
#
# PCOD9171976 Si02
#       8
#     8   8   8   8   8   8   8   8
#     4   9  17  29  46  67  91 120 155 192 229 268
#     4  10  19  32  48  65  91 125 159 196 235 271
#     4   9  16  29  49  70  91 118 153 187 223 272
#     4  10  18  29  45  65  91 121 152 189 232 274
#     4   9  18  31  48  69  91 120 159 199 232 266
#     4   9  16  28  48  71  92 118 152 186 222 273
#     4   9  17  29  46  71 101 122 138 175 232 283
#     4  10  19  31  47  67  92 122 158 197 235 275
#
# _framework density 20.665531000000001
#
# number of rings (size 3 to 8) (size 9 to 14) (size 15 to 20)
#    0.000    2.625    1.250    1.500    0.000    4.500 
#    0.000    2.500    0.000    3.750    0.000    5.250 
#    0.000    0.000    0.000    0.000    0.000    0.000 
#
# Total GULP energy -178522.802425 kJ/mol
# GULP energy per Si atom -5578.837576 kJ/mol
# Density = 2.061850 g / cm^3
# Si number density = 20.665531 Si / 1000 Ang^3
#
#
#
# Elastic Constant Matrix: (Units=GPa)
#
#
# Indices 1 2 3 4 5 6 
#
# 1 117.8366 -9.9706 24.6308 0.0000 21.2081 0.0000
# 2 -9.9706 56.9502 0.6190 0.0000 1.5094 0.0000
# 3 24.6308 0.6190 69.6875 0.0000 18.8194 0.0000
# 4 0.0000 0.0000 0.0000 1.1645 0.0000 -1.6674
# 5 21.2081 1.5094 18.8194 0.0000 18.9557 0.0000
# 6 0.0000 0.0000 0.0000 -1.6674 0.0000 13.4960
#
#
#
# Elastic Compliance Matrix: (Units=1/GPa)
#
#
# Indices 1 2 3 4 5 6 
#
# 1 0.010930 0.002231 -0.000728 0.000000 -0.011684 0.000000
# 2 0.002231 0.018056 0.000155 0.000000 -0.004088 0.000000
# 3 -0.000728 0.000155 0.019660 0.000000 -0.018717 0.000000
# 4 0.000000 0.000000 0.000000 1.043341 0.000000 0.128904
# 5 -0.011684 -0.004088 -0.018717 0.000000 0.084735 0.000000
# 6 0.000000 0.000000 0.000000 0.128904 0.000000 0.090022
#
#
# Mechanical properties :
#
#
# Convention : Reuss Voigt Hill
#
# Bulk Modulus (GPa) = 19.24420 30.55919 24.90169
# Shear Modulus (GPa) = 3.90397 22.00289 12.95343
#
# Velocity S-wave (km/s) = 1.37594 3.26654 2.50634
# Velocity P-wave (km/s) = 3.44336 5.38949 4.52235
#
# Compressibility (1/GPa) = 0.05196372
#
# Stress axis : x y z
#
# Youngs Moduli (GPa) = 91.49034 55.38179 50.86410
#
# Poissons Ratio (x) = -0.12357 0.03701
# Poissons Ratio (y) = -0.20413 -0.00788
# Poissons Ratio (z) = 0.06658 -0.00858
#
# Static dielectric constant tensor:
#      x y z
#    x 1.739190 0.000000 0.018950 
#    y 0.000000 1.797720 0.000000 
#    z 0.018950 0.000000 1.735830 
# 
# From -- ./inp_files/182025.got.cif
#   From: 2010.05.17/outbox.cif.g08.bks.cpg/sg12_92_cif.got.tgz:182025.got - 2010.06.03 13:09:07.
