data_PCOD9171991
_publ_section_title
;
Structure prediction by ZEFSAII (Michael W. Deem and Ramdas Pophale) SiO2 
 PCOD9171991
Probable space group: C 2/M
;
_chemical_formula_sum "Si O2"
_cell_formula_units_Z 64
_cell_length_a 25.216976
_cell_length_b 8.273108
_cell_length_c 19.316145
_cell_angle_alpha 90.000000
_cell_angle_beta 57.773506
_cell_angle_gamma 90.000000
_cell_volume 3408.985396
_symmetry_space_group_name_H-M "C 2/M"
_symmetry_group_IT_number 12
_symmetry_cell_setting 'monoclinic'
loop_
_space_group_symop_operation_xyz
x,y,z
-x,y,-z
-x,-y,-z
x,-y,z
1/2+x,1/2+y,z
1/2-x,1/2+y,-z
1/2-x,1/2-y,-z
1/2+x,1/2-y,z
loop_
_atom_site_type_symbol
_atom_site_label
_atom_site_fract_x
_atom_site_fract_y
_atom_site_fract_z
Si Si1 0.471548 0.318099 0.943937
Si Si2 0.093951 0.187395 0.764200
Si Si3 0.865116 0.695721 0.857173
Si Si4 0.328244 0.195005 0.730582
Si Si5 0.194947 0.309195 0.803071
Si Si6 0.996719 0.806025 0.282478
Si Si7 0.466625 0.195608 0.593322
Si Si8 0.159076 0.314964 0.978724
O O1 0.444713 0.500000 0.953446
O O2 0.530428 0.302482 0.853280
O O3 0.500000 0.305992 0.000000
O O4 0.416601 0.191361 0.972806
O O5 0.148525 0.257362 0.774108
O O6 0.066720 0.256172 0.710942
O O7 0.110590 0.000000 0.741784
O O8 0.864015 0.500000 0.860274
O O9 0.832284 0.747591 0.808547
O O10 0.938163 0.745883 0.798107
O O11 0.831840 0.757673 0.950530
O O12 0.266511 0.264327 0.738806
O O13 0.393661 0.244510 0.649949
O O14 0.325090 0.000000 0.731937
O O15 0.187264 0.500000 0.815114
O O16 0.180143 0.238362 0.890781
O O17 0.000703 0.756558 0.359560
O O18 0.997039 0.000000 0.276034
O O19 0.500000 0.250816 0.500000
O O20 0.468042 0.000000 0.593927
O O21 0.182002 0.500000 0.964569
#
# Coordination Sequence:
#
# PCOD9171991 Si02
#       8
#     8   8   8   8   8   8   8   8
#     4  10  18  29  45  66  94 132 180 226 262 298
#     4  10  20  33  49  71 103 141 178 215 259 308
#     4   9  18  33  51  70  98 138 179 220 266 310
#     4   9  19  36  55  74 100 135 170 205 252 312
#     4  11  23  34  47  71 103 142 184 222 259 299
#     4  10  19  31  52  83 111 133 165 213 262 302
#     4   9  19  38  64  89 109 131 159 195 250 319
#     4  10  20  31  45  68  99 135 180 227 266 300
#
# _framework density 18.773916
#
# number of rings (size 3 to 8) (size 9 to 14) (size 15 to 20)
#    0.000    2.250    2.500    1.500    0.000    5.000 
#    0.000    0.000    0.000    0.750    0.000    0.000 
#    0.000    0.000    0.000    0.000    0.000    0.000 
#
# Total GULP energy -178314.507451 kJ/mol
# GULP energy per Si atom -5572.328358 kJ/mol
# Density = 1.873119 g / cm^3
# Si number density = 18.773916 Si / 1000 Ang^3
#
#
#
# Elastic Constant Matrix: (Units=GPa)
#
#
# Indices 1 2 3 4 5 6 
#
# 1 110.9324 11.9778 53.4911 -0.0001 2.5567 -0.0001
# 2 11.9778 13.2258 9.9559 -0.0004 0.8840 -0.0007
# 3 53.4911 9.9559 83.6321 0.0002 18.6984 0.0001
# 4 -0.0001 -0.0004 0.0002 9.7025 0.0000 -0.9910
# 5 2.5567 0.8840 18.6984 0.0000 17.5235 0.0000
# 6 -0.0001 -0.0007 0.0001 -0.9910 0.0000 25.4098
#
#
#
# Elastic Compliance Matrix: (Units=1/GPa)
#
#
# Indices 1 2 3 4 5 6 
#
# 1 0.014649 -0.005739 -0.010865 0.000000 0.009746 0.000000
# 2 -0.005739 0.086242 -0.007631 0.000004 0.004629 0.000003
# 3 -0.010865 -0.007631 0.025445 -0.000001 -0.025180 0.000000
# 4 0.000000 0.000004 -0.000001 0.103478 0.000001 0.004036
# 5 0.009746 0.004629 -0.025180 0.000001 0.082279 0.000000
# 6 0.000000 0.000003 0.000000 0.004036 0.000000 0.039512
#
#
# Mechanical properties :
#
#
# Convention : Reuss Voigt Hill
#
# Bulk Modulus (GPa) = 12.84264 39.84886 26.34575
# Shear Modulus (GPa) = 11.73625 19.35154 15.54390
#
# Velocity S-wave (km/s) = 2.50298 3.21404 2.88054
# Velocity P-wave (km/s) = 3.89984 5.91989 5.01268
#
# Compressibility (1/GPa) = 0.07786558
#
# Stress axis : x y z
#
# Youngs Moduli (GPa) = 68.26596 11.59523 39.30104
#
# Poissons Ratio (x) = 0.06654 0.42701
# Poissons Ratio (y) = 0.39177 0.29991
# Poissons Ratio (z) = 0.74171 0.08848
#
# Static dielectric constant tensor:
#      x y z
#    x 1.683650 0.000000 0.047690 
#    y 0.000000 1.676290 0.000000 
#    z 0.047690 0.000000 1.673090 
# 
# From -- ./inp_files/326831.got.cif
#   From: 2010.05.17/outbox.cif.g08.bks.cpg/sg12_164_cif.got.tgz:326831.got - 2010.06.03 13:09:07.
