data_PCOD9171000
_publ_section_title
;
Structure prediction by ZEFSAII (Michael W. Deem and Ramdas Pophale) SiO2 
 PCOD9171000
Probable space group: C 2/M
;
_chemical_formula_sum "Si O2"
_cell_formula_units_Z 64
_cell_length_a 27.590991
_cell_length_b 8.927408
_cell_length_c 20.329361
_cell_angle_alpha 90.000000
_cell_angle_beta 121.126595
_cell_angle_gamma 90.000000
_cell_volume 4286.511488
_symmetry_space_group_name_H-M "C 2/M"
_symmetry_group_IT_number 12
_symmetry_cell_setting 'monoclinic'
loop_
_space_group_symop_operation_xyz
x,y,z
-x,y,-z
-x,-y,-z
x,-y,z
1/2+x,1/2+y,z
1/2-x,1/2+y,-z
1/2-x,1/2-y,-z
1/2+x,1/2-y,z
loop_
_atom_site_type_symbol
_atom_site_label
_atom_site_fract_x
_atom_site_fract_y
_atom_site_fract_z
Si Si1 0.129709 0.180107 0.831228
Si Si2 0.528737 0.178782 0.682883
Si Si3 0.080272 0.178006 0.440778
Si Si4 0.718771 0.825363 0.672750
Si Si5 0.711970 0.678878 0.529832
Si Si6 0.196810 0.179585 0.000368
Si Si7 0.237901 0.681558 0.830970
Si Si8 0.416735 0.173555 0.419611
O O1 0.071143 0.247182 0.764542
O O2 0.143704 0.220945 0.917278
O O3 0.181507 0.246213 0.823548
O O4 0.129551 0.000000 0.824596
O O5 0.465273 0.241733 0.637361
O O6 0.554502 0.214698 0.628690
O O7 0.529193 0.000000 0.690451
O O8 0.145691 0.222795 0.474780
O O9 0.067591 0.226605 0.507077
O O10 0.075468 0.000000 0.430832
O O11 0.730942 0.734621 0.615285
O O12 0.745061 0.772820 0.760207
O O13 0.650950 0.817355 0.636267
O O14 0.733371 0.000000 0.672224
O O15 0.714940 0.500000 0.529117
O O16 0.750000 0.750000 0.500000
O O17 0.200780 0.000000 0.999888
O O18 0.250000 0.250000 0.000000
O O19 0.208789 0.219970 0.084610
O O20 0.229970 0.500000 0.825697
O O21 0.430842 0.000000 0.444920
#
# Coordination Sequence:
#
# PCOD9171000 Si02
#       8
#     8   8   8   8   8   8   8   8
#     4  10  18  26  38  59  87 120 154 190 224 250
#     4  11  20  30  43  60  85 120 155 183 212 257
#     4  10  21  33  45  65  86 108 140 182 224 258
#     4   9  16  28  46  66  88 116 149 183 218 257
#     4  10  21  36  52  68  88 112 140 178 224 269
#     4   8  15  25  38  56  81 115 153 187 219 253
#     4   9  15  27  43  60  85 118 154 186 217 261
#     4   9  17  29  42  59  84 117 151 179 210 252
#
# _framework density 14.930555999999999
#
# number of rings (size 3 to 8) (size 9 to 14) (size 15 to 20)
#    0.000    2.500    1.250    1.875    0.000    5.000 
#    0.000    0.000    0.000    0.000    0.000    0.000 
#    0.000    1.000    0.000   11.500    0.000    3.250 
#
# Total GULP energy -178252.725550 kJ/mol
# GULP energy per Si atom -5570.397673 kJ/mol
# Density = 1.489657 g / cm^3
# Si number density = 14.930556 Si / 1000 Ang^3
#
#
#
# Elastic Constant Matrix: (Units=GPa)
#
#
# Indices 1 2 3 4 5 6 
#
# 1 49.6705 24.7791 53.5940 0.0000 -5.7569 0.0000
# 2 24.7791 30.8311 47.9830 0.0000 2.1592 0.0000
# 3 53.5940 47.9830 154.1825 0.0000 4.7419 0.0000
# 4 0.0000 0.0000 0.0000 22.5172 0.0000 -0.4447
# 5 -5.7569 2.1592 4.7419 0.0000 15.9583 0.0000
# 6 0.0000 0.0000 0.0000 -0.4447 0.0000 15.4409
#
#
#
# Elastic Compliance Matrix: (Units=1/GPa)
#
#
# Indices 1 2 3 4 5 6 
#
# 1 0.043280 -0.022965 -0.008551 0.000000 0.021261 0.000000
# 2 -0.022965 0.075202 -0.014990 0.000000 -0.014005 0.000000
# 3 -0.008551 -0.014990 0.014286 0.000000 -0.005302 0.000000
# 4 0.000000 0.000000 0.000000 0.044436 0.000000 0.001280
# 5 0.021261 -0.014005 -0.005302 0.000000 0.073803 0.000000
# 6 0.000000 0.000000 0.000000 0.001280 0.000000 0.064800
#
#
# Mechanical properties :
#
#
# Convention : Reuss Voigt Hill
#
# Bulk Modulus (GPa) = 25.15354 54.15516 39.65435
# Shear Modulus (GPa) = 11.84633 18.00516 14.92575
#
# Velocity S-wave (km/s) = 2.81984 3.47641 3.16520
# Velocity P-wave (km/s) = 5.24267 7.24321 6.32256
#
# Compressibility (1/GPa) = 0.03975583
#
# Stress axis : x y z
#
# Youngs Moduli (GPa) = 23.10536 13.29752 69.99683
#
# Poissons Ratio (x) = 0.30538 0.59856
# Poissons Ratio (y) = 0.53061 1.04927
# Poissons Ratio (z) = 0.19758 0.19933
#
# Static dielectric constant tensor:
#      x y z
#    x 1.459610 0.000000 0.010800 
#    y 0.000000 1.537640 0.000000 
#    z 0.010800 0.000000 1.540580 
# 
# From -- ./inp_files/326616.got.cif
#   From: 2010.05.17/outbox.cif.g08.bks.cpg/sg12_164_cif.got.tgz:326616.got - 2010.06.03 13:09:07.
