data_PCOD9171315
_publ_section_title
;
Structure prediction by ZEFSAII (Michael W. Deem and Ramdas Pophale) SiO2 
 PCOD9171315
Probable space group: C 2/M
;
_chemical_formula_sum "Si O2"
_cell_formula_units_Z 50
_cell_length_a 27.359074
_cell_length_b 7.998120
_cell_length_c 12.158046
_cell_angle_alpha 90.000000
_cell_angle_beta 127.762898
_cell_angle_gamma 90.000000
_cell_volume 2103.213636
_symmetry_space_group_name_H-M "C 2/M"
_symmetry_group_IT_number 12
_symmetry_cell_setting 'monoclinic'
loop_
_space_group_symop_operation_xyz
x,y,z
-x,y,-z
-x,-y,-z
x,-y,z
1/2+x,1/2+y,z
1/2-x,1/2+y,-z
1/2-x,1/2-y,-z
1/2+x,1/2-y,z
loop_
_atom_site_type_symbol
_atom_site_label
_atom_site_fract_x
_atom_site_fract_y
_atom_site_fract_z
Si Si1 0.406176 0.704366 0.713243
Si Si2 0.357011 0.182273 0.318266
Si Si3 0.843631 0.195015 0.837452
Si Si4 0.182864 0.799653 0.955357
Si Si5 0.000000 0.000000 0.500000
Si Si6 0.485237 0.813657 0.628585
Si Si7 0.285681 0.311290 0.409048
O O1 0.409655 0.500000 0.712610
O O2 0.395053 0.760415 0.823280
O O3 0.462985 0.778129 0.722704
O O4 0.342575 0.752477 0.561019
O O5 0.362300 0.228394 0.199340
O O6 0.420990 0.177242 0.470457
O O7 0.314043 0.309365 0.325140
O O8 0.326596 0.000000 0.286153
O O9 0.777483 0.210624 0.684692
O O10 0.857885 0.000000 0.871360
O O11 0.833490 0.266462 0.945557
O O12 0.180170 0.000000 0.953779
O O13 0.250000 0.750000 0.000000
O O14 0.012102 0.147183 0.610667
O O15 0.513871 0.000000 0.658326
O O16 0.271097 0.500000 0.422563
#
# Coordination Sequence:
#
# PCOD9171315 Si02
#       7
#     8   8   8   8   2   8   8
#     4   9  18  34  50  72 108 145 181 224 281 332
#     4  10  20  34  51  73 109 145 186 231 276 322
#     4  10  20  31  45  69 104 149 194 230 267 314
#     4  11  21  31  47  71 106 151 198 239 268 307
#     4  12  22  40  68  90 118 140 174 224 304 352
#     4  10  22  38  61  91 114 141 174 224 286 352
#     4  10  18  27  46  69  98 143 188 228 269 319
#
# _framework density 23.773142
#
# number of rings (size 3 to 8) (size 9 to 14) (size 15 to 20)
#    0.000    1.920    2.400    2.160    2.240    1.920 
#    0.000    0.000    0.000    0.000    0.000    2.240 
#    0.000    3.840    0.000    0.000    0.000    0.000 
#
# Total GULP energy -139294.068196 kJ/mol
# GULP energy per Si atom -5571.762728 kJ/mol
# Density = 2.371903 g / cm^3
# Si number density = 23.773142 Si / 1000 Ang^3
#
#
#
# Elastic Constant Matrix: (Units=GPa)
#
#
# Indices 1 2 3 4 5 6 
#
# 1 90.5694 46.0287 28.7948 0.0000 -45.3377 0.0000
# 2 46.0287 104.5719 19.1290 0.0000 -14.3478 0.0000
# 3 28.7948 19.1290 51.4549 0.0000 -31.8810 0.0000
# 4 0.0000 0.0000 0.0000 11.1753 0.0000 -7.3729
# 5 -45.3377 -14.3478 -31.8810 0.0000 44.9813 0.0000
# 6 0.0000 0.0000 0.0000 -7.3729 0.0000 20.4985
#
#
#
# Elastic Compliance Matrix: (Units=1/GPa)
#
#
# Indices 1 2 3 4 5 6 
#
# 1 0.029805 -0.009996 0.006552 0.000000 0.031496 0.000000
# 2 -0.009996 0.013639 -0.005391 0.000000 -0.009546 0.000000
# 3 0.006552 -0.005391 0.037083 0.000000 0.031167 0.000000
# 4 0.000000 0.000000 0.000000 0.117324 0.000000 0.042199
# 5 0.031496 -0.009546 0.031167 0.000000 0.073023 0.000000
# 6 0.000000 0.000000 0.000000 0.042199 0.000000 0.063962
#
#
# Mechanical properties :
#
#
# Convention : Reuss Voigt Hill
#
# Bulk Modulus (GPa) = 15.90926 48.27792 32.09359
# Shear Modulus (GPa) = 13.38833 25.50727 19.44780
#
# Velocity S-wave (km/s) = 2.37570 3.27914 2.86327
# Velocity P-wave (km/s) = 3.77252 5.88972 4.94574
#
# Compressibility (1/GPa) = 0.06285648
#
# Stress axis : x y z
#
# Youngs Moduli (GPa) = 33.55135 73.31818 26.96643
#
# Poissons Ratio (x) = 0.73290 -0.17668
# Poissons Ratio (y) = 0.33538 0.14538
# Poissons Ratio (z) = -0.21982 0.39526
#
# Static dielectric constant tensor:
#      x y z
#    x 1.978810 0.000000 -0.004630 
#    y 0.000000 1.884620 0.000000 
#    z -0.004630 0.000000 1.954830 
# 
# From -- ./inp_files/179817.got.cif
#   From: 2010.05.17/outbox.cif.g08.bks.cpg/sg12_90_cif.got.tgz:179817.got - 2010.06.03 13:09:07.
