data_PCOD9171702
_publ_section_title
;
Structure prediction by ZEFSAII (Michael W. Deem and Ramdas Pophale) SiO2 
 PCOD9171702
Probable space group: C 2/M
;
_chemical_formula_sum "Si O2"
_cell_formula_units_Z 64
_cell_length_a 21.217994
_cell_length_b 24.015353
_cell_length_c 11.987524
_cell_angle_alpha 90.000000
_cell_angle_beta 141.967549
_cell_angle_gamma 90.000000
_cell_volume 3763.391628
_symmetry_space_group_name_H-M "C 2/M"
_symmetry_group_IT_number 12
_symmetry_cell_setting 'monoclinic'
loop_
_space_group_symop_operation_xyz
x,y,z
-x,y,-z
-x,-y,-z
x,-y,z
1/2+x,1/2+y,z
1/2-x,1/2+y,-z
1/2-x,1/2-y,-z
1/2+x,1/2-y,z
loop_
_atom_site_type_symbol
_atom_site_label
_atom_site_fract_x
_atom_site_fract_y
_atom_site_fract_z
Si Si1 0.622132 0.337454 0.676968
Si Si2 0.530464 0.264680 0.919406
Si Si3 0.616669 0.564230 0.510973
Si Si4 0.351938 0.181181 0.626153
Si Si5 0.072365 0.864985 0.839741
Si Si6 0.389691 0.564381 0.902422
Si Si7 0.747284 0.740523 0.689483
Si Si8 0.726588 0.062885 0.476733
O O1 0.500000 0.329103 0.500000
O O2 0.647788 0.396539 0.656208
O O3 0.642488 0.343059 0.836959
O O4 0.674146 0.290862 0.673682
O O5 0.461284 0.210973 0.796925
O O6 0.510394 0.312259 0.801519
O O7 0.500000 0.285266 0.000000
O O8 0.650589 0.254171 0.098692
O O9 0.603386 0.500000 0.523121
O O10 0.510073 0.590125 0.318545
O O11 0.700916 0.567709 0.530910
O O12 0.302528 0.207071 0.444690
O O13 0.282732 0.201288 0.635096
O O14 0.350480 0.114578 0.625280
O O15 0.128091 0.893760 0.021057
O O16 0.393746 0.500000 0.947127
O O17 0.303578 0.568682 0.688459
O O18 0.500000 0.576166 0.000000
O O19 0.683099 0.000000 0.417442
#
# Coordination Sequence:
#
# PCOD9171702 Si02
#       8
#     8   8   8   8   8   8   8   8
#     4  10  21  33  49  74 109 143 176 207 247 319
#     4  10  22  34  53  78  99 136 181 221 263 314
#     4  10  19  31  48  71 102 141 173 203 253 313
#     4  10  19  34  57  76 102 137 174 220 271 311
#     4  11  20  30  47  72 110 139 169 209 254 314
#     4  10  18  28  46  73 104 138 175 213 258 310
#     4  10  20  35  54  77 106 140 175 215 260 316
#     4  10  19  31  52  77 100 130 172 219 264 309
#
# _framework density 17.005935999999998
#
# number of rings (size 3 to 8) (size 9 to 14) (size 15 to 20)
#    0.000    1.875    2.500    3.000    3.500    3.250 
#    0.000    0.000    0.000    4.125    0.000    0.000 
#    0.000    6.500    0.000    0.000    0.000    0.000 
#
# Total GULP energy -178468.358176 kJ/mol
# GULP energy per Si atom -5577.136193 kJ/mol
# Density = 1.696723 g / cm^3
# Si number density = 17.005936 Si / 1000 Ang^3
#
#
#
# Elastic Constant Matrix: (Units=GPa)
#
#
# Indices 1 2 3 4 5 6 
#
# 1 83.0991 41.6455 25.9165 0.0000 -13.2178 0.0000
# 2 41.6455 104.6060 16.2441 0.0000 -1.0345 0.0000
# 3 25.9165 16.2441 37.1386 0.0000 -2.6362 0.0000
# 4 0.0000 0.0000 0.0000 18.0723 0.0000 -6.1457
# 5 -13.2178 -1.0345 -2.6362 0.0000 18.3931 0.0000
# 6 0.0000 0.0000 0.0000 -6.1457 0.0000 20.5419
#
#
#
# Elastic Compliance Matrix: (Units=1/GPa)
#
#
# Indices 1 2 3 4 5 6 
#
# 1 0.020647 -0.006434 -0.010675 0.000000 0.012945 0.000000
# 2 -0.006434 0.012261 -0.001164 0.000000 -0.004101 0.000000
# 3 -0.010675 -0.001164 0.034688 0.000000 -0.002765 0.000000
# 4 0.000000 0.000000 0.000000 0.061600 0.000000 0.018429
# 5 0.012945 -0.004101 -0.002765 0.000000 0.063044 0.000000
# 6 0.000000 0.000000 0.000000 0.018429 0.000000 0.054195
#
#
# Mechanical properties :
#
#
# Convention : Reuss Voigt Hill
#
# Bulk Modulus (GPa) = 32.20590 43.60620 37.90605
# Shear Modulus (GPa) = 17.04555 20.80398 18.92476
#
# Velocity S-wave (km/s) = 3.16939 3.50142 3.33953
# Velocity P-wave (km/s) = 5.68969 6.48413 6.09986
#
# Compressibility (1/GPa) = 0.03105021
#
# Stress axis : x y z
#
# Youngs Moduli (GPa) = 48.43416 81.55650 28.82817
#
# Poissons Ratio (x) = 0.52474 0.30773
# Poissons Ratio (y) = 0.31163 0.03356
# Poissons Ratio (z) = 0.51702 0.09495
#
# Static dielectric constant tensor:
#      x y z
#    x 1.577290 0.000000 -0.023690 
#    y 0.000000 1.599430 0.000000 
#    z -0.023690 0.000000 1.598270 
# 
# From -- ./inp_files/170184.got.cif
#   From: 2010.05.17/outbox.cif.g08.bks.cpg/sg12_86_cif.got.tgz:170184.got - 2010.06.03 13:09:07.
