data_PCOD9171783
_publ_section_title
;
Structure prediction by ZEFSAII (Michael W. Deem and Ramdas Pophale) SiO2 
 PCOD9171783
Probable space group: C 2/M
;
_chemical_formula_sum "Si O2"
_cell_formula_units_Z 56
_cell_length_a 21.047029
_cell_length_b 7.690061
_cell_length_c 27.559356
_cell_angle_alpha 90.000000
_cell_angle_beta 39.440109
_cell_angle_gamma 90.000000
_cell_volume 2833.667458
_symmetry_space_group_name_H-M "C 2/M"
_symmetry_group_IT_number 12
_symmetry_cell_setting 'monoclinic'
loop_
_space_group_symop_operation_xyz
x,y,z
-x,y,-z
-x,-y,-z
x,-y,z
1/2+x,1/2+y,z
1/2-x,1/2+y,-z
1/2-x,1/2-y,-z
1/2+x,1/2-y,z
loop_
_atom_site_type_symbol
_atom_site_label
_atom_site_fract_x
_atom_site_fract_y
_atom_site_fract_z
Si Si1 0.326551 0.708657 0.912306
Si Si2 0.287955 0.288798 0.826767
Si Si3 0.496400 0.292901 0.332335
Si Si4 0.538211 0.708931 0.826165
Si Si5 0.071296 0.793514 0.915198
Si Si6 0.656183 0.207375 0.664319
Si Si7 0.326477 0.708799 0.498570
O O1 0.334360 0.500000 0.903685
O O2 0.290342 0.771887 0.881320
O O3 0.435773 0.776231 0.862554
O O4 0.250000 0.750000 0.000000
O O5 0.288737 0.500000 0.825943
O O6 0.391615 0.226119 0.741496
O O7 0.186537 0.231551 0.861204
O O8 0.505172 0.500000 0.333833
O O9 0.429666 0.268894 0.322905
O O10 0.432017 0.222693 0.415875
O O11 0.530263 0.500000 0.833866
O O12 0.551126 0.777234 0.873110
O O13 0.626425 0.746276 0.736315
O O14 0.051017 0.000000 0.924819
O O15 0.000000 0.721492 0.000000
O O16 0.764624 0.273082 0.581736
O O17 0.657288 0.000000 0.659481
O O18 0.336753 0.500000 0.497037
O O19 0.250000 0.750000 0.500000
#
# Coordination Sequence:
#
# PCOD9171783 Si02
#       7
#     8   8   8   8   8   8   8
#     4  10  20  34  52  75  99 128 166 208 256 306
#     4  10  20  34  54  77 102 132 168 211 256 304
#     4   9  16  31  51  72 104 141 169 201 254 309
#     4  10  20  36  54  72 101 138 171 203 254 317
#     4  10  22  39  57  74  97 134 175 214 256 307
#     4  10  18  28  47  79 108 131 168 214 251 290
#     4   8  15  26  44  71 103 135 166 202 247 299
#
# _framework density 19.762374999999999
#
# number of rings (size 3 to 8) (size 9 to 14) (size 15 to 20)
#    0.000    2.429    1.429    1.286    0.000    4.286 
#    0.000    0.000    0.000    0.857    0.000    6.000 
#    0.000    0.000    0.000    0.000    0.000    0.000 
#
# Total GULP energy -156122.959427 kJ/mol
# GULP energy per Si atom -5575.819980 kJ/mol
# Density = 1.971740 g / cm^3
# Si number density = 19.762375 Si / 1000 Ang^3
#
#
#
# Elastic Constant Matrix: (Units=GPa)
#
#
# Indices 1 2 3 4 5 6 
#
# 1 52.5892 -5.9519 7.8714 0.0003 14.2406 -0.0065
# 2 -5.9519 29.4483 -4.5032 0.0008 1.6630 -0.0075
# 3 7.8714 -4.5032 117.8481 -0.0020 21.2701 -0.0013
# 4 0.0003 0.0008 -0.0020 19.6497 0.0004 0.6098
# 5 14.2406 1.6630 21.2701 0.0004 25.1782 0.0021
# 6 -0.0065 -0.0075 -0.0013 0.6098 0.0021 16.9642
#
#
#
# Elastic Compliance Matrix: (Units=1/GPa)
#
#
# Indices 1 2 3 4 5 6 
#
# 1 0.023472 0.005780 0.001319 -0.000001 -0.014772 0.000014
# 2 0.005780 0.035919 0.002365 -0.000002 -0.007640 0.000019
# 3 0.001319 0.002365 0.010207 0.000001 -0.009525 0.000004
# 4 -0.000001 -0.000002 0.000001 0.050948 -0.000001 -0.001831
# 5 -0.014772 -0.007640 -0.009525 -0.000001 0.056623 -0.000017
# 6 0.000014 0.000019 0.000004 -0.001831 -0.000017 0.059014
#
#
# Mechanical properties :
#
#
# Convention : Reuss Voigt Hill
#
# Bulk Modulus (GPa) = 11.29594 21.63535 16.46565
# Shear Modulus (GPa) = 20.26237 25.85637 23.05937
#
# Velocity S-wave (km/s) = 3.20551 3.62105 3.41960
# Velocity P-wave (km/s) = 4.40779 5.33425 4.89300
#
# Compressibility (1/GPa) = 0.08852740
#
# Stress axis : x y z
#
# Youngs Moduli (GPa) = 42.60375 27.84028 97.97281
#
# Poissons Ratio (x) = -0.16092 -0.12925
# Poissons Ratio (y) = -0.24625 -0.23174
# Poissons Ratio (z) = -0.05620 -0.06585
#
# Static dielectric constant tensor:
#      x y z
#    x 1.657140 0.000000 0.013250 
#    y 0.000000 1.749810 0.000000 
#    z 0.013250 0.000000 1.753870 
# 
# From -- ./inp_files/280261.got.cif
#   From: 2010.05.17/outbox.cif.g08.bks.cpg/sg12_141_cif.got.tgz:280261.got - 2010.06.03 13:09:07.
