data_PCOD9171631
_publ_section_title
;
Structure prediction by ZEFSAII (Michael W. Deem and Ramdas Pophale) SiO2 
 PCOD9171631
Probable space group: C 2/M
;
_chemical_formula_sum "Si O2"
_cell_formula_units_Z 64
_cell_length_a 25.297127
_cell_length_b 8.714877
_cell_length_c 19.706826
_cell_angle_alpha 90.000000
_cell_angle_beta 65.016861
_cell_angle_gamma 90.000000
_cell_volume 3938.079051
_symmetry_space_group_name_H-M "C 2/M"
_symmetry_group_IT_number 12
_symmetry_cell_setting 'monoclinic'
loop_
_space_group_symop_operation_xyz
x,y,z
-x,y,-z
-x,-y,-z
x,-y,z
1/2+x,1/2+y,z
1/2-x,1/2+y,-z
1/2-x,1/2-y,-z
1/2+x,1/2-y,z
loop_
_atom_site_type_symbol
_atom_site_label
_atom_site_fract_x
_atom_site_fract_y
_atom_site_fract_z
Si Si1 0.112898 0.817250 0.909683
Si Si2 0.952410 0.683487 0.185948
Si Si3 0.303207 0.316204 0.926909
Si Si4 0.368059 0.684145 0.338101
Si Si5 0.808743 0.184707 0.501751
Si Si6 0.750107 0.185369 0.664924
Si Si7 0.741474 0.815504 0.824021
Si Si8 0.919337 0.683729 0.929951
O O1 0.083131 0.751632 0.858315
O O2 0.180065 0.763263 0.874325
O O3 0.109937 0.000000 0.911006
O O4 0.082239 0.752089 0.993493
O O5 0.946786 0.500000 0.187192
O O6 0.923169 0.745946 0.270099
O O7 0.020057 0.724421 0.139314
O O8 0.304765 0.500000 0.933973
O O9 0.288053 0.279073 0.856997
O O10 0.363436 0.246657 0.920441
O O11 0.250000 0.250000 0.000000
O O12 0.370269 0.500000 0.332810
O O13 0.359360 0.731538 0.421829
O O14 0.310092 0.741517 0.329654
O O15 0.750000 0.250000 0.500000
O O16 0.801802 0.229072 0.584383
O O17 0.807102 0.000000 0.500279
O O18 0.759592 0.228029 0.737887
O O19 0.743335 0.000000 0.665746
O O20 0.732139 0.000000 0.830593
O O21 0.915436 0.500000 0.937093
#
# Coordination Sequence:
#
# PCOD9171631 Si02
#       8
#     8   8   8   8   8   8   8   8
#     4  12  23  34  53  77 102 131 165 209 254 300
#     4  11  23  37  52  71 100 137 172 207 250 304
#     4  11  22  36  55  76 100 131 168 213 258 298
#     4  10  18  28  45  72 103 131 164 205 246 293
#     4   8  15  26  42  67  98 131 163 197 240 292
#     4   9  16  29  48  69  99 136 167 197 242 301
#     4  10  20  33  52  75 102 135 169 203 247 301
#     4  11  24  40  55  71  96 133 175 214 252 300
#
# _framework density 16.251579
#
# number of rings (size 3 to 8) (size 9 to 14) (size 15 to 20)
#    0.000    1.750    2.500    3.000    0.000    4.500 
#    0.000    0.000    0.000    0.000    0.000    0.875 
#    0.000    7.000    0.000    0.000    0.000    0.000 
#
# Total GULP energy -178515.009014 kJ/mol
# GULP energy per Si atom -5578.594032 kJ/mol
# Density = 1.621459 g / cm^3
# Si number density = 16.251579 Si / 1000 Ang^3
#
#
#
# Elastic Constant Matrix: (Units=GPa)
#
#
# Indices 1 2 3 4 5 6 
#
# 1 41.4255 19.9161 34.3507 0.0000 -13.4296 -0.0001
# 2 19.9161 34.7914 39.7811 0.0000 -4.7425 0.0000
# 3 34.3507 39.7811 167.2880 0.0000 -9.3633 0.0000
# 4 0.0000 0.0000 0.0000 22.5762 0.0000 -2.1577
# 5 -13.4296 -4.7425 -9.3633 0.0000 19.0774 0.0000
# 6 -0.0001 0.0000 0.0000 -2.1577 0.0000 20.5814
#
#
#
# Elastic Compliance Matrix: (Units=1/GPa)
#
#
# Indices 1 2 3 4 5 6 
#
# 1 0.043323 -0.017660 -0.003326 0.000000 0.024474 0.000000
# 2 -0.017660 0.047215 -0.007856 0.000000 -0.004551 0.000000
# 3 -0.003326 -0.007856 0.008523 0.000000 -0.000112 0.000000
# 4 0.000000 0.000000 0.000000 0.044743 0.000000 0.004691
# 5 0.024474 -0.004551 -0.000112 0.000000 0.068461 0.000000
# 6 0.000000 0.000000 0.000000 0.004691 0.000000 0.049079
#
#
# Mechanical properties :
#
#
# Convention : Reuss Voigt Hill
#
# Bulk Modulus (GPa) = 24.16930 47.95564 36.06247
# Shear Modulus (GPa) = 15.02313 22.41081 18.71697
#
# Velocity S-wave (km/s) = 3.04371 3.71751 3.39735
# Velocity P-wave (km/s) = 5.22077 6.92812 6.13414
#
# Compressibility (1/GPa) = 0.04137479
#
# Stress axis : x y z
#
# Youngs Moduli (GPa) = 23.08250 21.17986 117.33422
#
# Poissons Ratio (x) = 0.37404 0.39030
# Poissons Ratio (y) = 0.40764 0.92178
# Poissons Ratio (z) = 0.07678 0.16639
#
# Static dielectric constant tensor:
#      x y z
#    x 1.503720 0.000000 0.007620 
#    y 0.000000 1.545430 0.000000 
#    z 0.007620 0.000000 1.586780 
# 
# From -- ./inp_files/323666.got.cif
#   From: 2010.05.17/outbox.cif.g08.bks.cpg/sg12_162_cif.got.tgz:323666.got - 2010.06.03 13:09:07.
