data_PCOD9171827
_publ_section_title
;
Structure prediction by ZEFSAII (Michael W. Deem and Ramdas Pophale) SiO2 
 PCOD9171827
Probable space group: C 2/M
;
_chemical_formula_sum "Si O2"
_cell_formula_units_Z 56
_cell_length_a 20.233600
_cell_length_b 8.571117
_cell_length_c 28.481234
_cell_angle_alpha 90.000000
_cell_angle_beta 144.779554
_cell_angle_gamma 90.000000
_cell_volume 2848.638359
_symmetry_space_group_name_H-M "C 2/M"
_symmetry_group_IT_number 12
_symmetry_cell_setting 'monoclinic'
loop_
_space_group_symop_operation_xyz
x,y,z
-x,y,-z
-x,-y,-z
x,-y,z
1/2+x,1/2+y,z
1/2-x,1/2+y,-z
1/2-x,1/2-y,-z
1/2+x,1/2-y,z
loop_
_atom_site_type_symbol
_atom_site_label
_atom_site_fract_x
_atom_site_fract_y
_atom_site_fract_z
Si Si1 0.500743 0.815937 0.075890
Si Si2 0.734370 0.685855 0.247220
Si Si3 0.267682 0.187246 0.906593
Si Si4 0.403273 0.312282 0.273976
Si Si5 0.907538 0.317702 0.127685
Si Si6 0.853404 0.188389 0.702691
Si Si7 0.335103 0.688295 0.588632
O O1 0.622301 0.732869 0.151690
O O2 0.442190 0.800702 0.093450
O O3 0.522697 0.000000 0.079517
O O4 0.399511 0.757305 0.983014
O O5 0.745586 0.500000 0.253540
O O6 0.845297 0.762313 0.288768
O O7 0.710655 0.739207 0.287022
O O8 0.183640 0.246460 0.816996
O O9 0.202830 0.228447 0.917253
O O10 0.274528 0.000000 0.907118
O O11 0.404691 0.500000 0.271197
O O12 0.533739 0.258443 0.343892
O O13 0.891198 0.500000 0.127560
O O14 0.017721 0.252242 0.219207
O O15 0.802210 0.234983 0.622818
O O16 0.860156 0.000000 0.707911
O O17 0.334520 0.500000 0.586557
O O18 0.250000 0.750000 0.500000
#
# Coordination Sequence:
#
# PCOD9171827 Si02
#       7
#     8   8   8   8   8   8   8
#     4   9  19  33  50  75 108 149 192 228 268 320
#     4  10  21  36  57  81 111 149 186 228 270 314
#     4  10  19  33  52  73 106 152 192 225 269 327
#     4  10  21  38  58  79 109 148 184 222 271 331
#     4  10  18  28  48  80 111 139 181 236 278 310
#     4   9  18  37  59  79 108 148 185 215 266 334
#     4  10  21  39  63  88 110 137 176 223 273 329
#
# _framework density 19.658515000000001
#
# number of rings (size 3 to 8) (size 9 to 14) (size 15 to 20)
#    0.000    2.286    1.429    1.286    0.000    4.000 
#    0.000    3.571    0.000    4.286    0.000    0.000 
#    0.000    0.000    0.000    0.000    0.000    0.000 
#
# Total GULP energy -156267.093231 kJ/mol
# GULP energy per Si atom -5580.967615 kJ/mol
# Density = 1.961377 g / cm^3
# Si number density = 19.658515 Si / 1000 Ang^3
#
#
#
# Elastic Constant Matrix: (Units=GPa)
#
#
# Indices 1 2 3 4 5 6 
#
# 1 88.5801 7.3250 50.4119 0.0000 6.3955 -0.0001
# 2 7.3250 -12.0803 25.4409 0.0000 -2.3588 -0.0001
# 3 50.4119 25.4409 107.2107 0.0000 -14.6907 0.0001
# 4 0.0000 0.0000 0.0000 25.0192 0.0000 3.3430
# 5 6.3955 -2.3588 -14.6907 0.0000 20.3197 0.0000
# 6 -0.0001 -0.0001 0.0001 3.3430 0.0000 23.6155
#
#
#
# Elastic Compliance Matrix: (Units=1/GPa)
#
#
# Indices 1 2 3 4 5 6 
#
# 1 0.017591 -0.005278 -0.008726 0.000000 -0.012458 0.000000
# 2 -0.005278 -0.053401 0.016130 0.000000 0.007124 0.000000
# 3 -0.008726 0.016130 0.011362 0.000000 0.012833 0.000000
# 4 0.000000 0.000000 0.000000 0.040740 0.000000 -0.005767
# 5 -0.012458 0.007124 0.012833 0.000000 0.063239 0.000000
# 6 0.000000 0.000000 0.000000 -0.005767 0.000000 0.043161
#
#
# Mechanical properties :
#
#
# Convention : Reuss Voigt Hill
#
# Bulk Modulus (GPa) = -49.51122 38.89621 -5.30750
# Shear Modulus (GPa) = 44.75922 20.49307 32.62615
#
# Velocity S-wave (km/s) = 4.77680 3.23221 4.07829
# Velocity P-wave (km/s) = 2.27671 5.81020 4.41259
#
# Compressibility (1/GPa) = -0.02019744
#
# Stress axis : x y z
#
# Youngs Moduli (GPa) = 56.84585 -18.72609 88.01649
#
# Poissons Ratio (x) = -0.09884 0.76806
# Poissons Ratio (y) = 0.30004 -1.41971
# Poissons Ratio (z) = 0.49606 0.30205
#
# Static dielectric constant tensor:
#      x y z
#    x 1.723880 0.000000 -0.039050 
#    y 0.000000 1.669700 0.000000 
#    z -0.039050 0.000000 1.692030 
# 
# From -- ./inp_files/329626.got.cif
#   From: 2010.05.17/outbox.cif.g08.bks.cpg/sg12_165_cif.got.tgz:329626.got - 2010.06.03 13:09:07.
