data_PCOD9171638
_publ_section_title
;
Structure prediction by ZEFSAII (Michael W. Deem and Ramdas Pophale) SiO2 
 PCOD9171638
Probable space group: C 2/M
;
_chemical_formula_sum "Si O2"
_cell_formula_units_Z 64
_cell_length_a 19.292345
_cell_length_b 20.337024
_cell_length_c 11.987249
_cell_angle_alpha 90.000000
_cell_angle_beta 50.387945
_cell_angle_gamma 90.000000
_cell_volume 3623.234528
_symmetry_space_group_name_H-M "C 2/M"
_symmetry_group_IT_number 12
_symmetry_cell_setting 'monoclinic'
loop_
_space_group_symop_operation_xyz
x,y,z
-x,y,-z
-x,-y,-z
x,-y,z
1/2+x,1/2+y,z
1/2-x,1/2+y,-z
1/2-x,1/2-y,-z
1/2+x,1/2-y,z
loop_
_atom_site_type_symbol
_atom_site_label
_atom_site_fract_x
_atom_site_fract_y
_atom_site_fract_z
Si Si1 0.513961 0.245663 0.356931
Si Si2 0.829080 0.297576 0.963075
Si Si3 0.163489 0.925783 0.464075
Si Si4 0.568519 0.572619 0.033137
Si Si5 0.737912 0.572737 0.148615
Si Si6 0.606695 0.294892 0.909393
Si Si7 0.465554 0.397739 0.687625
Si Si8 0.160690 0.791514 0.599713
O O1 0.500000 0.223934 0.500000
O O2 0.588157 0.205514 0.210117
O O3 0.548388 0.321248 0.325744
O O4 0.420834 0.255470 0.383643
O O5 0.750000 0.250000 0.000000
O O6 0.789262 0.369142 0.032788
O O7 0.862445 0.263950 0.043567
O O8 0.228834 0.916089 0.291232
O O9 0.173692 0.864009 0.534547
O O10 0.057697 0.921707 0.535799
O O11 0.177250 0.000000 0.494165
O O12 0.610262 0.500000 0.000620
O O13 0.629575 0.635974 0.947035
O O14 0.500000 0.569706 0.000000
O O15 0.515167 0.590046 0.200601
O O16 0.776225 0.500000 0.088661
O O17 0.632312 0.571422 0.224618
O O18 0.643122 0.295987 0.748372
O O19 0.500000 0.290786 0.000000
O O20 0.250000 0.750000 0.500000
#
# Coordination Sequence:
#
# PCOD9171638 Si02
#       8
#     8   8   8   8   8   8   8   8
#     4  11  22  38  59  87 118 150 193 240 294 351
#     4  12  23  38  61  88 117 156 195 245 291 346
#     4  10  20  34  54  83 122 157 186 230 294 360
#     4  10  18  28  45  73 109 148 183 217 269 345
#     4  11  22  35  55  84 117 151 193 242 291 346
#     4  11  20  37  55  81 114 154 194 237 287 341
#     4  11  18  32  52  81 118 151 182 226 287 358
#     4  11  23  37  58  85 117 153 195 245 290 345
#
# _framework density 17.663775000000001
#
# number of rings (size 3 to 8) (size 9 to 14) (size 15 to 20)
#    0.000    1.125    3.750    6.000    1.750    2.500 
#    0.000    0.000    0.000    1.500    0.000    0.000 
#    0.000    0.000    0.000    0.000    0.000    0.000 
#
# Total GULP energy -178447.015730 kJ/mol
# GULP energy per Si atom -5576.469242 kJ/mol
# Density = 1.762357 g / cm^3
# Si number density = 17.663775 Si / 1000 Ang^3
#
#
#
# Elastic Constant Matrix: (Units=GPa)
#
#
# Indices 1 2 3 4 5 6 
#
# 1 57.6017 39.2991 36.6036 0.0000 2.1480 0.0000
# 2 39.2991 139.6859 84.2507 0.0000 -8.8154 0.0000
# 3 36.6036 84.2507 123.1924 0.0000 2.6618 0.0000
# 4 0.0000 0.0000 0.0000 29.0380 0.0000 -2.3612
# 5 2.1480 -8.8154 2.6618 0.0000 26.0840 0.0000
# 6 0.0000 0.0000 0.0000 -2.3612 0.0000 17.1576
#
#
#
# Elastic Compliance Matrix: (Units=1/GPa)
#
#
# Indices 1 2 3 4 5 6 
#
# 1 0.022816 -0.004351 -0.003740 0.000000 -0.002968 0.000000
# 2 -0.004351 0.013696 -0.008200 0.000000 0.005824 0.000000
# 3 -0.003740 -0.008200 0.014923 0.000000 -0.003986 0.000000
# 4 0.000000 0.000000 0.000000 0.034827 0.000000 0.004793
# 5 -0.002968 0.005824 -0.003986 0.000000 0.040957 0.000000
# 6 0.000000 0.000000 0.000000 0.004793 0.000000 0.058943
#
#
# Mechanical properties :
#
#
# Convention : Reuss Voigt Hill
#
# Bulk Modulus (GPa) = 53.03871 71.19853 62.11862
# Shear Modulus (GPa) = 22.21955 25.14437 23.68196
#
# Velocity S-wave (km/s) = 3.55056 3.77702 3.66554
# Velocity P-wave (km/s) = 6.84840 7.70820 7.29099
#
# Compressibility (1/GPa) = 0.01885415
#
# Stress axis : x y z
#
# Youngs Moduli (GPa) = 43.82893 73.01281 67.01290
#
# Poissons Ratio (x) = 0.31766 0.25060
# Poissons Ratio (y) = 0.19069 0.54950
# Poissons Ratio (z) = 0.16390 0.59870
#
# Static dielectric constant tensor:
#      x y z
#    x 1.634360 0.000000 0.031930 
#    y 0.000000 1.631050 0.000000 
#    z 0.031930 0.000000 1.631080 
# 
# From -- ./inp_files/168754.got.cif
#   From: 2010.05.17/outbox.cif.g08.bks.cpg/sg12_85_cif.got.tgz:168754.got - 2010.06.03 13:09:07.
