data_PCOD9171768
_publ_section_title
;
Structure prediction by ZEFSAII (Michael W. Deem and Ramdas Pophale) SiO2 
 PCOD9171768
Probable space group: C 2/M
;
_chemical_formula_sum "Si O2"
_cell_formula_units_Z 52
_cell_length_a 9.794844
_cell_length_b 26.139798
_cell_length_c 11.461478
_cell_angle_alpha 90.000000
_cell_angle_beta 57.310188
_cell_angle_gamma 90.000000
_cell_volume 2469.730855
_symmetry_space_group_name_H-M "C 2/M"
_symmetry_group_IT_number 12
_symmetry_cell_setting 'monoclinic'
loop_
_space_group_symop_operation_xyz
x,y,z
-x,y,-z
-x,-y,-z
x,-y,z
1/2+x,1/2+y,z
1/2-x,1/2+y,-z
1/2-x,1/2-y,-z
1/2+x,1/2-y,z
loop_
_atom_site_type_symbol
_atom_site_label
_atom_site_fract_x
_atom_site_fract_y
_atom_site_fract_z
Si Si1 0.891499 0.394031 0.932384
Si Si2 0.732094 0.732611 0.643166
Si Si3 0.921190 0.278051 0.908852
Si Si4 0.388512 0.561297 0.790626
Si Si5 0.500000 0.695684 0.500000
Si Si6 0.308768 0.373908 0.404826
Si Si7 0.165291 0.559264 0.665186
O O1 0.890633 0.336493 0.883752
O O2 0.988909 0.430656 0.800716
O O3 0.720541 0.414984 0.056122
O O4 0.000000 0.393298 0.000000
O O5 0.750000 0.750000 0.500000
O O6 0.558106 0.749051 0.771381
O O7 0.873553 0.768414 0.628648
O O8 0.761841 0.671990 0.641278
O O9 0.750000 0.250000 0.000000
O O10 0.000000 0.281021 0.000000
O O11 0.396507 0.500000 0.796460
O O12 0.563843 0.587555 0.711615
O O13 0.296051 0.572170 0.708591
O O14 0.586820 0.659208 0.551323
O O15 0.188462 0.405997 0.541110
O O16 0.190462 0.500000 0.624885
#
# Coordination Sequence:
#
# PCOD9171768 Si02
#       7
#     8   8   8   8   4   8   8
#     4   9  18  30  49  71 111 146 177 223 281 341
#     4  10  23  35  57  79 110 154 199 237 285 348
#     4  11  24  39  59  86 121 161 200 243 294 351
#     4  10  18  28  47  75 107 142 177 221 282 351
#     4  10  20  34  53  74 111 148 192 230 282 340
#     4  11  19  32  51  74 108 143 183 227 284 330
#     4  10  18  30  48  75 108 144 180 223 285 350
#
# _framework density 21.054926999999999
#
# number of rings (size 3 to 8) (size 9 to 14) (size 15 to 20)
#    0.000    1.846    1.538    3.692    8.615    3.077 
#    0.000    0.000    0.000    0.000    0.000    2.154 
#    0.000    4.923    0.000    0.000    0.000    0.000 
#
# Total GULP energy -145139.288592 kJ/mol
# GULP energy per Si atom -5582.280330 kJ/mol
# Density = 2.100700 g / cm^3
# Si number density = 21.054927 Si / 1000 Ang^3
#
#
#
# Elastic Constant Matrix: (Units=GPa)
#
#
# Indices 1 2 3 4 5 6 
#
# 1 19.5473 2.0458 11.1791 0.0000 -8.2623 0.0000
# 2 2.0458 118.2160 49.7613 0.0000 -12.1954 0.0000
# 3 11.1791 49.7613 134.6174 0.0000 -33.6547 0.0000
# 4 0.0000 0.0000 0.0000 33.3611 0.0000 -16.2206
# 5 -8.2623 -12.1954 -33.6547 0.0000 27.1118 0.0000
# 6 0.0000 0.0000 0.0000 -16.2206 0.0000 18.2312
#
#
#
# Elastic Compliance Matrix: (Units=1/GPa)
#
#
# Indices 1 2 3 4 5 6 
#
# 1 0.058894 0.001189 -0.001029 0.000000 0.017206 0.000000
# 2 0.001189 0.010042 -0.003757 0.000000 0.000216 0.000000
# 3 -0.001029 -0.003757 0.012182 0.000000 0.013119 0.000000
# 4 0.000000 0.000000 0.000000 0.052828 0.000000 0.047002
# 5 0.017206 0.000216 0.013119 0.000000 0.058510 0.000000
# 6 0.000000 0.000000 0.000000 0.047002 0.000000 0.096670
#
#
# Mechanical properties :
#
#
# Convention : Reuss Voigt Hill
#
# Bulk Modulus (GPa) = 13.52718 44.26147 28.89432
# Shear Modulus (GPa) = 15.57815 29.70045 22.63930
#
# Velocity S-wave (km/s) = 2.72303 3.75989 3.28266
# Velocity P-wave (km/s) = 4.04044 6.31796 5.30291
#
# Compressibility (1/GPa) = 0.07392523
#
# Stress axis : x y z
#
# Youngs Moduli (GPa) = 16.97956 99.58000 82.08598
#
# Poissons Ratio (x) = -0.11838 0.08445
# Poissons Ratio (y) = -0.02019 0.30838
# Poissons Ratio (z) = 0.01747 0.37410
#
# Static dielectric constant tensor:
#      x y z
#    x 1.878010 0.000000 0.051550 
#    y 0.000000 1.768610 0.000000 
#    z 0.051550 0.000000 1.774900 
# 
# From -- ./inp_files/135854.got.cif
#   From: 2010.05.17/outbox.cif.g08.bks.cpg/sg12_68_cif.got.tgz:135854.got - 2010.06.03 13:09:07.
