data_PCOD9171968
_publ_section_title
;
Structure prediction by ZEFSAII (Michael W. Deem and Ramdas Pophale) SiO2 
 PCOD9171968
Probable space group: C 2/M
;
_chemical_formula_sum "Si O2"
_cell_formula_units_Z 64
_cell_length_a 29.254359
_cell_length_b 7.679594
_cell_length_c 15.309942
_cell_angle_alpha 90.000000
_cell_angle_beta 92.215428
_cell_angle_gamma 90.000000
_cell_volume 3436.985145
_symmetry_space_group_name_H-M "C 2/M"
_symmetry_group_IT_number 12
_symmetry_cell_setting 'monoclinic'
loop_
_space_group_symop_operation_xyz
x,y,z
-x,y,-z
-x,-y,-z
x,-y,z
1/2+x,1/2+y,z
1/2-x,1/2+y,-z
1/2-x,1/2-y,-z
1/2+x,1/2-y,z
loop_
_atom_site_type_symbol
_atom_site_label
_atom_site_fract_x
_atom_site_fract_y
_atom_site_fract_z
Si Si1 0.987604 0.286110 0.096695
Si Si2 0.160377 0.293004 0.666877
Si Si3 0.945337 0.710048 0.743763
Si Si4 0.257454 0.207812 0.602691
Si Si5 0.973334 0.208418 0.365200
Si Si6 0.095974 0.200383 0.503456
Si Si7 0.355159 0.800935 0.664701
Si Si8 0.092774 0.699395 0.797392
O O1 0.986746 0.500000 0.099009
O O2 0.937857 0.223795 0.127076
O O3 0.025670 0.229757 0.170334
O O4 0.000000 0.233075 0.000000
O O5 0.150936 0.500000 0.661381
O O6 0.213682 0.266133 0.654570
O O7 0.132580 0.206700 0.585524
O O8 0.138631 0.226657 0.756533
O O9 0.943282 0.500000 0.747515
O O10 0.893685 0.777997 0.730975
O O11 0.975089 0.755290 0.659847
O O12 0.250000 0.250000 0.500000
O O13 0.305607 0.279990 0.642681
O O14 0.260022 0.000000 0.607060
O O15 0.950985 0.264599 0.455059
O O16 0.942864 0.294866 0.286687
O O17 0.966439 0.000000 0.361060
O O18 0.118756 0.302477 0.426416
O O19 0.089966 0.000000 0.475044
O O20 0.347481 0.000000 0.693068
O O21 0.102752 0.500000 0.822655
#
# Coordination Sequence:
#
# PCOD9171968 Si02
#       8
#     8   8   8   8   8   8   8   8
#     4   8  13  25  49  76  95 111 138 179 222 266
#     4  10  18  29  45  64  89 119 152 191 230 266
#     4   9  18  32  46  63  88 118 147 178 220 270
#     4  11  21  32  46  64  85 115 158 201 235 265
#     4   9  17  28  42  62  87 116 149 184 218 255
#     4  10  19  29  43  62  85 116 154 190 223 259
#     4  10  21  33  44  59  84 117 153 189 225 267
#     4   8  15  27  44  67  93 119 146 178 220 269
#
# _framework density 18.620971999999998
#
# number of rings (size 3 to 8) (size 9 to 14) (size 15 to 20)
#    0.000    2.625    1.250    2.250    0.000    3.500 
#    0.000    2.500    0.000    6.000    0.000    0.875 
#    0.000    0.000    0.000    0.000    0.000    0.000 
#
# Total GULP energy -178324.212389 kJ/mol
# GULP energy per Si atom -5572.631637 kJ/mol
# Density = 1.857859 g / cm^3
# Si number density = 18.620972 Si / 1000 Ang^3
#
#
#
# Elastic Constant Matrix: (Units=GPa)
#
#
# Indices 1 2 3 4 5 6 
#
# 1 170.2774 0.9911 56.2423 0.0000 -7.3504 0.0000
# 2 0.9911 46.3159 -1.0365 0.0000 0.2500 0.0000
# 3 56.2423 -1.0365 80.7620 0.0000 -17.6832 0.0000
# 4 0.0000 0.0000 0.0000 -1.9574 0.0000 1.1885
# 5 -7.3504 0.2500 -17.6832 0.0000 26.1068 0.0000
# 6 0.0000 0.0000 0.0000 1.1885 0.0000 16.3793
#
#
#
# Elastic Compliance Matrix: (Units=1/GPa)
#
#
# Indices 1 2 3 4 5 6 
#
# 1 0.007696 -0.000284 -0.005739 0.000000 -0.001718 0.000000
# 2 -0.000284 0.021608 0.000484 0.000000 0.000041 0.000000
# 3 -0.005739 0.000484 0.018822 0.000000 0.011128 0.000000
# 4 0.000000 0.000000 0.000000 -0.489336 0.000000 0.035506
# 5 -0.001718 0.000041 0.011128 0.000000 0.045358 0.000000
# 6 0.000000 0.000000 0.000000 0.035506 0.000000 0.058476
#
#
# Mechanical properties :
#
#
# Convention : Reuss Voigt Hill
#
# Bulk Modulus (GPa) = 26.99283 45.52767 36.26025
# Shear Modulus (GPa) = -15.92609 24.18299 4.12845
#
# Velocity S-wave (km/s) = -2.92768 3.60765 1.49061
# Velocity P-wave (km/s) = 1.76038 6.46964 4.74106
#
# Compressibility (1/GPa) = 0.03704687
#
# Stress axis : x y z
#
# Youngs Moduli (GPa) = 129.93921 46.28018 53.13045
#
# Poissons Ratio (x) = 0.01314 0.30493
# Poissons Ratio (y) = 0.03688 -0.02571
# Poissons Ratio (z) = 0.74575 -0.02240
#
# Static dielectric constant tensor:
#      x y z
#    x 1.730760 0.000000 -0.017260 
#    y 0.000000 1.706640 0.000000 
#    z -0.017260 0.000000 1.643080 
# 
# From -- ./inp_files/244118.got.cif
#   From: 2010.05.17/outbox.cif.g08.bks.cpg/sg12_123_cif.got.tgz:244118.got - 2010.06.03 13:09:07.
