data_PCOD9171959
_publ_section_title
;
Structure prediction by ZEFSAII (Michael W. Deem and Ramdas Pophale) SiO2 
 PCOD9171959
Probable space group: C 2/M
;
_chemical_formula_sum "Si O2"
_cell_formula_units_Z 64
_cell_length_a 28.606042
_cell_length_b 9.172655
_cell_length_c 20.638165
_cell_angle_alpha 90.000000
_cell_angle_beta 47.860018
_cell_angle_gamma 90.000000
_cell_volume 4015.500181
_symmetry_space_group_name_H-M "C 2/M"
_symmetry_group_IT_number 12
_symmetry_cell_setting 'monoclinic'
loop_
_space_group_symop_operation_xyz
x,y,z
-x,y,-z
-x,-y,-z
x,-y,z
1/2+x,1/2+y,z
1/2-x,1/2+y,-z
1/2-x,1/2-y,-z
1/2+x,1/2-y,z
loop_
_atom_site_type_symbol
_atom_site_label
_atom_site_fract_x
_atom_site_fract_y
_atom_site_fract_z
Si Si1 0.558688 0.321932 0.901980
Si Si2 0.974461 0.823295 0.350040
Si Si3 0.211026 0.832324 0.619775
Si Si4 0.047994 0.324990 0.396077
Si Si5 0.334910 0.332843 0.518157
Si Si6 0.570872 0.677212 0.742865
Si Si7 0.823861 0.831822 0.684336
Si Si8 0.801410 0.168627 0.211399
O O1 0.559558 0.500000 0.900624
O O2 0.553395 0.274936 0.831667
O O3 0.627113 0.277946 0.866271
O O4 0.500000 0.274597 0.000000
O O5 0.904079 0.776651 0.437184
O O6 0.975728 0.785709 0.272491
O O7 0.021824 0.744418 0.354217
O O8 0.979839 0.000000 0.352220
O O9 0.274499 0.746895 0.545443
O O10 0.142851 0.774637 0.660653
O O11 0.204976 0.830954 0.704187
O O12 0.218250 0.000000 0.593606
O O13 0.049910 0.500000 0.390652
O O14 0.117028 0.260453 0.345617
O O15 0.000000 0.285437 0.500000
O O16 0.333484 0.500000 0.498129
O O17 0.328678 0.329346 0.601639
O O18 0.574343 0.500000 0.741174
O O19 0.755864 0.762407 0.763346
O O20 0.828241 0.000000 0.701304
O O21 0.795616 0.000000 0.195910
#
# Coordination Sequence:
#
# PCOD9171959 Si02
#       8
#     8   8   8   8   8   8   8   8
#     4   8  13  24  46  75 101 123 149 180 217 267
#     4  10  19  31  44  59  86 120 154 189 227 267
#     4   8  14  25  40  57  82 116 150 180 213 253
#     4  11  22  33  46  64  85 113 155 201 237 267
#     4   9  17  26  38  58  82 113 151 187 219 255
#     4   8  15  27  42  62  89 121 151 182 219 263
#     4  10  18  29  45  63  87 119 154 191 229 268
#     4   8  14  25  42  66  94 120 147 184 224 260
#
# _framework density 15.93824
#
# number of rings (size 3 to 8) (size 9 to 14) (size 15 to 20)
#    0.000    3.000    1.250    2.250    0.000    2.000 
#    0.000    0.625    0.000    1.125    0.000    0.875 
#    0.000    0.000    0.000    0.000    0.000    0.000 
#
# Total GULP energy -178216.622568 kJ/mol
# GULP energy per Si atom -5569.269455 kJ/mol
# Density = 1.590196 g / cm^3
# Si number density = 15.938240 Si / 1000 Ang^3
#
#
#
# Elastic Constant Matrix: (Units=GPa)
#
#
# Indices 1 2 3 4 5 6 
#
# 1 132.0027 45.0898 46.4485 -0.0025 -12.5419 0.0019
# 2 45.0898 38.5970 21.4882 -0.0016 -6.8831 0.0088
# 3 46.4485 21.4882 76.5918 -0.0055 -17.2016 0.0071
# 4 -0.0025 -0.0016 -0.0055 9.6602 0.0043 -4.7315
# 5 -12.5419 -6.8831 -17.2016 0.0043 20.0246 -0.0027
# 6 0.0019 0.0088 0.0071 -4.7315 -0.0027 18.0721
#
#
#
# Elastic Compliance Matrix: (Units=1/GPa)
#
#
# Indices 1 2 3 4 5 6 
#
# 1 0.013836 -0.013614 -0.004554 0.000002 0.000074 0.000008
# 2 -0.013614 0.044350 -0.003318 -0.000010 0.003868 -0.000021
# 3 -0.004554 -0.003318 0.019642 0.000002 0.012880 -0.000003
# 4 0.000002 -0.000010 0.000002 0.118745 -0.000021 0.031089
# 5 0.000074 0.003868 0.012880 -0.000021 0.062378 -0.000003
# 6 0.000008 -0.000021 -0.000003 0.031089 -0.000003 0.063473
#
#
# Mechanical properties :
#
#
# Convention : Reuss Voigt Hill
#
# Bulk Modulus (GPa) = 28.69078 52.58271 40.63675
# Shear Modulus (GPa) = 13.26207 18.49571 15.87889
#
# Velocity S-wave (km/s) = 2.88773 3.41025 3.15981
# Velocity P-wave (km/s) = 5.39990 6.96919 6.23412
#
# Compressibility (1/GPa) = 0.03485440
#
# Stress axis : x y z
#
# Youngs Moduli (GPa) = 72.27744 22.54785 50.91227
#
# Poissons Ratio (x) = 0.30697 0.23187
# Poissons Ratio (y) = 0.98401 0.16891
# Poissons Ratio (z) = 0.32918 0.07481
#
# Static dielectric constant tensor:
#      x y z
#    x 1.549690 0.000000 0.010150 
#    y 0.000000 1.537630 0.000000 
#    z 0.010150 0.000000 1.540730 
# 
# From -- ./inp_files/326882.got.cif
#   From: 2010.05.17/outbox.cif.g08.bks.cpg/sg12_164_cif.got.tgz:326882.got - 2010.06.03 13:09:07.
