data_PCOD9171630
_publ_section_title
;
Structure prediction by ZEFSAII (Michael W. Deem and Ramdas Pophale) SiO2 
 PCOD9171630
Probable space group: C 2/M
;
_chemical_formula_sum "Si O2"
_cell_formula_units_Z 64
_cell_length_a 25.952517
_cell_length_b 7.424036
_cell_length_c 14.346321
_cell_angle_alpha 90.000000
_cell_angle_beta 99.228066
_cell_angle_gamma 90.000000
_cell_volume 2728.366417
_symmetry_space_group_name_H-M "C 2/M"
_symmetry_group_IT_number 12
_symmetry_cell_setting 'monoclinic'
loop_
_space_group_symop_operation_xyz
x,y,z
-x,y,-z
-x,-y,-z
x,-y,z
1/2+x,1/2+y,z
1/2-x,1/2+y,-z
1/2-x,1/2-y,-z
1/2+x,1/2-y,z
loop_
_atom_site_type_symbol
_atom_site_label
_atom_site_fract_x
_atom_site_fract_y
_atom_site_fract_z
Si Si1 0.458484 0.212322 0.252387
Si Si2 0.327438 0.780126 0.884042
Si Si3 0.715776 0.716586 0.627060
Si Si4 0.890605 0.294030 0.069527
Si Si5 0.102697 0.785480 0.580920
Si Si6 0.561953 0.213177 0.379179
Si Si7 0.329317 0.780195 0.667437
Si Si8 0.787661 0.215985 0.151366
O O1 0.433875 0.288953 0.150373
O O2 0.416573 0.226244 0.323556
O O3 0.512457 0.287926 0.309181
O O4 0.466350 0.000000 0.237928
O O5 0.333083 0.731880 0.777792
O O6 0.269479 0.722812 0.899047
O O7 0.327437 0.000000 0.887496
O O8 0.372480 0.713675 0.965906
O O9 0.716525 0.500000 0.614977
O O10 0.660674 0.786293 0.572549
O O11 0.772939 0.783563 0.613101
O O12 0.711881 0.750701 0.737427
O O13 0.906650 0.500000 0.055056
O O14 0.836937 0.296901 0.113622
O O15 0.061383 0.735280 0.489958
O O16 0.106033 0.000000 0.585473
O O17 0.618175 0.287206 0.364910
O O18 0.562758 0.000000 0.360624
O O19 0.328372 0.000000 0.662404
O O20 0.791451 0.000000 0.141538
#
# Coordination Sequence:
#
# PCOD9171630 Si02
#       8
#     8   8   8   8   8   8   8   8
#     4  10  21  35  49  71 105 133 159 201 246 288
#     4   8  15  27  47  73  98 127 161 196 236 285
#     4   8  15  28  48  74  99 123 155 198 242 290
#     4  10  18  28  45  72 102 128 158 198 240 280
#     4  11  21  34  54  77  98 123 161 207 252 295
#     4  10  21  36  53  71  94 132 171 201 242 292
#     4   8  15  31  52  71  97 132 165 195 237 293
#     4   9  15  27  46  69  99 130 158 191 237 292
#
# _framework density 23.457260000000002
#
# number of rings (size 3 to 8) (size 9 to 14) (size 15 to 20)
#    0.000    2.750    1.250    2.625    0.000    2.500 
#    0.000    0.625    0.000    8.250    0.000    0.000 
#    0.000    3.000    0.000    0.000    0.000    0.000 
#
# Total GULP energy -178685.007866 kJ/mol
# GULP energy per Si atom -5583.906496 kJ/mol
# Density = 2.340387 g / cm^3
# Si number density = 23.457260 Si / 1000 Ang^3
#
#
#
# Elastic Constant Matrix: (Units=GPa)
#
#
# Indices 1 2 3 4 5 6 
#
# 1 129.6249 0.6668 42.1810 0.0000 39.0034 0.0000
# 2 0.6668 77.5745 -0.7736 0.0000 6.5462 0.0000
# 3 42.1810 -0.7736 121.9530 0.0000 48.9826 0.0000
# 4 0.0000 0.0000 0.0000 -4.4882 0.0000 -3.4770
# 5 39.0034 6.5462 48.9826 0.0000 45.3093 0.0000
# 6 0.0000 0.0000 0.0000 -3.4770 0.0000 8.2917
#
#
#
# Elastic Compliance Matrix: (Units=1/GPa)
#
#
# Indices 1 2 3 4 5 6 
#
# 1 0.010447 0.000685 0.000076 0.000000 -0.009173 0.000000
# 2 0.000685 0.013249 0.001507 0.000000 -0.004133 0.000000
# 3 0.000076 0.001507 0.014664 0.000000 -0.016136 0.000000
# 4 0.000000 0.000000 0.000000 -0.168174 0.000000 -0.070522
# 5 -0.009173 -0.004133 -0.016136 0.000000 0.048009 0.000000
# 6 0.000000 0.000000 0.000000 -0.070522 0.000000 0.091030
#
#
# Mechanical properties :
#
#
# Convention : Reuss Voigt Hill
#
# Bulk Modulus (GPa) = 23.31244 45.92233 34.61739
# Shear Modulus (GPa) = 263.32632 28.96109 146.14371
#
# Velocity S-wave (km/s) = 10.60668 3.51755 7.90173
# Velocity P-wave (km/s) = 12.64761 6.00974 9.90149
#
# Compressibility (1/GPa) = 0.04289555
#
# Stress axis : x y z
#
# Youngs Moduli (GPa) = 95.72406 75.47872 68.19258
#
# Poissons Ratio (x) = -0.05171 -0.00515
# Poissons Ratio (y) = -0.06558 -0.10278
# Poissons Ratio (z) = -0.00724 -0.11376
#
# Static dielectric constant tensor:
#      x y z
#    x 1.889990 0.000000 0.042400 
#    y 0.000000 1.898230 0.000000 
#    z 0.042400 0.000000 1.894810 
# 
# From -- ./inp_files/244256.got.cif
#   From: 2010.05.17/outbox.cif.g08.bks.cpg/sg12_123_cif.got.tgz:244256.got - 2010.06.03 13:09:07.
