data_PCOD9171829
_publ_section_title
;
Structure prediction by ZEFSAII (Michael W. Deem and Ramdas Pophale) SiO2 
 PCOD9171829
Probable space group: C 2/M
;
_chemical_formula_sum "Si O2"
_cell_formula_units_Z 56
_cell_length_a 19.911359
_cell_length_b 12.553573
_cell_length_c 19.212208
_cell_angle_alpha 90.000000
_cell_angle_beta 143.781050
_cell_angle_gamma 90.000000
_cell_volume 2837.522633
_symmetry_space_group_name_H-M "C 2/M"
_symmetry_group_IT_number 12
_symmetry_cell_setting 'monoclinic'
loop_
_space_group_symop_operation_xyz
x,y,z
-x,y,-z
-x,-y,-z
x,-y,z
1/2+x,1/2+y,z
1/2-x,1/2+y,-z
1/2-x,1/2-y,-z
1/2+x,1/2-y,z
loop_
_atom_site_type_symbol
_atom_site_label
_atom_site_fract_x
_atom_site_fract_y
_atom_site_fract_z
Si Si1 0.443576 0.378975 0.059210
Si Si2 0.250034 0.735481 0.172292
Si Si3 0.050970 0.619320 0.610281
Si Si4 0.808559 0.619707 0.475074
Si Si5 0.938183 0.624899 0.712799
Si Si6 0.362231 0.704283 0.131316
Si Si7 0.838969 0.257707 0.754746
O O1 0.428718 0.500000 0.022784
O O2 0.418721 0.373631 0.121880
O O3 0.568636 0.333249 0.149517
O O4 0.356031 0.296618 0.950863
O O5 0.343862 0.823540 0.269032
O O6 0.313993 0.666255 0.166018
O O7 0.212356 0.695120 0.216941
O O8 0.087977 0.500000 0.620523
O O9 0.000000 0.676324 0.500000
O O10 0.941619 0.612652 0.566898
O O11 0.758775 0.500000 0.426783
O O12 0.826402 0.646665 0.571272
O O13 0.748773 0.698578 0.371092
O O14 0.967171 0.500000 0.731043
O O15 0.903762 0.655244 0.762522
O O16 0.043425 0.702229 0.781780
O O17 0.250000 0.750000 0.000000
#
# Coordination Sequence:
#
# PCOD9171829 Si02
#       7
#     8   8   8   8   8   8   8
#     4  10  22  37  54  77 109 146 178 217 276 336
#     4  11  20  34  55  79 109 143 179 227 275 324
#     4  10  18  28  48  82 112 135 174 225 279 329
#     4  10  19  32  54  83 112 144 182 225 273 325
#     4  10  21  38  57  79 110 150 190 223 265 326
#     4   9  20  36  55  78 104 137 182 225 266 317
#     4  11  22  35  54  83 116 143 179 225 276 324
#
# _framework density 19.735524999999999
#
# number of rings (size 3 to 8) (size 9 to 14) (size 15 to 20)
#    0.000    1.857    2.857    1.714    0.000    4.571 
#    0.000    0.714    0.000   11.143    0.000    1.000 
#    0.000    0.000    0.000    0.000    0.000    0.000 
#
# Total GULP energy -155901.431344 kJ/mol
# GULP energy per Si atom -5567.908262 kJ/mol
# Density = 1.969061 g / cm^3
# Si number density = 19.735525 Si / 1000 Ang^3
#
#
#
# Elastic Constant Matrix: (Units=GPa)
#
#
# Indices 1 2 3 4 5 6 
#
# 1 129.9676 -0.1446 3.1632 0.0000 -22.0429 0.0000
# 2 -0.1446 27.0606 6.0340 0.0000 -0.6480 0.0000
# 3 3.1632 6.0340 78.6967 0.0000 0.5051 0.0000
# 4 0.0000 0.0000 0.0000 30.3240 0.0000 -3.1064
# 5 -22.0429 -0.6480 0.5051 0.0000 34.5662 0.0000
# 6 0.0000 0.0000 0.0000 -3.1064 0.0000 10.3956
#
#
#
# Elastic Compliance Matrix: (Units=1/GPa)
#
#
# Indices 1 2 3 4 5 6 
#
# 1 0.008641 0.000268 -0.000403 0.000000 0.005521 0.000000
# 2 0.000268 0.037625 -0.002902 0.000000 0.000919 0.000000
# 3 -0.000403 -0.002902 0.012949 0.000000 -0.000501 0.000000
# 4 0.000000 0.000000 0.000000 0.034018 0.000000 0.010165
# 5 0.005521 0.000919 -0.000501 0.000000 0.032475 0.000000
# 6 0.000000 0.000000 0.000000 0.010165 0.000000 0.099232
#
#
# Mechanical properties :
#
#
# Convention : Reuss Voigt Hill
#
# Bulk Modulus (GPa) = 18.81780 28.20335 23.51057
# Shear Modulus (GPa) = 20.10238 30.16865 25.13551
#
# Velocity S-wave (km/s) = 3.19500 3.91403 3.57265
# Velocity P-wave (km/s) = 4.81314 5.89473 5.38118
#
# Compressibility (1/GPa) = 0.05314118
#
# Stress axis : x y z
#
# Youngs Moduli (GPa) = 115.73077 26.57838 77.22658
#
# Poissons Ratio (x) = -0.00713 0.03115
# Poissons Ratio (y) = -0.03105 0.22407
# Poissons Ratio (z) = 0.04668 0.07712
#
# Static dielectric constant tensor:
#      x y z
#    x 1.823970 0.000000 -0.073850 
#    y 0.000000 1.666010 0.000000 
#    z -0.073850 0.000000 1.718010 
# 
# From -- ./inp_files/277882.got.cif
#   From: 2010.05.17/outbox.cif.g08.bks.cpg/sg12_139_cif.got.tgz:277882.got - 2010.06.03 13:09:07.
