data_PCOD9171158
_publ_section_title
;
Structure prediction by ZEFSAII (Michael W. Deem and Ramdas Pophale) SiO2 
 PCOD9171158
Probable space group: C 2/M
;
_chemical_formula_sum "Si O2"
_cell_formula_units_Z 64
_cell_length_a 33.099782
_cell_length_b 9.262898
_cell_length_c 14.219745
_cell_angle_alpha 90.000000
_cell_angle_beta 94.065104
_cell_angle_gamma 90.000000
_cell_volume 4348.803897
_symmetry_space_group_name_H-M "C 2/M"
_symmetry_group_IT_number 12
_symmetry_cell_setting 'monoclinic'
loop_
_space_group_symop_operation_xyz
x,y,z
-x,y,-z
-x,-y,-z
x,-y,z
1/2+x,1/2+y,z
1/2-x,1/2+y,-z
1/2-x,1/2-y,-z
1/2+x,1/2-y,z
loop_
_atom_site_type_symbol
_atom_site_label
_atom_site_fract_x
_atom_site_fract_y
_atom_site_fract_z
Si Si1 0.452798 0.834609 0.024731
Si Si2 0.038369 0.327805 0.572535
Si Si3 0.643524 0.328566 0.306313
Si Si4 0.380938 0.328130 0.481876
Si Si5 0.569386 0.672535 0.158784
Si Si6 0.698906 0.833602 0.579397
Si Si7 0.223146 0.333972 0.361504
Si Si8 0.989092 0.673459 0.220412
O O1 0.456296 0.789328 0.134053
O O2 0.438317 0.000000 0.015606
O O3 0.500000 0.834087 0.000000
O O4 0.430073 0.734259 0.946997
O O5 0.046478 0.500000 0.566700
O O6 0.077389 0.240625 0.545762
O O7 0.026462 0.295125 0.678061
O O8 0.000000 0.295371 0.500000
O O9 0.652158 0.500000 0.302930
O O10 0.625146 0.300758 0.407325
O O11 0.609863 0.292068 0.223442
O O12 0.685109 0.240880 0.305144
O O13 0.380245 0.500000 0.467650
O O14 0.342941 0.253485 0.424039
O O15 0.564333 0.500000 0.157177
O O16 0.530754 0.745137 0.203569
O O17 0.735404 0.755353 0.639592
O O18 0.711768 0.833221 0.471043
O O19 0.694038 0.000000 0.607172
O O20 0.228362 0.500000 0.334037
O O21 0.996160 0.500000 0.213806
#
# Coordination Sequence:
#
# PCOD9171158 Si02
#       8
#     8   8   8   8   8   8   8   8
#     4   8  15  28  43  58  78 105 135 168 210 255
#     4  10  20  32  45  61  82 110 145 180 211 245
#     4   9  18  29  39  57  87 116 138 166 208 252
#     4  10  19  30  43  59  82 112 145 177 207 243
#     4  10  18  27  42  63  84 107 138 174 210 249
#     4   9  16  27  42  58  80 109 139 172 208 244
#     4   9  16  25  40  61  81 106 140 172 203 243
#     4   9  18  31  44  58  80 110 141 174 212 252
#
# _framework density 14.716691000000001
#
# number of rings (size 3 to 8) (size 9 to 14) (size 15 to 20)
#    0.000    2.750    0.000    3.000    0.000    7.500 
#    0.000    0.000    0.000    0.000    0.000    0.000 
#    0.000    1.000    0.000    3.000    0.000    4.625 
#
# Total GULP energy -178293.960944 kJ/mol
# GULP energy per Si atom -5571.686280 kJ/mol
# Density = 1.468319 g / cm^3
# Si number density = 14.716691 Si / 1000 Ang^3
#
#
#
# Elastic Constant Matrix: (Units=GPa)
#
#
# Indices 1 2 3 4 5 6 
#
# 1 115.9174 74.1528 56.3852 0.0000 23.9358 0.0000
# 2 74.1528 81.5136 50.8874 0.0000 19.0037 0.0000
# 3 56.3852 50.8874 87.5859 0.0000 19.0474 0.0000
# 4 0.0000 0.0000 0.0000 18.0016 0.0000 3.3037
# 5 23.9358 19.0037 19.0474 0.0000 20.7784 0.0000
# 6 0.0000 0.0000 0.0000 3.3037 0.0000 28.0832
#
#
#
# Elastic Compliance Matrix: (Units=1/GPa)
#
#
# Indices 1 2 3 4 5 6 
#
# 1 0.022331 -0.016610 -0.003041 0.000000 -0.007745 0.000000
# 2 -0.016610 0.033119 -0.007647 0.000000 -0.004145 0.000000
# 3 -0.003041 -0.007647 0.019403 0.000000 -0.007290 0.000000
# 4 0.000000 0.000000 0.000000 0.056776 0.000000 -0.006679
# 5 -0.007745 -0.004145 -0.007290 0.000000 0.067523 0.000000
# 6 0.000000 0.000000 0.000000 -0.006679 0.000000 0.036394
#
#
# Mechanical properties :
#
#
# Convention : Reuss Voigt Hill
#
# Bulk Modulus (GPa) = 49.36844 71.98533 60.67689
# Shear Modulus (GPa) = 16.84088 20.27873 18.55980
#
# Velocity S-wave (km/s) = 3.38648 3.71609 3.55511
# Velocity P-wave (km/s) = 6.99355 8.21174 7.62700
#
# Compressibility (1/GPa) = 0.02025586
#
# Stress axis : x y z
#
# Youngs Moduli (GPa) = 44.78043 30.19423 51.53715
#
# Poissons Ratio (x) = 0.50154 0.15673
# Poissons Ratio (y) = 0.74382 0.39412
# Poissons Ratio (z) = 0.13618 0.23090
#
# Static dielectric constant tensor:
#      x y z
#    x 1.461670 0.000000 0.012330 
#    y 0.000000 1.493120 0.000000 
#    z 0.012330 0.000000 1.488950 
# 
# From -- ./inp_files/248375.got.cif
#   From: 2010.05.17/outbox.cif.g08.bks.cpg/sg12_125_cif.got.tgz:248375.got - 2010.06.03 13:09:07.
