data_PCOD9171918
_publ_section_title
;
Structure prediction by ZEFSAII (Michael W. Deem and Ramdas Pophale) SiO2 
 PCOD9171918
Probable space group: C 2/M
;
_chemical_formula_sum "Si O2"
_cell_formula_units_Z 48
_cell_length_a 17.666885
_cell_length_b 8.463481
_cell_length_c 16.849039
_cell_angle_alpha 90.000000
_cell_angle_beta 48.038956
_cell_angle_gamma 90.000000
_cell_volume 1873.368831
_symmetry_space_group_name_H-M "C 2/M"
_symmetry_group_IT_number 12
_symmetry_cell_setting 'monoclinic'
loop_
_space_group_symop_operation_xyz
x,y,z
-x,y,-z
-x,-y,-z
x,-y,z
1/2+x,1/2+y,z
1/2-x,1/2+y,-z
1/2-x,1/2-y,-z
1/2+x,1/2-y,z
loop_
_atom_site_type_symbol
_atom_site_label
_atom_site_fract_x
_atom_site_fract_y
_atom_site_fract_z
Si Si1 0.522570 0.500000 0.892154
Si Si2 0.288305 0.166920 0.062639
Si Si3 0.711576 0.500000 0.948509
Si Si4 0.989693 0.683055 0.168040
Si Si5 0.484024 0.681971 0.348755
Si Si6 0.702964 0.000000 0.280061
Si Si7 0.476078 0.000000 0.423253
Si Si8 0.696938 0.334185 0.295590
O O1 0.567809 0.332329 0.832184
O O2 0.500000 0.500000 0.000000
O O3 0.405177 0.500000 0.942098
O O4 0.237297 0.331039 0.072742
O O5 0.274657 0.162305 0.167031
O O6 0.241521 0.000000 0.068256
O O7 0.405784 0.170451 0.955825
O O8 0.714890 0.500000 0.848175
O O9 0.950202 0.500000 0.198320
O O10 0.005041 0.750908 0.245984
O O11 0.442796 0.500000 0.373706
O O12 0.428705 0.833554 0.428351
O O13 0.586845 0.665908 0.329088
O O14 0.594238 0.000000 0.309030
O O15 0.706494 0.838123 0.326125
O O16 0.500000 0.000000 0.500000
O O17 0.705279 0.500000 0.335357
#
# Coordination Sequence:
#
# PCOD9171918 Si02
#       8
#     4   8   4   8   8   4   4   8
#     4  10  20  32  46  66  91 117 150 187 220 259
#     4   8  14  23  35  55  82 112 147 178 201 232
#     4   8  14  26  42  58  82 115 146 175 210 253
#     4  10  18  29  44  61  85 119 150 181 219 256
#     4  10  18  29  44  61  85 119 150 181 219 256
#     4   8  14  26  42  58  82 115 146 175 210 253
#     4  10  20  32  46  66  91 117 150 187 220 259
#     4   8  14  23  35  55  82 112 147 178 201 232
#
# _framework density 25.622292000000002
#
# number of rings (size 3 to 8) (size 9 to 14) (size 15 to 20)
#    0.000    3.000    1.667    0.000    0.000    1.333 
#    0.000    0.000    0.000    0.000    0.000    0.000 
#    0.000    1.333    0.000    0.000    0.000    0.333 
#
# Total GULP energy -133699.651100 kJ/mol
# GULP energy per Si atom -5570.818796 kJ/mol
# Density = 2.556397 g / cm^3
# Si number density = 25.622292 Si / 1000 Ang^3
#
#
#
# Elastic Constant Matrix: (Units=GPa)
#
#
# Indices 1 2 3 4 5 6 
#
# 1 49.8190 17.1494 -5.8385 0.0000 -2.5029 0.0000
# 2 17.1494 379.6956 33.0306 -0.0001 18.0990 0.0000
# 3 -5.8385 33.0306 67.1011 0.0000 11.9068 0.0000
# 4 0.0000 -0.0001 0.0000 79.3680 0.0000 78.8967
# 5 -2.5029 18.0990 11.9068 0.0000 16.5734 0.0000
# 6 0.0000 0.0000 0.0000 78.8967 0.0000 67.2057
#
#
#
# Elastic Compliance Matrix: (Units=1/GPa)
#
#
# Indices 1 2 3 4 5 6 
#
# 1 0.020885 -0.001258 0.001872 0.000000 0.003183 0.000000
# 2 -0.001258 0.002908 -0.001082 0.000000 -0.002589 0.000000
# 3 0.001872 -0.001082 0.017579 0.000000 -0.011166 0.000000
# 4 0.000000 0.000000 0.000000 -0.075453 0.000000 0.088578
# 5 0.003183 -0.002589 -0.011166 0.000000 0.071667 0.000000
# 6 0.000000 0.000000 0.000000 0.088578 0.000000 -0.089108
#
#
# Mechanical properties :
#
#
# Convention : Reuss Voigt Hill
#
# Bulk Modulus (GPa) = 24.73002 65.03317 44.88160
# Shear Modulus (GPa) = -134.74770 62.78105 -35.98333
#
# Velocity S-wave (km/s) = -7.25977 4.95537 -3.75157
# Velocity P-wave (km/s) = 7.78457 7.62742 1.10046
#
# Compressibility (1/GPa) = 0.04043668
#
# Stress axis : x y z
#
# Youngs Moduli (GPa) = 47.88151 343.88150 56.88452
#
# Poissons Ratio (x) = 0.43254 -0.10646
# Poissons Ratio (y) = 0.06023 0.06152
# Poissons Ratio (z) = -0.08961 0.37193
#
# Static dielectric constant tensor:
#      x y z
#    x 2.068460 0.000000 0.085400 
#    y 0.000000 2.187930 0.000000 
#    z 0.085400 0.000000 2.105860 
# 
# From -- ./inp_files/287306.got.cif
#   From: 2010.05.17/outbox.cif.g08.bks.cpg/sg12_144_cif.got.tgz:287306.got - 2010.06.03 13:09:07.
