data_PCOD9171218
_publ_section_title
;
Structure prediction by ZEFSAII (Michael W. Deem and Ramdas Pophale) SiO2 
 PCOD9171218
Probable space group: C 2/M
;
_chemical_formula_sum "Si O2"
_cell_formula_units_Z 60
_cell_length_a 16.317599
_cell_length_b 15.577132
_cell_length_c 30.738351
_cell_angle_alpha 90.000000
_cell_angle_beta 152.593242
_cell_angle_gamma 90.000000
_cell_volume 3596.412856
_symmetry_space_group_name_H-M "C 2/M"
_symmetry_group_IT_number 12
_symmetry_cell_setting 'monoclinic'
loop_
_space_group_symop_operation_xyz
x,y,z
-x,y,-z
-x,-y,-z
x,-y,z
1/2+x,1/2+y,z
1/2-x,1/2+y,-z
1/2-x,1/2-y,-z
1/2+x,1/2-y,z
loop_
_atom_site_type_symbol
_atom_site_label
_atom_site_fract_x
_atom_site_fract_y
_atom_site_fract_z
Si Si1 0.484196 0.404070 0.393805
Si Si2 0.839845 0.222018 0.255764
Si Si3 0.220791 0.218964 0.389137
Si Si4 0.313573 0.101150 0.889806
Si Si5 0.500000 0.360178 0.500000
Si Si6 0.742344 0.903069 0.752848
Si Si7 0.440898 0.597517 0.757710
Si Si8 0.138735 0.403252 0.473878
O O1 0.433788 0.500000 0.353739
O O2 0.374641 0.329013 0.317638
O O3 0.472308 0.404324 0.440275
O O4 0.690897 0.390654 0.477240
O O5 0.732369 0.158871 0.173357
O O6 0.749318 0.315225 0.216264
O O7 0.035722 0.234605 0.327027
O O8 0.325458 0.302511 0.424798
O O9 0.172822 0.162000 0.324872
O O10 0.345210 0.165392 0.480525
O O11 0.148162 0.112539 0.845079
O O12 0.318586 0.000000 0.880374
O O13 0.500000 0.123438 0.000000
O O14 0.885339 0.896740 0.781472
O O15 0.546213 0.897973 0.638500
O O16 0.757176 0.000000 0.779332
O O17 0.400233 0.500000 0.724067
O O18 0.153911 0.500000 0.499133
#
# Coordination Sequence:
#
# PCOD9171218 Si02
#       8
#     8   8   8   8   4   8   8   8
#     4  10  20  32  45  64  92 128 167 199 228 263
#     4  10  19  33  51  69  93 123 155 193 235 277
#     4  10  18  27  43  66  91 123 161 198 234 269
#     4   9  18  34  56  78  94 111 143 190 243 290
#     4  12  21  28  41  62  96 134 163 192 220 262
#     4  10  19  30  45  67  96 127 156 185 221 271
#     4   9  17  29  46  69  95 119 148 192 239 276
#     4   9  17  29  44  62  88 124 165 202 230 260
#
# _framework density 16.683291000000001
#
# number of rings (size 3 to 8) (size 9 to 14) (size 15 to 20)
#    0.000    2.267    0.000    4.200    0.000    5.333 
#    0.000    4.000    0.000    0.400    0.000    0.000 
#    0.000    0.000    0.000    0.000    0.000    0.800 
#
# Total GULP energy -167245.225672 kJ/mol
# GULP energy per Si atom -5574.840856 kJ/mol
# Density = 1.664532 g / cm^3
# Si number density = 16.683291 Si / 1000 Ang^3
#
#
#
# Elastic Constant Matrix: (Units=GPa)
#
#
# Indices 1 2 3 4 5 6 
#
# 1 48.2447 35.1710 22.4725 0.0000 -1.0618 0.0000
# 2 35.1710 91.0869 35.5146 -0.0001 -0.0566 0.0000
# 3 22.4725 35.5146 61.1345 0.0007 -3.7937 -0.0004
# 4 0.0000 -0.0001 0.0007 14.4665 0.0000 0.4474
# 5 -1.0618 -0.0566 -3.7937 0.0000 4.2715 0.0001
# 6 0.0000 0.0000 -0.0004 0.4474 0.0001 24.0186
#
#
#
# Elastic Compliance Matrix: (Units=1/GPa)
#
#
# Indices 1 2 3 4 5 6 
#
# 1 0.030292 -0.009588 -0.005404 0.000000 0.002604 0.000000
# 2 -0.009588 0.017462 -0.007147 0.000001 -0.008500 0.000000
# 3 -0.005404 -0.007147 0.023713 -0.000001 0.019623 0.000000
# 4 0.000000 0.000001 -0.000001 0.069165 -0.000002 -0.001288
# 5 0.002604 -0.008500 0.019623 -0.000002 0.252074 -0.000001
# 6 0.000000 0.000000 0.000000 -0.001288 -0.000001 0.041658
#
#
# Mechanical properties :
#
#
# Convention : Reuss Voigt Hill
#
# Bulk Modulus (GPa) = 36.77842 42.97580 39.87711
# Shear Modulus (GPa) = 10.25211 15.70519 12.97865
#
# Velocity S-wave (km/s) = 2.48163 3.07151 2.79219
# Velocity P-wave (km/s) = 5.50493 6.19634 5.86084
#
# Compressibility (1/GPa) = 0.02718986
#
# Stress axis : x y z
#
# Youngs Moduli (GPa) = 33.01236 57.26700 42.17032
#
# Poissons Ratio (x) = 0.54907 0.22787
# Poissons Ratio (y) = 0.31652 0.30140
# Poissons Ratio (z) = 0.17838 0.40930
#
# Static dielectric constant tensor:
#      x y z
#    x 1.570480 0.000000 0.007900 
#    y 0.000000 1.599930 0.000000 
#    z 0.007900 0.000000 1.522750 
# 
# From -- ./inp_files/214869.got.cif
#   From: 2010.05.17/outbox.cif.g08.bks.cpg/sg12_108_cif.got.tgz:214869.got - 2010.06.03 13:09:07.
