data_PCOD9171949
_publ_section_title
;
Structure prediction by ZEFSAII (Michael W. Deem and Ramdas Pophale) SiO2 
 PCOD9171949
Probable space group: C 2/M
;
_chemical_formula_sum "Si O2"
_cell_formula_units_Z 44
_cell_length_a 16.792027
_cell_length_b 30.971687
_cell_length_c 8.283713
_cell_angle_alpha 90.000000
_cell_angle_beta 156.204658
_cell_angle_gamma 90.000000
_cell_volume 1738.222064
_symmetry_space_group_name_H-M "C 2/M"
_symmetry_group_IT_number 12
_symmetry_cell_setting 'monoclinic'
loop_
_space_group_symop_operation_xyz
x,y,z
-x,y,-z
-x,-y,-z
x,-y,z
1/2+x,1/2+y,z
1/2-x,1/2+y,-z
1/2-x,1/2-y,-z
1/2+x,1/2-y,z
loop_
_atom_site_type_symbol
_atom_site_label
_atom_site_fract_x
_atom_site_fract_y
_atom_site_fract_z
Si Si1 0.000000 0.193029 0.000000
Si Si2 0.263973 0.902708 0.069710
Si Si3 0.999085 0.248108 0.685554
Si Si4 0.240601 0.448957 0.259657
Si Si5 0.260772 0.050390 0.385642
Si Si6 0.299795 0.819239 0.318755
O O1 0.073041 0.221684 0.286450
O O2 0.183901 0.167491 0.263889
O O3 0.500000 0.910598 0.500000
O O4 0.191692 0.919664 0.764150
O O5 0.190062 0.927683 0.090806
O O6 0.247708 0.852648 0.085867
O O7 0.765280 0.230604 0.839044
O O8 0.019269 0.301390 0.744911
O O9 0.000000 0.232455 0.500000
O O10 0.285406 0.500000 0.315002
O O11 0.000510 0.446181 0.823652
O O12 0.305150 0.435146 0.558583
O O13 0.212879 0.000000 0.288077
#
# Coordination Sequence:
#
# PCOD9171949 Si02
#       6
#     4   8   8   8   8   8
#     4   8  22  36  58  74 101 134 185 216 272 310
#     4  10  18  29  44  75 108 134 169 219 259 303
#     4  10  20  38  58  76 100 137 181 221 269 319
#     4   8  14  26  44  68 101 139 170 203 257 317
#     4   8  14  26  45  68 101 139 169 202 258 317
#     4  10  21  37  55  78 107 138 182 223 261 315
#
# _framework density 25.313222
#
# number of rings (size 3 to 8) (size 9 to 14) (size 15 to 20)
#    1.091    1.818    0.000    3.273    0.000    2.182 
#    3.273    3.636    0.000    0.000    0.000    2.545 
#    0.000    5.818    0.000    7.273    0.000    0.727 
#
# Total GULP energy -122470.392452 kJ/mol
# GULP energy per Si atom -5566.836021 kJ/mol
# Density = 2.525561 g / cm^3
# Si number density = 25.313222 Si / 1000 Ang^3
#
#
#
# Elastic Constant Matrix: (Units=GPa)
#
#
# Indices 1 2 3 4 5 6 
#
# 1 230.0401 98.6638 52.2831 0.0002 -32.0481 -0.0001
# 2 98.6638 97.5153 27.5393 0.0000 -31.2586 0.0000
# 3 52.2831 27.5393 116.5603 0.0001 -28.1422 -0.0001
# 4 0.0002 0.0000 0.0001 -12.3043 0.0001 -9.0810
# 5 -32.0481 -31.2586 -28.1422 0.0001 34.1241 -0.0001
# 6 -0.0001 0.0000 -0.0001 -9.0810 -0.0001 37.6688
#
#
#
# Elastic Compliance Matrix: (Units=1/GPa)
#
#
# Indices 1 2 3 4 5 6 
#
# 1 0.008065 -0.008062 -0.002082 0.000000 -0.001527 0.000000
# 2 -0.008062 0.022583 0.001807 0.000000 0.014605 0.000000
# 3 -0.002082 0.001807 0.011255 0.000000 0.008982 0.000000
# 4 0.000000 0.000000 0.000000 -0.068996 0.000000 -0.016633
# 5 -0.001527 0.014605 0.008982 0.000000 0.048657 0.000000
# 6 0.000000 0.000000 0.000000 -0.016633 0.000000 0.022537
#
#
# Mechanical properties :
#
#
# Convention : Reuss Voigt Hill
#
# Bulk Modulus (GPa) = 39.63575 89.00977 64.32276
# Shear Modulus (GPa) = 72.27180 29.60636 50.93908
#
# Velocity S-wave (km/s) = 5.34911 3.42365 4.49079
# Velocity P-wave (km/s) = 7.33776 7.13220 7.23571
#
# Compressibility (1/GPa) = 0.02522975
#
# Stress axis : x y z
#
# Youngs Moduli (GPa) = 123.99163 44.28124 88.85252
#
# Poissons Ratio (x) = 0.35698 0.18495
# Poissons Ratio (y) = 0.99958 -0.16054
# Poissons Ratio (z) = 0.25809 -0.08001
#
# Static dielectric constant tensor:
#      x y z
#    x 2.081920 0.000000 0.258050 
#    y 0.000000 2.010120 0.000000 
#    z 0.258050 0.000000 2.327180 
# 
# From -- ./inp_files/67698.got.cif
#   From: 2010.05.17/outbox.cif.g08.bks.cpg/sg12_34_cif.got.tgz:67698.got - 2010.06.03 13:09:07.
