data_PCOD9171791
_publ_section_title
;
Structure prediction by ZEFSAII (Michael W. Deem and Ramdas Pophale) SiO2 
 PCOD9171791
Probable space group: C 2/M
;
_chemical_formula_sum "Si O2"
_cell_formula_units_Z 56
_cell_length_a 29.769463
_cell_length_b 8.741861
_cell_length_c 13.926123
_cell_angle_alpha 90.000000
_cell_angle_beta 77.522157
_cell_angle_gamma 90.000000
_cell_volume 3538.537774
_symmetry_space_group_name_H-M "C 2/M"
_symmetry_group_IT_number 12
_symmetry_cell_setting 'monoclinic'
loop_
_space_group_symop_operation_xyz
x,y,z
-x,y,-z
-x,-y,-z
x,-y,z
1/2+x,1/2+y,z
1/2-x,1/2+y,-z
1/2-x,1/2-y,-z
1/2+x,1/2-y,z
loop_
_atom_site_type_symbol
_atom_site_label
_atom_site_fract_x
_atom_site_fract_y
_atom_site_fract_z
Si Si1 0.302358 0.682381 0.369809
Si Si2 0.468661 0.816668 0.716271
Si Si3 0.609095 0.183032 0.743603
Si Si4 0.443357 0.316871 0.415166
Si Si5 0.518951 0.813985 0.889519
Si Si6 0.196574 0.682750 0.417244
Si Si7 0.390973 0.317603 0.636885
O O1 0.306954 0.500000 0.375889
O O2 0.340378 0.745481 0.279363
O O3 0.249640 0.719020 0.367542
O O4 0.310943 0.753167 0.471551
O O5 0.505183 0.742898 0.625435
O O6 0.486864 0.770940 0.813763
O O7 0.418296 0.758270 0.711926
O O8 0.471035 0.000000 0.708059
O O9 0.586448 0.237210 0.654021
O O10 0.571384 0.231858 0.840296
O O11 0.612429 0.000000 0.743135
O O12 0.442331 0.500000 0.403425
O O13 0.420902 0.280548 0.527588
O O14 0.518869 0.000000 0.891876
O O15 0.500000 0.758268 0.000000
O O16 0.191144 0.500000 0.421999
O O17 0.159588 0.754772 0.362718
O O18 0.389906 0.500000 0.648380
#
# Coordination Sequence:
#
# PCOD9171791 Si02
#       7
#     8   8   8   8   8   8   8
#     4  10  19  31  45  66  95 127 158 196 238 270
#     4  10  20  31  47  68  90 121 158 194 231 278
#     4  10  18  28  48  72  93 124 160 195 232 277
#     4  10  19  30  43  62  92 127 159 190 227 270
#     4   8  16  32  51  72  95 118 151 194 237 280
#     4  10  20  31  46  65  91 127 167 199 224 267
#     4  11  21  31  44  64  94 130 159 190 233 272
#
# _framework density 15.825746000000001
#
# number of rings (size 3 to 8) (size 9 to 14) (size 15 to 20)
#    0.000    2.143    1.429    3.857    0.000    5.143 
#    0.000    0.000    0.000   15.429    0.000    1.000 
#    0.000    0.000    0.000    0.000    0.000    0.000 
#
# Total GULP energy -156163.925251 kJ/mol
# GULP energy per Si atom -5577.283045 kJ/mol
# Density = 1.578973 g / cm^3
# Si number density = 15.825746 Si / 1000 Ang^3
#
#
#
# Elastic Constant Matrix: (Units=GPa)
#
#
# Indices 1 2 3 4 5 6 
#
# 1 124.2675 25.8141 45.2904 0.0000 -11.6159 0.0000
# 2 25.8141 24.7003 19.3847 0.0000 -6.4404 0.0000
# 3 45.2904 19.3847 69.6856 0.0000 -15.8973 0.0000
# 4 0.0000 0.0000 0.0000 -4.2373 0.0000 -3.5554
# 5 -11.6159 -6.4404 -15.8973 0.0000 15.8782 0.0000
# 6 0.0000 0.0000 0.0000 -3.5554 0.0000 29.4479
#
#
#
# Elastic Compliance Matrix: (Units=1/GPa)
#
#
# Indices 1 2 3 4 5 6 
#
# 1 0.011657 -0.007989 -0.005375 0.000000 -0.000094 0.000000
# 2 -0.007989 0.058174 -0.008995 0.000000 0.008746 0.000000
# 3 -0.005375 -0.008995 0.024127 0.000000 0.016575 0.000000
# 4 0.000000 0.000000 0.000000 -0.214290 0.000000 -0.025872
# 5 -0.000094 0.008746 0.016575 0.000000 0.083053 0.000000
# 6 0.000000 0.000000 0.000000 -0.025872 0.000000 0.030835
#
#
# Mechanical properties :
#
#
# Convention : Reuss Voigt Hill
#
# Bulk Modulus (GPa) = 20.30888 44.40353 32.35620
# Shear Modulus (GPa) = 91.42801 16.76204 54.09502
#
# Velocity S-wave (km/s) = 7.60901 3.25801 5.85285
# Velocity P-wave (km/s) = 9.48983 6.50165 8.13414
#
# Compressibility (1/GPa) = 0.04923955
#
# Stress axis : x y z
#
# Youngs Moduli (GPa) = 85.78592 17.18978 41.44661
#
# Poissons Ratio (x) = 0.13732 0.22279
# Poissons Ratio (y) = 0.68530 0.37283
# Poissons Ratio (z) = 0.46114 0.15463
#
# Static dielectric constant tensor:
#      x y z
#    x 1.566600 0.000000 -0.011760 
#    y 0.000000 1.529140 0.000000 
#    z -0.011760 0.000000 1.509610 
# 
# From -- ./inp_files/247769.got.cif
#   From: 2010.05.17/outbox.cif.g08.bks.cpg/sg12_124_cif.got.tgz:247769.got - 2010.06.03 13:09:07.
