data_PCOD9171222
_publ_section_title
;
Structure prediction by ZEFSAII (Michael W. Deem and Ramdas Pophale) SiO2 
 PCOD9171222
Probable space group: C 2/M
;
_chemical_formula_sum "Si O2"
_cell_formula_units_Z 64
_cell_length_a 27.947376
_cell_length_b 8.381789
_cell_length_c 24.687818
_cell_angle_alpha 90.000000
_cell_angle_beta 45.138468
_cell_angle_gamma 90.000000
_cell_volume 4099.137703
_symmetry_space_group_name_H-M "C 2/M"
_symmetry_group_IT_number 12
_symmetry_cell_setting 'monoclinic'
loop_
_space_group_symop_operation_xyz
x,y,z
-x,y,-z
-x,-y,-z
x,-y,z
1/2+x,1/2+y,z
1/2-x,1/2+y,-z
1/2-x,1/2-y,-z
1/2+x,1/2-y,z
loop_
_atom_site_type_symbol
_atom_site_label
_atom_site_fract_x
_atom_site_fract_y
_atom_site_fract_z
Si Si1 0.339655 0.193808 0.667464
Si Si2 0.931544 0.306252 0.027466
Si Si3 0.941779 0.685287 0.500156
Si Si4 0.595367 0.314502 0.181432
Si Si5 0.739891 0.814304 0.093564
Si Si6 0.451986 0.193086 0.666530
Si Si7 0.117214 0.689447 0.051290
Si Si8 0.716263 0.809343 0.825311
O O1 0.376466 0.252062 0.583114
O O2 0.388635 0.241223 0.678772
O O3 0.265493 0.259843 0.737680
O O4 0.338261 0.000000 0.667812
O O5 0.935329 0.500000 0.023894
O O6 0.862777 0.265479 0.114551
O O7 0.919985 0.256756 0.974175
O O8 0.000000 0.245478 0.000000
O O9 0.926372 0.500000 0.500232
O O10 0.000000 0.684814 0.500000
O O11 0.979677 0.753740 0.417481
O O12 0.581530 0.500000 0.187165
O O13 0.674934 0.285338 0.128544
O O14 0.558553 0.247961 0.264019
O O15 0.580139 0.230495 0.136528
O O16 0.755438 0.778075 0.143930
O O17 0.723944 0.000000 0.098350
O O18 0.808634 0.768325 0.008254
O O19 0.453111 0.000000 0.664290
O O20 0.372674 0.000000 0.960717
O O21 0.720217 0.000000 0.830852
#
# Coordination Sequence:
#
# PCOD9171222 Si02
#       8
#     8   8   8   8   8   8   8   8
#     4   9  15  25  42  61  85 116 148 182 213 250
#     4   8  16  32  51  67  84 108 139 177 218 258
#     4   7  12  23  39  58  79 110 151 183 210 244
#     4  12  22  30  41  60  89 118 147 179 211 251
#     4  11  20  31  44  59  84 116 148 180 214 249
#     4   9  16  27  42  59  82 117 154 183 210 245
#     4  10  20  33  48  65  83 107 142 179 216 257
#     4  10  18  27  43  67  90 113 144 180 216 257
#
# _framework density 15.61304
#
# number of rings (size 3 to 8) (size 9 to 14) (size 15 to 20)
#    0.000    2.500    1.250    5.625    0.000    0.000 
#    0.000    0.625    0.000   15.750    0.000    0.000 
#    0.000    1.000    0.000    2.000    0.000    2.750 
#
# Total GULP energy -178272.770997 kJ/mol
# GULP energy per Si atom -5571.024094 kJ/mol
# Density = 1.557750 g / cm^3
# Si number density = 15.613040 Si / 1000 Ang^3
#
#
#
# Elastic Constant Matrix: (Units=GPa)
#
#
# Indices 1 2 3 4 5 6 
#
# 1 50.4241 -1.9898 48.1728 -0.0052 -4.6951 0.0090
# 2 -1.9898 17.6117 6.3417 -0.0108 -0.2064 0.0325
# 3 48.1728 6.3417 147.3705 -0.0009 7.2642 0.0139
# 4 -0.0052 -0.0108 -0.0009 20.3104 0.0001 -0.4937
# 5 -4.6951 -0.2064 7.2642 0.0001 14.4501 -0.0062
# 6 0.0090 0.0325 0.0139 -0.4937 -0.0062 7.9566
#
#
#
# Elastic Compliance Matrix: (Units=1/GPa)
#
#
# Indices 1 2 3 4 5 6 
#
# 1 0.033276 0.008306 -0.012073 0.000011 0.017000 -0.000036
# 2 0.008306 0.059812 -0.005603 0.000028 0.006370 -0.000237
# 3 -0.012073 -0.005603 0.011454 -0.000005 -0.009761 0.000009
# 4 0.000011 0.000028 -0.000005 0.049310 0.000008 0.003060
# 5 0.017000 0.006370 -0.009761 0.000008 0.079725 0.000034
# 6 -0.000036 -0.000237 0.000009 0.003060 0.000034 0.125873
#
#
# Mechanical properties :
#
#
# Convention : Reuss Voigt Hill
#
# Bulk Modulus (GPa) = 11.65460 35.60619 23.63039
# Shear Modulus (GPa) = 12.29133 19.40218 15.84676
#
# Velocity S-wave (km/s) = 2.80884 3.52901 3.18931
# Velocity P-wave (km/s) = 4.24267 6.28173 5.36006
#
# Compressibility (1/GPa) = 0.08580305
#
# Stress axis : x y z
#
# Youngs Moduli (GPa) = 30.05145 16.71916 87.30386
#
# Poissons Ratio (x) = -0.13887 1.05400
# Poissons Ratio (y) = -0.24961 0.48916
# Poissons Ratio (z) = 0.36281 0.09368
#
# Static dielectric constant tensor:
#      x y z
#    x 1.497250 0.000000 0.011600 
#    y 0.000000 1.541740 0.000000 
#    z 0.011600 0.000000 1.576820 
# 
# From -- ./inp_files/323658.got.cif
#   From: 2010.05.17/outbox.cif.g08.bks.cpg/sg12_162_cif.got.tgz:323658.got - 2010.06.03 13:09:07.
