data_PCOD9171603
_publ_section_title
;
Structure prediction by ZEFSAII (Michael W. Deem and Ramdas Pophale) SiO2 
 PCOD9171603
Probable space group: C 2/M
;
_chemical_formula_sum "Si O2"
_cell_formula_units_Z 64
_cell_length_a 25.665193
_cell_length_b 8.999731
_cell_length_c 24.314291
_cell_angle_alpha 90.000000
_cell_angle_beta 133.379539
_cell_angle_gamma 90.000000
_cell_volume 4081.901660
_symmetry_space_group_name_H-M "C 2/M"
_symmetry_group_IT_number 12
_symmetry_cell_setting 'monoclinic'
loop_
_space_group_symop_operation_xyz
x,y,z
-x,y,-z
-x,-y,-z
x,-y,z
1/2+x,1/2+y,z
1/2-x,1/2+y,-z
1/2-x,1/2-y,-z
1/2+x,1/2-y,z
loop_
_atom_site_type_symbol
_atom_site_label
_atom_site_fract_x
_atom_site_fract_y
_atom_site_fract_z
Si Si1 0.835748 0.679481 0.343382
Si Si2 0.053770 0.822733 0.662173
Si Si3 0.689249 0.321221 0.184017
Si Si4 0.224594 0.321260 0.092073
Si Si5 0.026465 0.178436 0.081130
Si Si6 0.912732 0.677817 0.080013
Si Si7 0.942748 0.328295 0.509004
Si Si8 0.113886 0.821226 0.823497
O O1 0.843792 0.500000 0.346033
O O2 0.884027 0.750306 0.330290
O O3 0.753445 0.717693 0.272194
O O4 0.869796 0.724387 0.426708
O O5 0.068668 0.783008 0.736187
O O6 0.978649 0.765741 0.583176
O O7 0.058557 0.000000 0.660276
O O8 0.689001 0.500000 0.177369
O O9 0.707071 0.250656 0.138008
O O10 0.609846 0.277625 0.145481
O O11 0.224406 0.500000 0.098253
O O12 0.303477 0.277542 0.128542
O O13 0.162467 0.280195 0.004031
O O14 0.976113 0.258229 0.088369
O O15 0.020668 0.000000 0.084152
O O16 0.000000 0.212693 0.000000
O O17 0.916632 0.500000 0.084700
O O18 0.913447 0.744439 0.141372
O O19 0.935643 0.500000 0.521051
O O20 0.000000 0.324621 0.500000
O O21 0.111992 0.000000 0.828910
#
# Coordination Sequence:
#
# PCOD9171603 Si02
#       8
#     8   8   8   8   8   8   8   8
#     4   9  17  29  45  68  97 127 160 195 233 280
#     4  10  18  28  45  69  96 128 160 191 235 286
#     4  10  19  31  51  74  95 128 167 198 235 288
#     4  10  20  34  49  70  99 128 160 200 244 283
#     4  10  20  35  53  72  95 126 163 202 246 289
#     4  11  23  35  51  72  94 127 168 206 242 284
#     4   8  15  27  42  63  95 129 156 189 232 280
#     4  10  21  35  49  68  99 132 162 199 241 287
#
# _framework density 15.678967
#
# number of rings (size 3 to 8) (size 9 to 14) (size 15 to 20)
#    0.000    2.250    2.500    1.875    0.000    5.000 
#    0.000    0.000    0.000    0.000    0.000    0.875 
#    0.000    0.000    0.000    0.000    0.000    0.000 
#
# Total GULP energy -178437.583485 kJ/mol
# GULP energy per Si atom -5576.174484 kJ/mol
# Density = 1.564328 g / cm^3
# Si number density = 15.678967 Si / 1000 Ang^3
#
#
#
# Elastic Constant Matrix: (Units=GPa)
#
#
# Indices 1 2 3 4 5 6 
#
# 1 96.1891 35.7279 74.7771 0.0000 -8.3403 0.0000
# 2 35.7279 24.5946 46.9392 0.0000 -2.4808 0.0000
# 3 74.7771 46.9392 166.2293 0.0000 5.6217 0.0000
# 4 0.0000 0.0000 0.0000 23.9777 0.0000 -4.8011
# 5 -8.3403 -2.4808 5.6217 0.0000 14.4529 0.0000
# 6 0.0000 0.0000 0.0000 -4.8011 0.0000 20.7822
#
#
#
# Elastic Compliance Matrix: (Units=1/GPa)
#
#
# Indices 1 2 3 4 5 6 
#
# 1 0.024243 -0.027417 -0.003524 0.000000 0.010655 0.000000
# 2 -0.027417 0.129241 -0.024701 0.000000 0.015971 0.000000
# 3 -0.003524 -0.024701 0.014985 0.000000 -0.012102 0.000000
# 4 0.000000 0.000000 0.000000 0.043728 0.000000 0.010102
# 5 0.010655 0.015971 -0.012102 0.000000 0.082788 0.000000
# 6 0.000000 0.000000 0.000000 0.010102 0.000000 0.050452
#
#
# Mechanical properties :
#
#
# Convention : Reuss Voigt Hill
#
# Bulk Modulus (GPa) = 17.48715 66.87793 42.18254
# Shear Modulus (GPa) = 10.50898 20.48048 15.49473
#
# Velocity S-wave (km/s) = 2.59175 3.61811 3.14705
# Velocity P-wave (km/s) = 4.48706 7.75896 6.33779
#
# Compressibility (1/GPa) = 0.05718483
#
# Stress axis : x y z
#
# Youngs Moduli (GPa) = 41.24861 7.73749 66.73157
#
# Poissons Ratio (x) = 0.21214 0.23517
# Poissons Ratio (y) = 1.13091 1.64836
# Poissons Ratio (z) = 0.14536 0.19113
#
# Static dielectric constant tensor:
#      x y z
#    x 1.482030 0.000000 0.022390 
#    y 0.000000 1.523710 0.000000 
#    z 0.022390 0.000000 1.552600 
# 
# From -- ./inp_files/326619.got.cif
#   From: 2010.05.17/outbox.cif.g08.bks.cpg/sg12_164_cif.got.tgz:326619.got - 2010.06.03 13:09:07.
