data_PCOD9171471
_publ_section_title
;
Structure prediction by ZEFSAII (Michael W. Deem and Ramdas Pophale) SiO2 
 PCOD9171471
Probable space group: C 2/M
;
_chemical_formula_sum "Si O2"
_cell_formula_units_Z 52
_cell_length_a 5.062629
_cell_length_b 19.870575
_cell_length_c 28.967825
_cell_angle_alpha 90.000000
_cell_angle_beta 112.132199
_cell_angle_gamma 90.000000
_cell_volume 2699.367939
_symmetry_space_group_name_H-M "C 2/M"
_symmetry_group_IT_number 12
_symmetry_cell_setting 'monoclinic'
loop_
_space_group_symop_operation_xyz
x,y,z
-x,y,-z
-x,-y,-z
x,-y,z
1/2+x,1/2+y,z
1/2-x,1/2+y,-z
1/2-x,1/2-y,-z
1/2+x,1/2-y,z
loop_
_atom_site_type_symbol
_atom_site_label
_atom_site_fract_x
_atom_site_fract_y
_atom_site_fract_z
Si Si1 0.211097 0.577074 0.952574
Si Si2 0.085056 0.150022 0.816770
Si Si3 0.847386 0.292167 0.924259
Si Si4 0.989950 0.207015 0.289811
Si Si5 0.000000 0.299546 0.500000
Si Si6 0.358553 0.075013 0.157161
Si Si7 0.346561 0.797404 0.394030
O O1 0.102821 0.500000 0.952698
O O2 0.280276 0.582725 0.902526
O O3 0.983321 0.636071 0.946571
O O4 0.500000 0.585371 0.000000
O O5 0.228178 0.199247 0.863962
O O6 0.053518 0.175851 0.763093
O O7 0.309242 0.088861 0.828969
O O8 0.785458 0.127576 0.818231
O O9 0.594196 0.263872 0.938586
O O10 0.689673 0.228221 0.291900
O O11 0.174913 0.168089 0.340862
O O12 0.250000 0.250000 0.500000
O O13 0.097348 0.335317 0.553828
O O14 0.309278 0.000000 0.170877
O O15 0.639431 0.765451 0.394341
#
# Coordination Sequence:
#
# PCOD9171471 Si02
#       7
#     8   8   8   8   4   8   8
#     4   9  20  40  62  82 105 135 171 209 251 304
#     4  11  20  34  53  73 100 132 160 197 244 295
#     4  11  22  37  56  80 107 134 165 203 249 297
#     4  10  18  28  43  66  95 127 162 194 229 281
#     4   8  12  20  32  48  74 112 155 192 227 264
#     4  10  21  37  56  76  96 123 161 201 245 295
#     4   8  14  22  34  53  80 116 156 193 226 267
#
# _framework density 19.263770000000001
#
# number of rings (size 3 to 8) (size 9 to 14) (size 15 to 20)
#    0.000    2.308    0.000    4.154    0.000    1.231 
#    0.000    6.923    0.000   21.231    0.000    0.000 
#    0.000    0.000    0.000    4.154    0.000    1.538 
#
# Total GULP energy -145043.020240 kJ/mol
# GULP energy per Si atom -5578.577702 kJ/mol
# Density = 1.921992 g / cm^3
# Si number density = 19.263770 Si / 1000 Ang^3
#
#
#
# Elastic Constant Matrix: (Units=GPa)
#
#
# Indices 1 2 3 4 5 6 
#
# 1 65.6550 1.7905 -15.4976 0.0000 -3.6472 0.0000
# 2 1.7905 47.3485 1.5700 0.0000 6.7989 0.0000
# 3 -15.4976 1.5700 140.1284 0.0000 -7.8996 0.0000
# 4 0.0000 0.0000 0.0000 7.1630 0.0000 -3.9235
# 5 -3.6472 6.7989 -7.8996 0.0000 26.7621 0.0000
# 6 0.0000 0.0000 0.0000 -3.9235 0.0000 6.7933
#
#
#
# Elastic Compliance Matrix: (Units=1/GPa)
#
#
# Indices 1 2 3 4 5 6 
#
# 1 0.015886 -0.001098 0.001939 0.000000 0.003017 0.000000
# 2 -0.001098 0.022040 -0.000704 0.000000 -0.005957 0.000000
# 3 0.001939 -0.000704 0.007509 0.000000 0.002660 0.000000
# 4 0.000000 0.000000 0.000000 0.204211 0.000000 0.117944
# 5 0.003017 -0.005957 0.002660 0.000000 0.040076 0.000000
# 6 0.000000 0.000000 0.000000 0.117944 0.000000 0.215324
#
#
# Mechanical properties :
#
#
# Convention : Reuss Voigt Hill
#
# Bulk Modulus (GPa) = 21.87749 25.42863 23.65306
# Shear Modulus (GPa) = 9.61523 25.82826 17.72175
#
# Velocity S-wave (km/s) = 2.23656 3.66562 3.03636
# Velocity P-wave (km/s) = 4.24865 5.58074 4.95962
#
# Compressibility (1/GPa) = 0.04570909
#
# Stress axis : x y z
#
# Youngs Moduli (GPa) = 62.94686 45.37156 133.18032
#
# Poissons Ratio (x) = 0.04983 -0.25828
# Poissons Ratio (y) = 0.06913 0.09379
# Poissons Ratio (z) = -0.12207 0.03195
#
# Static dielectric constant tensor:
#      x y z
#    x 1.678510 0.000000 0.010990 
#    y 0.000000 1.664290 0.000000 
#    z 0.010990 0.000000 1.779100 
# 
# From -- ./inp_files/355007.got.cif
#   From: 2010.05.17/outbox.cif.g08.bks.cpg/sg12_178_cif.got.tgz:355007.got - 2010.06.03 13:09:07.
