data_PCOD9171219
_publ_section_title
;
Structure prediction by ZEFSAII (Michael W. Deem and Ramdas Pophale) SiO2 
 PCOD9171219
Probable space group: C 2/M
;
_chemical_formula_sum "Si O2"
_cell_formula_units_Z 56
_cell_length_a 27.916439
_cell_length_b 8.635730
_cell_length_c 16.684288
_cell_angle_alpha 90.000000
_cell_angle_beta 65.429758
_cell_angle_gamma 90.000000
_cell_volume 3658.024642
_symmetry_space_group_name_H-M "C 2/M"
_symmetry_group_IT_number 12
_symmetry_cell_setting 'monoclinic'
loop_
_space_group_symop_operation_xyz
x,y,z
-x,y,-z
-x,-y,-z
x,-y,z
1/2+x,1/2+y,z
1/2-x,1/2+y,-z
1/2-x,1/2-y,-z
1/2+x,1/2-y,z
loop_
_atom_site_type_symbol
_atom_site_label
_atom_site_fract_x
_atom_site_fract_y
_atom_site_fract_z
Si Si1 0.850910 0.687493 0.308721
Si Si2 0.766198 0.814863 0.865133
Si Si3 0.550975 0.185820 0.867232
Si Si4 0.937488 0.816100 0.964209
Si Si5 0.756581 0.313944 0.694740
Si Si6 0.665416 0.184887 0.042321
Si Si7 0.696393 0.186310 0.498577
O O1 0.846575 0.500000 0.306270
O O2 0.904488 0.733038 0.227223
O O3 0.800307 0.758213 0.298636
O O4 0.847428 0.731853 0.405416
O O5 0.767277 0.757774 0.773602
O O6 0.810869 0.739301 0.889615
O O7 0.771094 0.000000 0.865184
O O8 0.710137 0.773083 0.945290
O O9 0.493867 0.259352 0.892213
O O10 0.546113 0.000000 0.870086
O O11 0.568220 0.238777 0.944081
O O12 0.889111 0.763890 0.943190
O O13 0.938253 0.000000 0.973284
O O14 0.756145 0.500000 0.701076
O O15 0.799689 0.265817 0.596987
O O16 0.659137 0.000000 0.045916
O O17 0.750000 0.250000 0.500000
O O18 0.698045 0.000000 0.497208
#
# Coordination Sequence:
#
# PCOD9171219 Si02
#       7
#     8   8   8   8   8   8   8
#     4   9  17  29  45  64  89 120 152 186 220 257
#     4  10  20  32  47  67  90 117 149 182 217 259
#     4  10  19  31  47  66  88 118 154 186 219 259
#     4  11  21  32  46  65  91 119 147 183 223 263
#     4  10  18  27  43  66  93 122 149 180 218 263
#     4  10  20  34  49  65  88 117 149 184 219 258
#     4   8  15  27  41  61  88 117 148 180 217 259
#
# _framework density 15.308809999999999
#
# number of rings (size 3 to 8) (size 9 to 14) (size 15 to 20)
#    0.000    2.286    0.000    4.714    0.000    6.857 
#    0.000    0.000    0.000    0.000    0.000    1.000 
#    0.000    8.000    0.000    0.000    0.000    0.000 
#
# Total GULP energy -156075.627700 kJ/mol
# GULP energy per Si atom -5574.129561 kJ/mol
# Density = 1.527397 g / cm^3
# Si number density = 15.308810 Si / 1000 Ang^3
#
#
#
# Elastic Constant Matrix: (Units=GPa)
#
#
# Indices 1 2 3 4 5 6 
#
# 1 76.7146 16.4429 47.6990 0.0000 -0.6108 0.0000
# 2 16.4429 30.0481 18.8947 0.0000 -0.7806 0.0000
# 3 47.6990 18.8947 135.6200 0.0000 -3.3137 0.0000
# 4 0.0000 0.0000 0.0000 16.8675 0.0000 4.0315
# 5 -0.6108 -0.7806 -3.3137 0.0000 22.7042 0.0000
# 6 0.0000 0.0000 0.0000 4.0315 0.0000 23.9145
#
#
#
# Elastic Compliance Matrix: (Units=1/GPa)
#
#
# Indices 1 2 3 4 5 6 
#
# 1 0.017725 -0.006340 -0.005364 0.000000 -0.000524 0.000000
# 2 -0.006340 0.038750 -0.003151 0.000000 0.000702 0.000000
# 3 -0.005364 -0.003151 0.009728 0.000000 0.001167 0.000000
# 4 0.000000 0.000000 0.000000 0.061775 0.000000 -0.010414
# 5 -0.000524 0.000702 0.001167 0.000000 0.044225 0.000000
# 6 0.000000 0.000000 0.000000 -0.010414 0.000000 0.043571
#
#
# Mechanical properties :
#
#
# Convention : Reuss Voigt Hill
#
# Bulk Modulus (GPa) = 27.40388 45.38401 36.39394
# Shear Modulus (GPa) = 19.40634 23.32031 21.36333
#
# Velocity S-wave (km/s) = 3.56428 3.90722 3.73968
# Velocity P-wave (km/s) = 5.90579 7.07567 6.51704
#
# Compressibility (1/GPa) = 0.03649119
#
# Stress axis : x y z
#
# Youngs Moduli (GPa) = 56.41734 25.80678 102.80094
#
# Poissons Ratio (x) = 0.16363 0.55138
# Poissons Ratio (y) = 0.35771 0.32397
# Poissons Ratio (z) = 0.30260 0.08133
#
# Static dielectric constant tensor:
#      x y z
#    x 1.473200 0.000000 -0.013470 
#    y 0.000000 1.513520 0.000000 
#    z -0.013470 0.000000 1.537670 
# 
# From -- ./inp_files/243023.got.cif
#   From: 2010.05.17/outbox.cif.g08.bks.cpg/sg12_122_cif.got.tgz:243023.got - 2010.06.03 13:09:07.
