data_PCOD9171606
_publ_section_title
;
Structure prediction by ZEFSAII (Michael W. Deem and Ramdas Pophale) SiO2 
 PCOD9171606
Probable space group: C 2/M
;
_chemical_formula_sum "Si O2"
_cell_formula_units_Z 64
_cell_length_a 25.339331
_cell_length_b 8.937992
_cell_length_c 20.949390
_cell_angle_alpha 90.000000
_cell_angle_beta 65.773973
_cell_angle_gamma 90.000000
_cell_volume 4326.829742
_symmetry_space_group_name_H-M "C 2/M"
_symmetry_group_IT_number 12
_symmetry_cell_setting 'monoclinic'
loop_
_space_group_symop_operation_xyz
x,y,z
-x,y,-z
-x,-y,-z
x,-y,z
1/2+x,1/2+y,z
1/2-x,1/2+y,-z
1/2-x,1/2-y,-z
1/2+x,1/2-y,z
loop_
_atom_site_type_symbol
_atom_site_label
_atom_site_fract_x
_atom_site_fract_y
_atom_site_fract_z
Si Si1 0.249168 0.675797 0.165199
Si Si2 0.217340 0.174752 0.574463
Si Si3 0.772328 0.825627 0.291458
Si Si4 0.800478 0.822119 0.931808
Si Si5 0.535263 0.321897 0.832964
Si Si6 0.375433 0.175941 0.298682
Si Si7 0.887203 0.176268 0.079835
Si Si8 0.084858 0.321863 0.066798
O O1 0.238312 0.500000 0.156607
O O2 0.235988 0.703981 0.246456
O O3 0.214841 0.776619 0.132825
O O4 0.318408 0.700303 0.123190
O O5 0.250000 0.250000 0.500000
O O6 0.156392 0.252529 0.623789
O O7 0.252724 0.186941 0.624445
O O8 0.208357 0.000000 0.566408
O O9 0.826914 0.715613 0.269013
O O10 0.793169 0.000000 0.275057
O O11 0.860823 0.752565 0.924390
O O12 0.800864 0.000000 0.940313
O O13 0.750000 0.750000 0.000000
O O14 0.528086 0.500000 0.830566
O O15 0.567454 0.256428 0.754904
O O16 0.576324 0.294620 0.874332
O O17 0.474594 0.242660 0.875898
O O18 0.383099 0.000000 0.301763
O O19 0.894845 0.000000 0.060152
O O20 0.909590 0.273512 0.009922
O O21 0.087132 0.500000 0.071560
#
# Coordination Sequence:
#
# PCOD9171606 Si02
#       8
#     8   8   8   8   8   8   8   8
#     4  10  18  33  54  72  94 126 163 205 250 300
#     4   9  16  28  45  70 102 137 166 194 233 284
#     4   8  16  30  46  67  97 131 161 191 238 288
#     4  12  24  38  53  70  90 122 162 211 260 302
#     4  11  21  36  52  68  95 129 161 199 246 299
#     4  10  18  28  45  69  97 129 161 193 230 279
#     4  10  19  33  52  70  92 124 157 197 253 300
#     4  12  25  37  49  69  92 121 162 209 251 297
#
# _framework density 14.79143
#
# number of rings (size 3 to 8) (size 9 to 14) (size 15 to 20)
#    0.750    1.000    2.500    4.125    0.000    3.000 
#    0.000    0.000    0.000    0.000    0.000    0.000 
#    0.000    1.000    0.000   10.750    0.000    4.750 
#
# Total GULP energy -178262.190531 kJ/mol
# GULP energy per Si atom -5570.693454 kJ/mol
# Density = 1.475776 g / cm^3
# Si number density = 14.791430 Si / 1000 Ang^3
#
#
#
# Elastic Constant Matrix: (Units=GPa)
#
#
# Indices 1 2 3 4 5 6 
#
# 1 61.5847 50.2972 39.1530 0.0000 -8.4054 -0.0003
# 2 50.2972 116.8854 69.6394 0.0000 -5.9647 -0.0005
# 3 39.1530 69.6394 114.3592 0.0000 -1.8211 0.0000
# 4 0.0000 0.0000 0.0000 27.6118 0.0000 -0.3121
# 5 -8.4054 -5.9647 -1.8211 0.0000 13.4403 0.0000
# 6 -0.0003 -0.0005 0.0000 -0.3121 0.0000 21.9296
#
#
#
# Elastic Compliance Matrix: (Units=1/GPa)
#
#
# Indices 1 2 3 4 5 6 
#
# 1 0.027792 -0.009034 -0.003809 0.000000 0.012856 0.000000
# 2 -0.009034 0.016688 -0.007056 0.000000 0.000800 0.000000
# 3 -0.003809 -0.007056 0.014289 0.000000 -0.003578 0.000000
# 4 0.000000 0.000000 0.000000 0.036222 0.000000 0.000515
# 5 0.012856 0.000800 -0.003578 0.000000 0.082313 0.000000
# 6 0.000000 0.000000 0.000000 0.000515 0.000000 0.045608
#
#
# Mechanical properties :
#
#
# Convention : Reuss Voigt Hill
#
# Bulk Modulus (GPa) = 52.71599 67.88981 60.30290
# Shear Modulus (GPa) = 18.58501 21.51232 20.04866
#
# Velocity S-wave (km/s) = 3.54852 3.81777 3.68560
# Velocity P-wave (km/s) = 7.24612 8.08897 7.67912
#
# Compressibility (1/GPa) = 0.01896957
#
# Stress axis : x y z
#
# Youngs Moduli (GPa) = 35.98132 59.92441 69.98575
#
# Poissons Ratio (x) = 0.54134 0.26660
# Poissons Ratio (y) = 0.32504 0.49385
# Poissons Ratio (z) = 0.13706 0.42285
#
# Static dielectric constant tensor:
#      x y z
#    x 1.477100 0.000000 0.012230 
#    y 0.000000 1.493540 0.000000 
#    z 0.012230 0.000000 1.502350 
# 
# From -- ./inp_files/348322.got.cif
#   From: 2010.05.17/outbox.cif.g08.bks.cpg/sg12_175_cif.got.tgz:348322.got - 2010.06.03 13:09:07.
