data_PCOD9171633
_publ_section_title
;
Structure prediction by ZEFSAII (Michael W. Deem and Ramdas Pophale) SiO2 
 PCOD9171633
Probable space group: C 2/M
;
_chemical_formula_sum "Si O2"
_cell_formula_units_Z 48
_cell_length_a 24.224798
_cell_length_b 7.888564
_cell_length_c 18.085898
_cell_angle_alpha 90.000000
_cell_angle_beta 132.641612
_cell_angle_gamma 90.000000
_cell_volume 2542.395112
_symmetry_space_group_name_H-M "C 2/M"
_symmetry_group_IT_number 12
_symmetry_cell_setting 'monoclinic'
loop_
_space_group_symop_operation_xyz
x,y,z
-x,y,-z
-x,-y,-z
x,-y,z
1/2+x,1/2+y,z
1/2-x,1/2+y,-z
1/2-x,1/2-y,-z
1/2+x,1/2-y,z
loop_
_atom_site_type_symbol
_atom_site_label
_atom_site_fract_x
_atom_site_fract_y
_atom_site_fract_z
Si Si1 0.761012 0.204366 0.391599
Si Si2 0.212843 0.295774 0.194542
Si Si3 0.628348 0.294560 0.380967
Si Si4 0.024545 0.806688 0.813868
Si Si5 0.188346 0.798902 0.004165
Si Si6 0.943649 0.693898 0.881306
O O1 0.766326 0.261438 0.310853
O O2 0.681718 0.249189 0.359442
O O3 0.826060 0.266758 0.505695
O O4 0.764741 0.000000 0.394831
O O5 0.213974 0.500000 0.195633
O O6 0.216128 0.247519 0.111812
O O7 0.132518 0.238793 0.153095
O O8 0.624843 0.500000 0.379485
O O9 0.542473 0.230712 0.297347
O O10 0.981849 0.804179 0.853443
O O11 0.037151 0.000000 0.799549
O O12 0.106275 0.727141 0.904862
O O13 0.179160 0.000000 0.996832
O O14 0.250000 0.750000 0.000000
O O15 0.931810 0.500000 0.842282
O O16 0.000000 0.682384 0.000000
#
# Coordination Sequence:
#
# PCOD9171633 Si02
#       6
#     8   8   8   8   8   8
#     4   9  17  29  47  73 105 138 166 193 233 288
#     4  10  19  32  51  75 104 134 165 201 242 294
#     4   9  17  29  46  72 106 137 164 196 236 287
#     4  10  20  32  49  73 102 132 163 203 247 294
#     4  11  24  39  54  72  95 128 170 214 258 299
#     4  10  18  28  45  72 104 135 162 192 238 296
#
# _framework density 18.879836000000001
#
# number of rings (size 3 to 8) (size 9 to 14) (size 15 to 20)
#    0.000    2.167    3.333    0.500    0.000    2.333 
#    0.000    0.000    0.000    1.000    0.000    7.000 
#    0.000    0.000    0.000    0.000    0.000    0.000 
#
# Total GULP energy -133607.053249 kJ/mol
# GULP energy per Si atom -5566.960552 kJ/mol
# Density = 1.883686 g / cm^3
# Si number density = 18.879836 Si / 1000 Ang^3
#
#
#
# Elastic Constant Matrix: (Units=GPa)
#
#
# Indices 1 2 3 4 5 6 
#
# 1 93.2505 1.5778 70.9679 0.0000 -11.0045 0.0000
# 2 1.5778 21.5394 10.3609 0.0000 0.4747 0.0000
# 3 70.9679 10.3609 178.2476 0.0000 -9.9932 0.0000
# 4 0.0000 0.0000 0.0000 24.2067 0.0000 -12.3503
# 5 -11.0045 0.4747 -9.9932 0.0000 14.3484 0.0000
# 6 0.0000 0.0000 0.0000 -12.3503 0.0000 26.1756
#
#
#
# Elastic Compliance Matrix: (Units=1/GPa)
#
#
# Indices 1 2 3 4 5 6 
#
# 1 0.016334 0.001574 -0.006135 0.000000 0.008203 0.000000
# 2 0.001574 0.048099 -0.003584 0.000000 -0.002880 0.000000
# 3 -0.006135 -0.003584 0.008329 0.000000 0.001214 0.000000
# 4 0.000000 0.000000 0.000000 0.054408 0.000000 0.025671
# 5 0.008203 -0.002880 0.001214 0.000000 0.076926 0.000000
# 6 0.000000 0.000000 0.000000 0.025671 0.000000 0.050316
#
#
# Mechanical properties :
#
#
# Convention : Reuss Voigt Hill
#
# Bulk Modulus (GPa) = 17.70794 50.98341 34.34567
# Shear Modulus (GPa) = 17.26959 26.95486 22.11222
#
# Velocity S-wave (km/s) = 3.02770 3.78260 3.42600
# Velocity P-wave (km/s) = 4.64998 6.79266 5.82076
#
# Compressibility (1/GPa) = 0.05647185
#
# Stress axis : x y z
#
# Youngs Moduli (GPa) = 61.22157 20.79061 120.06048
#
# Poissons Ratio (x) = -0.03272 0.73656
# Poissons Ratio (y) = -0.09635 0.43028
# Poissons Ratio (z) = 0.37559 0.07451
#
# Static dielectric constant tensor:
#      x y z
#    x 1.577120 0.000000 0.007610 
#    y 0.000000 1.727790 0.000000 
#    z 0.007610 0.000000 1.761670 
# 
# From -- ./inp_files/280791.got.cif
#   From: 2010.05.17/outbox.cif.g08.bks.cpg/sg12_141_cif.got.tgz:280791.got - 2010.06.03 13:09:07.
