data_PCOD9171982
_publ_section_title
;
Structure prediction by ZEFSAII (Michael W. Deem and Ramdas Pophale) SiO2 
 PCOD9171982
Probable space group: C 2/M
;
_chemical_formula_sum "Si O2"
_cell_formula_units_Z 48
_cell_length_a 24.325078
_cell_length_b 7.641627
_cell_length_c 14.380884
_cell_angle_alpha 90.000000
_cell_angle_beta 109.561574
_cell_angle_gamma 90.000000
_cell_volume 2518.875221
_symmetry_space_group_name_H-M "C 2/M"
_symmetry_group_IT_number 12
_symmetry_cell_setting 'monoclinic'
loop_
_space_group_symop_operation_xyz
x,y,z
-x,y,-z
-x,-y,-z
x,-y,z
1/2+x,1/2+y,z
1/2-x,1/2+y,-z
1/2-x,1/2-y,-z
1/2+x,1/2-y,z
loop_
_atom_site_type_symbol
_atom_site_label
_atom_site_fract_x
_atom_site_fract_y
_atom_site_fract_z
Si Si1 0.872679 0.294060 0.876656
Si Si2 0.450255 0.202842 0.082047
Si Si3 0.751983 0.289742 0.891168
Si Si4 0.988649 0.214302 0.388514
Si Si5 0.875457 0.212638 0.211184
Si Si6 0.938795 0.802118 0.740706
O O1 0.872034 0.500000 0.898445
O O2 0.810592 0.221113 0.875046
O O3 0.889127 0.276335 0.778278
O O4 0.925218 0.224564 0.971522
O O5 0.396881 0.215006 0.124242
O O6 0.502986 0.298883 0.162533
O O7 0.469024 0.000000 0.082771
O O8 0.752772 0.500000 0.882486
O O9 0.690921 0.229678 0.811535
O O10 0.750000 0.250000 0.000000
O O11 0.925003 0.265509 0.313194
O O12 0.000000 0.270202 0.500000
O O13 0.037760 0.276934 0.342741
O O14 0.990179 0.000000 0.387147
O O15 0.876618 0.000000 0.206440
O O16 0.920996 0.000000 0.711358
#
# Coordination Sequence:
#
# PCOD9171982 Si02
#       6
#     8   8   8   8   8   8
#     4  10  20  31  43  63  95 132 157 181 227 280
#     4  10  18  29  45  65  94 129 156 184 229 280
#     4  10  19  31  46  67  96 129 163 190 221 268
#     4   8  15  30  51  72  91 112 147 199 248 280
#     4   9  17  29  48  72  94 120 159 198 226 267
#     4  10  20  31  46  69  91 118 157 197 234 275
#
# _framework density 19.056124000000001
#
# number of rings (size 3 to 8) (size 9 to 14) (size 15 to 20)
#    0.000    2.500    1.667    2.500    0.000    4.000 
#    0.000    0.000    0.000   13.500    0.000    0.000 
#    0.000    0.000    0.000    0.000    0.000    0.667 
#
# Total GULP energy -133795.022817 kJ/mol
# GULP energy per Si atom -5574.792617 kJ/mol
# Density = 1.901275 g / cm^3
# Si number density = 19.056124 Si / 1000 Ang^3
#
#
#
# Elastic Constant Matrix: (Units=GPa)
#
#
# Indices 1 2 3 4 5 6 
#
# 1 115.4712 -5.6567 52.9231 0.0000 -24.2298 0.0000
# 2 -5.6567 34.7110 -1.7558 0.0000 1.0418 0.0000
# 3 52.9231 -1.7558 118.8029 0.0000 -23.1580 0.0000
# 4 0.0000 0.0000 0.0000 14.7094 0.0000 -4.6389
# 5 -24.2298 1.0418 -23.1580 0.0000 22.6620 0.0000
# 6 0.0000 0.0000 0.0000 -4.6389 0.0000 17.9931
#
#
#
# Elastic Compliance Matrix: (Units=1/GPa)
#
#
# Indices 1 2 3 4 5 6 
#
# 1 0.012394 0.001551 -0.003658 0.000000 0.009442 0.000000
# 2 0.001551 0.029048 -0.000248 0.000000 0.000070 0.000000
# 3 -0.003658 -0.000248 0.011592 0.000000 0.007947 0.000000
# 4 0.000000 0.000000 0.000000 0.074000 0.000000 0.019079
# 5 0.009442 0.000070 0.007947 0.000000 0.062340 0.000000
# 6 0.000000 0.000000 0.000000 0.019079 0.000000 0.060496
#
#
# Mechanical properties :
#
#
# Convention : Reuss Voigt Hill
#
# Bulk Modulus (GPa) = 20.69345 40.00070 30.34708
# Shear Modulus (GPa) = 18.47158 25.97119 22.22139
#
# Velocity S-wave (km/s) = 3.11678 3.69572 3.41853
# Velocity P-wave (km/s) = 4.88213 6.26480 5.61618
#
# Compressibility (1/GPa) = 0.04832447
#
# Stress axis : x y z
#
# Youngs Moduli (GPa) = 80.68524 34.42635 86.26659
#
# Poissons Ratio (x) = -0.05341 0.31553
# Poissons Ratio (y) = -0.12517 0.02141
# Poissons Ratio (z) = 0.29511 0.00855
#
# Static dielectric constant tensor:
#      x y z
#    x 1.710660 0.000000 -0.006200 
#    y 0.000000 1.691740 0.000000 
#    z -0.006200 0.000000 1.644010 
# 
# From -- ./inp_files/172251.got.cif
#   From: 2010.05.17/outbox.cif.g08.bks.cpg/sg12_87_cif.got.tgz:172251.got - 2010.06.03 13:09:07.
