data_PCOD9171250
_publ_section_title
;
Structure prediction by ZEFSAII (Michael W. Deem and Ramdas Pophale) SiO2 
 PCOD9171250
Probable space group: C 2/M
;
_chemical_formula_sum "Si O2"
_cell_formula_units_Z 64
_cell_length_a 25.893100
_cell_length_b 7.915732
_cell_length_c 24.964349
_cell_angle_alpha 90.000000
_cell_angle_beta 46.002599
_cell_angle_gamma 90.000000
_cell_volume 3680.853133
_symmetry_space_group_name_H-M "C 2/M"
_symmetry_group_IT_number 12
_symmetry_cell_setting 'monoclinic'
loop_
_space_group_symop_operation_xyz
x,y,z
-x,y,-z
-x,-y,-z
x,-y,z
1/2+x,1/2+y,z
1/2-x,1/2+y,-z
1/2-x,1/2-y,-z
1/2+x,1/2-y,z
loop_
_atom_site_type_symbol
_atom_site_label
_atom_site_fract_x
_atom_site_fract_y
_atom_site_fract_z
Si Si1 0.913768 0.297966 0.837704
Si Si2 0.561329 0.703698 0.680571
Si Si3 0.361661 0.296701 0.681980
Si Si4 0.311007 0.203416 0.999294
Si Si5 0.977248 0.796509 0.411379
Si Si6 0.721400 0.296012 0.579375
Si Si7 0.160538 0.701294 0.422084
Si Si8 0.292703 0.298566 0.839217
O O1 0.906712 0.500000 0.841047
O O2 0.861035 0.228125 0.829290
O O3 0.994838 0.251121 0.765816
O O4 0.883479 0.238165 0.917371
O O5 0.564068 0.500000 0.676115
O O6 0.545106 0.765211 0.631711
O O7 0.639349 0.764752 0.643151
O O8 0.364485 0.500000 0.685067
O O9 0.443616 0.233801 0.629997
O O10 0.333759 0.256974 0.643224
O O11 0.313559 0.230703 0.765889
O O12 0.277866 0.269238 0.078969
O O13 0.315177 0.000000 0.000782
O O14 0.250000 0.250000 0.000000
O O15 0.916024 0.752388 0.497893
O O16 0.980787 0.000000 0.406296
O O17 0.720400 0.500000 0.583608
O O18 0.750000 0.250000 0.500000
O O19 0.776472 0.231156 0.584587
O O20 0.164124 0.500000 0.420768
O O21 0.282835 0.500000 0.841124
#
# Coordination Sequence:
#
# PCOD9171250 Si02
#       8
#     8   8   8   8   8   8   8   8
#     4  10  18  27  43  72 102 124 151 193 240 278
#     4  10  19  33  51  69  92 127 161 193 231 280
#     4  10  20  33  49  69  93 127 165 191 219 274
#     4   8  15  26  42  65  95 126 154 187 227 275
#     4  10  19  33  51  69  91 125 164 193 223 276
#     4  10  21  36  53  70  90 119 159 199 241 282
#     4  11  23  35  48  70  95 121 154 199 246 278
#     4   9  16  30  48  66  93 131 165 187 221 279
#
# _framework density 17.387273
#
# number of rings (size 3 to 8) (size 9 to 14) (size 15 to 20)
#    0.000    2.250    2.500    1.125    0.000    4.500 
#    0.000    0.000    0.000    0.000    0.000    0.875 
#    0.000    7.000    0.000    0.000    0.000    0.000 
#
# Total GULP energy -178390.120111 kJ/mol
# GULP energy per Si atom -5574.691253 kJ/mol
# Density = 1.734770 g / cm^3
# Si number density = 17.387273 Si / 1000 Ang^3
#
#
#
# Elastic Constant Matrix: (Units=GPa)
#
#
# Indices 1 2 3 4 5 6 
#
# 1 86.1478 0.4339 76.2463 0.0004 18.7005 -0.0018
# 2 0.4339 11.9307 2.8957 0.0015 5.0319 0.0115
# 3 76.2463 2.8957 188.4751 -0.0014 8.1747 0.0007
# 4 0.0004 0.0015 -0.0014 17.2829 -0.0002 -1.9300
# 5 18.7005 5.0319 8.1747 -0.0002 17.3024 0.0013
# 6 -0.0018 0.0115 0.0007 -1.9300 0.0013 12.9150
#
#
#
# Elastic Compliance Matrix: (Units=1/GPa)
#
#
# Indices 1 2 3 4 5 6 
#
# 1 0.025811 0.012809 -0.009461 -0.000003 -0.027152 -0.000005
# 2 0.012809 0.101906 -0.004963 -0.000020 -0.041136 -0.000087
# 3 -0.009461 -0.004963 0.008885 0.000002 0.007471 0.000002
# 4 -0.000003 -0.000020 0.000002 0.058843 0.000009 0.008793
# 5 -0.027152 -0.041136 0.007471 0.000009 0.095575 0.000024
# 6 -0.000005 -0.000087 0.000002 0.008793 0.000024 0.078743
#
#
# Mechanical properties :
#
#
# Convention : Reuss Voigt Hill
#
# Bulk Modulus (GPa) = 7.49781 49.52283 28.51032
# Shear Modulus (GPa) = 11.97748 23.29858 17.63803
#
# Velocity S-wave (km/s) = 2.62747 3.66454 3.18845
# Velocity P-wave (km/s) = 3.67783 6.81537 5.47611
#
# Compressibility (1/GPa) = 0.13337221
#
# Stress axis : x y z
#
# Youngs Moduli (GPa) = 38.74368 9.81295 112.54653
#
# Poissons Ratio (x) = -0.12569 1.06476
# Poissons Ratio (y) = -0.49627 0.55860
# Poissons Ratio (z) = 0.36654 0.04870
#
# Static dielectric constant tensor:
#      x y z
#    x 1.570380 0.000000 -0.000270 
#    y 0.000000 1.617920 0.000000 
#    z -0.000270 0.000000 1.634190 
# 
# From -- ./inp_files/287541.got.cif
#   From: 2010.05.17/outbox.cif.g08.bks.cpg/sg12_144_cif.got.tgz:287541.got - 2010.06.03 13:09:07.
