data_PCOD9171256
_publ_section_title
;
Structure prediction by ZEFSAII (Michael W. Deem and Ramdas Pophale) SiO2 
 PCOD9171256
Probable space group: C 2/M
;
_chemical_formula_sum "Si O2"
_cell_formula_units_Z 60
_cell_length_a 16.365683
_cell_length_b 17.447048
_cell_length_c 13.869973
_cell_angle_alpha 90.000000
_cell_angle_beta 107.284409
_cell_angle_gamma 90.000000
_cell_volume 3781.491046
_symmetry_space_group_name_H-M "C 2/M"
_symmetry_group_IT_number 12
_symmetry_cell_setting 'monoclinic'
loop_
_space_group_symop_operation_xyz
x,y,z
-x,y,-z
-x,-y,-z
x,-y,z
1/2+x,1/2+y,z
1/2-x,1/2+y,-z
1/2-x,1/2-y,-z
1/2+x,1/2-y,z
loop_
_atom_site_type_symbol
_atom_site_label
_atom_site_fract_x
_atom_site_fract_y
_atom_site_fract_z
Si Si1 0.000000 0.693873 0.500000
Si Si2 0.804904 0.408239 0.871689
Si Si3 0.535405 0.692530 0.341722
Si Si4 0.064269 0.412269 0.930058
Si Si5 0.875667 0.909324 0.279261
Si Si6 0.832870 0.091216 0.489618
Si Si7 0.070378 0.336068 0.240215
Si Si8 0.133463 0.589895 0.457438
O O1 0.003095 0.748258 0.593575
O O2 0.916511 0.640830 0.482368
O O3 0.819380 0.500000 0.858532
O O4 0.705851 0.393221 0.816720
O O5 0.859795 0.360403 0.814209
O O6 0.844161 0.392748 0.991017
O O7 0.458737 0.638607 0.281141
O O8 0.605059 0.641602 0.422513
O O9 0.574069 0.747853 0.273848
O O10 0.065356 0.500000 0.894480
O O11 0.021863 0.357512 0.836755
O O12 0.000000 0.411233 0.000000
O O13 0.850254 0.892898 0.382352
O O14 0.893796 0.000000 0.281048
O O15 0.734105 0.107247 0.481048
O O16 0.848369 0.000000 0.509238
O O17 0.090129 0.387721 0.340584
O O18 0.123817 0.500000 0.473331
#
# Coordination Sequence:
#
# PCOD9171256 Si02
#       8
#     4   8   8   8   8   8   8   8
#     4  10  21  30  41  62  96 124 144 182 223 270
#     4   9  16  29  50  73  89 111 149 193 233 270
#     4  11  21  31  41  65  96 125 154 181 226 268
#     4   8  14  26  46  69  92 112 143 188 231 272
#     4  10  18  31  49  66  88 117 155 195 230 264
#     4  10  19  32  50  64  84 120 163 197 219 259
#     4  10  18  27  44  67  93 118 144 183 227 278
#     4  10  19  31  46  64  87 121 159 184 215 263
#
# _framework density 15.866758000000001
#
# number of rings (size 3 to 8) (size 9 to 14) (size 15 to 20)
#    0.000    2.267    2.667    2.600    0.000    4.267 
#    0.000    0.667    0.000    0.000    0.000    0.000 
#    0.000   19.200    0.000    0.000    0.000    2.800 
#
# Total GULP energy -167155.728983 kJ/mol
# GULP energy per Si atom -5571.857633 kJ/mol
# Density = 1.583064 g / cm^3
# Si number density = 15.866758 Si / 1000 Ang^3
#
#
#
# Elastic Constant Matrix: (Units=GPa)
#
#
# Indices 1 2 3 4 5 6 
#
# 1 56.1397 38.1961 28.0874 0.0000 20.8221 0.0000
# 2 38.1961 57.2853 32.9019 0.0000 19.6306 0.0000
# 3 28.0874 32.9019 70.8165 0.0000 33.5506 0.0000
# 4 0.0000 0.0000 0.0000 -45.4992 0.0000 36.4589
# 5 20.8221 19.6306 33.5506 0.0000 28.4722 0.0000
# 6 0.0000 0.0000 0.0000 36.4589 0.0000 -15.3567
#
#
#
# Elastic Compliance Matrix: (Units=1/GPa)
#
#
# Indices 1 2 3 4 5 6 
#
# 1 0.035953 -0.020080 0.002190 0.000000 -0.015029 0.000000
# 2 -0.020080 0.035785 -0.008897 0.000000 0.000496 0.000000
# 3 0.002190 -0.008897 0.034498 0.000000 -0.036118 0.000000
# 4 0.000000 0.000000 0.000000 0.024355 0.000000 0.057822
# 5 -0.015029 0.000496 -0.036118 0.000000 0.088331 0.000000
# 6 0.000000 0.000000 0.000000 0.057822 0.000000 0.072159
#
#
# Mechanical properties :
#
#
# Convention : Reuss Voigt Hill
#
# Bulk Modulus (GPa) = 18.98906 42.51247 30.75076
# Shear Modulus (GPa) = 13.80412 -0.80633 6.49890
#
# Velocity S-wave (km/s) = 2.95278 -0.71365 2.02603
# Velocity P-wave (km/s) = 4.85994 5.11591 4.98957
#
# Compressibility (1/GPa) = 0.05266191
#
# Stress axis : x y z
#
# Youngs Moduli (GPa) = 27.81374 27.94439 28.98744
#
# Poissons Ratio (x) = 0.56113 -0.06347
# Poissons Ratio (y) = 0.55851 0.25789
# Poissons Ratio (z) = -0.06090 0.24861
#
# Static dielectric constant tensor:
#      x y z
#    x 1.534010 0.000000 0.014540 
#    y 0.000000 1.530980 0.000000 
#    z 0.014540 0.000000 1.535760 
# 
# From -- ./inp_files/215993.got.cif
#   From: 2010.05.17/outbox.cif.g08.bks.cpg/sg12_108_cif.got.tgz:215993.got - 2010.06.03 13:09:07.
