data_PCOD9171521
_publ_section_title
;
Structure prediction by ZEFSAII (Michael W. Deem and Ramdas Pophale) SiO2 
 PCOD9171521
Probable space group: C 2/M
;
_chemical_formula_sum "Si O2"
_cell_formula_units_Z 56
_cell_length_a 26.975625
_cell_length_b 7.386567
_cell_length_c 13.369071
_cell_angle_alpha 90.000000
_cell_angle_beta 111.671534
_cell_angle_gamma 90.000000
_cell_volume 2475.590882
_symmetry_space_group_name_H-M "C 2/M"
_symmetry_group_IT_number 12
_symmetry_cell_setting 'monoclinic'
loop_
_space_group_symop_operation_xyz
x,y,z
-x,y,-z
-x,-y,-z
x,-y,z
1/2+x,1/2+y,z
1/2-x,1/2+y,-z
1/2-x,1/2-y,-z
1/2+x,1/2-y,z
loop_
_atom_site_type_symbol
_atom_site_label
_atom_site_fract_x
_atom_site_fract_y
_atom_site_fract_z
Si Si1 0.703512 0.277413 0.663300
Si Si2 0.977402 0.778617 0.744272
Si Si3 0.408563 0.278562 0.102640
Si Si4 0.702471 0.284050 0.887829
Si Si5 0.610332 0.296157 0.465395
Si Si6 0.098735 0.781500 0.131531
Si Si7 0.311432 0.790170 0.652152
O O1 0.703867 0.500000 0.659978
O O2 0.713270 0.218099 0.783811
O O3 0.646133 0.215367 0.579939
O O4 0.752334 0.219390 0.628912
O O5 0.942459 0.714163 0.623802
O O6 0.946152 0.724001 0.822162
O O7 0.038435 0.722826 0.798857
O O8 0.975680 0.000000 0.740236
O O9 0.408504 0.500000 0.101899
O O10 0.353642 0.216384 0.110897
O O11 0.410909 0.220894 0.988491
O O12 0.697093 0.500000 0.875323
O O13 0.750000 0.250000 0.000000
O O14 0.596247 0.500000 0.486646
O O15 0.652474 0.304006 0.404318
O O16 0.155199 0.722543 0.219723
O O17 0.098479 0.000000 0.130587
O O18 0.308509 0.000000 0.620901
#
# Coordination Sequence:
#
# PCOD9171521 Si02
#       7
#     8   8   8   8   8   8   8
#     4   9  18  31  46  66  93 123 149 183 230 267
#     4   8  14  25  44  69  92 114 146 188 227 263
#     4   9  16  27  46  70  91 117 154 190 221 259
#     4  10  20  34  50  68  93 121 152 187 221 263
#     4   9  17  31  49  67  90 119 150 183 225 274
#     4   9  16  27  45  68  94 121 149 183 224 269
#     4  10  18  28  44  67  95 121 148 184 226 269
#
# _framework density 22.620864000000001
#
# number of rings (size 3 to 8) (size 9 to 14) (size 15 to 20)
#    0.000    2.857    0.000    3.000    0.000    1.714 
#    0.000    2.857    0.000   14.571    0.000    0.000 
#    0.000    5.714    0.000    0.000    0.000    0.000 
#
# Total GULP energy -156361.531202 kJ/mol
# GULP energy per Si atom -5584.340400 kJ/mol
# Density = 2.256938 g / cm^3
# Si number density = 22.620864 Si / 1000 Ang^3
#
#
#
# Elastic Constant Matrix: (Units=GPa)
#
#
# Indices 1 2 3 4 5 6 
#
# 1 85.2693 -1.4283 37.1884 0.0000 32.3127 0.0000
# 2 -1.4283 82.4357 -5.4334 0.0000 -0.4454 0.0000
# 3 37.1884 -5.4334 139.1039 0.0000 26.4430 0.0000
# 4 0.0000 0.0000 0.0000 11.1539 0.0000 3.3179
# 5 32.3127 -0.4454 26.4430 0.0000 33.2558 0.0000
# 6 0.0000 0.0000 0.0000 3.3179 0.0000 2.6545
#
#
#
# Elastic Compliance Matrix: (Units=1/GPa)
#
#
# Indices 1 2 3 4 5 6 
#
# 1 0.018957 0.000116 -0.001841 0.000000 -0.016954 0.000000
# 2 0.000116 0.012164 0.000512 0.000000 -0.000356 0.000000
# 3 -0.001841 0.000512 0.008670 0.000000 -0.005099 0.000000
# 4 0.000000 0.000000 0.000000 0.142715 0.000000 -0.178377
# 5 -0.016954 -0.000356 -0.005099 0.000000 0.050593 0.000000
# 6 0.000000 0.000000 0.000000 -0.178377 0.000000 0.599664
#
#
# Mechanical properties :
#
#
# Convention : Reuss Voigt Hill
#
# Bulk Modulus (GPa) = 26.76248 40.82917 33.79583
# Shear Modulus (GPa) = 5.89869 27.84498 16.87184
#
# Velocity S-wave (km/s) = 1.61657 3.51228 2.73399
# Velocity P-wave (km/s) = 3.91675 5.87679 4.99388
#
# Compressibility (1/GPa) = 0.03736574
#
# Stress axis : x y z
#
# Youngs Moduli (GPa) = 52.75069 82.20650 115.33778
#
# Poissons Ratio (x) = -0.00950 0.21229
# Poissons Ratio (y) = -0.00609 -0.05906
# Poissons Ratio (z) = 0.09709 -0.04209
#
# Static dielectric constant tensor:
#      x y z
#    x 1.789800 0.000000 0.018390 
#    y 0.000000 1.411870 0.000000 
#    z 0.018390 0.000000 1.846370 
# 
# From -- ./inp_files/248569.got.cif
#   From: 2010.05.17/outbox.cif.g08.bks.cpg/sg12_125_cif.got.tgz:248569.got - 2010.06.03 13:09:07.
