data_PCOD9171597
_publ_section_title
;
Structure prediction by ZEFSAII (Michael W. Deem and Ramdas Pophale) SiO2 
 PCOD9171597
Probable space group: C 2/M
;
_chemical_formula_sum "Si O2"
_cell_formula_units_Z 56
_cell_length_a 23.125471
_cell_length_b 8.817539
_cell_length_c 19.196637
_cell_angle_alpha 90.000000
_cell_angle_beta 61.699419
_cell_angle_gamma 90.000000
_cell_volume 3446.505275
_symmetry_space_group_name_H-M "C 2/M"
_symmetry_group_IT_number 12
_symmetry_cell_setting 'monoclinic'
loop_
_space_group_symop_operation_xyz
x,y,z
-x,y,-z
-x,-y,-z
x,-y,z
1/2+x,1/2+y,z
1/2-x,1/2+y,-z
1/2-x,1/2-y,-z
1/2+x,1/2-y,z
loop_
_atom_site_type_symbol
_atom_site_label
_atom_site_fract_x
_atom_site_fract_y
_atom_site_fract_z
Si Si1 0.518574 0.317649 0.876676
Si Si2 0.055497 0.678914 0.563764
Si Si3 0.631540 0.318703 0.235857
Si Si4 0.993173 0.682593 0.265878
Si Si5 0.402564 0.820767 0.604370
Si Si6 0.742382 0.818488 0.927656
Si Si7 0.894242 0.182498 0.040715
O O1 0.519061 0.500000 0.867897
O O2 0.528010 0.239522 0.797439
O O3 0.572758 0.278673 0.903999
O O4 0.447981 0.276874 0.950886
O O5 0.071221 0.500000 0.557660
O O6 0.098207 0.740064 0.474691
O O7 0.053918 0.737690 0.643651
O O8 0.979154 0.689792 0.583896
O O9 0.624157 0.500000 0.237384
O O10 0.566209 0.244386 0.240431
O O11 0.636357 0.265395 0.313336
O O12 0.695398 0.274169 0.155346
O O13 0.995105 0.500000 0.267154
O O14 0.385934 0.000000 0.614766
O O15 0.674629 0.760366 0.933688
O O16 0.741627 0.000000 0.932876
O O17 0.750000 0.750000 0.000000
O O18 0.886685 0.000000 0.042635
#
# Coordination Sequence:
#
# PCOD9171597 Si02
#       7
#     8   8   8   8   8   8   8
#     4   9  18  33  50  69  92 117 145 185 232 269
#     4   7  12  23  39  61  89 116 145 182 221 259
#     4  10  20  31  42  63  95 124 149 186 230 265
#     4  10  18  28  45  69  94 122 153 184 219 266
#     4   8  13  25  43  60  83 118 153 182 215 266
#     4  11  23  35  48  67  93 122 153 188 224 262
#     4   9  19  35  52  67  89 120 151 184 226 270
#
# _framework density 16.248343999999999
#
# number of rings (size 3 to 8) (size 9 to 14) (size 15 to 20)
#    0.000    2.857    0.000    4.714    0.000    6.857 
#    0.000    7.857    0.000    0.000    0.000    1.000 
#    0.000    0.000    0.000    0.000    0.000    0.000 
#
# Total GULP energy -155930.195632 kJ/mol
# GULP energy per Si atom -5568.935558 kJ/mol
# Density = 1.621136 g / cm^3
# Si number density = 16.248344 Si / 1000 Ang^3
#
#
#
# Elastic Constant Matrix: (Units=GPa)
#
#
# Indices 1 2 3 4 5 6 
#
# 1 48.3152 19.4634 49.4591 0.0000 4.3799 0.0000
# 2 19.4634 27.7803 41.1509 0.0000 3.4166 0.0001
# 3 49.4591 41.1509 170.3920 0.0000 20.9962 0.0000
# 4 0.0000 0.0000 0.0000 27.7949 0.0000 3.5663
# 5 4.3799 3.4166 20.9962 0.0000 21.9057 0.0000
# 6 0.0000 0.0001 0.0000 3.5663 0.0000 23.3808
#
#
#
# Elastic Compliance Matrix: (Units=1/GPa)
#
#
# Indices 1 2 3 4 5 6 
#
# 1 0.032535 -0.013550 -0.006384 0.000000 0.001727 0.000000
# 2 -0.013550 0.062139 -0.011581 0.000000 0.004118 0.000000
# 3 -0.006384 -0.011581 0.011497 0.000000 -0.007937 0.000000
# 4 0.000000 0.000000 0.000000 0.036696 0.000000 -0.005597
# 5 0.001727 0.004118 -0.007937 0.000000 0.052270 0.000000
# 6 0.000000 0.000000 0.000000 -0.005597 0.000000 0.043624
#
#
# Mechanical properties :
#
#
# Convention : Reuss Voigt Hill
#
# Bulk Modulus (GPa) = 23.18056 51.84825 37.51440
# Shear Modulus (GPa) = 15.81421 23.71056 19.76239
#
# Velocity S-wave (km/s) = 3.12313 3.82417 3.49129
# Velocity P-wave (km/s) = 5.22519 7.17483 6.27618
#
# Compressibility (1/GPa) = 0.04313960
#
# Stress axis : x y z
#
# Youngs Moduli (GPa) = 30.73648 16.09289 86.98012
#
# Poissons Ratio (x) = 0.21806 0.55529
# Poissons Ratio (y) = 0.41648 1.00735
# Poissons Ratio (z) = 0.19623 0.18638
#
# Static dielectric constant tensor:
#      x y z
#    x 1.517880 0.000000 0.018170 
#    y 0.000000 1.546430 0.000000 
#    z 0.018170 0.000000 1.588070 
# 
# From -- ./inp_files/287368.got.cif
#   From: 2010.05.17/outbox.cif.g08.bks.cpg/sg12_144_cif.got.tgz:287368.got - 2010.06.03 13:09:07.
