data_PCOD9171395
_publ_section_title
;
Structure prediction by ZEFSAII (Michael W. Deem and Ramdas Pophale) SiO2 
 PCOD9171395
Probable space group: C 2/M
;
_chemical_formula_sum "Si O2"
_cell_formula_units_Z 50
_cell_length_a 13.947939
_cell_length_b 9.317525
_cell_length_c 16.700553
_cell_angle_alpha 90.000000
_cell_angle_beta 92.908665
_cell_angle_gamma 90.000000
_cell_volume 2167.612233
_symmetry_space_group_name_H-M "C 2/M"
_symmetry_group_IT_number 12
_symmetry_cell_setting 'monoclinic'
loop_
_space_group_symop_operation_xyz
x,y,z
-x,y,-z
-x,-y,-z
x,-y,z
1/2+x,1/2+y,z
1/2-x,1/2+y,-z
1/2-x,1/2-y,-z
1/2+x,1/2-y,z
loop_
_atom_site_type_symbol
_atom_site_label
_atom_site_fract_x
_atom_site_fract_y
_atom_site_fract_z
Si Si1 0.752026 0.332088 0.915725
Si Si2 0.659145 0.666488 0.597794
Si Si3 0.500000 0.000000 0.000000
Si Si4 0.430143 0.337409 0.713691
Si Si5 0.114049 0.664975 0.440618
Si Si6 0.468229 0.153387 0.854742
Si Si7 0.795187 0.332680 0.243535
O O1 0.722076 0.500000 0.922314
O O2 0.699747 0.248425 0.841164
O O3 0.750000 0.250000 0.000000
O O4 0.863160 0.336145 0.891067
O O5 0.630426 0.500000 0.600212
O O6 0.772580 0.666716 0.578709
O O7 0.608031 0.751804 0.524094
O O8 0.653657 0.747222 0.682480
O O9 0.531416 0.877047 0.935091
O O10 0.455223 0.500000 0.698337
O O11 0.437819 0.244197 0.634479
O O12 0.317801 0.332828 0.735954
O O13 0.485037 0.275748 0.792712
O O14 0.085311 0.500000 0.446215
O O15 0.465149 0.000000 0.808809
O O16 0.824364 0.500000 0.239066
#
# Coordination Sequence:
#
# PCOD9171395 Si02
#       7
#     8   8   2   8   8   8   8
#     4  10  18  28  42  62  84 109 141 179 216 257
#     4   9  15  22  31  46  70 102 139 173 205 244
#     4   8  16  32  50  60  80 112 152 182 212 264
#     4   9  15  23  36  55  77 101 135 175 213 251
#     4   9  15  21  31  47  70 102 138 172 204 245
#     4   8  16  29  45  60  79 110 143 176 212 257
#     4   9  16  25  36  51  75 107 140 172 207 251
#
# _framework density 23.066856000000001
#
# number of rings (size 3 to 8) (size 9 to 14) (size 15 to 20)
#    0.480    2.560    0.000    2.400    0.000    8.320 
#    0.000    0.400    0.000    0.000    0.000    0.000 
#    0.000    0.000    0.000    2.880    0.000    8.640 
#
# Total GULP energy -139384.528427 kJ/mol
# GULP energy per Si atom -5575.381137 kJ/mol
# Density = 2.301435 g / cm^3
# Si number density = 23.066856 Si / 1000 Ang^3
#
#
#
# Elastic Constant Matrix: (Units=GPa)
#
#
# Indices 1 2 3 4 5 6 
#
# 1 85.7420 15.4164 33.4808 0.0000 -18.5108 0.0000
# 2 15.4164 235.3563 153.6511 0.0000 -3.0670 0.0000
# 3 33.4808 153.6511 238.9714 0.0000 -7.1944 0.0000
# 4 0.0000 0.0000 0.0000 49.6451 0.0000 -1.6952
# 5 -18.5108 -3.0670 -7.1944 0.0000 30.1859 0.0000
# 6 0.0000 0.0000 0.0000 -1.6952 0.0000 -22.6883
#
#
#
# Elastic Compliance Matrix: (Units=1/GPa)
#
#
# Indices 1 2 3 4 5 6 
#
# 1 0.014158 0.000539 -0.002082 0.000000 0.008241 0.000000
# 2 0.000539 0.007348 -0.004802 0.000000 -0.000067 0.000000
# 3 -0.002082 -0.004802 0.007565 0.000000 0.000038 0.000000
# 4 0.000000 0.000000 0.000000 0.020092 0.000000 -0.001501
# 5 0.008241 -0.000067 0.000038 0.000000 0.038184 0.000000
# 6 0.000000 0.000000 0.000000 -0.001501 0.000000 -0.043963
#
#
# Mechanical properties :
#
#
# Convention : Reuss Voigt Hill
#
# Bulk Modulus (GPa) = 61.04614 107.24073 84.14343
# Shear Modulus (GPa) = 81.25824 35.26330 58.26077
#
# Velocity S-wave (km/s) = 5.94170 3.91416 5.03112
# Velocity P-wave (km/s) = 8.57869 8.18656 8.38492
#
# Compressibility (1/GPa) = 0.01638105
#
# Stress axis : x y z
#
# Youngs Moduli (GPa) = 70.63100 136.10056 132.18913
#
# Poissons Ratio (x) = -0.07342 0.27527
# Poissons Ratio (y) = -0.03810 0.63475
# Poissons Ratio (z) = 0.14708 0.65353
#
# Static dielectric constant tensor:
#      x y z
#    x 2.001190 0.000000 0.041660 
#    y 0.000000 1.811360 0.000000 
#    z 0.041660 0.000000 1.822370 
# 
# From -- ./inp_files/247965.got.cif
#   From: 2010.05.17/outbox.cif.g08.bks.cpg/sg12_124_cif.got.tgz:247965.got - 2010.06.03 13:09:07.
