data_PCOD9171529
_publ_section_title
;
Structure prediction by ZEFSAII (Michael W. Deem and Ramdas Pophale) SiO2 
 PCOD9171529
Probable space group: C 2/M
;
_chemical_formula_sum "Si O2"
_cell_formula_units_Z 56
_cell_length_a 31.347620
_cell_length_b 7.367855
_cell_length_c 17.182547
_cell_angle_alpha 90.000000
_cell_angle_beta 133.471275
_cell_angle_gamma 90.000000
_cell_volume 2880.062466
_symmetry_space_group_name_H-M "C 2/M"
_symmetry_group_IT_number 12
_symmetry_cell_setting 'monoclinic'
loop_
_space_group_symop_operation_xyz
x,y,z
-x,y,-z
-x,-y,-z
x,-y,z
1/2+x,1/2+y,z
1/2-x,1/2+y,-z
1/2-x,1/2-y,-z
1/2+x,1/2-y,z
loop_
_atom_site_type_symbol
_atom_site_label
_atom_site_fract_x
_atom_site_fract_y
_atom_site_fract_z
Si Si1 0.691996 0.777738 0.598713
Si Si2 0.973515 0.720883 0.346520
Si Si3 0.492393 0.780680 0.197062
Si Si4 0.408132 0.779332 0.413874
Si Si5 0.557768 0.711783 0.030486
Si Si6 0.176549 0.211191 0.251690
Si Si7 0.628121 0.219271 0.359382
O O1 0.651829 0.720445 0.620902
O O2 0.758992 0.712863 0.684398
O O3 0.659860 0.722040 0.478411
O O4 0.692298 0.000000 0.598018
O O5 0.972802 0.500000 0.344827
O O6 0.924452 0.779799 0.347110
O O7 0.969687 0.781041 0.252840
O O8 0.036725 0.772481 0.462143
O O9 0.560136 0.720433 0.271110
O O10 0.493206 0.000000 0.198555
O O11 0.453570 0.723213 0.075329
O O12 0.407608 0.000000 0.412413
O O13 0.559581 0.500000 0.056344
O O14 0.619590 0.790740 0.136683
O O15 0.500000 0.791436 0.000000
O O16 0.162533 0.221647 0.325774
O O17 0.180148 0.000000 0.233237
O O18 0.627418 0.000000 0.358702
#
# Coordination Sequence:
#
# PCOD9171529 Si02
#       7
#     8   8   8   8   8   8   8
#     4   9  16  27  43  65  91 117 143 176 217 263
#     4   8  13  22  39  67  95 113 132 169 223 268
#     4  10  18  28  46  70  92 112 140 180 225 263
#     4   8  12  21  40  65  93 115 133 169 220 265
#     4  10  20  33  45  59  84 120 158 188 210 243
#     4  10  20  32  45  61  86 121 156 181 209 254
#     4  10  18  28  44  68  94 114 138 177 224 266
#
# _framework density 19.444023000000001
#
# number of rings (size 3 to 8) (size 9 to 14) (size 15 to 20)
#    0.000    2.714    2.857    1.286    0.000    0.857 
#    0.000    0.000    0.000    0.857    0.000    4.000 
#    0.000    0.000    0.000    0.000    0.000    0.000 
#
# Total GULP energy -156258.664709 kJ/mol
# GULP energy per Si atom -5580.666597 kJ/mol
# Density = 1.939977 g / cm^3
# Si number density = 19.444023 Si / 1000 Ang^3
#
#
#
# Elastic Constant Matrix: (Units=GPa)
#
#
# Indices 1 2 3 4 5 6 
#
# 1 189.8113 -4.0332 87.3474 0.0000 3.1428 0.0000
# 2 -4.0332 67.3485 -0.7047 0.0000 8.2911 0.0000
# 3 87.3474 -0.7047 89.4701 0.0000 6.6192 0.0000
# 4 0.0000 0.0000 0.0000 14.4296 0.0000 -11.2940
# 5 3.1428 8.2911 6.6192 0.0000 33.6207 0.0000
# 6 0.0000 0.0000 0.0000 -11.2940 0.0000 2.9269
#
#
#
# Elastic Compliance Matrix: (Units=1/GPa)
#
#
# Indices 1 2 3 4 5 6 
#
# 1 0.009605 0.000369 -0.009439 0.000000 0.000869 0.000000
# 2 0.000369 0.015342 0.000043 0.000000 -0.003826 0.000000
# 3 -0.009439 0.000043 0.020628 0.000000 -0.003190 0.000000
# 4 0.000000 0.000000 0.000000 -0.034304 0.000000 -0.132370
# 5 0.000869 -0.003826 -0.003190 0.000000 0.031234 0.000000
# 6 0.000000 0.000000 0.000000 -0.132370 0.000000 -0.169120
#
#
# Mechanical properties :
#
#
# Convention : Reuss Voigt Hill
#
# Bulk Modulus (GPa) = 36.33334 56.87211 46.60273
# Shear Modulus (GPa) = -50.30800 27.79678 -11.25561
#
# Velocity S-wave (km/s) = -5.09209 3.78508 -2.40859
# Velocity P-wave (km/s) = 3.98069 6.95810 4.03542
#
# Compressibility (1/GPa) = 0.02752293
#
# Stress axis : x y z
#
# Youngs Moduli (GPa) = 104.10718 65.18147 48.47712
#
# Poissons Ratio (x) = -0.02408 0.45758
# Poissons Ratio (y) = -0.03846 -0.00210
# Poissons Ratio (z) = 0.98267 -0.00282
#
# Static dielectric constant tensor:
#      x y z
#    x 1.679560 0.000000 0.006670 
#    y 0.000000 1.759390 0.000000 
#    z 0.006670 0.000000 1.649080 
# 
# From -- ./inp_files/249290.got.cif
#   From: 2010.05.17/outbox.cif.g08.bks.cpg/sg12_125_cif.got.tgz:249290.got - 2010.06.03 13:09:07.
