data_PCOD9171485
_publ_section_title
;
Structure prediction by ZEFSAII (Michael W. Deem and Ramdas Pophale) SiO2 
 PCOD9171485
Probable space group: C 2/M
;
_chemical_formula_sum "Si O2"
_cell_formula_units_Z 64
_cell_length_a 32.817734
_cell_length_b 8.822210
_cell_length_c 31.425300
_cell_angle_alpha 90.000000
_cell_angle_beta 29.704415
_cell_angle_gamma 90.000000
_cell_volume 4508.494152
_symmetry_space_group_name_H-M "C 2/M"
_symmetry_group_IT_number 12
_symmetry_cell_setting 'monoclinic'
loop_
_space_group_symop_operation_xyz
x,y,z
-x,y,-z
-x,-y,-z
x,-y,z
1/2+x,1/2+y,z
1/2-x,1/2+y,-z
1/2-x,1/2-y,-z
1/2+x,1/2-y,z
loop_
_atom_site_type_symbol
_atom_site_label
_atom_site_fract_x
_atom_site_fract_y
_atom_site_fract_z
Si Si1 0.305400 0.317694 0.987782
Si Si2 0.211348 0.818903 0.471012
Si Si3 0.581386 0.182775 0.333777
Si Si4 0.448481 0.817951 0.810408
Si Si5 0.611751 0.180889 0.483939
Si Si6 0.599570 0.325223 0.406024
Si Si7 0.342078 0.816314 0.824127
Si Si8 0.627198 0.681203 0.636862
O O1 0.308655 0.500000 0.981726
O O2 0.394610 0.248587 0.898085
O O3 0.250000 0.250000 0.000000
O O4 0.251495 0.276279 0.078189
O O5 0.168660 0.758033 0.467409
O O6 0.299253 0.743216 0.400542
O O7 0.154333 0.781470 0.563724
O O8 0.220464 0.000000 0.461193
O O9 0.484133 0.220949 0.420002
O O10 0.618089 0.251920 0.343626
O O11 0.626047 0.236984 0.250384
O O12 0.586704 0.000000 0.331488
O O13 0.402510 0.769763 0.808025
O O14 0.540557 0.756786 0.726035
O O15 0.447080 0.000000 0.813377
O O16 0.631273 0.236494 0.418525
O O17 0.619098 0.000000 0.479907
O O18 0.500000 0.320045 0.500000
O O19 0.625175 0.500000 0.384367
O O20 0.345684 0.000000 0.820079
O O21 0.621453 0.500000 0.645778
#
# Coordination Sequence:
#
# PCOD9171485 Si02
#       8
#     8   8   8   8   8   8   8   8
#     4   9  16  27  41  59  83 111 142 175 212 252
#     4  10  20  32  45  62  85 111 140 177 215 248
#     4   9  16  27  42  60  82 110 143 174 207 249
#     4  10  18  29  44  61  83 113 146 178 213 250
#     4  10  18  28  44  62  82 112 145 174 207 250
#     4   9  17  28  40  57  82 109 138 174 211 246
#     4   8  15  26  41  60  83 111 141 173 208 249
#     4  10  20  32  45  62  84 111 143 177 212 250
#
# _framework density 14.195427
#
# number of rings (size 3 to 8) (size 9 to 14) (size 15 to 20)
#    0.000    2.625    0.000    3.750    0.000    4.500 
#    0.000    3.750    0.000    0.000    0.000    0.000 
#    0.000    1.000    0.000   10.750    0.000    4.750 
#
# Total GULP energy -178281.010300 kJ/mol
# GULP energy per Si atom -5571.281572 kJ/mol
# Density = 1.416312 g / cm^3
# Si number density = 14.195427 Si / 1000 Ang^3
#
#
#
# Elastic Constant Matrix: (Units=GPa)
#
#
# Indices 1 2 3 4 5 6 
#
# 1 89.1266 31.0258 50.8161 -0.0028 9.6063 0.0007
# 2 31.0258 45.8580 38.9249 0.0048 -0.4829 -0.0020
# 3 50.8161 38.9249 117.1037 0.0022 6.0089 -0.0011
# 4 -0.0028 0.0048 0.0022 19.8382 -0.0012 -0.9853
# 5 9.6063 -0.4829 6.0089 -0.0012 21.8607 -0.0005
# 6 0.0007 -0.0020 -0.0011 -0.9853 -0.0005 23.6594
#
#
#
# Elastic Compliance Matrix: (Units=1/GPa)
#
#
# Indices 1 2 3 4 5 6 
#
# 1 0.017252 -0.007898 -0.004527 0.000004 -0.006511 -0.000001
# 2 -0.007898 0.034259 -0.008294 -0.000008 0.006507 0.000003
# 3 -0.004527 -0.008294 0.013357 0.000000 -0.001865 0.000000
# 4 0.000004 -0.000008 0.000000 0.050512 0.000001 0.002104
# 5 -0.006511 0.006507 -0.001865 0.000001 0.049262 0.000002
# 6 -0.000001 0.000003 0.000000 0.002104 0.000002 0.042354
#
#
# Mechanical properties :
#
#
# Convention : Reuss Voigt Hill
#
# Bulk Modulus (GPa) = 42.68221 54.84689 48.76455
# Shear Modulus (GPa) = 19.51261 21.82641 20.66951
#
# Velocity S-wave (km/s) = 3.71154 3.92544 3.81999
# Velocity P-wave (km/s) = 6.96421 7.69846 7.34052
#
# Compressibility (1/GPa) = 0.02342896
#
# Stress axis : x y z
#
# Youngs Moduli (GPa) = 57.96290 29.18963 74.86970
#
# Poissons Ratio (x) = 0.23055 0.33894
# Poissons Ratio (y) = 0.45781 0.62097
# Poissons Ratio (z) = 0.26240 0.24210
#
# Static dielectric constant tensor:
#      x y z
#    x 1.446970 0.000000 0.012910 
#    y 0.000000 1.473220 0.000000 
#    z 0.012910 0.000000 1.477870 
# 
# From -- ./inp_files/243967.got.cif
#   From: 2010.05.17/outbox.cif.g08.bks.cpg/sg12_122_cif.got.tgz:243967.got - 2010.06.03 13:09:07.
