data_PCOD9171039
_publ_section_title
;
Structure prediction by ZEFSAII (Michael W. Deem and Ramdas Pophale) SiO2 
 PCOD9171039
Probable space group: C 2/M
;
_chemical_formula_sum "Si O2"
_cell_formula_units_Z 64
_cell_length_a 20.038471
_cell_length_b 7.541861
_cell_length_c 20.917538
_cell_angle_alpha 90.000000
_cell_angle_beta 87.511541
_cell_angle_gamma 90.000000
_cell_volume 3158.231294
_symmetry_space_group_name_H-M "C 2/M"
_symmetry_group_IT_number 12
_symmetry_cell_setting 'monoclinic'
loop_
_space_group_symop_operation_xyz
x,y,z
-x,y,-z
-x,-y,-z
x,-y,z
1/2+x,1/2+y,z
1/2-x,1/2+y,-z
1/2-x,1/2-y,-z
1/2+x,1/2-y,z
loop_
_atom_site_type_symbol
_atom_site_label
_atom_site_fract_x
_atom_site_fract_y
_atom_site_fract_z
Si Si1 0.611384 0.291589 0.097819
Si Si2 0.677403 0.712421 0.972118
Si Si3 0.963175 0.787396 0.779136
Si Si4 0.420241 0.786559 0.316710
Si Si5 0.487740 0.788151 0.571521
Si Si6 0.629635 0.713435 0.333853
Si Si7 0.744692 0.714195 0.846243
Si Si8 0.273827 0.206932 0.300310
O O1 0.596554 0.500000 0.089836
O O2 0.557457 0.217901 0.150195
O O3 0.682968 0.275589 0.130967
O O4 0.624200 0.216609 0.026009
O O5 0.668613 0.500000 0.969790
O O6 0.687736 0.774505 0.899079
O O7 0.750000 0.750000 0.000000
O O8 0.911484 0.720537 0.726723
O O9 0.036404 0.752135 0.748388
O O10 0.955195 0.000000 0.781999
O O11 0.461796 0.718643 0.376075
O O12 0.345172 0.715883 0.316873
O O13 0.417534 0.000000 0.321291
O O14 0.500000 0.717733 0.500000
O O15 0.414112 0.755467 0.602399
O O16 0.497505 0.000000 0.568695
O O17 0.632564 0.500000 0.327635
O O18 0.704965 0.783200 0.330780
O O19 0.745735 0.500000 0.845452
O O20 0.732537 0.781291 0.775912
O O21 0.275270 0.000000 0.318837
#
# Coordination Sequence:
#
# PCOD9171039 Si02
#       8
#     8   8   8   8   8   8   8   8
#     4   9  15  27  45  64  91 126 160 195 240 288
#     4   8  15  25  38  60  90 121 155 195 238 284
#     4   9  16  28  47  69  92 120 156 198 238 275
#     4   9  19  33  50  70  94 126 159 191 230 282
#     4   9  18  34  54  75  99 125 152 186 232 279
#     4   9  17  30  49  72  94 121 159 194 225 269
#     4  10  18  26  41  68  96 122 156 200 243 280
#     4  10  19  33  49  67  95 129 161 192 235 285
#
# _framework density 20.264509
#
# number of rings (size 3 to 8) (size 9 to 14) (size 15 to 20)
#    0.000    2.875    1.250    0.375    0.000    2.250 
#    0.000    0.625    0.000    0.750    0.000    5.250 
#    0.000    0.000    0.000    0.000    0.000    0.000 
#
# Total GULP energy -178317.004472 kJ/mol
# GULP energy per Si atom -5572.406390 kJ/mol
# Density = 2.021839 g / cm^3
# Si number density = 20.264509 Si / 1000 Ang^3
#
#
#
# Elastic Constant Matrix: (Units=GPa)
#
#
# Indices 1 2 3 4 5 6 
#
# 1 119.1465 -9.2141 61.7364 0.0000 -29.2492 0.0000
# 2 -9.2141 48.9461 -8.0666 0.0000 -2.5013 0.0000
# 3 61.7364 -8.0666 106.7212 0.0000 -41.8042 0.0000
# 4 0.0000 0.0000 0.0000 9.2945 0.0000 -4.7596
# 5 -29.2492 -2.5013 -41.8042 0.0000 26.7347 0.0000
# 6 0.0000 0.0000 0.0000 -4.7596 0.0000 11.2160
#
#
#
# Elastic Compliance Matrix: (Units=1/GPa)
#
#
# Indices 1 2 3 4 5 6 
#
# 1 0.012536 0.002027 -0.004263 0.000000 0.007238 0.000000
# 2 0.002027 0.022431 0.005713 0.000000 0.013249 0.000000
# 3 -0.004263 0.005713 0.027486 0.000000 0.038849 0.000000
# 4 0.000000 0.000000 0.000000 0.137462 0.000000 0.058333
# 5 0.007238 0.013249 0.038849 0.000000 0.107310 0.000000
# 6 0.000000 0.000000 0.000000 0.058333 0.000000 0.113912
#
#
# Mechanical properties :
#
#
# Convention : Reuss Voigt Hill
#
# Bulk Modulus (GPa) = 14.40804 40.41391 27.41098
# Shear Modulus (GPa) = 11.43331 24.80627 18.11979
#
# Velocity S-wave (km/s) = 2.37787 3.50254 2.99350
# Velocity P-wave (km/s) = 3.82942 6.02856 5.05015
#
# Compressibility (1/GPa) = 0.06940569
#
# Stress axis : x y z
#
# Youngs Moduli (GPa) = 79.77239 44.58157 36.38229
#
# Poissons Ratio (x) = -0.09037 0.15510
# Poissons Ratio (y) = -0.16171 -0.20784
# Poissons Ratio (z) = 0.34008 -0.25468
#
# Static dielectric constant tensor:
#      x y z
#    x 1.722340 0.000000 -0.028810 
#    y 0.000000 1.670640 0.000000 
#    z -0.028810 0.000000 1.734640 
# 
# From -- ./inp_files/314131.got.cif
#   From: 2010.05.17/outbox.cif.g08.bks.cpg/sg12_158_cif.got.tgz:314131.got - 2010.06.03 13:09:07.
