data_PCOD9171465
_publ_section_title
;
Structure prediction by ZEFSAII (Michael W. Deem and Ramdas Pophale) SiO2 
 PCOD9171465
Probable space group: C 2/M
;
_chemical_formula_sum "Si O2"
_cell_formula_units_Z 64
_cell_length_a 29.974071
_cell_length_b 7.385314
_cell_length_c 14.528446
_cell_angle_alpha 90.000000
_cell_angle_beta 109.179430
_cell_angle_gamma 90.000000
_cell_volume 3037.618554
_symmetry_space_group_name_H-M "C 2/M"
_symmetry_group_IT_number 12
_symmetry_cell_setting 'monoclinic'
loop_
_space_group_symop_operation_xyz
x,y,z
-x,y,-z
-x,-y,-z
x,-y,z
1/2+x,1/2+y,z
1/2-x,1/2+y,-z
1/2-x,1/2-y,-z
1/2+x,1/2-y,z
loop_
_atom_site_type_symbol
_atom_site_label
_atom_site_fract_x
_atom_site_fract_y
_atom_site_fract_z
Si Si1 0.797872 0.219831 0.426326
Si Si2 0.505254 0.290204 0.900202
Si Si3 0.344156 0.721857 0.274002
Si Si4 0.750047 0.784846 0.108753
Si Si5 0.853304 0.718920 0.959599
Si Si6 0.412426 0.293129 0.170943
Si Si7 0.192359 0.291362 0.354127
Si Si8 0.401347 0.781372 0.808317
O O1 0.835129 0.272690 0.373493
O O2 0.809531 0.284652 0.536445
O O3 0.744439 0.282858 0.365272
O O4 0.796186 0.000000 0.428769
O O5 0.519364 0.500000 0.923156
O O6 0.544474 0.209507 0.858109
O O7 0.453479 0.283783 0.820053
O O8 0.500000 0.210316 0.000000
O O9 0.345199 0.500000 0.271081
O O10 0.296936 0.785116 0.188737
O O11 0.390098 0.785256 0.249076
O O12 0.698694 0.719734 0.106225
O O13 0.750609 0.000000 0.125121
O O14 0.750000 0.750000 0.000000
O O15 0.852689 0.500000 0.966490
O O16 0.890279 0.770040 0.906286
O O17 0.869305 0.792779 0.068477
O O18 0.426284 0.500000 0.201516
O O19 0.193509 0.500000 0.322660
O O20 0.143873 0.215359 0.280177
O O21 0.402712 0.000000 0.803588
#
# Coordination Sequence:
#
# PCOD9171465 Si02
#       8
#     8   8   8   8   8   8   8   8
#     4   9  17  32  54  76  99 128 162 198 240 296
#     4  10  20  33  49  71  99 129 167 212 250 284
#     4   9  17  30  49  69  94 131 165 192 236 293
#     4  10  18  28  43  65  95 128 160 192 228 278
#     4  10  19  29  44  69  97 126 162 199 233 282
#     4  10  19  32  48  67  95 131 164 197 240 286
#     4   9  18  33  52  76 102 126 157 202 250 292
#     4  10  20  33  51  72  98 131 164 202 250 299
#
# _framework density 21.069137000000001
#
# number of rings (size 3 to 8) (size 9 to 14) (size 15 to 20)
#    0.000    2.375    2.500    0.750    0.000    4.250 
#    0.000    1.250    0.000    3.750    0.000    5.250 
#    0.000    0.000    0.000    0.000    0.000    0.000 
#
# Total GULP energy -178572.042589 kJ/mol
# GULP energy per Si atom -5580.376331 kJ/mol
# Density = 2.102118 g / cm^3
# Si number density = 21.069137 Si / 1000 Ang^3
#
#
#
# Elastic Constant Matrix: (Units=GPa)
#
#
# Indices 1 2 3 4 5 6 
#
# 1 149.9005 4.6537 40.7066 0.0000 -29.2427 0.0000
# 2 4.6537 76.7355 -5.0674 0.0000 -0.8876 0.0000
# 3 40.7066 -5.0674 62.4617 0.0000 -14.0754 0.0000
# 4 0.0000 0.0000 0.0000 13.5895 0.0000 11.0800
# 5 -29.2427 -0.8876 -14.0754 0.0000 40.4497 0.0000
# 6 0.0000 0.0000 0.0000 11.0800 0.0000 -29.0729
#
#
#
# Elastic Compliance Matrix: (Units=1/GPa)
#
#
# Indices 1 2 3 4 5 6 
#
# 1 0.008933 -0.000804 -0.004813 0.000000 0.004765 0.000000
# 2 -0.000804 0.013193 0.001659 0.000000 0.000285 0.000000
# 3 -0.004813 0.001659 0.020080 0.000000 0.003544 0.000000
# 4 0.000000 0.000000 0.000000 0.056141 0.000000 0.021396
# 5 0.004765 0.000285 0.003544 0.000000 0.029407 0.000000
# 6 0.000000 0.000000 0.000000 0.021396 0.000000 -0.026242
#
#
# Mechanical properties :
#
#
# Convention : Reuss Voigt Hill
#
# Bulk Modulus (GPa) = 29.16399 41.07595 35.11997
# Shear Modulus (GPa) = 41.37079 21.58025 31.47552
#
# Velocity S-wave (km/s) = 4.43603 3.20388 3.86931
# Velocity P-wave (km/s) = 6.33324 5.76407 6.05535
#
# Compressibility (1/GPa) = 0.03428886
#
# Stress axis : x y z
#
# Youngs Moduli (GPa) = 111.94863 75.79535 49.80174
#
# Poissons Ratio (x) = 0.06097 0.23969
# Poissons Ratio (y) = 0.09006 -0.08262
# Poissons Ratio (z) = 0.53880 -0.12574
#
# Static dielectric constant tensor:
#      x y z
#    x 1.796030 0.000000 -0.022710 
#    y 0.000000 1.787340 0.000000 
#    z -0.022710 0.000000 1.734310 
# 
# From -- ./inp_files/248465.got.cif
#   From: 2010.05.17/outbox.cif.g08.bks.cpg/sg12_125_cif.got.tgz:248465.got - 2010.06.03 13:09:07.
