data_PCOD9171813
_publ_section_title
;
Structure prediction by ZEFSAII (Michael W. Deem and Ramdas Pophale) SiO2 
 PCOD9171813
Probable space group: C 2/M
;
_chemical_formula_sum "Si O2"
_cell_formula_units_Z 56
_cell_length_a 8.580963
_cell_length_b 17.189586
_cell_length_c 23.284504
_cell_angle_alpha 90.000000
_cell_angle_beta 127.980581
_cell_angle_gamma 90.000000
_cell_volume 2707.170081
_symmetry_space_group_name_H-M "C 2/M"
_symmetry_group_IT_number 12
_symmetry_cell_setting 'monoclinic'
loop_
_space_group_symop_operation_xyz
x,y,z
-x,y,-z
-x,-y,-z
x,-y,z
1/2+x,1/2+y,z
1/2-x,1/2+y,-z
1/2-x,1/2-y,-z
1/2+x,1/2-y,z
loop_
_atom_site_type_symbol
_atom_site_label
_atom_site_fract_x
_atom_site_fract_y
_atom_site_fract_z
Si Si1 0.577848 0.404907 0.651822
Si Si2 0.113781 0.087128 0.786638
Si Si3 0.320199 0.327683 0.795837
Si Si4 0.327934 0.786434 0.117763
Si Si5 0.179313 0.405629 0.500508
Si Si6 0.048414 0.405555 0.341589
Si Si7 0.033087 0.358235 0.067942
O O1 0.569636 0.500000 0.650494
O O2 0.574067 0.372954 0.716227
O O3 0.388662 0.377616 0.572646
O O4 0.782394 0.387763 0.666518
O O5 0.339274 0.094470 0.856999
O O6 0.987996 0.114585 0.812008
O O7 0.054284 0.000000 0.762980
O O8 0.448922 0.247816 0.821420
O O9 0.240404 0.335030 0.842463
O O10 0.137389 0.350205 0.713761
O O11 0.171259 0.715769 0.081710
O O12 0.342759 0.829317 0.060202
O O13 0.183620 0.500000 0.505374
O O14 0.134585 0.388904 0.424186
O O15 0.000000 0.378217 0.500000
O O16 0.000973 0.500000 0.328115
O O17 0.000000 0.399768 0.000000
#
# Coordination Sequence:
#
# PCOD9171813 Si02
#       7
#     8   8   8   8   8   8   8
#     4   9  17  29  45  71 107 138 167 200 240 300
#     4  10  20  33  51  77 106 135 163 199 255 313
#     4  10  19  34  53  74 101 132 169 212 248 291
#     4   9  20  35  53  77  98 129 175 214 246 284
#     4   9  16  26  42  69 105 139 169 202 242 290
#     4  10  18  28  48  78 107 134 163 203 256 303
#     4  10  19  34  56  78 102 130 165 210 252 295
#
# _framework density 20.685807
#
# number of rings (size 3 to 8) (size 9 to 14) (size 15 to 20)
#    0.000    2.429    0.000    3.000    0.000    4.286 
#    0.000    0.714    0.000    0.857    0.000   45.000 
#    0.000    0.000    0.000    0.000    0.000    0.000 
#
# Total GULP energy -155961.343912 kJ/mol
# GULP energy per Si atom -5570.047997 kJ/mol
# Density = 2.063873 g / cm^3
# Si number density = 20.685807 Si / 1000 Ang^3
#
#
#
# Elastic Constant Matrix: (Units=GPa)
#
#
# Indices 1 2 3 4 5 6 
#
# 1 107.1573 14.5006 16.7111 0.0000 -24.4090 0.0000
# 2 14.5006 10.5548 4.2303 0.0000 -7.3293 0.0000
# 3 16.7111 4.2303 84.3725 0.0000 -19.4369 0.0000
# 4 0.0000 0.0000 0.0000 16.9897 0.0000 3.1209
# 5 -24.4090 -7.3293 -19.4369 0.0000 37.6023 0.0000
# 6 0.0000 0.0000 0.0000 3.1209 0.0000 10.6598
#
#
#
# Elastic Compliance Matrix: (Units=1/GPa)
#
#
# Indices 1 2 3 4 5 6 
#
# 1 0.012386 -0.013194 -0.000604 0.000000 0.005156 0.000000
# 2 -0.013194 0.123660 -0.000008 0.000000 0.015534 0.000000
# 3 -0.000604 -0.000008 0.013488 0.000000 0.006578 0.000000
# 4 0.000000 0.000000 0.000000 0.062204 0.000000 -0.018212
# 5 0.005156 0.015534 0.006578 0.000000 0.036370 0.000000
# 6 0.000000 0.000000 0.000000 -0.018212 0.000000 0.099143
#
#
# Mechanical properties :
#
#
# Convention : Reuss Voigt Hill
#
# Bulk Modulus (GPa) = 8.20196 30.32986 19.26591
# Shear Modulus (GPa) = 12.03358 24.15987 18.09673
#
# Velocity S-wave (km/s) = 2.41453 3.42123 2.96097
# Velocity P-wave (km/s) = 3.42737 5.50458 4.58515
#
# Compressibility (1/GPa) = 0.12192205
#
# Stress axis : x y z
#
# Youngs Moduli (GPa) = 80.73479 8.08666 74.14190
#
# Poissons Ratio (x) = 0.10670 0.04477
# Poissons Ratio (y) = 1.06521 0.00061
# Poissons Ratio (z) = 0.04875 0.00007
#
# Static dielectric constant tensor:
#      x y z
#    x 1.745400 0.000000 -0.001330 
#    y 0.000000 1.801060 0.000000 
#    z -0.001330 0.000000 1.796930 
# 
# From -- ./inp_files/257617.got.cif
#   From: 2010.05.17/outbox.cif.g08.bks.cpg/sg12_129_cif.got.tgz:257617.got - 2010.06.03 13:09:07.
