data_PCOD9171596
_publ_section_title
;
Structure prediction by ZEFSAII (Michael W. Deem and Ramdas Pophale) SiO2 
 PCOD9171596
Probable space group: C 2/M
;
_chemical_formula_sum "Si O2"
_cell_formula_units_Z 56
_cell_length_a 22.815955
_cell_length_b 14.982046
_cell_length_c 22.142695
_cell_angle_alpha 90.000000
_cell_angle_beta 18.344197
_cell_angle_gamma 90.000000
_cell_volume 2382.161108
_symmetry_space_group_name_H-M "C 2/M"
_symmetry_group_IT_number 12
_symmetry_cell_setting 'monoclinic'
loop_
_space_group_symop_operation_xyz
x,y,z
-x,y,-z
-x,-y,-z
x,-y,z
1/2+x,1/2+y,z
1/2-x,1/2+y,-z
1/2-x,1/2-y,-z
1/2+x,1/2-y,z
loop_
_atom_site_type_symbol
_atom_site_label
_atom_site_fract_x
_atom_site_fract_y
_atom_site_fract_z
Si Si1 0.226666 0.101391 0.280963
Si Si2 0.248946 0.792303 0.142139
Si Si3 0.692660 0.599510 0.542382
Si Si4 0.205802 0.597062 0.416494
Si Si5 0.741379 0.645939 0.025531
Si Si6 0.212595 0.404249 0.150059
Si Si7 0.207422 0.792524 0.415249
O O1 0.295689 0.165991 0.160520
O O2 0.272837 0.137267 0.301860
O O3 0.000000 0.103190 0.500000
O O4 0.284580 0.000000 0.214165
O O5 0.315164 0.854539 0.021740
O O6 0.307316 0.689281 0.074710
O O7 0.020551 0.791587 0.360429
O O8 0.731793 0.500000 0.479657
O O9 0.763124 0.603255 0.541680
O O10 0.470055 0.611532 0.765234
O O11 0.764184 0.675362 0.426704
O O12 0.277363 0.500000 0.325798
O O13 0.270130 0.694358 0.332865
O O14 0.983986 0.595259 0.623699
O O15 0.750000 0.750000 0.000000
O O16 0.828520 0.599693 0.881903
O O17 0.306404 0.500000 0.069667
#
# Coordination Sequence:
#
# PCOD9171596 Si02
#       7
#     8   8   8   8   8   8   8
#     4   9  16  26  41  61  86 115 145 180 223 265
#     4   8  16  27  39  60  88 114 144 180 218 262
#     4  10  18  28  45  69  93 118 150 185 222 265
#     4   9  18  30  44  65  93 122 149 181 223 268
#     4   9  17  28  43  66  93 117 145 181 221 265
#     4   9  16  28  44  63  90 119 144 176 221 268
#     4   9  16  27  42  61  88 117 147 184 222 260
#
# _framework density 23.508067
#
# number of rings (size 3 to 8) (size 9 to 14) (size 15 to 20)
#    0.000    3.000    0.000    2.143    0.000    4.000 
#    0.000    0.714    0.000    4.286    0.000    9.000 
#    0.000   24.000    0.000    0.000    0.000    0.000 
#
# Total GULP energy -156209.622047 kJ/mol
# GULP energy per Si atom -5578.915073 kJ/mol
# Density = 2.345456 g / cm^3
# Si number density = 23.508067 Si / 1000 Ang^3
#
#
#
# Elastic Constant Matrix: (Units=GPa)
#
#
# Indices 1 2 3 4 5 6 
#
# 1 35.2170 10.2276 -1.1420 -0.0044 14.0783 -0.0016
# 2 10.2276 151.1982 -5.3471 -0.0220 14.7401 0.0027
# 3 -1.1420 -5.3471 52.9493 -0.0148 -17.6064 -0.0034
# 4 -0.0044 -0.0220 -0.0148 -5.7233 0.0160 11.5461
# 5 14.0783 14.7401 -17.6064 0.0160 29.6640 -0.0067
# 6 -0.0016 0.0027 -0.0034 11.5461 -0.0067 26.0284
#
#
#
# Elastic Compliance Matrix: (Units=1/GPa)
#
#
# Indices 1 2 3 4 5 6 
#
# 1 0.036681 -0.000678 -0.006172 -0.000040 -0.020735 0.000014
# 2 -0.000678 0.006976 -0.000443 -0.000020 -0.003408 0.000007
# 3 -0.006172 -0.000443 0.024613 0.000004 0.017758 0.000006
# 4 -0.000040 -0.000020 0.000004 -0.092207 0.000090 0.040903
# 5 -0.020735 -0.003408 0.017758 0.000090 0.055784 -0.000024
# 6 0.000014 0.000007 0.000006 0.040903 -0.000024 0.020275
#
#
# Mechanical properties :
#
#
# Convention : Reuss Voigt Hill
#
# Bulk Modulus (GPa) = 18.62770 27.42683 23.02727
# Shear Modulus (GPa) = 59.09897 25.70221 42.40059
#
# Velocity S-wave (km/s) = 5.01941 3.31015 4.25156
# Velocity P-wave (km/s) = 6.44467 5.12853 5.82390
#
# Compressibility (1/GPa) = 0.05368349
#
# Stress axis : x y z
#
# Youngs Moduli (GPa) = 27.26207 143.34361 40.62921
#
# Poissons Ratio (x) = 0.09720 0.25076
# Poissons Ratio (y) = 0.01849 0.01801
# Poissons Ratio (z) = 0.16826 0.06354
#
# Static dielectric constant tensor:
#      x y z
#    x 1.894690 -0.000050 -0.064360 
#    y -0.000050 1.922120 0.000040 
#    z -0.064360 0.000040 1.948170 
# 
# From -- ./inp_files/352036.got.cif
#   From: 2010.05.17/outbox.cif.g08.bks.cpg/sg12_177_cif.got.tgz:352036.got - 2010.06.03 13:09:07.
