data_PCOD9171098
_publ_section_title
;
Structure prediction by ZEFSAII (Michael W. Deem and Ramdas Pophale) SiO2 
 PCOD9171098
Probable space group: C 2/M
;
_chemical_formula_sum "Si O2"
_cell_formula_units_Z 56
_cell_length_a 27.925573
_cell_length_b 8.836990
_cell_length_c 14.953535
_cell_angle_alpha 90.000000
_cell_angle_beta 77.116201
_cell_angle_gamma 90.000000
_cell_volume 3597.300073
_symmetry_space_group_name_H-M "C 2/M"
_symmetry_group_IT_number 12
_symmetry_cell_setting 'monoclinic'
loop_
_space_group_symop_operation_xyz
x,y,z
-x,y,-z
-x,-y,-z
x,-y,z
1/2+x,1/2+y,z
1/2-x,1/2+y,-z
1/2-x,1/2-y,-z
1/2+x,1/2-y,z
loop_
_atom_site_type_symbol
_atom_site_label
_atom_site_fract_x
_atom_site_fract_y
_atom_site_fract_z
Si Si1 0.317230 0.179988 0.774631
Si Si2 0.206818 0.819957 0.886235
Si Si3 0.128820 0.318955 0.782450
Si Si4 0.444704 0.815970 0.037256
Si Si5 0.641852 0.817013 0.060466
Si Si6 0.183798 0.180299 0.605656
Si Si7 0.789380 0.180134 0.604616
O O1 0.263443 0.207689 0.840092
O O2 0.355398 0.224535 0.836436
O O3 0.317839 0.264051 0.680126
O O4 0.321516 0.000000 0.756792
O O5 0.173438 0.737763 0.826233
O O6 0.198473 0.000000 0.885968
O O7 0.187243 0.755546 0.987946
O O8 0.129672 0.500000 0.776941
O O9 0.080334 0.271653 0.858080
O O10 0.139694 0.249989 0.681295
O O11 0.445868 0.000000 0.036238
O O12 0.500000 0.760953 0.000000
O O13 0.407115 0.772152 0.973492
O O14 0.646533 0.000000 0.053004
O O15 0.183947 0.217609 0.500210
O O16 0.235709 0.242782 0.621617
O O17 0.183764 0.000000 0.616183
O O18 0.782296 0.000000 0.611073
#
# Coordination Sequence:
#
# PCOD9171098 Si02
#       7
#     8   8   8   8   8   8   8
#     4  10  19  29  41  61  90 122 151 183 219 256
#     4  10  18  27  40  60  88 121 150 179 217 256
#     4  10  18  28  46  68  89 118 153 184 221 267
#     4   8  15  29  48  69  91 113 142 184 228 268
#     4   9  18  30  44  63  87 117 152 183 219 267
#     4  10  19  31  44  63  90 119 152 188 222 255
#     4  10  20  30  44  63  87 122 157 185 215 257
#
# _framework density 15.56723
#
# number of rings (size 3 to 8) (size 9 to 14) (size 15 to 20)
#    0.000    2.429    1.429    3.000    0.000    2.857 
#    0.000    0.000    0.000   10.714    0.000    1.000 
#    0.000    8.000    0.000    0.000    0.000    0.000 
#
# Total GULP energy -156048.352629 kJ/mol
# GULP energy per Si atom -5573.155451 kJ/mol
# Density = 1.553180 g / cm^3
# Si number density = 15.567230 Si / 1000 Ang^3
#
#
#
# Elastic Constant Matrix: (Units=GPa)
#
#
# Indices 1 2 3 4 5 6 
#
# 1 56.3966 23.9693 55.8947 0.0000 -7.0879 0.0000
# 2 23.9693 29.3142 42.6821 0.0000 -0.6559 0.0000
# 3 55.8947 42.6821 142.5400 0.0000 4.6987 0.0000
# 4 0.0000 0.0000 0.0000 27.5922 0.0000 2.1059
# 5 -7.0879 -0.6559 4.6987 0.0000 20.2555 0.0000
# 6 0.0000 0.0000 0.0000 2.1059 0.0000 10.5161
#
#
#
# Elastic Compliance Matrix: (Units=1/GPa)
#
#
# Indices 1 2 3 4 5 6 
#
# 1 0.035629 -0.013787 -0.010318 0.000000 0.014415 0.000000
# 2 -0.013787 0.066603 -0.014561 0.000000 0.000710 0.000000
# 3 -0.010318 -0.014561 0.015676 0.000000 -0.007719 0.000000
# 4 0.000000 0.000000 0.000000 0.036805 0.000000 -0.007370
# 5 0.014415 0.000710 -0.007719 0.000000 0.056227 0.000000
# 6 0.000000 0.000000 0.000000 -0.007370 0.000000 0.096568
#
#
# Mechanical properties :
#
#
# Convention : Reuss Voigt Hill
#
# Bulk Modulus (GPa) = 24.64465 52.59369 38.61917
# Shear Modulus (GPa) = 12.55132 18.71974 15.63553
#
# Velocity S-wave (km/s) = 2.84256 3.47148 3.17264
# Velocity P-wave (km/s) = 5.16130 7.06587 6.18731
#
# Compressibility (1/GPa) = 0.04057677
#
# Stress axis : x y z
#
# Youngs Moduli (GPa) = 28.06688 15.01440 63.79107
#
# Poissons Ratio (x) = 0.20700 0.65821
# Poissons Ratio (y) = 0.38695 0.92884
# Poissons Ratio (z) = 0.28960 0.21862
#
# Static dielectric constant tensor:
#      x y z
#    x 1.503420 0.000000 0.010070 
#    y 0.000000 1.526570 0.000000 
#    z 0.010070 0.000000 1.553060 
# 
# From -- ./inp_files/243005.got.cif
#   From: 2010.05.17/outbox.cif.g08.bks.cpg/sg12_122_cif.got.tgz:243005.got - 2010.06.03 13:09:07.
