data_PCOD9171899
_publ_section_title
;
Structure prediction by ZEFSAII (Michael W. Deem and Ramdas Pophale) SiO2 
 PCOD9171899
Probable space group: C 2/M
;
_chemical_formula_sum "Si O2"
_cell_formula_units_Z 48
_cell_length_a 27.111515
_cell_length_b 13.692316
_cell_length_c 5.587556
_cell_angle_alpha 90.000000
_cell_angle_beta 90.000000
_cell_angle_gamma 90.000000
_cell_volume 2074.209357
_symmetry_space_group_name_H-M "C 2/M"
_symmetry_group_IT_number 12
_symmetry_cell_setting 'monoclinic'
loop_
_space_group_symop_operation_xyz
x,y,z
-x,y,-z
-x,-y,-z
x,-y,z
1/2+x,1/2+y,z
1/2-x,1/2+y,-z
1/2-x,1/2-y,-z
1/2+x,1/2-y,z
loop_
_atom_site_type_symbol
_atom_site_label
_atom_site_fract_x
_atom_site_fract_y
_atom_site_fract_z
Si Si1 0.330538 0.392541 0.250000
Si Si2 0.833437 0.335969 0.250000
Si Si3 0.952759 0.109215 0.250000
Si Si4 0.859222 0.662380 0.750000
Si Si5 0.784109 0.156118 0.750000
Si Si6 0.559619 0.680934 0.250000
O O1 0.357110 0.500000 0.250000
O O2 0.350683 0.279032 0.250000
O O3 0.300007 0.392589 0.499441
O O4 0.300007 0.392589 0.000559
O O5 0.852398 0.385236 0.492541
O O6 0.774310 0.331813 0.250000
O O7 0.852398 0.385236 0.007459
O O8 0.926442 0.126100 0.503832
O O9 0.000183 0.180858 0.250000
O O10 0.973565 0.000000 0.250000
O O11 0.926443 0.126100 0.996168
O O12 0.814643 0.742586 0.750000
O O13 0.911316 0.718614 0.750000
#
# Coordination Sequence:
#
# PCOD9171899 Si02
#       6
#     8   8   8   8   8   8
#     4  10  18  29  43  63  85 108 143 187 222 256
#     4  10  19  33  48  61  86 120 148 180 228 287
#     4  10  19  33  45  56  80 120 151 174 225 291
#     4  10  18  29  45  65  79 101 148 195 220 255
#     4  10  19  33  47  61  86 122 148 178 228 288
#     4  10  18  29  43  60  78  99 140 192 220 255
#
# _framework density 23.141345999999999
#
# number of rings (size 3 to 8) (size 9 to 14) (size 15 to 20)
#    0.000    2.000    0.000    9.000    0.000    0.000 
#    0.000   26.667    0.000    0.000    0.000    0.000 
#    0.000    0.000    0.000    0.000    0.000    0.000 
#
# Total GULP energy -133817.713124 kJ/mol
# GULP energy per Si atom -5575.738047 kJ/mol
# Density = 2.308868 g / cm^3
# Si number density = 23.141346 Si / 1000 Ang^3
#
#
#
# Elastic Constant Matrix: (Units=GPa)
#
#
# Indices 1 2 3 4 5 6 
#
# 1 85.3558 15.5963 24.0461 0.0000 -0.0001 0.0000
# 2 15.5963 74.0266 29.6911 0.0000 0.0000 0.0000
# 3 24.0461 29.6911 276.1593 0.0000 0.0000 0.0000
# 4 0.0000 0.0000 0.0000 11.9956 0.0000 0.0002
# 5 -0.0001 0.0000 0.0000 0.0000 37.3114 0.0000
# 6 0.0000 0.0000 0.0000 0.0002 0.0000 9.7111
#
#
#
# Elastic Compliance Matrix: (Units=1/GPa)
#
#
# Indices 1 2 3 4 5 6 
#
# 1 0.012365 -0.002271 -0.000832 0.000000 0.000000 0.000000
# 2 -0.002271 0.014535 -0.001365 0.000000 0.000000 0.000000
# 3 -0.000832 -0.001365 0.003840 0.000000 0.000000 0.000000
# 4 0.000000 0.000000 0.000000 0.083364 0.000000 -0.000002
# 5 0.000000 0.000000 0.000000 0.000000 0.026801 0.000000
# 6 0.000000 0.000000 0.000000 -0.000002 0.000000 0.102975
#
#
# Mechanical properties :
#
#
# Convention : Reuss Voigt Hill
#
# Bulk Modulus (GPa) = 45.86563 63.80098 54.83331
# Shear Modulus (GPa) = 19.22444 36.21750 27.72097
#
# Velocity S-wave (km/s) = 2.88538 3.96037 3.46482
# Velocity P-wave (km/s) = 5.56448 6.96726 6.30500
#
# Compressibility (1/GPa) = 0.02180282
#
# Stress axis : x y z
#
# Youngs Moduli (GPa) = 80.87213 68.80123 260.39409
#
# Poissons Ratio (x) = 0.15627 0.21677
# Poissons Ratio (y) = 0.18368 0.35542
# Poissons Ratio (z) = 0.06732 0.09391
#
# Static dielectric constant tensor:
#      x y z
#    x 1.919680 0.000000 0.000000 
#    y 0.000000 1.832560 0.000000 
#    z 0.000000 0.000000 1.986710 
# 
# From -- ./inp_files/28357.got.cif
#   From: 2010.05.17/outbox.cif.g08.bks.cpg/sg12_15_cif.got.tgz:28357.got - 2010.06.03 13:09:07.
