data_PCOD9171572
_publ_section_title
;
Structure prediction by ZEFSAII (Michael W. Deem and Ramdas Pophale) SiO2 
 PCOD9171572
Probable space group: C 2/M
;
_chemical_formula_sum "Si O2"
_cell_formula_units_Z 64
_cell_length_a 19.993575
_cell_length_b 7.450249
_cell_length_c 24.383579
_cell_angle_alpha 90.000000
_cell_angle_beta 61.073475
_cell_angle_gamma 90.000000
_cell_volume 3178.968315
_symmetry_space_group_name_H-M "C 2/M"
_symmetry_group_IT_number 12
_symmetry_cell_setting 'monoclinic'
loop_
_space_group_symop_operation_xyz
x,y,z
-x,y,-z
-x,-y,-z
x,-y,z
1/2+x,1/2+y,z
1/2-x,1/2+y,-z
1/2-x,1/2-y,-z
1/2+x,1/2-y,z
loop_
_atom_site_type_symbol
_atom_site_label
_atom_site_fract_x
_atom_site_fract_y
_atom_site_fract_z
Si Si1 0.427572 0.780918 0.225686
Si Si2 0.758409 0.719220 0.322698
Si Si3 0.179686 0.218719 0.149706
Si Si4 0.634538 0.711539 0.287743
Si Si5 0.059932 0.709058 0.100414
Si Si6 0.034737 0.284106 0.666441
Si Si7 0.310825 0.785555 0.024536
Si Si8 0.201025 0.714450 0.573126
O O1 0.338733 0.730020 0.262300
O O2 0.480537 0.715257 0.155033
O O3 0.462145 0.724401 0.271023
O O4 0.430056 0.000000 0.223885
O O5 0.757054 0.500000 0.324643
O O6 0.686671 0.783364 0.316014
O O7 0.762095 0.780107 0.384409
O O8 0.157840 0.283559 0.218672
O O9 0.117730 0.281722 0.129548
O O10 0.264374 0.276523 0.096322
O O11 0.177397 0.000000 0.149153
O O12 0.651072 0.500000 0.278459
O O13 0.544082 0.731343 0.330194
O O14 0.045988 0.500000 0.093096
O O15 0.108482 0.786630 0.030155
O O16 0.035871 0.500000 0.667101
O O17 0.113130 0.220556 0.607137
O O18 0.319783 0.000000 0.026200
O O19 0.250000 0.750000 0.000000
O O20 0.196388 0.500000 0.579971
O O21 0.250000 0.750000 0.500000
#
# Coordination Sequence:
#
# PCOD9171572 Si02
#       8
#     8   8   8   8   8   8   8   8
#     4   8  13  24  43  63  82 110 150 188 215 249
#     4   8  16  30  46  66  91 118 148 177 213 263
#     4   9  16  24  35  57  89 116 137 176 229 263
#     4  10  18  28  45  67  91 120 149 179 218 263
#     4   9  14  22  40  60  77 108 152 187 216 258
#     4   9  17  30  48  69  91 115 146 183 218 251
#     4   8  14  22  32  52  82 110 140 179 220 261
#     4   9  18  34  55  73  91 117 147 179 213 253
#
# _framework density 20.132318999999999
#
# number of rings (size 3 to 8) (size 9 to 14) (size 15 to 20)
#    0.000    3.250    1.250    1.500    0.000    0.500 
#    0.000    1.250    0.000    6.000    0.000    5.250 
#    0.000    0.000    0.000   19.500    0.000   14.000 
#
# Total GULP energy -178255.624633 kJ/mol
# GULP energy per Si atom -5570.488270 kJ/mol
# Density = 2.008650 g / cm^3
# Si number density = 20.132319 Si / 1000 Ang^3
#
#
#
# Elastic Constant Matrix: (Units=GPa)
#
#
# Indices 1 2 3 4 5 6 
#
# 1 115.2661 -5.7350 51.4352 0.0001 -11.9799 0.0013
# 2 -5.7350 59.2537 -4.0419 0.0015 1.6362 -0.0009
# 3 51.4352 -4.0419 127.8523 0.0002 -28.4067 0.0002
# 4 0.0001 0.0015 0.0002 5.2824 0.0000 -1.3556
# 5 -11.9799 1.6362 -28.4067 0.0000 20.3872 0.0001
# 6 0.0013 -0.0009 0.0002 -1.3556 0.0001 10.9923
#
#
#
# Elastic Compliance Matrix: (Units=1/GPa)
#
#
# Indices 1 2 3 4 5 6 
#
# 1 0.010608 0.000732 -0.004161 -0.000001 0.000377 -0.000001
# 2 0.000732 0.016975 0.000051 -0.000005 -0.000861 0.000001
# 3 -0.004161 0.000051 0.012967 -0.000001 0.015619 0.000000
# 4 -0.000001 -0.000005 -0.000001 0.195494 -0.000001 0.024109
# 5 0.000377 -0.000861 0.015619 -0.000001 0.071105 -0.000001
# 6 -0.000001 0.000001 0.000000 0.024109 -0.000001 0.093946
#
#
# Mechanical properties :
#
#
# Convention : Reuss Voigt Hill
#
# Bulk Modulus (GPa) = 29.59038 42.85430 36.22234
# Shear Modulus (GPa) = 11.92991 24.71330 18.32160
#
# Velocity S-wave (km/s) = 2.43693 3.50743 3.01999
# Velocity P-wave (km/s) = 4.75899 6.14291 5.49469
#
# Compressibility (1/GPa) = 0.03379477
#
# Stress axis : x y z
#
# Youngs Moduli (GPa) = 94.27028 58.91115 77.11747
#
# Poissons Ratio (x) = -0.04315 0.32085
# Poissons Ratio (y) = -0.06905 -0.00390
# Poissons Ratio (z) = 0.39221 -0.00298
#
# Static dielectric constant tensor:
#      x y z
#    x 1.698340 0.000000 -0.032760 
#    y 0.000000 1.768610 0.000000 
#    z -0.032760 0.000000 1.739500 
# 
# From -- ./inp_files/342879.got.cif
#   From: 2010.05.17/outbox.cif.g08.bks.cpg/sg12_172_cif.got.tgz:342879.got - 2010.06.03 13:09:07.
