data_PCOD9171546
_publ_section_title
;
Structure prediction by ZEFSAII (Michael W. Deem and Ramdas Pophale) SiO2 
 PCOD9171546
Probable space group: C 2/M
;
_chemical_formula_sum "Si O2"
_cell_formula_units_Z 64
_cell_length_a 25.591243
_cell_length_b 7.910582
_cell_length_c 18.444852
_cell_angle_alpha 90.000000
_cell_angle_beta 77.821324
_cell_angle_gamma 90.000000
_cell_volume 3649.970077
_symmetry_space_group_name_H-M "C 2/M"
_symmetry_group_IT_number 12
_symmetry_cell_setting 'monoclinic'
loop_
_space_group_symop_operation_xyz
x,y,z
-x,y,-z
-x,-y,-z
x,-y,z
1/2+x,1/2+y,z
1/2-x,1/2+y,-z
1/2-x,1/2-y,-z
1/2+x,1/2-y,z
loop_
_atom_site_type_symbol
_atom_site_label
_atom_site_fract_x
_atom_site_fract_y
_atom_site_fract_z
Si Si1 0.202726 0.697904 0.685169
Si Si2 0.095289 0.794625 0.314475
Si Si3 0.011916 0.795856 0.578562
Si Si4 0.155351 0.199356 0.157780
Si Si5 0.310856 0.703297 0.002469
Si Si6 0.183119 0.297975 0.408982
Si Si7 0.274463 0.301194 0.161634
Si Si8 0.632904 0.203060 0.574433
O O1 0.192163 0.500000 0.698714
O O2 0.261313 0.719377 0.632932
O O3 0.203639 0.776999 0.764486
O O4 0.160433 0.768575 0.639574
O O5 0.116193 0.730063 0.230696
O O6 0.137399 0.741197 0.363658
O O7 0.036391 0.738429 0.355702
O O8 0.095626 0.000000 0.312835
O O9 0.070525 0.742255 0.585916
O O10 0.000000 0.736319 0.500000
O O11 0.010963 0.000000 0.577427
O O12 0.216217 0.216639 0.169547
O O13 0.143664 0.000000 0.155818
O O14 0.154994 0.270493 0.075726
O O15 0.316943 0.500000 0.999651
O O16 0.313830 0.759458 0.085373
O O17 0.250000 0.750000 0.000000
O O18 0.190510 0.500000 0.409846
O O19 0.163343 0.234912 0.493232
O O20 0.264839 0.500000 0.152597
O O21 0.639170 0.000000 0.572728
#
# Coordination Sequence:
#
# PCOD9171546 Si02
#       8
#     8   8   8   8   8   8   8   8
#     4  11  22  35  49  68  97 130 164 197 239 292
#     4  10  19  31  49  73  99 129 161 193 235 286
#     4  10  20  34  52  73  96 125 161 201 242 283
#     4   9  16  28  46  67  96 131 160 188 234 286
#     4   8  15  26  41  64  94 126 156 190 229 280
#     4  11  21  33  50  72  96 124 161 200 241 282
#     4  10  18  28  44  69  98 125 159 196 235 281
#     4  10  23  38  51  69  93 127 166 204 242 284
#
# _framework density 17.534390999999999
#
# number of rings (size 3 to 8) (size 9 to 14) (size 15 to 20)
#    0.000    2.125    2.500    1.500    0.000    2.750 
#    0.000    0.000    0.000    0.000    0.000    0.875 
#    0.000    7.000    0.000    0.000    0.000    0.000 
#
# Total GULP energy -178410.104494 kJ/mol
# GULP energy per Si atom -5575.315765 kJ/mol
# Density = 1.749448 g / cm^3
# Si number density = 17.534391 Si / 1000 Ang^3
#
#
#
# Elastic Constant Matrix: (Units=GPa)
#
#
# Indices 1 2 3 4 5 6 
#
# 1 64.8250 -9.3046 61.8980 0.0000 12.8123 0.0000
# 2 -9.3046 15.5453 -1.2064 0.0000 -3.3414 0.0000
# 3 61.8980 -1.2064 182.6782 0.0000 -10.3933 0.0000
# 4 0.0000 0.0000 0.0000 1.9860 0.0000 -1.9841
# 5 12.8123 -3.3414 -10.3933 0.0000 14.0555 0.0000
# 6 0.0000 0.0000 0.0000 -1.9841 0.0000 16.8813
#
#
#
# Elastic Compliance Matrix: (Units=1/GPa)
#
#
# Indices 1 2 3 4 5 6 
#
# 1 0.044458 0.014418 -0.017830 0.000000 -0.050282 0.000000
# 2 0.014418 0.072825 -0.004350 0.000000 0.000953 0.000000
# 3 -0.017830 -0.004350 0.012895 0.000000 0.024754 0.000000
# 4 0.000000 0.000000 0.000000 0.570519 0.000000 0.067056
# 5 -0.050282 0.000953 0.024754 0.000000 0.135512 0.000000
# 6 0.000000 0.000000 0.000000 0.067056 0.000000 0.067119
#
#
# Mechanical properties :
#
#
# Convention : Reuss Voigt Hill
#
# Bulk Modulus (GPa) = 8.72177 40.64694 24.68436
# Shear Modulus (GPa) = 5.22428 20.69534 12.95981
#
# Velocity S-wave (km/s) = 1.72798 3.43923 2.72160
# Velocity P-wave (km/s) = 2.99435 6.24521 4.89739
#
# Compressibility (1/GPa) = 0.11465564
#
# Stress axis : x y z
#
# Youngs Moduli (GPa) = 22.49295 13.73150 77.54918
#
# Poissons Ratio (x) = -0.19799 1.38268
# Poissons Ratio (y) = -0.32431 0.33737
# Poissons Ratio (z) = 0.40104 0.05974
#
# Static dielectric constant tensor:
#      x y z
#    x 1.549360 0.000000 -0.007850 
#    y 0.000000 1.639550 0.000000 
#    z -0.007850 0.000000 1.659060 
# 
# From -- ./inp_files/287605.got.cif
#   From: 2010.05.17/outbox.cif.g08.bks.cpg/sg12_144_cif.got.tgz:287605.got - 2010.06.03 13:09:07.
