data_PCOD9171906
_publ_section_title
;
Structure prediction by ZEFSAII (Michael W. Deem and Ramdas Pophale) SiO2 
 PCOD9171906
Probable space group: C 2/M
;
_chemical_formula_sum "Si O2"
_cell_formula_units_Z 56
_cell_length_a 27.554735
_cell_length_b 7.816979
_cell_length_c 15.136653
_cell_angle_alpha 90.000000
_cell_angle_beta 102.523173
_cell_angle_gamma 90.000000
_cell_volume 3182.786993
_symmetry_space_group_name_H-M "C 2/M"
_symmetry_group_IT_number 12
_symmetry_cell_setting 'monoclinic'
loop_
_space_group_symop_operation_xyz
x,y,z
-x,y,-z
-x,-y,-z
x,-y,z
1/2+x,1/2+y,z
1/2-x,1/2+y,-z
1/2-x,1/2-y,-z
1/2+x,1/2-y,z
loop_
_atom_site_type_symbol
_atom_site_label
_atom_site_fract_x
_atom_site_fract_y
_atom_site_fract_z
Si Si1 0.641260 0.209723 0.434349
Si Si2 0.281904 0.198945 0.392780
Si Si3 0.943901 0.706777 0.464233
Si Si4 0.677004 0.301954 0.899613
Si Si5 0.367523 0.704583 0.292212
Si Si6 0.286417 0.700517 0.902307
Si Si7 0.319979 0.804333 0.728319
O O1 0.690622 0.263374 0.508097
O O2 0.593727 0.264332 0.472776
O O3 0.644394 0.267536 0.334399
O O4 0.642117 0.000000 0.434546
O O5 0.325028 0.211478 0.336021
O O6 0.234316 0.297787 0.339034
O O7 0.268120 0.000000 0.397720
O O8 0.944167 0.500000 0.466754
O O9 0.919071 0.759681 0.361890
O O10 0.000000 0.767774 0.500000
O O11 0.663079 0.500000 0.905885
O O12 0.640083 0.230546 0.810772
O O13 0.732581 0.289789 0.880143
O O14 0.683402 0.229810 0.000921
O O15 0.358921 0.500000 0.289411
O O16 0.275955 0.500000 0.914164
O O17 0.314129 0.717130 0.820520
O O18 0.333882 0.000000 0.750909
#
# Coordination Sequence:
#
# PCOD9171906 Si02
#       7
#     8   8   8   8   8   8   8
#     4   8  17  30  44  63  88 117 149 183 225 273
#     4  10  18  29  43  62  88 121 158 188 216 260
#     4   9  18  34  53  71  91 115 146 186 230 276
#     4   9  18  31  44  62  89 121 155 190 229 263
#     4  10  18  29  47  69  93 119 148 185 229 274
#     4  10  19  29  43  62  88 123 159 192 220 260
#     4  11  19  28  41  61  91 124 153 184 222 264
#
# _framework density 17.594643000000001
#
# number of rings (size 3 to 8) (size 9 to 14) (size 15 to 20)
#    0.000    2.429    1.429    3.000    0.000    1.429 
#    0.000    6.429    0.000    0.000    0.000    1.000 
#    0.000    8.000    0.000    0.000    0.000    0.000 
#
# Total GULP energy -156075.621080 kJ/mol
# GULP energy per Si atom -5574.129324 kJ/mol
# Density = 1.755460 g / cm^3
# Si number density = 17.594643 Si / 1000 Ang^3
#
#
#
# Elastic Constant Matrix: (Units=GPa)
#
#
# Indices 1 2 3 4 5 6 
#
# 1 61.4943 -1.0437 54.3259 0.0000 5.8274 0.0000
# 2 -1.0437 31.8994 -1.0437 0.0000 -1.7830 0.0000
# 3 54.3259 -1.0437 151.3970 0.0000 -7.7985 0.0000
# 4 0.0000 0.0000 0.0000 16.3809 0.0000 -1.6164
# 5 5.8274 -1.7830 -7.7985 0.0000 22.3904 0.0000
# 6 0.0000 0.0000 0.0000 -1.6164 0.0000 9.0601
#
#
#
# Elastic Compliance Matrix: (Units=1/GPa)
#
#
# Indices 1 2 3 4 5 6 
#
# 1 0.025896 -0.000042 -0.009816 0.000000 -0.010162 0.000000
# 2 -0.000042 0.031507 0.000369 0.000000 0.002648 0.000000
# 3 -0.009816 0.000369 0.010451 0.000000 0.006224 0.000000
# 4 0.000000 0.000000 0.000000 0.062141 0.000000 0.011087
# 5 -0.010162 0.002648 0.006224 0.000000 0.049685 0.000000
# 6 0.000000 0.000000 0.000000 0.011087 0.000000 0.112352
#
#
# Mechanical properties :
#
#
# Convention : Reuss Voigt Hill
#
# Bulk Modulus (GPa) = 20.46029 38.80751 29.63390
# Shear Modulus (GPa) = 15.27644 22.40309 18.83977
#
# Velocity S-wave (km/s) = 2.94979 3.57219 3.27581
# Velocity P-wave (km/s) = 4.82241 6.25447 5.58453
#
# Compressibility (1/GPa) = 0.04887516
#
# Stress axis : x y z
#
# Youngs Moduli (GPa) = 38.61673 31.73871 95.68908
#
# Poissons Ratio (x) = 0.00133 0.93927
# Poissons Ratio (y) = 0.00162 -0.03528
# Poissons Ratio (z) = 0.37906 -0.01170
#
# Static dielectric constant tensor:
#      x y z
#    x 1.578330 0.000000 -0.018250 
#    y 0.000000 1.646870 0.000000 
#    z -0.018250 0.000000 1.655330 
# 
# From -- ./inp_files/243224.got.cif
#   From: 2010.05.17/outbox.cif.g08.bks.cpg/sg12_122_cif.got.tgz:243224.got - 2010.06.03 13:09:07.
