data_PCOD9171517
_publ_section_title
;
Structure prediction by ZEFSAII (Michael W. Deem and Ramdas Pophale) SiO2 
 PCOD9171517
Probable space group: C 2/M
;
_chemical_formula_sum "Si O2"
_cell_formula_units_Z 64
_cell_length_a 30.752427
_cell_length_b 7.570709
_cell_length_c 31.778503
_cell_angle_alpha 90.000000
_cell_angle_beta 29.320053
_cell_angle_gamma 90.000000
_cell_volume 3623.001593
_symmetry_space_group_name_H-M "C 2/M"
_symmetry_group_IT_number 12
_symmetry_cell_setting 'monoclinic'
loop_
_space_group_symop_operation_xyz
x,y,z
-x,y,-z
-x,-y,-z
x,-y,z
1/2+x,1/2+y,z
1/2-x,1/2+y,-z
1/2-x,1/2-y,-z
1/2+x,1/2-y,z
loop_
_atom_site_type_symbol
_atom_site_label
_atom_site_fract_x
_atom_site_fract_y
_atom_site_fract_z
Si Si1 0.917223 0.210180 0.793465
Si Si2 0.759572 0.292272 0.422577
Si Si3 0.111321 0.215239 0.609209
Si Si4 0.083409 0.787733 0.875579
Si Si5 0.622813 0.210266 0.749955
Si Si6 0.069008 0.713678 0.119493
Si Si7 0.727319 0.208501 0.926689
Si Si8 0.882850 0.213310 0.059902
O O1 0.918692 0.238599 0.842329
O O2 0.825124 0.282851 0.852719
O O3 0.010145 0.278632 0.696421
O O4 0.918417 0.000000 0.784536
O O5 0.742409 0.500000 0.430553
O O6 0.836966 0.272494 0.392239
O O7 0.670895 0.220703 0.519708
O O8 0.799654 0.217766 0.345565
O O9 0.112202 0.000000 0.608596
O O10 0.131939 0.737625 0.791890
O O11 0.124326 0.727862 0.885513
O O12 0.080445 0.000000 0.879663
O O13 0.980401 0.726252 0.961591
O O14 0.526102 0.279789 0.817198
O O15 0.620280 0.000000 0.744697
O O16 0.067879 0.500000 0.117317
O O17 0.150566 0.780875 0.022283
O O18 0.692056 0.228388 0.909147
O O19 0.732669 0.000000 0.931631
O O20 0.883522 0.000000 0.059075
#
# Coordination Sequence:
#
# PCOD9171517 Si02
#       8
#     8   8   8   8   8   8   8   8
#     4  10  20  31  44  63  87 118 155 186 212 247
#     4   9  17  29  44  62  87 114 143 180 218 258
#     4   9  17  29  44  62  84 114 148 182 218 251
#     4   9  18  31  47  66  89 113 142 180 218 260
#     4  10  18  28  44  67  91 117 144 174 217 264
#     4  10  19  30  42  61  91 122 150 178 210 251
#     4  10  20  32  44  62  89 119 151 183 213 251
#     4   9  18  32  47  65  87 114 146 179 217 259
#
# _framework density 17.664911
#
# number of rings (size 3 to 8) (size 9 to 14) (size 15 to 20)
#    0.000    2.500    2.500    1.125    0.000    2.500 
#    0.000    1.250    0.000    0.000    0.000    0.875 
#    0.000    7.000    0.000    0.000    0.000    0.000 
#
# Total GULP energy -178448.558549 kJ/mol
# GULP energy per Si atom -5576.517455 kJ/mol
# Density = 1.762470 g / cm^3
# Si number density = 17.664911 Si / 1000 Ang^3
#
#
#
# Elastic Constant Matrix: (Units=GPa)
#
#
# Indices 1 2 3 4 5 6 
#
# 1 93.1846 -10.7602 83.6949 -0.0086 8.7376 0.0070
# 2 -10.7602 34.8440 -0.2188 -0.0298 -3.6387 0.0524
# 3 83.6949 -0.2188 150.9289 0.0136 15.6851 -0.0092
# 4 -0.0086 -0.0298 0.0136 5.3557 -0.0056 5.7770
# 5 8.7376 -3.6387 15.6851 -0.0056 28.0704 0.0055
# 6 0.0070 0.0524 -0.0092 5.7770 0.0055 18.9652
#
#
#
# Elastic Compliance Matrix: (Units=1/GPa)
#
#
# Indices 1 2 3 4 5 6 
#
# 1 0.022999 0.007120 -0.012841 0.000220 0.000939 -0.000102
# 2 0.007120 0.031318 -0.004347 0.000449 0.004273 -0.000229
# 3 -0.012841 -0.004347 0.014208 -0.000168 -0.004506 0.000076
# 4 0.000220 0.000449 -0.000168 0.278093 0.000156 -0.084711
# 5 0.000939 0.004273 -0.004506 0.000156 0.038404 -0.000073
# 6 -0.000102 -0.000229 0.000076 -0.084711 -0.000073 0.078533
#
#
# Mechanical properties :
#
#
# Convention : Reuss Voigt Hill
#
# Bulk Modulus (GPa) = 20.66580 47.15438 33.91009
# Shear Modulus (GPa) = 10.00361 24.22771 17.11566
#
# Velocity S-wave (km/s) = 2.38228 3.70742 3.11610
# Velocity P-wave (km/s) = 4.39218 6.71404 5.67316
#
# Compressibility (1/GPa) = 0.04838912
#
# Stress axis : x y z
#
# Youngs Moduli (GPa) = 43.48085 31.93084 70.38167
#
# Poissons Ratio (x) = -0.22735 0.90376
# Poissons Ratio (y) = -0.30959 0.30595
# Poissons Ratio (z) = 0.55833 0.13880
#
# Static dielectric constant tensor:
#      x y z
#    x 1.577530 -0.000020 0.005430 
#    y -0.000020 1.650920 0.000020 
#    z 0.005430 0.000020 1.636740 
# 
# From -- ./inp_files/248233.got.cif
#   From: 2010.05.17/outbox.cif.g08.bks.cpg/sg12_125_cif.got.tgz:248233.got - 2010.06.03 13:09:07.
