data_PCOD9171623
_publ_section_title
;
Structure prediction by ZEFSAII (Michael W. Deem and Ramdas Pophale) SiO2 
 PCOD9171623
Probable space group: C 2/M
;
_chemical_formula_sum "Si O2"
_cell_formula_units_Z 40
_cell_length_a 26.262181
_cell_length_b 8.630738
_cell_length_c 25.851803
_cell_angle_alpha 90.000000
_cell_angle_beta 23.352657
_cell_angle_gamma 90.000000
_cell_volume 2322.691968
_symmetry_space_group_name_H-M "C 2/M"
_symmetry_group_IT_number 12
_symmetry_cell_setting 'monoclinic'
loop_
_space_group_symop_operation_xyz
x,y,z
-x,y,-z
-x,-y,-z
x,-y,z
1/2+x,1/2+y,z
1/2-x,1/2+y,-z
1/2-x,1/2-y,-z
1/2+x,1/2-y,z
loop_
_atom_site_type_symbol
_atom_site_label
_atom_site_fract_x
_atom_site_fract_y
_atom_site_fract_z
Si Si1 0.607387 0.686731 0.857995
Si Si2 0.376096 0.686911 0.647247
Si Si3 0.168928 0.186180 0.193615
Si Si4 0.451989 0.313936 0.902868
Si Si5 0.107874 0.315196 0.145942
O O1 0.614576 0.500000 0.853799
O O2 0.744397 0.754517 0.745032
O O3 0.556245 0.729438 0.848816
O O4 0.500000 0.736790 0.000000
O O5 0.500000 0.742008 0.500000
O O6 0.375046 0.500000 0.647033
O O7 0.378675 0.732844 0.705206
O O8 0.084017 0.252269 0.225713
O O9 0.173000 0.000000 0.185970
O O10 0.313767 0.250215 0.050954
O O11 0.443153 0.500000 0.908195
O O12 0.476711 0.246738 0.822692
O O13 0.110714 0.500000 0.143196
O O14 0.250000 0.250000 0.000000
#
# Coordination Sequence:
#
# PCOD9171623 Si02
#       5
#     8   8   8   8   8
#     4  10  20  34  53  78 106 136 171 214 261 306
#     4  10  22  37  53  76 106 140 176 213 256 308
#     4  10  18  30  49  72 101 135 171 208 254 303
#     4  10  18  30  49  74 105 132 165 210 256 304
#     4  10  18  28  45  71 102 132 167 208 255 303
#
# _framework density 17.221397
#
# number of rings (size 3 to 8) (size 9 to 14) (size 15 to 20)
#    0.000    2.000    2.000    5.400    0.000    3.200 
#    0.000    0.000    0.000    1.200    0.000    0.000 
#    0.000    0.000    0.000    0.000    0.000    0.000 
#
# Total GULP energy -111555.038466 kJ/mol
# GULP energy per Si atom -5577.751923 kJ/mol
# Density = 1.718220 g / cm^3
# Si number density = 17.221397 Si / 1000 Ang^3
#
#
#
# Elastic Constant Matrix: (Units=GPa)
#
#
# Indices 1 2 3 4 5 6 
#
# 1 211.0121 55.6611 72.8277 -0.0010 14.1654 0.0006
# 2 55.6611 63.4137 20.2328 -0.0020 6.9166 0.0017
# 3 72.8277 20.2328 89.2804 -0.0012 5.0750 0.0014
# 4 -0.0010 -0.0020 -0.0012 15.3859 0.0010 -3.2379
# 5 14.1654 6.9166 5.0750 0.0010 17.0016 -0.0008
# 6 0.0006 0.0017 0.0014 -3.2379 -0.0008 29.6658
#
#
#
# Elastic Compliance Matrix: (Units=1/GPa)
#
#
# Indices 1 2 3 4 5 6 
#
# 1 0.008119 -0.005099 -0.005290 0.000000 -0.003111 0.000000
# 2 -0.005099 0.020796 -0.000319 0.000002 -0.004117 -0.000001
# 3 -0.005290 -0.000319 0.015595 0.000001 -0.000117 -0.000001
# 4 0.000000 0.000002 0.000001 0.066522 -0.000005 0.007261
# 5 -0.003111 -0.004117 -0.000117 -0.000005 0.063120 0.000001
# 6 0.000000 -0.000001 -0.000001 0.007261 0.000001 0.034501
#
#
# Mechanical properties :
#
#
# Convention : Reuss Voigt Hill
#
# Bulk Modulus (GPa) = 43.30420 73.46102 58.38261
# Shear Modulus (GPa) = 21.02886 26.74296 23.88591
#
# Velocity S-wave (km/s) = 3.49820 3.94495 3.72827
# Velocity P-wave (km/s) = 6.44335 7.96866 7.24625
#
# Compressibility (1/GPa) = 0.02309245
#
# Stress axis : x y z
#
# Youngs Moduli (GPa) = 123.17122 48.08610 64.12264
#
# Poissons Ratio (x) = 0.24519 0.33923
# Poissons Ratio (y) = 0.62805 0.02048
# Poissons Ratio (z) = 0.65161 0.01536
#
# Static dielectric constant tensor:
#      x y z
#    x 1.633010 0.000000 0.021570 
#    y 0.000000 1.582860 0.000000 
#    z 0.021570 0.000000 1.551770 
# 
# From -- ./inp_files/101018.got.cif
#   From: 2010.05.17/outbox.cif.g08.bks.cpg/sg12_51_cif.got.tgz:101018.got - 2010.06.03 13:09:07.
