data_PCOD9171303
_publ_section_title
;
Structure prediction by ZEFSAII (Michael W. Deem and Ramdas Pophale) SiO2 
 PCOD9171303
Probable space group: C 2/M
;
_chemical_formula_sum "Si O2"
_cell_formula_units_Z 56
_cell_length_a 19.886739
_cell_length_b 7.655703
_cell_length_c 18.543482
_cell_angle_alpha 90.000000
_cell_angle_beta 97.009152
_cell_angle_gamma 90.000000
_cell_volume 2802.090285
_symmetry_space_group_name_H-M "C 2/M"
_symmetry_group_IT_number 12
_symmetry_cell_setting 'monoclinic'
loop_
_space_group_symop_operation_xyz
x,y,z
-x,y,-z
-x,-y,-z
x,-y,z
1/2+x,1/2+y,z
1/2-x,1/2+y,-z
1/2-x,1/2-y,-z
1/2+x,1/2-y,z
loop_
_atom_site_type_symbol
_atom_site_label
_atom_site_fract_x
_atom_site_fract_y
_atom_site_fract_z
Si Si1 0.843217 0.292279 0.556721
Si Si2 0.056311 0.703223 0.806752
Si Si3 0.939890 0.791602 0.691434
Si Si4 0.036298 0.798443 0.074187
Si Si5 0.195675 0.714749 0.762638
Si Si6 0.800609 0.296755 0.398982
Si Si7 0.346543 0.713663 0.812935
O O1 0.831543 0.500000 0.552677
O O2 0.911208 0.258129 0.609917
O O3 0.839153 0.223500 0.474172
O O4 0.779075 0.214072 0.591273
O O5 0.060314 0.500000 0.827340
O O6 0.131211 0.770670 0.800476
O O7 0.011056 0.718359 0.728412
O O8 0.015279 0.795065 0.865169
O O9 0.884264 0.733162 0.743863
O O10 0.944393 0.000000 0.695838
O O11 0.106137 0.723193 0.115346
O O12 0.051573 0.000000 0.057280
O O13 0.000000 0.717281 0.000000
O O14 0.195410 0.500000 0.761537
O O15 0.188648 0.777456 0.679039
O O16 0.268855 0.769078 0.801854
O O17 0.819820 0.500000 0.396428
O O18 0.347554 0.500000 0.813761
#
# Coordination Sequence:
#
# PCOD9171303 Si02
#       7
#     8   8   8   8   8   8   8
#     4  10  18  27  45  74 100 124 167 222 259 284
#     4  10  20  32  51  76 101 125 161 213 255 290
#     4  10  18  32  52  69  95 135 172 205 247 305
#     4   9  18  34  55  77 101 132 167 198 237 299
#     4   9  16  30  50  72  97 131 170 204 248 303
#     4   9  17  30  47  68  98 135 170 206 254 307
#     4   8  14  27  51  73  89 124 171 201 228 286
#
# _framework density 19.985078999999999
#
# number of rings (size 3 to 8) (size 9 to 14) (size 15 to 20)
#    0.000    2.714    1.429    2.143    0.000    0.857 
#    0.000    2.857    0.000    4.286    0.000    0.000 
#    0.000    0.000    0.000    0.000    0.000    0.000 
#
# Total GULP energy -156115.127088 kJ/mol
# GULP energy per Si atom -5575.540253 kJ/mol
# Density = 1.993959 g / cm^3
# Si number density = 19.985079 Si / 1000 Ang^3
#
#
#
# Elastic Constant Matrix: (Units=GPa)
#
#
# Indices 1 2 3 4 5 6 
#
# 1 118.0070 -6.0014 44.3464 0.0000 22.0016 0.0000
# 2 -6.0014 38.7403 -5.0182 0.0000 1.1127 0.0000
# 3 44.3464 -5.0182 114.2011 0.0000 33.3725 0.0000
# 4 0.0000 0.0000 0.0000 8.8050 0.0000 0.8327
# 5 22.0016 1.1127 33.3725 0.0000 24.0366 0.0000
# 6 0.0000 0.0000 0.0000 0.8327 0.0000 12.8122
#
#
#
# Elastic Compliance Matrix: (Units=1/GPa)
#
#
# Indices 1 2 3 4 5 6 
#
# 1 0.010614 0.001586 -0.002005 0.000000 -0.007006 0.000000
# 2 0.001586 0.026515 0.002242 0.000000 -0.005791 0.000000
# 3 -0.002005 0.002242 0.015359 0.000000 -0.019594 0.000000
# 4 0.000000 0.000000 0.000000 0.114274 0.000000 -0.007427
# 5 -0.007006 -0.005791 -0.019594 0.000000 0.075488 0.000000
# 6 0.000000 0.000000 0.000000 -0.007427 0.000000 0.078533
#
#
# Mechanical properties :
#
#
# Convention : Reuss Voigt Hill
#
# Bulk Modulus (GPa) = 17.81442 37.51133 27.66287
# Shear Modulus (GPa) = 14.88762 24.97219 19.92991
#
# Velocity S-wave (km/s) = 2.73231 3.53872 3.16134
# Velocity P-wave (km/s) = 4.34595 5.95879 5.21509
#
# Compressibility (1/GPa) = 0.05613429
#
# Stress axis : x y z
#
# Youngs Moduli (GPa) = 94.21287 37.71405 65.10738
#
# Poissons Ratio (x) = -0.05981 0.13053
# Poissons Ratio (y) = -0.14940 -0.14595
# Poissons Ratio (z) = 0.18888 -0.08455
#
# Static dielectric constant tensor:
#      x y z
#    x 1.684530 0.000000 0.029300 
#    y 0.000000 1.749320 0.000000 
#    z 0.029300 0.000000 1.723770 
# 
# From -- ./inp_files/280384.got.cif
#   From: 2010.05.17/outbox.cif.g08.bks.cpg/sg12_141_cif.got.tgz:280384.got - 2010.06.03 13:09:07.
