data_PCOD9171673
_publ_section_title
;
Structure prediction by ZEFSAII (Michael W. Deem and Ramdas Pophale) SiO2 
 PCOD9171673
Probable space group: C 2/M
;
_chemical_formula_sum "Si O2"
_cell_formula_units_Z 48
_cell_length_a 27.590633
_cell_length_b 9.175169
_cell_length_c 12.221161
_cell_angle_alpha 90.000000
_cell_angle_beta 106.927263
_cell_angle_gamma 90.000000
_cell_volume 2959.734099
_symmetry_space_group_name_H-M "C 2/M"
_symmetry_group_IT_number 12
_symmetry_cell_setting 'monoclinic'
loop_
_space_group_symop_operation_xyz
x,y,z
-x,y,-z
-x,-y,-z
x,-y,z
1/2+x,1/2+y,z
1/2-x,1/2+y,-z
1/2-x,1/2-y,-z
1/2+x,1/2-y,z
loop_
_atom_site_type_symbol
_atom_site_label
_atom_site_fract_x
_atom_site_fract_y
_atom_site_fract_z
Si Si1 0.695693 0.674645 0.958913
Si Si2 0.556700 0.177834 0.501617
Si Si3 0.039868 0.333219 0.889614
Si Si4 0.426224 0.826208 0.735699
Si Si5 0.884647 0.827226 0.907005
Si Si6 0.379439 0.169690 0.250937
O O1 0.699962 0.500000 0.955418
O O2 0.663862 0.736049 0.835038
O O3 0.750000 0.750000 0.000000
O O4 0.662815 0.711520 0.046176
O O5 0.500000 0.225419 0.500000
O O6 0.571421 0.223289 0.388799
O O7 0.598450 0.221179 0.618713
O O8 0.555253 0.000000 0.501441
O O9 0.043283 0.500000 0.933854
O O10 0.072756 0.327538 0.800430
O O11 0.982374 0.300561 0.821630
O O12 0.066559 0.227654 0.992584
O O13 0.387133 0.748642 0.790898
O O14 0.417603 0.000000 0.731232
O O15 0.885997 0.000000 0.895444
O O16 0.363162 0.000000 0.248768
#
# Coordination Sequence:
#
# PCOD9171673 Si02
#       6
#     8   8   8   8   8   8
#     4  10  21  37  56  75  95 121 159 209 260 304
#     4   9  15  27  48  74 103 136 173 205 230 270
#     4   9  16  27  45  69  97 131 169 202 231 275
#     4  10  18  28  46  71 100 135 171 201 228 273
#     4  10  21  33  45  67  99 129 158 199 252 300
#     4   9  16  29  51  76 102 131 164 203 245 285
#
# _framework density 16.217673000000001
#
# number of rings (size 3 to 8) (size 9 to 14) (size 15 to 20)
#    0.000    2.500    1.667    1.500    0.000    4.667 
#    0.000    0.833    0.000    2.000    0.000    0.000 
#    0.000    0.000    0.000    0.000    0.000    0.000 
#
# Total GULP energy -133797.734933 kJ/mol
# GULP energy per Si atom -5574.905622 kJ/mol
# Density = 1.618076 g / cm^3
# Si number density = 16.217673 Si / 1000 Ang^3
#
#
#
# Elastic Constant Matrix: (Units=GPa)
#
#
# Indices 1 2 3 4 5 6 
#
# 1 90.4462 51.1433 76.4658 0.0000 2.7803 0.0000
# 2 51.1433 38.9709 48.3982 0.0000 -2.6427 0.0000
# 3 76.4658 48.3982 131.1408 0.0000 -19.8445 0.0000
# 4 0.0000 0.0000 0.0000 10.2891 0.0000 -6.8349
# 5 2.7803 -2.6427 -19.8445 0.0000 21.0084 0.0000
# 6 0.0000 0.0000 0.0000 -6.8349 0.0000 19.0059
#
#
#
# Elastic Compliance Matrix: (Units=1/GPa)
#
#
# Indices 1 2 3 4 5 6 
#
# 1 0.062873 -0.060660 -0.019470 0.000000 -0.034343 0.000000
# 2 -0.060660 0.108795 -0.001746 0.000000 0.020065 0.000000
# 3 -0.019470 -0.001746 0.023311 0.000000 0.024377 0.000000
# 4 0.000000 0.000000 0.000000 0.127695 0.000000 0.045921
# 5 -0.034343 0.020065 0.024377 0.000000 0.077695 0.000000
# 6 0.000000 0.000000 0.000000 0.045921 0.000000 0.069130
#
#
# Mechanical properties :
#
#
# Convention : Reuss Voigt Hill
#
# Bulk Modulus (GPa) = 32.02235 68.06362 50.04299
# Shear Modulus (GPa) = 7.76807 15.69737 11.73272
#
# Velocity S-wave (km/s) = 2.19095 3.11451 2.69263
# Velocity P-wave (km/s) = 5.11748 7.41576 6.37111
#
# Compressibility (1/GPa) = 0.03122819
#
# Stress axis : x y z
#
# Youngs Moduli (GPa) = 15.90502 9.19156 42.89822
#
# Poissons Ratio (x) = 0.55756 0.83523
# Poissons Ratio (y) = 0.96480 0.07488
# Poissons Ratio (z) = 0.30967 0.01604
#
# Static dielectric constant tensor:
#      x y z
#    x 1.532390 0.000000 -0.024140 
#    y 0.000000 1.541480 0.000000 
#    z -0.024140 0.000000 1.557120 
# 
# From -- ./inp_files/172280.got.cif
#   From: 2010.05.17/outbox.cif.g08.bks.cpg/sg12_87_cif.got.tgz:172280.got - 2010.06.03 13:09:07.
