data_PCOD9171316
_publ_section_title
;
Structure prediction by ZEFSAII (Michael W. Deem and Ramdas Pophale) SiO2 
 PCOD9171316
Probable space group: C 2/M
;
_chemical_formula_sum "Si O2"
_cell_formula_units_Z 48
_cell_length_a 16.168058
_cell_length_b 28.707103
_cell_length_c 12.159074
_cell_angle_alpha 90.000000
_cell_angle_beta 150.622119
_cell_angle_gamma 90.000000
_cell_volume 2768.511929
_symmetry_space_group_name_H-M "C 2/M"
_symmetry_group_IT_number 12
_symmetry_cell_setting 'monoclinic'
loop_
_space_group_symop_operation_xyz
x,y,z
-x,y,-z
-x,-y,-z
x,-y,z
1/2+x,1/2+y,z
1/2-x,1/2+y,-z
1/2-x,1/2-y,-z
1/2+x,1/2-y,z
loop_
_atom_site_type_symbol
_atom_site_label
_atom_site_fract_x
_atom_site_fract_y
_atom_site_fract_z
Si Si1 0.614975 0.195871 0.738980
Si Si2 0.531618 0.118751 0.803144
Si Si3 0.514477 0.728927 0.810577
Si Si4 0.848390 0.447224 0.733714
Si Si5 0.306352 0.627700 0.294080
Si Si6 0.310592 0.805704 0.678242
O O1 0.500000 0.205511 0.500000
O O2 0.570424 0.144186 0.733510
O O3 0.566356 0.232947 0.778025
O O4 0.815258 0.203719 0.953143
O O5 0.425101 0.072283 0.707963
O O6 0.420751 0.156557 0.741382
O O7 0.708652 0.112856 0.071569
O O8 0.405897 0.757000 0.775353
O O9 0.374474 0.696748 0.590530
O O10 0.786699 0.500000 0.652437
O O11 0.719354 0.411136 0.640701
O O12 0.000000 0.446655 0.000000
O O13 0.500000 0.636418 0.500000
O O14 0.216967 0.674963 0.232166
#
# Coordination Sequence:
#
# PCOD9171316 Si02
#       6
#     8   8   8   8   8   8
#     4  10  20  32  46  66  92 121 157 199 233 264
#     4   9  18  31  45  66  93 122 152 184 231 282
#     4   9  19  32  46  65  89 122 162 195 228 266
#     4   8  15  29  48  69  93 120 148 181 229 288
#     4  10  18  27  46  70  95 122 149 188 236 279
#     4   9  17  31  46  64  92 123 156 189 227 276
#
# _framework density 17.337834000000001
#
# number of rings (size 3 to 8) (size 9 to 14) (size 15 to 20)
#    0.000    2.833    0.000    2.500    0.000    6.333 
#    0.000    6.667    0.000    0.500    0.000    0.000 
#    0.000   12.000    0.000    0.000    0.000    0.167 
#
# Total GULP energy -133626.374503 kJ/mol
# GULP energy per Si atom -5567.765604 kJ/mol
# Density = 1.729837 g / cm^3
# Si number density = 17.337834 Si / 1000 Ang^3
#
#
#
# Elastic Constant Matrix: (Units=GPa)
#
#
# Indices 1 2 3 4 5 6 
#
# 1 53.1807 22.2783 30.5194 0.0000 9.4232 0.0000
# 2 22.2783 54.3586 12.0246 0.0000 -1.2267 0.0000
# 3 30.5194 12.0246 87.8990 0.0000 10.4330 0.0000
# 4 0.0000 0.0000 0.0000 12.1054 0.0000 -1.9354
# 5 9.4232 -1.2267 10.4330 0.0000 25.2584 0.0000
# 6 0.0000 0.0000 0.0000 -1.9354 0.0000 17.2894
#
#
#
# Elastic Compliance Matrix: (Units=1/GPa)
#
#
# Indices 1 2 3 4 5 6 
#
# 1 0.029002 -0.010370 -0.007684 0.000000 -0.008150 0.000000
# 2 -0.010370 0.022785 -0.000112 0.000000 0.005022 0.000000
# 3 -0.007684 -0.000112 0.014428 0.000000 -0.003098 0.000000
# 4 0.000000 0.000000 0.000000 0.084113 0.000000 0.009416
# 5 -0.008150 0.005022 -0.003098 0.000000 0.044155 0.000000
# 6 0.000000 0.000000 0.000000 0.009416 0.000000 0.058893
#
#
# Mechanical properties :
#
#
# Convention : Reuss Voigt Hill
#
# Bulk Modulus (GPa) = 33.46562 36.12031 34.79297
# Shear Modulus (GPa) = 16.68516 19.63839 18.16178
#
# Velocity S-wave (km/s) = 3.10555 3.36920 3.24006
# Velocity P-wave (km/s) = 5.67479 6.00115 5.84025
#
# Compressibility (1/GPa) = 0.02988141
#
# Stress axis : x y z
#
# Youngs Moduli (GPa) = 34.48077 43.88920 69.31131
#
# Poissons Ratio (x) = 0.45514 0.53257
# Poissons Ratio (y) = 0.35757 0.00779
# Poissons Ratio (z) = 0.26494 0.00493
#
# Static dielectric constant tensor:
#      x y z
#    x 1.632160 0.000000 -0.000920 
#    y 0.000000 1.612060 0.000000 
#    z -0.000920 0.000000 1.587290 
# 
# From -- ./inp_files/150332.got.cif
#   From: 2010.05.17/outbox.cif.g08.bks.cpg/sg12_76_cif.got.tgz:150332.got - 2010.06.03 13:09:07.
