data_PCOD9171227
_publ_section_title
;
Structure prediction by ZEFSAII (Michael W. Deem and Ramdas Pophale) SiO2 
 PCOD9171227
Probable space group: C 2/M
;
_chemical_formula_sum "Si O2"
_cell_formula_units_Z 56
_cell_length_a 18.422988
_cell_length_b 11.569273
_cell_length_c 12.662426
_cell_angle_alpha 90.000000
_cell_angle_beta 66.043302
_cell_angle_gamma 90.000000
_cell_volume 2466.375555
_symmetry_space_group_name_H-M "C 2/M"
_symmetry_group_IT_number 12
_symmetry_cell_setting 'monoclinic'
loop_
_space_group_symop_operation_xyz
x,y,z
-x,y,-z
-x,-y,-z
x,-y,z
1/2+x,1/2+y,z
1/2-x,1/2+y,-z
1/2-x,1/2-y,-z
1/2+x,1/2-y,z
loop_
_atom_site_type_symbol
_atom_site_label
_atom_site_fract_x
_atom_site_fract_y
_atom_site_fract_z
Si Si1 0.406176 0.125945 0.077733
Si Si2 0.699465 0.627320 0.680610
Si Si3 0.323332 0.872882 0.353352
Si Si4 0.973565 0.630172 0.394170
Si Si5 0.014374 0.127249 0.731040
Si Si6 0.638713 0.307509 0.068530
Si Si7 0.219555 0.379043 0.140351
O O1 0.381502 0.134464 0.214953
O O2 0.377519 0.000000 0.058997
O O3 0.500000 0.130611 0.000000
O O4 0.370264 0.223069 0.025852
O O5 0.722556 0.500000 0.621752
O O6 0.724903 0.753465 0.622568
O O7 0.603229 0.629334 0.727105
O O8 0.732998 0.626728 0.778704
O O9 0.379466 0.871877 0.422968
O O10 0.284160 0.000000 0.366476
O O11 0.999304 0.500000 0.339341
O O12 0.996465 0.753743 0.328324
O O13 0.000000 0.634343 0.500000
O O14 0.944327 0.132531 0.858875
O O15 0.007141 0.000000 0.681183
O O16 0.663733 0.229050 0.152977
O O17 0.715314 0.379583 0.991198
O O18 0.174312 0.500000 0.166219
#
# Coordination Sequence:
#
# PCOD9171227 Si02
#       7
#     8   8   8   8   8   8   8
#     4  10  18  27  43  68 100 137 173 210 251 299
#     4   9  17  32  50  71 101 136 177 215 257 306
#     4   9  16  28  45  69  98 128 167 207 249 303
#     4   9  18  33  54  79 107 137 170 216 274 329
#     4  10  21  35  55  82 108 140 179 222 270 315
#     4  11  21  32  48  71 106 146 183 217 255 309
#     4  10  21  34  47  68 104 150 187 219 255 302
#
# _framework density 22.705383000000001
#
# number of rings (size 3 to 8) (size 9 to 14) (size 15 to 20)
#    0.000    2.286    1.429    2.571    0.000    2.571 
#    0.000    2.857    0.000    0.000    0.000    4.000 
#    0.000    2.286    0.000    0.000    0.000    0.000 
#
# Total GULP energy -155944.554566 kJ/mol
# GULP energy per Si atom -5569.448377 kJ/mol
# Density = 2.265370 g / cm^3
# Si number density = 22.705383 Si / 1000 Ang^3
#
#
#
# Elastic Constant Matrix: (Units=GPa)
#
#
# Indices 1 2 3 4 5 6 
#
# 1 46.5717 24.2857 37.7926 0.0000 6.8435 0.0000
# 2 24.2857 236.7578 32.5918 0.0000 9.5142 0.0000
# 3 37.7926 32.5918 73.6010 0.0000 11.9793 0.0000
# 4 0.0000 0.0000 0.0000 13.2731 0.0000 16.8530
# 5 6.8435 9.5142 11.9793 0.0000 32.8263 0.0000
# 6 0.0000 0.0000 0.0000 16.8530 0.0000 -2.0756
#
#
#
# Elastic Compliance Matrix: (Units=1/GPa)
#
#
# Indices 1 2 3 4 5 6 
#
# 1 0.037175 -0.001250 -0.018427 0.000000 -0.000663 0.000000
# 2 -0.001250 0.004552 -0.001277 0.000000 -0.000593 0.000000
# 3 -0.018427 -0.001277 0.024377 0.000000 -0.004684 0.000000
# 4 0.000000 0.000000 0.000000 0.006662 0.000000 0.054090
# 5 -0.000663 -0.000593 -0.004684 0.000000 0.032483 0.000000
# 6 0.000000 0.000000 0.000000 0.054090 0.000000 -0.042600
#
#
# Mechanical properties :
#
#
# Convention : Reuss Voigt Hill
#
# Bulk Modulus (GPa) = 41.33163 60.69675 51.01419
# Shear Modulus (GPa) = 44.39662 26.28878 35.34270
#
# Velocity S-wave (km/s) = 4.42671 3.40637 3.94963
# Velocity P-wave (km/s) = 6.66113 6.50088 6.58150
#
# Compressibility (1/GPa) = 0.02419455
#
# Stress axis : x y z
#
# Youngs Moduli (GPa) = 26.89979 219.70407 41.02281
#
# Poissons Ratio (x) = 0.27462 0.75593
# Poissons Ratio (y) = 0.03362 0.05240
# Poissons Ratio (z) = 0.49569 0.28062
#
# Static dielectric constant tensor:
#      x y z
#    x 1.818180 0.000000 -0.023540 
#    y 0.000000 1.939300 0.000000 
#    z -0.023540 0.000000 1.833450 
# 
# From -- ./inp_files/164962.got.cif
#   From: 2010.05.17/outbox.cif.g08.bks.cpg/sg12_83_cif.got.tgz:164962.got - 2010.06.03 13:09:07.
