data_PCOD9171657
_publ_section_title
;
Structure prediction by ZEFSAII (Michael W. Deem and Ramdas Pophale) SiO2 
 PCOD9171657
Probable space group: C 2/M
;
_chemical_formula_sum "Si O2"
_cell_formula_units_Z 64
_cell_length_a 24.562773
_cell_length_b 7.697052
_cell_length_c 17.735712
_cell_angle_alpha 90.000000
_cell_angle_beta 95.815975
_cell_angle_gamma 90.000000
_cell_volume 3335.870142
_symmetry_space_group_name_H-M "C 2/M"
_symmetry_group_IT_number 12
_symmetry_cell_setting 'monoclinic'
loop_
_space_group_symop_operation_xyz
x,y,z
-x,y,-z
-x,-y,-z
x,-y,z
1/2+x,1/2+y,z
1/2-x,1/2+y,-z
1/2-x,1/2-y,-z
1/2+x,1/2-y,z
loop_
_atom_site_type_symbol
_atom_site_label
_atom_site_fract_x
_atom_site_fract_y
_atom_site_fract_z
Si Si1 0.383432 0.802402 0.658068
Si Si2 0.626842 0.790492 0.096335
Si Si3 0.689542 0.208987 0.961358
Si Si4 0.959660 0.798356 0.803648
Si Si5 0.322720 0.209246 0.210942
Si Si6 0.440714 0.208625 0.271693
Si Si7 0.796334 0.708916 0.754894
Si Si8 0.982346 0.713493 0.580690
O O1 0.423918 0.805308 0.736719
O O2 0.328509 0.722539 0.685700
O O3 0.422115 0.725228 0.598823
O O4 0.370764 0.000000 0.633173
O O5 0.567606 0.738470 0.119719
O O6 0.671199 0.729490 0.165523
O O7 0.628714 0.000000 0.095657
O O8 0.646049 0.727224 0.017394
O O9 0.682310 0.275931 0.875649
O O10 0.684605 0.000000 0.957530
O O11 0.750000 0.250000 0.000000
O O12 0.022321 0.752582 0.796112
O O13 0.951750 0.000000 0.785259
O O14 0.379074 0.273997 0.255219
O O15 0.267164 0.250731 0.246969
O O16 0.326262 0.000000 0.207888
O O17 0.474160 0.270813 0.349670
O O18 0.438835 0.000000 0.276918
O O19 0.802317 0.500000 0.754587
O O20 0.981078 0.500000 0.582118
O O21 0.000000 0.766753 0.500000
#
# Coordination Sequence:
#
# PCOD9171657 Si02
#       8
#     8   8   8   8   8   8   8   8
#     4   8  15  28  45  68  97 121 147 186 229 271
#     4   9  17  30  46  64  89 120 152 192 238 274
#     4  10  19  31  46  66  91 119 156 196 234 272
#     4  10  18  28  46  69  89 116 155 194 229 271
#     4  10  20  31  46  67  91 122 156 190 230 274
#     4   9  18  33  48  66  95 123 149 186 230 277
#     4   9  16  27  44  65  90 122 153 187 230 267
#     4   8  13  25  50  76  91 112 151 192 223 260
#
# _framework density 19.185397999999999
#
# number of rings (size 3 to 8) (size 9 to 14) (size 15 to 20)
#    0.000    2.875    1.250    2.625    0.000    3.000 
#    0.000    0.625    0.000   10.500    0.000    0.000 
#    0.000    0.000    0.000    0.000    0.000    1.000 
#
# Total GULP energy -178286.511093 kJ/mol
# GULP energy per Si atom -5571.453472 kJ/mol
# Density = 1.914173 g / cm^3
# Si number density = 19.185398 Si / 1000 Ang^3
#
#
#
# Elastic Constant Matrix: (Units=GPa)
#
#
# Indices 1 2 3 4 5 6 
#
# 1 169.2951 1.0936 80.7357 0.0000 -36.7842 0.0000
# 2 1.0936 36.9499 4.5338 0.0000 1.0606 0.0000
# 3 80.7357 4.5338 102.9542 0.0000 -38.8704 0.0000
# 4 0.0000 0.0000 0.0000 2.2005 0.0000 -2.7335
# 5 -36.7842 1.0606 -38.8704 0.0000 35.5085 0.0000
# 6 0.0000 0.0000 0.0000 -2.7335 0.0000 19.8700
#
#
#
# Elastic Compliance Matrix: (Units=1/GPa)
#
#
# Indices 1 2 3 4 5 6 
#
# 1 0.009615 0.000429 -0.006482 0.000000 0.002852 0.000000
# 2 0.000429 0.027506 -0.002881 0.000000 -0.003531 0.000000
# 3 -0.006482 -0.002881 0.021170 0.000000 0.016545 0.000000
# 4 0.000000 0.000000 0.000000 0.548119 0.000000 0.075405
# 5 0.002852 -0.003531 0.016545 0.000000 0.049333 0.000000
# 6 0.000000 0.000000 0.000000 0.075405 0.000000 0.060701
#
#
# Mechanical properties :
#
#
# Convention : Reuss Voigt Hill
#
# Bulk Modulus (GPa) = 24.73852 53.54726 39.14289
# Shear Modulus (GPa) = 6.68640 26.37153 16.52897
#
# Velocity S-wave (km/s) = 1.86888 3.71153 2.93838
# Velocity P-wave (km/s) = 4.19278 6.80722 5.65322
#
# Compressibility (1/GPa) = 0.04042279
#
# Stress axis : x y z
#
# Youngs Moduli (GPa) = 104.00395 36.35603 47.23707
#
# Poissons Ratio (x) = -0.01559 0.30620
# Poissons Ratio (y) = -0.04461 0.13607
# Poissons Ratio (z) = 0.67418 0.10473
#
# Static dielectric constant tensor:
#      x y z
#    x 1.687570 0.000000 -0.040490 
#    y 0.000000 1.720800 0.000000 
#    z -0.040490 0.000000 1.669560 
# 
# From -- ./inp_files/287635.got.cif
#   From: 2010.05.17/outbox.cif.g08.bks.cpg/sg12_144_cif.got.tgz:287635.got - 2010.06.03 13:09:07.
