data_PCOD9171708
_publ_section_title
;
Structure prediction by ZEFSAII (Michael W. Deem and Ramdas Pophale) SiO2 
 PCOD9171708
Probable space group: C 2/M
;
_chemical_formula_sum "Si O2"
_cell_formula_units_Z 60
_cell_length_a 32.188260
_cell_length_b 18.842999
_cell_length_c 12.334284
_cell_angle_alpha 90.000000
_cell_angle_beta 28.370993
_cell_angle_gamma 90.000000
_cell_volume 3554.827537
_symmetry_space_group_name_H-M "C 2/M"
_symmetry_group_IT_number 12
_symmetry_cell_setting 'monoclinic'
loop_
_space_group_symop_operation_xyz
x,y,z
-x,y,-z
-x,-y,-z
x,-y,z
1/2+x,1/2+y,z
1/2-x,1/2+y,-z
1/2-x,1/2-y,-z
1/2+x,1/2-y,z
loop_
_atom_site_type_symbol
_atom_site_label
_atom_site_fract_x
_atom_site_fract_y
_atom_site_fract_z
Si Si1 0.669309 0.582324 0.238420
Si Si2 0.217192 0.578186 0.356852
Si Si3 0.244500 0.775049 0.635230
Si Si4 0.137751 0.778616 0.444369
Si Si5 0.446901 0.725344 0.820259
Si Si6 0.000000 0.322167 0.500000
Si Si7 0.657788 0.137020 0.277387
Si Si8 0.411264 0.422494 0.806245
O O1 0.670893 0.500000 0.270382
O O2 0.649453 0.642299 0.372070
O O3 0.602025 0.587493 0.291568
O O4 0.762544 0.603953 0.972207
O O5 0.198270 0.500000 0.444468
O O6 0.224753 0.643012 0.422341
O O7 0.153215 0.597999 0.404191
O O8 0.312578 0.576175 0.080883
O O9 0.250000 0.750000 0.500000
O O10 0.308616 0.732847 0.569230
O O11 0.145326 0.766702 0.907582
O O12 0.173054 0.719796 0.276374
O O13 0.034384 0.760741 0.688793
O O14 0.452073 0.773220 0.700003
O O15 0.453637 0.644380 0.764969
O O16 0.071521 0.365537 0.402929
O O17 0.449956 0.500000 0.740374
#
# Coordination Sequence:
#
# PCOD9171708 Si02
#       8
#     8   8   8   8   8   4   8   8
#     4  10  18  29  46  72 107 142 168 199 246 305
#     4   8  15  30  50  72  94 123 164 208 248 292
#     4  10  21  37  56  75  97 131 175 217 257 299
#     4  10  20  32  49  73 100 133 171 214 255 296
#     4  10  19  31  50  77 105 132 167 208 251 302
#     4  10  18  28  46  74 104 136 166 206 254 302
#     4   9  16  28  47  71 101 137 173 203 244 301
#     4   8  14  25  44  69 101 135 162 189 234 299
#
# _framework density 16.878456
#
# number of rings (size 3 to 8) (size 9 to 14) (size 15 to 20)
#    0.000    2.667    0.000    4.800    0.000    1.067 
#    0.000    3.667    0.000    0.000    0.000   17.733 
#    0.000    0.000    0.000    0.000    0.000    0.000 
#
# Total GULP energy -167198.534374 kJ/mol
# GULP energy per Si atom -5573.284479 kJ/mol
# Density = 1.684004 g / cm^3
# Si number density = 16.878456 Si / 1000 Ang^3
#
#
#
# Elastic Constant Matrix: (Units=GPa)
#
#
# Indices 1 2 3 4 5 6 
#
# 1 117.2040 52.5887 52.2617 0.0000 -5.4739 0.0000
# 2 52.5887 106.6186 33.1054 0.0000 -0.3529 0.0000
# 3 52.2617 33.1054 65.2904 0.0000 -3.5298 0.0000
# 4 0.0000 0.0000 0.0000 17.8760 0.0000 -3.3564
# 5 -5.4739 -0.3529 -3.5298 0.0000 19.4967 0.0000
# 6 0.0000 0.0000 0.0000 -3.3564 0.0000 16.0571
#
#
#
# Elastic Compliance Matrix: (Units=1/GPa)
#
#
# Indices 1 2 3 4 5 6 
#
# 1 0.014857 -0.004353 -0.009558 0.000000 0.002362 0.000000
# 2 -0.004353 0.012420 -0.002896 0.000000 -0.001522 0.000000
# 3 -0.009558 -0.002896 0.024527 0.000000 0.001705 0.000000
# 4 0.000000 0.000000 0.000000 0.058226 0.000000 0.012171
# 5 0.002362 -0.001522 0.001705 0.000000 0.052235 0.000000
# 6 0.000000 0.000000 0.000000 0.012171 0.000000 0.064822
#
#
# Mechanical properties :
#
#
# Convention : Reuss Voigt Hill
#
# Bulk Modulus (GPa) = 54.96875 62.78052 58.87464
# Shear Modulus (GPa) = 18.74310 20.76309 19.75310
#
# Velocity S-wave (km/s) = 3.33599 3.51116 3.42470
# Velocity P-wave (km/s) = 6.89033 7.32899 7.11304
#
# Compressibility (1/GPa) = 0.01819215
#
# Stress axis : x y z
#
# Youngs Moduli (GPa) = 67.30665 80.51343 40.77104
#
# Poissons Ratio (x) = 0.35045 0.38968
# Poissons Ratio (y) = 0.29297 0.11807
# Poissons Ratio (z) = 0.64331 0.23315
#
# Static dielectric constant tensor:
#      x y z
#    x 1.551680 0.000000 -0.033430 
#    y 0.000000 1.596660 0.000000 
#    z -0.033430 0.000000 1.592820 
# 
# From -- ./inp_files/189935.got.cif
#   From: 2010.05.17/outbox.cif.g08.bks.cpg/sg12_95_cif.got.tgz:189935.got - 2010.06.03 13:09:07.
