data_PCOD9171772
_publ_section_title
;
Structure prediction by ZEFSAII (Michael W. Deem and Ramdas Pophale) SiO2 
 PCOD9171772
Probable space group: C 2/M
;
_chemical_formula_sum "Si O2"
_cell_formula_units_Z 42
_cell_length_a 9.272018
_cell_length_b 29.915246
_cell_length_c 6.589039
_cell_angle_alpha 90.000000
_cell_angle_beta 129.128243
_cell_angle_gamma 90.000000
_cell_volume 1417.759451
_symmetry_space_group_name_H-M "C 2/M"
_symmetry_group_IT_number 12
_symmetry_cell_setting 'monoclinic'
loop_
_space_group_symop_operation_xyz
x,y,z
-x,y,-z
-x,-y,-z
x,-y,z
1/2+x,1/2+y,z
1/2-x,1/2+y,-z
1/2-x,1/2-y,-z
1/2+x,1/2-y,z
loop_
_atom_site_type_symbol
_atom_site_label
_atom_site_fract_x
_atom_site_fract_y
_atom_site_fract_z
Si Si1 0.767684 0.432313 0.111148
Si Si2 0.220074 0.261569 0.236200
Si Si3 0.324579 0.950657 0.642756
Si Si4 0.796922 0.644084 0.720944
Si Si5 0.776683 0.166460 0.809417
Si Si6 0.500000 0.500000 0.000000
O O1 0.799306 0.446111 0.376089
O O2 0.755598 0.378730 0.093631
O O3 0.949132 0.447526 0.151040
O O4 0.583595 0.460732 0.918531
O O5 0.250000 0.250000 0.500000
O O6 0.300989 0.311467 0.277076
O O7 0.294983 0.216216 0.196610
O O8 0.000000 0.263632 0.000000
O O9 0.230664 0.907228 0.660684
O O10 0.263082 0.000000 0.644933
O O11 0.805213 0.654947 0.486174
O O12 0.000000 0.644046 0.000000
O O13 0.000000 0.170077 0.000000
#
# Coordination Sequence:
#
# PCOD9171772 Si02
#       6
#     8   8   8   8   8   2
#     4  10  18  28  47  76 100 124 157 211 255 289
#     4   8  14  26  43  66  92 118 160 201 237 277
#     4  10  18  31  45  69 105 130 161 205 245 284
#     4   9  18  30  47  68  97 135 166 193 237 297
#     4   9  16  27  49  75  91 117 165 209 245 281
#     4  12  16  26  48  76 102 122 156 202 270 288
#
# _framework density 29.624210000000001
#
# number of rings (size 3 to 8) (size 9 to 14) (size 15 to 20)
#    0.000    2.667    2.857    0.571    0.000    0.381 
#    0.000    0.000    0.000   11.429    0.000   17.333 
#    0.000    0.000    0.000    0.000    0.000    0.000 
#
# Total GULP energy -117359.542212 kJ/mol
# GULP energy per Si atom -5588.549629 kJ/mol
# Density = 2.955678 g / cm^3
# Si number density = 29.624210 Si / 1000 Ang^3
#
#
#
# Elastic Constant Matrix: (Units=GPa)
#
#
# Indices 1 2 3 4 5 6 
#
# 1 132.6583 63.2211 48.1767 0.0000 -0.6788 0.0000
# 2 63.2211 407.6926 38.9836 0.0000 -14.8206 0.0000
# 3 48.1767 38.9836 136.7004 0.0000 11.3385 0.0000
# 4 0.0000 0.0000 0.0000 54.5552 0.0000 -13.2957
# 5 -0.6788 -14.8206 11.3385 0.0000 48.7854 0.0000
# 6 0.0000 0.0000 0.0000 -13.2957 0.0000 32.5913
#
#
#
# Elastic Compliance Matrix: (Units=1/GPa)
#
#
# Indices 1 2 3 4 5 6 
#
# 1 0.009142 -0.001119 -0.002942 0.000000 0.000471 0.000000
# 2 -0.001119 0.002703 -0.000452 0.000000 0.000910 0.000000
# 3 -0.002942 -0.000452 0.008663 0.000000 -0.002192 0.000000
# 4 0.000000 0.000000 0.000000 0.020354 0.000000 0.008303
# 5 0.000471 0.000910 -0.002192 0.000000 0.021290 0.000000
# 6 0.000000 0.000000 0.000000 0.008303 0.000000 0.034070
#
#
# Mechanical properties :
#
#
# Convention : Reuss Voigt Hill
#
# Bulk Modulus (GPa) = 87.09413 108.64602 97.87007
# Shear Modulus (GPa) = 45.83985 62.29771 54.06878
#
# Velocity S-wave (km/s) = 3.93794 4.59075 4.27682
# Velocity P-wave (km/s) = 7.08096 8.05322 7.58269
#
# Compressibility (1/GPa) = 0.01148183
#
# Stress axis : x y z
#
# Youngs Moduli (GPa) = 109.38073 370.00075 115.43777
#
# Poissons Ratio (x) = 0.41414 0.33960
# Poissons Ratio (y) = 0.12243 0.05215
# Poissons Ratio (z) = 0.32178 0.16716
#
# Static dielectric constant tensor:
#      x y z
#    x 2.301590 0.000000 0.003870 
#    y 0.000000 2.323600 0.000000 
#    z 0.003870 0.000000 2.621720 
# 
# From -- ./inp_files/67969.got.cif
#   From: 2010.05.17/outbox.cif.g08.bks.cpg/sg12_34_cif.got.tgz:67969.got - 2010.06.03 13:09:07.
