data_PCOD9171071
_publ_section_title
;
Structure prediction by ZEFSAII (Michael W. Deem and Ramdas Pophale) SiO2 
 PCOD9171071
Probable space group: C 2/M
;
_chemical_formula_sum "Si O2"
_cell_formula_units_Z 56
_cell_length_a 31.462434
_cell_length_b 28.266013
_cell_length_c 5.322115
_cell_angle_alpha 90.000000
_cell_angle_beta 89.999781
_cell_angle_gamma 90.000000
_cell_volume 4733.050371
_symmetry_space_group_name_H-M "C 2/M"
_symmetry_group_IT_number 12
_symmetry_cell_setting 'monoclinic'
loop_
_space_group_symop_operation_xyz
x,y,z
-x,y,-z
-x,-y,-z
x,-y,z
1/2+x,1/2+y,z
1/2-x,1/2+y,-z
1/2-x,1/2-y,-z
1/2+x,1/2-y,z
loop_
_atom_site_type_symbol
_atom_site_label
_atom_site_fract_x
_atom_site_fract_y
_atom_site_fract_z
Si Si1 0.301513 0.556052 0.749994
Si Si2 0.279914 0.195266 0.749999
Si Si3 0.307115 0.757933 0.249999
Si Si4 0.139955 0.833670 0.750007
Si Si5 0.273466 0.396004 0.249995
Si Si6 0.387865 0.381741 0.749992
Si Si7 0.972269 0.944208 0.750001
O O1 0.307786 0.500000 0.749996
O O2 0.276810 0.573042 0.501144
O O3 0.347076 0.582933 0.749993
O O4 0.276810 0.573042 0.998845
O O5 0.304635 0.210661 0.500003
O O6 0.236135 0.226147 0.749999
O O7 0.265268 0.140912 0.750002
O O8 0.304635 0.210662 0.999992
O O9 0.345662 0.720790 0.250000
O O10 0.183962 0.863596 0.750005
O O11 0.115938 0.849736 0.498850
O O12 0.115939 0.849734 0.001173
O O13 0.430394 0.412448 0.749999
O O14 0.000000 0.935475 0.500000
O O15 0.960556 0.000000 0.750005
O O16 0.000000 0.935474 0.000000
#
# Coordination Sequence:
#
# PCOD9171071 Si02
#       7
#     8   8   8   8   8   8   8
#     4  10  18  27  38  50  66  87 112 141 173 208
#     4   9  15  23  35  48  67  88 106 129 153 186
#     4   9  15  23  35  51  67  86 106 124 153 190
#     4   9  17  26  38  54  70  85 104 129 159 205
#     4   9  17  26  35  50  67  86 111 135 162 196
#     4  10  18  29  41  53  69  86 105 135 175 211
#     4  10  20  32  44  56  68  84 110 141 173 214
#
# _framework density 11.831693
#
# number of rings (size 3 to 8) (size 9 to 14) (size 15 to 20)
#    0.000    2.571    0.000    3.429    0.000    6.857 
#    0.000    4.286    0.000    0.000    0.000    0.000 
#    0.000    0.000    0.000    0.000    0.000    0.000 
#
# Total GULP energy -156006.394276 kJ/mol
# GULP energy per Si atom -5571.656938 kJ/mol
# Density = 1.180476 g / cm^3
# Si number density = 11.831693 Si / 1000 Ang^3
#
#
#
# Elastic Constant Matrix: (Units=GPa)
#
#
# Indices 1 2 3 4 5 6 
#
# 1 47.0499 43.4460 45.6240 0.0000 0.0023 0.0000
# 2 43.4460 59.3915 52.6890 0.0000 0.0018 0.0000
# 3 45.6240 52.6890 141.0943 0.0000 0.0035 0.0000
# 4 0.0000 0.0000 0.0000 15.8837 0.0000 0.0004
# 5 0.0023 0.0018 0.0035 0.0000 8.7153 0.0000
# 6 0.0000 0.0000 0.0000 0.0004 0.0000 26.6602
#
#
#
# Elastic Compliance Matrix: (Units=1/GPa)
#
#
# Indices 1 2 3 4 5 6 
#
# 1 0.067857 -0.045121 -0.005093 0.000000 -0.000006 0.000000
# 2 -0.045121 0.055181 -0.006016 0.000000 0.000003 0.000000
# 3 -0.005093 -0.006016 0.010981 0.000000 -0.000002 0.000000
# 4 0.000000 0.000000 0.000000 0.062958 0.000000 -0.000001
# 5 -0.000006 0.000003 -0.000002 0.000000 0.114741 0.000000
# 6 0.000000 0.000000 0.000000 -0.000001 0.000000 0.037509
#
#
# Mechanical properties :
#
#
# Convention : Reuss Voigt Hill
#
# Bulk Modulus (GPa) = 46.38231 59.00597 52.69414
# Shear Modulus (GPa) = 10.66388 17.30362 13.98375
#
# Velocity S-wave (km/s) = 3.00542 3.82839 3.44159
# Velocity P-wave (km/s) = 7.16451 8.33795 7.77341
#
# Compressibility (1/GPa) = 0.02155995
#
# Stress axis : x y z
#
# Youngs Moduli (GPa) = 14.73691 18.12207 91.06739
#
# Poissons Ratio (x) = 0.81768 0.46377
# Poissons Ratio (y) = 0.66494 0.54789
# Poissons Ratio (z) = 0.07505 0.10903
#
# Static dielectric constant tensor:
#      x y z
#    x 1.348250 0.000000 0.000000 
#    y 0.000000 1.369430 0.000000 
#    z 0.000000 0.000000 1.398460 
# 
# From -- ./inp_files/25925.got.cif
#   From: 2010.05.17/outbox.cif.g08.bks.cpg/sg12_13_cif.got.tgz:25925.got - 2010.06.03 13:09:07.
