data_PCOD9171347
_publ_section_title
;
Structure prediction by ZEFSAII (Michael W. Deem and Ramdas Pophale) SiO2 
 PCOD9171347
Probable space group: C 2/M
;
_chemical_formula_sum "Si O2"
_cell_formula_units_Z 40
_cell_length_a 9.403296
_cell_length_b 22.477332
_cell_length_c 18.036986
_cell_angle_alpha 90.000000
_cell_angle_beta 141.620411
_cell_angle_gamma 90.000000
_cell_volume 2366.946834
_symmetry_space_group_name_H-M "C 2/M"
_symmetry_group_IT_number 12
_symmetry_cell_setting 'monoclinic'
loop_
_space_group_symop_operation_xyz
x,y,z
-x,y,-z
-x,-y,-z
x,-y,z
1/2+x,1/2+y,z
1/2-x,1/2+y,-z
1/2-x,1/2-y,-z
1/2+x,1/2-y,z
loop_
_atom_site_type_symbol
_atom_site_label
_atom_site_fract_x
_atom_site_fract_y
_atom_site_fract_z
Si Si1 0.693630 0.395688 0.641420
Si Si2 0.000000 0.750276 0.000000
Si Si3 0.446734 0.179532 0.133013
Si Si4 0.560481 0.500000 0.380245
Si Si5 0.662051 0.065856 0.996878
Si Si6 0.079702 0.000000 0.217041
Si Si7 0.442110 0.000000 0.661375
O O1 0.500000 0.381969 0.500000
O O2 0.825980 0.338608 0.727929
O O3 0.579231 0.439690 0.656142
O O4 0.874031 0.440535 0.677101
O O5 0.760471 0.786823 0.909777
O O6 0.994137 0.713316 0.920176
O O7 0.350427 0.115652 0.068668
O O8 0.629721 0.500000 0.323769
O O9 0.777980 0.500000 0.522699
O O10 0.916450 0.055689 0.131296
O O11 0.588382 0.000000 0.939322
O O12 0.500000 0.080335 0.000000
O O13 0.298745 0.000000 0.256346
#
# Coordination Sequence:
#
# PCOD9171347 Si02
#       7
#     8   4   8   4   8   4   4
#     4   9  20  36  58  78 110 153 180 221 276 339
#     4  10  26  38  58  82 102 160 174 244 276 312
#     4  11  21  41  57  78 116 137 198 223 282 328
#     4   9  17  32  52  81 117 153 176 212 279 349
#     4   9  19  30  52  86 108 141 175 218 285 336
#     4  10  18  27  50  86 113 145 180 218 281 315
#     4   9  19  31  48  87 118 143 180 219 285 328
#
# _framework density 16.899408999999999
#
# number of rings (size 3 to 8) (size 9 to 14) (size 15 to 20)
#    0.600    1.800    1.000    2.700    5.600    0.000 
#    0.000    2.500    0.000    0.000    0.000    0.000 
#    0.000    0.000    0.000    0.000    0.000    0.000 
#
# Total GULP energy -111350.863701 kJ/mol
# GULP energy per Si atom -5567.543185 kJ/mol
# Density = 1.686094 g / cm^3
# Si number density = 16.899409 Si / 1000 Ang^3
#
#
#
# Elastic Constant Matrix: (Units=GPa)
#
#
# Indices 1 2 3 4 5 6 
#
# 1 82.6518 25.8286 35.1949 0.0000 14.6888 0.0000
# 2 25.8286 64.8294 40.2375 -0.0004 -3.1975 -0.0002
# 3 35.1949 40.2375 69.4580 -0.0014 3.1420 -0.0011
# 4 0.0000 -0.0004 -0.0014 45.1467 -0.0007 16.9581
# 5 14.6888 -3.1975 3.1420 -0.0007 27.9886 -0.0006
# 6 0.0000 -0.0002 -0.0011 16.9581 -0.0006 23.9903
#
#
#
# Elastic Compliance Matrix: (Units=1/GPa)
#
#
# Indices 1 2 3 4 5 6 
#
# 1 0.017494 -0.003360 -0.006519 0.000000 -0.008833 0.000000
# 2 -0.003360 0.025266 -0.013212 0.000000 0.006133 0.000000
# 3 -0.006519 -0.013212 0.025397 0.000000 -0.000939 0.000001
# 4 0.000000 0.000000 0.000000 0.030157 0.000000 -0.021317
# 5 -0.008833 0.006133 -0.000939 0.000000 0.041171 0.000001
# 6 0.000000 0.000000 0.000001 -0.021317 0.000001 0.056752
#
#
# Mechanical properties :
#
#
# Convention : Reuss Voigt Hill
#
# Bulk Modulus (GPa) = 45.50295 46.60679 46.05487
# Shear Modulus (GPa) = 20.02048 27.13701 23.57875
#
# Velocity S-wave (km/s) = 3.44566 4.01159 3.73934
# Velocity P-wave (km/s) = 6.54327 7.00685 6.77902
#
# Compressibility (1/GPa) = 0.02197660
#
# Stress axis : x y z
#
# Youngs Moduli (GPa) = 57.16083 39.57828 39.37529
#
# Poissons Ratio (x) = 0.13297 0.25668
# Poissons Ratio (y) = 0.19204 0.52023
# Poissons Ratio (z) = 0.37262 0.52291
#
# Static dielectric constant tensor:
#      x y z
#    x 1.724510 0.000000 0.073220 
#    y 0.000000 1.573420 0.000000 
#    z 0.073220 0.000000 1.648740 
# 
# From -- ./inp_files/259076.got.cif
#   From: 2010.05.17/outbox.cif.g08.bks.cpg/sg12_130_cif.got.tgz:259076.got - 2010.06.03 13:09:07.
