data_PCOD9171591
_publ_section_title
;
Structure prediction by ZEFSAII (Michael W. Deem and Ramdas Pophale) SiO2 
 PCOD9171591
Probable space group: C 2/M
;
_chemical_formula_sum "Si O2"
_cell_formula_units_Z 48
_cell_length_a 27.753824
_cell_length_b 8.771187
_cell_length_c 12.304704
_cell_angle_alpha 90.000000
_cell_angle_beta 73.223332
_cell_angle_gamma 90.000000
_cell_volume 2867.890934
_symmetry_space_group_name_H-M "C 2/M"
_symmetry_group_IT_number 12
_symmetry_cell_setting 'monoclinic'
loop_
_space_group_symop_operation_xyz
x,y,z
-x,y,-z
-x,-y,-z
x,-y,z
1/2+x,1/2+y,z
1/2-x,1/2+y,-z
1/2-x,1/2-y,-z
1/2+x,1/2-y,z
loop_
_atom_site_type_symbol
_atom_site_label
_atom_site_fract_x
_atom_site_fract_y
_atom_site_fract_z
Si Si1 0.791159 0.322421 0.134723
Si Si2 0.861578 0.818757 0.266785
Si Si3 0.638836 0.315430 0.083720
Si Si4 0.177029 0.821941 0.280728
Si Si5 0.195788 0.319736 0.500747
Si Si6 0.942787 0.814594 0.041673
O O1 0.805250 0.500000 0.140143
O O2 0.817237 0.222488 0.211222
O O3 0.731717 0.312100 0.188201
O O4 0.814136 0.261231 0.008046
O O5 0.846371 0.738427 0.387773
O O6 0.911890 0.768292 0.169732
O O7 0.863667 0.000000 0.281842
O O8 0.644456 0.500000 0.074772
O O9 0.638593 0.273272 0.210802
O O10 0.590479 0.272545 0.042255
O O11 0.180657 0.729966 0.389438
O O12 0.168106 0.000000 0.313517
O O13 0.200697 0.500000 0.505184
O O14 0.250000 0.250000 0.500000
O O15 0.943712 0.000000 0.042623
O O16 0.000000 0.759678 0.000000
#
# Coordination Sequence:
#
# PCOD9171591 Si02
#       6
#     8   8   8   8   8   8
#     4  10  18  28  45  68  99 134 166 202 243 295
#     4  10  19  32  51  74 101 132 169 209 247 291
#     4   9  18  31  48  71 100 131 166 207 250 296
#     4  10  20  32  46  68 100 137 170 203 243 290
#     4  12  23  34  50  71 100 137 173 205 241 292
#     4   8  15  30  54  80 101 124 159 208 259 298
#
# _framework density 16.737038999999999
#
# number of rings (size 3 to 8) (size 9 to 14) (size 15 to 20)
#    0.000    2.167    1.667    4.000    0.000    1.333 
#    0.000    0.000    0.000   13.500    0.000    7.000 
#    0.000    0.000    0.000    0.000    0.000    0.000 
#
# Total GULP energy -133805.913655 kJ/mol
# GULP energy per Si atom -5575.246402 kJ/mol
# Density = 1.669894 g / cm^3
# Si number density = 16.737039 Si / 1000 Ang^3
#
#
#
# Elastic Constant Matrix: (Units=GPa)
#
#
# Indices 1 2 3 4 5 6 
#
# 1 76.8295 31.1871 64.9825 0.0000 -5.4762 0.0000
# 2 31.1871 63.4109 51.7093 0.0000 4.4972 0.0000
# 3 64.9825 51.7093 133.5402 0.0000 14.5988 0.0000
# 4 0.0000 0.0000 0.0000 27.4099 0.0000 -0.1927
# 5 -5.4762 4.4972 14.5988 0.0000 18.9158 0.0000
# 6 0.0000 0.0000 0.0000 -0.1927 0.0000 11.6723
#
#
#
# Elastic Compliance Matrix: (Units=1/GPa)
#
#
# Indices 1 2 3 4 5 6 
#
# 1 0.028209 -0.003377 -0.014634 0.000000 0.020264 0.000000
# 2 -0.003377 0.023493 -0.007357 0.000000 -0.000885 0.000000
# 3 -0.014634 -0.007357 0.019364 0.000000 -0.017433 0.000000
# 4 0.000000 0.000000 0.000000 0.036487 0.000000 0.000602
# 5 0.020264 -0.000885 -0.017433 0.000000 0.072397 0.000000
# 6 0.000000 0.000000 0.000000 0.000602 0.000000 0.085683
#
#
# Mechanical properties :
#
#
# Convention : Reuss Voigt Hill
#
# Bulk Modulus (GPa) = 49.18995 63.28206 56.23600
# Shear Modulus (GPa) = 15.47282 19.99304 17.73293
#
# Velocity S-wave (km/s) = 3.04380 3.45996 3.25853
# Velocity P-wave (km/s) = 6.46581 7.33849 6.91593
#
# Compressibility (1/GPa) = 0.02032936
#
# Stress axis : x y z
#
# Youngs Moduli (GPa) = 35.44973 42.56556 51.64167
#
# Poissons Ratio (x) = 0.14375 0.75575
# Poissons Ratio (y) = 0.11972 0.37992
# Poissons Ratio (z) = 0.51879 0.31315
#
# Static dielectric constant tensor:
#      x y z
#    x 1.568770 0.000000 0.012060 
#    y 0.000000 1.576180 0.000000 
#    z 0.012060 0.000000 1.582290 
# 
# From -- ./inp_files/179188.got.cif
#   From: 2010.05.17/outbox.cif.g08.bks.cpg/sg12_90_cif.got.tgz:179188.got - 2010.06.03 13:09:07.
