data_PCOD9171280
_publ_section_title
;
Structure prediction by ZEFSAII (Michael W. Deem and Ramdas Pophale) SiO2 
 PCOD9171280
Probable space group: C 2/M
;
_chemical_formula_sum "Si O2"
_cell_formula_units_Z 48
_cell_length_a 15.006404
_cell_length_b 13.968007
_cell_length_c 9.152474
_cell_angle_alpha 90.000000
_cell_angle_beta 83.213431
_cell_angle_gamma 90.000000
_cell_volume 1905.003915
_symmetry_space_group_name_H-M "C 2/M"
_symmetry_group_IT_number 12
_symmetry_cell_setting 'monoclinic'
loop_
_space_group_symop_operation_xyz
x,y,z
-x,y,-z
-x,-y,-z
x,-y,z
1/2+x,1/2+y,z
1/2-x,1/2+y,-z
1/2-x,1/2-y,-z
1/2+x,1/2-y,z
loop_
_atom_site_type_symbol
_atom_site_label
_atom_site_fract_x
_atom_site_fract_y
_atom_site_fract_z
Si Si1 0.620315 0.889088 0.672405
Si Si2 0.048824 0.684522 0.129839
Si Si3 0.314704 0.615664 0.184450
Si Si4 0.343505 0.774880 0.622945
Si Si5 0.595337 0.387600 0.556445
Si Si6 0.720216 0.111711 0.930657
O O1 0.525865 0.879504 0.775012
O O2 0.615644 0.834584 0.520637
O O3 0.640342 0.000000 0.641615
O O4 0.691703 0.847626 0.778698
O O5 0.091936 0.744370 0.252055
O O6 0.130159 0.623012 0.044871
O O7 0.000000 0.732109 0.000000
O O8 0.307376 0.500000 0.178369
O O9 0.233927 0.659767 0.294245
O O10 0.399569 0.637276 0.271749
O O11 0.299378 0.651260 0.020814
O O12 0.331327 0.673571 0.545085
O O13 0.500000 0.368575 0.500000
O O14 0.613874 0.500000 0.539086
O O15 0.739141 0.000000 0.901429
#
# Coordination Sequence:
#
# PCOD9171280 Si02
#       6
#     8   8   8   8   8   8
#     4  10  18  27  44  75 112 142 169 207 257 311
#     4   9  17  28  44  69 106 148 177 201 246 315
#     4   9  18  34  56  80 107 138 170 207 259 320
#     4  11  20  32  52  80 106 130 168 221 269 305
#     4  10  21  37  56  76 100 137 184 224 255 298
#     4   8  15  28  45  69 104 144 176 201 243 311
#
# _framework density 25.196798999999999
#
# number of rings (size 3 to 8) (size 9 to 14) (size 15 to 20)
#    0.000    2.500    0.000    3.000    0.000    4.667 
#    0.000    0.833    0.000    2.500    0.000   16.333 
#    0.000    0.000    0.000    0.000    0.000    0.000 
#
# Total GULP energy -134085.771912 kJ/mol
# GULP energy per Si atom -5586.907163 kJ/mol
# Density = 2.513945 g / cm^3
# Si number density = 25.196799 Si / 1000 Ang^3
#
#
#
# Elastic Constant Matrix: (Units=GPa)
#
#
# Indices 1 2 3 4 5 6 
#
# 1 68.9700 7.8090 60.1223 0.0000 30.9762 0.0000
# 2 7.8090 60.5570 49.9089 0.0000 -0.8847 0.0000
# 3 60.1223 49.9089 196.4514 0.0000 37.8650 0.0000
# 4 0.0000 0.0000 0.0000 30.7558 0.0000 9.2008
# 5 30.9762 -0.8847 37.8650 0.0000 62.4248 0.0000
# 6 0.0000 0.0000 0.0000 9.2008 0.0000 17.5054
#
#
#
# Elastic Compliance Matrix: (Units=1/GPa)
#
#
# Indices 1 2 3 4 5 6 
#
# 1 0.023020 0.001892 -0.006035 0.000000 -0.007735 0.000000
# 2 0.001892 0.021953 -0.006834 0.000000 0.003518 0.000000
# 3 -0.006035 -0.006834 0.009189 0.000000 -0.002676 0.000000
# 4 0.000000 0.000000 0.000000 0.038580 0.000000 -0.020278
# 5 -0.007735 0.003518 -0.002676 0.000000 0.021531 0.000000
# 6 0.000000 0.000000 0.000000 -0.020278 0.000000 0.067783
#
#
# Mechanical properties :
#
#
# Convention : Reuss Voigt Hill
#
# Bulk Modulus (GPa) = 31.04783 62.40653 46.72718
# Shear Modulus (GPa) = 23.28325 36.01309 29.64817
#
# Velocity S-wave (km/s) = 3.04313 3.78467 3.43398
# Velocity P-wave (km/s) = 4.96954 6.62720 5.85731
#
# Compressibility (1/GPa) = 0.03220837
#
# Stress axis : x y z
#
# Youngs Moduli (GPa) = 43.44137 45.55096 108.82193
#
# Poissons Ratio (x) = -0.08619 0.65670
# Poissons Ratio (y) = -0.08220 0.74373
# Poissons Ratio (z) = 0.26215 0.31131
#
# Static dielectric constant tensor:
#      x y z
#    x 2.090420 0.000000 0.069630 
#    y 0.000000 1.950180 0.000000 
#    z 0.069630 0.000000 1.974680 
# 
# From -- ./inp_files/73607.got.cif
#   From: 2010.05.17/outbox.cif.g08.bks.cpg/sg12_37_cif.got.tgz:73607.got - 2010.06.03 13:09:07.
