data_PCOD9171370
_publ_section_title
;
Structure prediction by ZEFSAII (Michael W. Deem and Ramdas Pophale) SiO2 
 PCOD9171370
Probable space group: C 2/M
;
_chemical_formula_sum "Si O2"
_cell_formula_units_Z 64
_cell_length_a 24.793641
_cell_length_b 14.157024
_cell_length_c 12.357125
_cell_angle_alpha 90.000000
_cell_angle_beta 108.297049
_cell_angle_gamma 90.000000
_cell_volume 4118.110497
_symmetry_space_group_name_H-M "C 2/M"
_symmetry_group_IT_number 12
_symmetry_cell_setting 'monoclinic'
loop_
_space_group_symop_operation_xyz
x,y,z
-x,y,-z
-x,-y,-z
x,-y,z
1/2+x,1/2+y,z
1/2-x,1/2+y,-z
1/2-x,1/2-y,-z
1/2+x,1/2-y,z
loop_
_atom_site_type_symbol
_atom_site_label
_atom_site_fract_x
_atom_site_fract_y
_atom_site_fract_z
Si Si1 0.317613 0.609646 0.297880
Si Si2 0.686551 0.245203 0.510642
Si Si3 0.647624 0.280190 0.256698
Si Si4 0.685314 0.109450 0.139854
Si Si5 0.434054 0.613807 0.948624
Si Si6 0.724301 0.114578 0.937382
Si Si7 0.268141 0.112495 0.298155
Si Si8 0.149779 0.884965 0.912934
O O1 0.331002 0.500000 0.329513
O O2 0.322758 0.672979 0.407088
O O3 0.251649 0.612679 0.217938
O O4 0.353212 0.642361 0.215040
O O5 0.750000 0.250000 0.500000
O O6 0.645597 0.256914 0.382733
O O7 0.689840 0.149606 0.582634
O O8 0.653085 0.182660 0.194526
O O9 0.596731 0.339489 0.173229
O O10 0.706206 0.339340 0.273618
O O11 0.685000 0.140001 0.013767
O O12 0.667147 0.000000 0.138055
O O13 0.429746 0.500000 0.936888
O O14 0.500000 0.638992 0.000000
O O15 0.398978 0.642878 0.034197
O O16 0.788753 0.145969 0.002961
O O17 0.725462 0.000000 0.939562
O O18 0.709869 0.143147 0.806699
O O19 0.261620 0.000000 0.297209
O O20 0.151129 0.000000 0.912644
#
# Coordination Sequence:
#
# PCOD9171370 Si02
#       8
#     8   8   8   8   8   8   8   8
#     4   9  16  28  44  63  94 128 158 188 216 265
#     4  10  20  29  37  64  93 127 165 179 211 274
#     4  11  20  31  44  66  93 125 160 187 226 278
#     4   9  17  28  43  66  96 126 153 186 226 270
#     4  10  20  34  52  72  92 115 150 201 250 281
#     4   8  14  25  42  65  93 123 154 182 220 276
#     4  10  18  28  41  61  94 127 153 184 218 266
#     4   8  14  26  45  68  89 117 156 189 229 280
#
# _framework density 15.541107999999999
#
# number of rings (size 3 to 8) (size 9 to 14) (size 15 to 20)
#    0.000    2.625    3.750    1.875    0.000    4.500 
#    0.000    0.000    0.000    1.125    0.000    3.500 
#    0.000    0.000    0.000    6.875    0.000    0.000 
#
# Total GULP energy -178249.582573 kJ/mol
# GULP energy per Si atom -5570.299455 kJ/mol
# Density = 1.550574 g / cm^3
# Si number density = 15.541108 Si / 1000 Ang^3
#
#
#
# Elastic Constant Matrix: (Units=GPa)
#
#
# Indices 1 2 3 4 5 6 
#
# 1 38.8481 13.1290 40.0152 0.0000 -2.6002 0.0000
# 2 13.1290 68.7047 38.8818 0.0000 -4.1467 0.0000
# 3 40.0152 38.8818 135.8086 0.0000 -20.0667 0.0000
# 4 0.0000 0.0000 0.0000 -13.4663 0.0000 -113.2671
# 5 -2.6002 -4.1467 -20.0667 0.0000 20.0386 0.0000
# 6 0.0000 0.0000 0.0000 -113.2671 0.0000 -261.6831
#
#
#
# Elastic Compliance Matrix: (Units=1/GPa)
#
#
# Indices 1 2 3 4 5 6 
#
# 1 0.037903 -0.000899 -0.011985 0.000000 -0.007269 0.000000
# 2 -0.000899 0.017436 -0.004942 0.000000 -0.001458 0.000000
# 3 -0.011985 -0.004942 0.014000 0.000000 0.011442 0.000000
# 4 0.000000 0.000000 0.000000 0.028121 0.000000 -0.012172
# 5 -0.007269 -0.001458 0.011442 0.000000 0.060117 0.000000
# 6 0.000000 0.000000 0.000000 -0.012172 0.000000 0.001447
#
#
# Mechanical properties :
#
#
# Convention : Reuss Voigt Hill
#
# Bulk Modulus (GPa) = 29.68520 47.49039 38.58780
# Shear Modulus (GPa) = 24.28298 -40.93313 -8.32507
#
# Velocity S-wave (km/s) = 3.95713 -5.13768 -2.31699
# Velocity P-wave (km/s) = 6.32622 2.13779 4.21016
#
# Compressibility (1/GPa) = 0.03368681
#
# Stress axis : x y z
#
# Youngs Moduli (GPa) = 26.38290 57.35300 71.42829
#
# Poissons Ratio (x) = 0.05158 0.85604
# Poissons Ratio (y) = 0.02373 0.35302
# Poissons Ratio (z) = 0.31619 0.28345
#
# Static dielectric constant tensor:
#      x y z
#    x 1.488220 0.000000 -0.030630 
#    y 0.000000 1.558770 0.000000 
#    z -0.030630 0.000000 1.546290 
# 
# From -- ./inp_files/176174.got.cif
#   From: 2010.05.17/outbox.cif.g08.bks.cpg/sg12_89_cif.got.tgz:176174.got - 2010.06.03 13:09:07.
