data_PCOD9171853
_publ_section_title
;
Structure prediction by ZEFSAII (Michael W. Deem and Ramdas Pophale) SiO2 
 PCOD9171853
Probable space group: C 2/M
;
_chemical_formula_sum "Si O2"
_cell_formula_units_Z 50
_cell_length_a 17.060742
_cell_length_b 17.695622
_cell_length_c 7.859419
_cell_angle_alpha 90.000000
_cell_angle_beta 53.526238
_cell_angle_gamma 90.000000
_cell_volume 1908.007189
_symmetry_space_group_name_H-M "C 2/M"
_symmetry_group_IT_number 12
_symmetry_cell_setting 'monoclinic'
loop_
_space_group_symop_operation_xyz
x,y,z
-x,y,-z
-x,-y,-z
x,-y,z
1/2+x,1/2+y,z
1/2-x,1/2+y,-z
1/2-x,1/2-y,-z
1/2+x,1/2-y,z
loop_
_atom_site_type_symbol
_atom_site_label
_atom_site_fract_x
_atom_site_fract_y
_atom_site_fract_z
Si Si1 0.358735 0.250362 0.204774
Si Si2 0.311234 0.417345 0.345652
Si Si3 0.500000 0.000000 0.000000
Si Si4 0.600798 0.117530 0.067596
Si Si5 0.679039 0.581563 0.255388
Si Si6 0.401771 0.138318 0.453353
Si Si7 0.828616 0.761266 0.752786
O O1 0.365544 0.340902 0.210101
O O2 0.395917 0.203491 0.316992
O O3 0.244250 0.233439 0.316786
O O4 0.404936 0.204694 0.986180
O O5 0.347130 0.500000 0.239864
O O6 0.314882 0.418595 0.546824
O O7 0.198205 0.408171 0.433364
O O8 0.582438 0.065842 0.924760
O O9 0.503044 0.094116 0.297351
O O10 0.712187 0.094372 0.965410
O O11 0.641345 0.500000 0.248330
O O12 0.621777 0.658206 0.284106
O O13 0.391932 0.187427 0.639647
O O14 0.750000 0.750000 0.000000
#
# Coordination Sequence:
#
# PCOD9171853 Si02
#       7
#     8   8   2   8   8   8   8
#     4  10  18  34  48  74 102 132 170 209 254 301
#     4  10  18  28  50  75 101 133 169 212 248 293
#     4  12  16  24  44  92 108 132 164 190 266 324
#     4  11  20  26  51  80 113 136 158 208 256 318
#     4  10  18  31  50  75 104 133 170 205 251 305
#     4  11  18  32  50  79 103 131 169 207 254 306
#     4  10  20  35  51  68  98 140 178 207 248 302
#
# _framework density 26.205352000000001
#
# number of rings (size 3 to 8) (size 9 to 14) (size 15 to 20)
#    0.000    1.600    7.200    0.960    3.360    0.000 
#    0.000    6.400    0.000    3.840    0.000    0.000 
#    0.000   10.240    0.000    0.000    0.000    0.000 
#
# Total GULP energy -139218.514883 kJ/mol
# GULP energy per Si atom -5568.740595 kJ/mol
# Density = 2.614571 g / cm^3
# Si number density = 26.205352 Si / 1000 Ang^3
#
#
#
# Elastic Constant Matrix: (Units=GPa)
#
#
# Indices 1 2 3 4 5 6 
#
# 1 27.7788 -16.2091 -2.7321 0.0000 -3.6739 0.0000
# 2 -16.2091 219.8586 -0.2312 0.0000 5.3960 0.0000
# 3 -2.7321 -0.2312 81.7456 0.0000 3.4455 0.0000
# 4 0.0000 0.0000 0.0000 -2.5018 0.0000 -13.8441
# 5 -3.6739 5.3960 3.4455 0.0000 27.3937 0.0000
# 6 0.0000 0.0000 0.0000 -13.8441 0.0000 16.2232
#
#
#
# Elastic Compliance Matrix: (Units=1/GPa)
#
#
# Indices 1 2 3 4 5 6 
#
# 1 0.038280 0.002714 0.001099 0.000000 0.004461 0.000000
# 2 0.002714 0.004763 0.000129 0.000000 -0.000590 0.000000
# 3 0.001099 0.000129 0.012330 0.000000 -0.001429 0.000000
# 4 0.000000 0.000000 0.000000 -0.069853 0.000000 -0.059609
# 5 0.004461 -0.000590 -0.001429 0.000000 0.037399 0.000000
# 6 0.000000 0.000000 0.000000 -0.059609 0.000000 0.010772
#
#
# Mechanical properties :
#
#
# Convention : Reuss Voigt Hill
#
# Bulk Modulus (GPa) = 15.80834 32.33760 24.07297
# Shear Modulus (GPa) = 106.62387 31.46005 69.04196
#
# Velocity S-wave (km/s) = 6.38562 3.46861 5.13845
# Velocity P-wave (km/s) = 7.77263 5.32997 6.66417
#
# Compressibility (1/GPa) = 0.06325775
#
# Stress axis : x y z
#
# Youngs Moduli (GPa) = 26.12308 209.94793 81.10040
#
# Poissons Ratio (x) = -0.56977 -0.08913
# Poissons Ratio (y) = -0.07089 -0.01047
# Poissons Ratio (z) = -0.02871 -0.02710
#
# Static dielectric constant tensor:
#      x y z
#    x 2.177630 0.000000 0.152320 
#    y 0.000000 2.214140 0.000000 
#    z 0.152320 0.000000 2.258930 
# 
# From -- ./inp_files/105728.got.cif
#   From: 2010.05.17/outbox.cif.g08.bks.cpg/sg12_53_cif.got.tgz:105728.got - 2010.06.03 13:09:07.
