data_PCOD9171502
_publ_section_title
;
Structure prediction by ZEFSAII (Michael W. Deem and Ramdas Pophale) SiO2 
 PCOD9171502
Probable space group: C 2/M
;
_chemical_formula_sum "Si O2"
_cell_formula_units_Z 56
_cell_length_a 27.271451
_cell_length_b 9.013628
_cell_length_c 15.009865
_cell_angle_alpha 90.000000
_cell_angle_beta 77.692181
_cell_angle_gamma 90.000000
_cell_volume 3604.844682
_symmetry_space_group_name_H-M "C 2/M"
_symmetry_group_IT_number 12
_symmetry_cell_setting 'monoclinic'
loop_
_space_group_symop_operation_xyz
x,y,z
-x,y,-z
-x,-y,-z
x,-y,z
1/2+x,1/2+y,z
1/2-x,1/2+y,-z
1/2-x,1/2-y,-z
1/2+x,1/2-y,z
loop_
_atom_site_type_symbol
_atom_site_label
_atom_site_fract_x
_atom_site_fract_y
_atom_site_fract_z
Si Si1 0.394351 0.177509 0.555944
Si Si2 0.196620 0.676980 0.538862
Si Si3 0.932363 0.819602 0.104758
Si Si4 0.464469 0.328241 0.390033
Si Si5 0.953139 0.178978 0.898504
Si Si6 0.063933 0.323602 0.277376
Si Si7 0.129797 0.827092 0.708386
O O1 0.343158 0.215812 0.524291
O O2 0.439380 0.261300 0.488119
O O3 0.396334 0.212077 0.659852
O O4 0.402220 0.000000 0.542749
O O5 0.201183 0.500000 0.539881
O O6 0.250000 0.750000 0.500000
O O7 0.171695 0.736248 0.639657
O O8 0.888800 0.769795 0.188403
O O9 0.987900 0.776293 0.117945
O O10 0.932037 0.000000 0.107803
O O11 0.928992 0.776873 0.002564
O O12 0.478966 0.500000 0.396256
O O13 0.511062 0.234948 0.336514
O O14 0.420232 0.322940 0.333490
O O15 0.928676 0.247824 0.820724
O O16 0.952077 0.000000 0.892671
O O17 0.062074 0.500000 0.266991
O O18 0.145155 0.000000 0.709229
#
# Coordination Sequence:
#
# PCOD9171502 Si02
#       7
#     8   8   8   8   8   8   8
#     4   9  20  34  45  61  90 123 150 180 228 281
#     4  10  20  35  52  70  90 114 146 188 234 279
#     4   8  14  27  46  65  90 123 158 192 227 260
#     4  10  18  28  44  65  89 120 159 193 217 254
#     4   9  16  28  45  64  89 125 163 195 220 253
#     4  11  20  29  41  61  93 129 156 183 222 266
#     4   9  16  29  48  69  92 121 153 185 225 272
#
# _framework density 15.534649
#
# number of rings (size 3 to 8) (size 9 to 14) (size 15 to 20)
#    0.000    2.571    1.429    2.571    0.000    4.000 
#    0.000    2.143    0.000    0.000    0.000    1.000 
#    0.000    0.000    0.000    0.000    0.000    0.000 
#
# Total GULP energy -156055.562374 kJ/mol
# GULP energy per Si atom -5573.412942 kJ/mol
# Density = 1.549929 g / cm^3
# Si number density = 15.534649 Si / 1000 Ang^3
#
#
#
# Elastic Constant Matrix: (Units=GPa)
#
#
# Indices 1 2 3 4 5 6 
#
# 1 57.9342 28.3698 51.4441 0.0000 -11.4140 0.0000
# 2 28.3698 35.5367 42.2155 0.0000 -0.7539 0.0000
# 3 51.4441 42.2155 154.2095 0.0000 -0.4223 0.0000
# 4 0.0000 0.0000 0.0000 24.2977 0.0000 1.0343
# 5 -11.4140 -0.7539 -0.4223 0.0000 19.1616 0.0000
# 6 0.0000 0.0000 0.0000 1.0343 0.0000 17.7130
#
#
#
# Elastic Compliance Matrix: (Units=1/GPa)
#
#
# Indices 1 2 3 4 5 6 
#
# 1 0.038369 -0.022278 -0.006641 0.000000 0.021832 0.000000
# 2 -0.022278 0.054674 -0.007566 0.000000 -0.011286 0.000000
# 3 -0.006641 -0.007566 0.010760 0.000000 -0.004017 0.000000
# 4 0.000000 0.000000 0.000000 0.041259 0.000000 -0.002409
# 5 0.021832 -0.011286 -0.004017 0.000000 0.064660 0.000000
# 6 0.000000 0.000000 0.000000 -0.002409 0.000000 0.056596
#
#
# Mechanical properties :
#
#
# Convention : Reuss Voigt Hill
#
# Bulk Modulus (GPa) = 32.43383 54.63769 43.53576
# Shear Modulus (GPa) = 14.30342 20.61120 17.45731
#
# Velocity S-wave (km/s) = 3.03767 3.64646 3.35590
# Velocity P-wave (km/s) = 5.76428 7.27851 6.56520
#
# Compressibility (1/GPa) = 0.03083201
#
# Stress axis : x y z
#
# Youngs Moduli (GPa) = 26.06271 18.29032 92.93278
#
# Poissons Ratio (x) = 0.40748 0.61720
# Poissons Ratio (y) = 0.58063 0.70314
# Poissons Ratio (z) = 0.17309 0.13839
#
# Static dielectric constant tensor:
#      x y z
#    x 1.495020 0.000000 0.020060 
#    y 0.000000 1.520010 0.000000 
#    z 0.020060 0.000000 1.547800 
# 
# From -- ./inp_files/247804.got.cif
#   From: 2010.05.17/outbox.cif.g08.bks.cpg/sg12_124_cif.got.tgz:247804.got - 2010.06.03 13:09:07.
