data_PCOD9171917
_publ_section_title
;
Structure prediction by ZEFSAII (Michael W. Deem and Ramdas Pophale) SiO2 
 PCOD9171917
Probable space group: C 2/M
;
_chemical_formula_sum "Si O2"
_cell_formula_units_Z 56
_cell_length_a 10.056606
_cell_length_b 14.464154
_cell_length_c 17.120711
_cell_angle_alpha 90.000000
_cell_angle_beta 86.911702
_cell_angle_gamma 90.000000
_cell_volume 2486.766924
_symmetry_space_group_name_H-M "C 2/M"
_symmetry_group_IT_number 12
_symmetry_cell_setting 'monoclinic'
loop_
_space_group_symop_operation_xyz
x,y,z
-x,y,-z
-x,-y,-z
x,-y,z
1/2+x,1/2+y,z
1/2-x,1/2+y,-z
1/2-x,1/2-y,-z
1/2+x,1/2-y,z
loop_
_atom_site_type_symbol
_atom_site_label
_atom_site_fract_x
_atom_site_fract_y
_atom_site_fract_z
Si Si1 0.182673 0.112821 0.676644
Si Si2 0.597173 0.649101 0.062855
Si Si3 0.381723 0.887997 0.269120
Si Si4 0.083571 0.112319 0.241851
Si Si5 0.356330 0.137076 0.984237
Si Si6 0.443853 0.887379 0.584155
Si Si7 0.141086 0.394102 0.187337
O O1 0.291815 0.142278 0.608763
O O2 0.254253 0.143627 0.754808
O O3 0.030107 0.143182 0.693076
O O4 0.176736 0.000000 0.671828
O O5 0.552639 0.641905 0.153473
O O6 0.620516 0.754046 0.032840
O O7 0.500000 0.607960 0.000000
O O8 0.747205 0.611140 0.051172
O O9 0.231546 0.855098 0.260541
O O10 0.454577 0.864253 0.348498
O O11 0.491164 0.855816 0.201379
O O12 0.369579 0.000000 0.267025
O O13 0.081736 0.000000 0.240716
O O14 0.307549 0.106210 0.901274
O O15 0.500000 0.098782 0.000000
O O16 0.500000 0.853601 0.500000
O O17 0.440785 0.000000 0.581819
O O18 0.126830 0.500000 0.213069
#
# Coordination Sequence:
#
# PCOD9171917 Si02
#       7
#     8   8   8   8   8   8   8
#     4   8  15  26  41  62  86 112 142 176 212 251
#     4  10  21  33  43  59  85 115 145 183 228 262
#     4   8  15  26  41  63  87 110 139 177 216 251
#     4  10  18  29  44  61  85 115 147 184 221 257
#     4  10  20  32  44  60  84 112 144 184 224 259
#     4   8  13  24  42  63  90 120 143 167 209 263
#     4   9  16  28  45  62  82 110 144 180 215 255
#
# _framework density 22.519200999999999
#
# number of rings (size 3 to 8) (size 9 to 14) (size 15 to 20)
#    0.000    3.000    0.000    3.429    0.000    1.143 
#    0.000    0.714    0.000    4.286    0.000    0.000 
#    0.000   18.286    0.000    0.000    0.000    0.000 
#
# Total GULP energy -156076.443558 kJ/mol
# GULP energy per Si atom -5574.158698 kJ/mol
# Density = 2.246795 g / cm^3
# Si number density = 22.519201 Si / 1000 Ang^3
#
#
#
# Elastic Constant Matrix: (Units=GPa)
#
#
# Indices 1 2 3 4 5 6 
#
# 1 133.4031 7.0570 23.7688 0.0000 -30.2250 0.0000
# 2 7.0570 68.8744 -8.3418 0.0000 -2.0911 0.0000
# 3 23.7688 -8.3418 87.1704 0.0000 -30.3905 0.0000
# 4 0.0000 0.0000 0.0000 10.2834 0.0000 0.1465
# 5 -30.2250 -2.0911 -30.3905 0.0000 33.4010 0.0000
# 6 0.0000 0.0000 0.0000 0.1465 0.0000 -6.1094
#
#
#
# Elastic Compliance Matrix: (Units=1/GPa)
#
#
# Indices 1 2 3 4 5 6 
#
# 1 0.009478 -0.000640 0.000484 0.000000 0.008977 0.000000
# 2 -0.000640 0.014973 0.002537 0.000000 0.002667 0.000000
# 3 0.000484 0.002537 0.017268 0.000000 0.016309 0.000000
# 4 0.000000 0.000000 0.000000 0.097210 0.000000 0.002331
# 5 0.008977 0.002667 0.016309 0.000000 0.053068 0.000000
# 6 0.000000 0.000000 0.000000 0.002331 0.000000 -0.163627
#
#
# Mechanical properties :
#
#
# Convention : Reuss Voigt Hill
#
# Bulk Modulus (GPa) = 21.51403 37.15733 29.33568
# Shear Modulus (GPa) = 127.87002 25.31260 76.59131
#
# Velocity S-wave (km/s) = 7.54360 3.35632 5.83827
# Velocity P-wave (km/s) = 9.24386 5.61747 7.64869
#
# Compressibility (1/GPa) = 0.04648129
#
# Stress axis : x y z
#
# Youngs Moduli (GPa) = 105.51275 66.78699 57.90940
#
# Poissons Ratio (x) = 0.04274 -0.02803
# Poissons Ratio (y) = 0.06752 -0.14692
# Poissons Ratio (z) = -0.05108 -0.16944
#
# Static dielectric constant tensor:
#      x y z
#    x 1.888960 0.000000 -0.030870 
#    y 0.000000 1.994860 0.000000 
#    z -0.030870 0.000000 1.795580 
# 
# From -- ./inp_files/257152.got.cif
#   From: 2010.05.17/outbox.cif.g08.bks.cpg/sg12_129_cif.got.tgz:257152.got - 2010.06.03 13:09:07.
