data_PCOD9171470
_publ_section_title
;
Structure prediction by ZEFSAII (Michael W. Deem and Ramdas Pophale) SiO2 
 PCOD9171470
Probable space group: C 2/M
;
_chemical_formula_sum "Si O2"
_cell_formula_units_Z 40
_cell_length_a 26.626766
_cell_length_b 7.502682
_cell_length_c 25.762560
_cell_angle_alpha 90.000000
_cell_angle_beta 156.342888
_cell_angle_gamma 90.000000
_cell_volume 2065.153268
_symmetry_space_group_name_H-M "C 2/M"
_symmetry_group_IT_number 12
_symmetry_cell_setting 'monoclinic'
loop_
_space_group_symop_operation_xyz
x,y,z
-x,y,-z
-x,-y,-z
x,-y,z
1/2+x,1/2+y,z
1/2-x,1/2+y,-z
1/2-x,1/2-y,-z
1/2+x,1/2-y,z
loop_
_atom_site_type_symbol
_atom_site_label
_atom_site_fract_x
_atom_site_fract_y
_atom_site_fract_z
Si Si1 0.605804 0.713333 0.848208
Si Si2 0.371196 0.206433 0.357111
Si Si3 0.171561 0.212085 0.800788
Si Si4 0.040682 0.785772 0.895862
Si Si5 0.602870 0.281478 0.140105
O O1 0.588495 0.500000 0.829606
O O2 0.595917 0.780421 0.779840
O O3 0.529712 0.781690 0.826158
O O4 0.750000 0.750000 0.000000
O O5 0.500000 0.287532 0.500000
O O6 0.366571 0.211300 0.290479
O O7 0.240494 0.282395 0.254588
O O8 0.370653 0.000000 0.373721
O O9 0.155073 0.000000 0.782212
O O10 0.318730 0.246982 0.950787
O O11 0.943638 0.722650 0.847270
O O12 0.030170 0.000000 0.883741
O O13 0.603172 0.500000 0.139660
O O14 0.500000 0.227119 0.000000
#
# Coordination Sequence:
#
# PCOD9171470 Si02
#       5
#     8   8   8   8   8
#     4   8  15  25  40  64  89 116 145 178 218 262
#     4  10  20  33  48  66  88 118 154 186 219 263
#     4  10  18  28  43  66  95 119 146 181 222 267
#     4   9  15  27  47  67  90 117 148 184 222 258
#     4   9  15  26  47  70  88 110 147 190 223 254
#
# _framework density 19.369022000000001
#
# number of rings (size 3 to 8) (size 9 to 14) (size 15 to 20)
#    0.000    2.800    2.000    0.600    0.000    1.200 
#    0.000    2.000    0.000    1.200    0.000    0.000 
#    0.000    0.000    0.000    0.000    0.000    1.000 
#
# Total GULP energy -111421.790159 kJ/mol
# GULP energy per Si atom -5571.089508 kJ/mol
# Density = 1.932494 g / cm^3
# Si number density = 19.369022 Si / 1000 Ang^3
#
#
#
# Elastic Constant Matrix: (Units=GPa)
#
#
# Indices 1 2 3 4 5 6 
#
# 1 178.9134 1.0237 74.7584 0.0000 14.0225 0.0000
# 2 1.0237 54.4538 1.6415 0.0000 6.8791 0.0000
# 3 74.7584 1.6415 100.7697 0.0000 11.7100 0.0000
# 4 0.0000 0.0000 0.0000 -0.7765 0.0000 -1.2078
# 5 14.0225 6.8791 11.7100 0.0000 15.2614 0.0000
# 6 0.0000 0.0000 0.0000 -1.2078 0.0000 -2.4503
#
#
#
# Elastic Compliance Matrix: (Units=1/GPa)
#
#
# Indices 1 2 3 4 5 6 
#
# 1 0.008247 0.000445 -0.005733 0.000000 -0.003379 0.000000
# 2 0.000445 0.019552 0.000465 -0.000003 -0.009578 0.000002
# 3 -0.005733 0.000465 0.014911 0.000000 -0.006383 0.000000
# 4 0.000000 -0.000003 0.000000 -5.520056 0.000002 2.721018
# 5 -0.003379 -0.009578 -0.006383 0.000002 0.077845 -0.000001
# 6 0.000000 0.000002 0.000000 2.721018 -0.000001 -1.749400
#
#
# Mechanical properties :
#
#
# Convention : Reuss Voigt Hill
#
# Bulk Modulus (GPa) = 30.24564 54.33157 42.28860
# Shear Modulus (GPa) = -0.70144 19.52114 9.40985
#
# Velocity S-wave (km/s) = -0.60244 3.17812 2.20652
# Velocity P-wave (km/s) = 3.89429 6.44817 5.32655
#
# Compressibility (1/GPa) = 0.03306262
#
# Stress axis : x y z
#
# Youngs Moduli (GPa) = 121.25557 51.14621 67.06539
#
# Poissons Ratio (x) = -0.02274 0.38447
# Poissons Ratio (y) = -0.05392 -0.03116
# Poissons Ratio (z) = 0.69514 -0.02376
#
# Static dielectric constant tensor:
#      x y z
#    x 1.737870 0.000000 0.007920 
#    y 0.000000 1.707740 0.000000 
#    z 0.007920 0.000000 1.629670 
# 
# From -- ./inp_files/100990.got.cif
#   From: 2010.05.17/outbox.cif.g08.bks.cpg/sg12_51_cif.got.tgz:100990.got - 2010.06.03 13:09:07.
