data_PCOD9171343
_publ_section_title
;
Structure prediction by ZEFSAII (Michael W. Deem and Ramdas Pophale) SiO2 
 PCOD9171343
Probable space group: C 2/M
;
_chemical_formula_sum "Si O2"
_cell_formula_units_Z 64
_cell_length_a 23.704627
_cell_length_b 9.245088
_cell_length_c 20.071814
_cell_angle_alpha 90.000000
_cell_angle_beta 121.025454
_cell_angle_gamma 90.000000
_cell_volume 3769.471006
_symmetry_space_group_name_H-M "C 2/M"
_symmetry_group_IT_number 12
_symmetry_cell_setting 'monoclinic'
loop_
_space_group_symop_operation_xyz
x,y,z
-x,y,-z
-x,-y,-z
x,-y,z
1/2+x,1/2+y,z
1/2-x,1/2+y,-z
1/2-x,1/2-y,-z
1/2+x,1/2-y,z
loop_
_atom_site_type_symbol
_atom_site_label
_atom_site_fract_x
_atom_site_fract_y
_atom_site_fract_z
Si Si1 0.032327 0.826657 0.743377
Si Si2 0.733535 0.830243 0.221131
Si Si3 0.155077 0.172918 0.905702
Si Si4 0.718982 0.328391 0.081314
Si Si5 0.888340 0.828039 0.341401
Si Si6 0.772452 0.672869 0.631072
Si Si7 0.402974 0.173079 0.631311
Si Si8 0.632355 0.826778 0.537492
O O1 0.084911 0.786147 0.832303
O O2 0.065719 0.788989 0.692566
O O3 0.962538 0.749995 0.704730
O O4 0.024305 0.000000 0.740183
O O5 0.703413 0.737241 0.143655
O O6 0.812294 0.802066 0.273805
O O7 0.707709 0.801323 0.279797
O O8 0.725199 0.000000 0.201245
O O9 0.213462 0.254673 0.902866
O O10 0.163637 0.000000 0.899673
O O11 0.166057 0.201021 0.990684
O O12 0.727952 0.500000 0.091285
O O13 0.899981 0.741260 0.416348
O O14 0.894306 0.000000 0.357862
O O15 0.758652 0.500000 0.616666
O O16 0.832043 0.712073 0.618874
O O17 0.705866 0.760575 0.577538
O O18 0.403651 0.210523 0.553384
O O19 0.409363 0.000000 0.641330
O O20 0.635866 0.000000 0.545428
#
# Coordination Sequence:
#
# PCOD9171343 Si02
#       8
#     8   8   8   8   8   8   8   8
#     4  10  20  35  53  70  97 137 173 201 235 292
#     4   9  16  30  51  72  99 130 161 201 245 291
#     4   9  18  33  48  69 103 135 163 195 236 291
#     4  10  18  27  48  78 103 127 158 200 246 289
#     4   9  18  33  51  71  99 136 169 198 241 298
#     4   9  19  36  55  72  96 132 168 204 248 297
#     4  10  22  37  51  72 100 130 166 209 255 293
#     4  10  20  33  52  77 102 124 157 214 261 289
#
# _framework density 16.978508999999999
#
# number of rings (size 3 to 8) (size 9 to 14) (size 15 to 20)
#    0.000    2.500    1.250    1.875    0.000    5.500 
#    0.000    2.500    0.000    0.750    0.000    5.250 
#    0.000    0.000    0.000    0.000    0.000    0.000 
#
# Total GULP energy -178471.628398 kJ/mol
# GULP energy per Si atom -5577.238387 kJ/mol
# Density = 1.693986 g / cm^3
# Si number density = 16.978509 Si / 1000 Ang^3
#
#
#
# Elastic Constant Matrix: (Units=GPa)
#
#
# Indices 1 2 3 4 5 6 
#
# 1 7.7104 2.6967 2.6574 0.0000 1.5471 0.0000
# 2 2.6967 21.3970 33.3385 0.0000 -1.1531 0.0000
# 3 2.6574 33.3385 93.6033 0.0000 0.9832 0.0000
# 4 0.0000 0.0000 0.0000 27.3670 0.0000 -1.7435
# 5 1.5471 -1.1531 0.9832 0.0000 20.3348 0.0000
# 6 0.0000 0.0000 0.0000 -1.7435 0.0000 24.4899
#
#
#
# Elastic Compliance Matrix: (Units=1/GPa)
#
#
# Indices 1 2 3 4 5 6 
#
# 1 0.139806 -0.027668 0.006017 0.000000 -0.012496 0.000000
# 2 -0.027668 0.111727 -0.039116 0.000000 0.010332 0.000000
# 3 0.006017 -0.039116 0.024485 0.000000 -0.003860 0.000000
# 4 0.000000 0.000000 0.000000 0.036707 0.000000 0.002613
# 5 -0.012496 0.010332 -0.003860 0.000000 0.050900 0.000000
# 6 0.000000 0.000000 0.000000 0.002613 0.000000 0.041019
#
#
# Mechanical properties :
#
#
# Convention : Reuss Voigt Hill
#
# Bulk Modulus (GPa) = 6.47325 22.23288 14.35306
# Shear Modulus (GPa) = 8.65541 20.03953 14.34747
#
# Velocity S-wave (km/s) = 2.26029 3.43926 2.91011
# Velocity P-wave (km/s) = 3.26080 5.37536 4.44563
#
# Compressibility (1/GPa) = 0.15448192
#
# Stress axis : x y z
#
# Youngs Moduli (GPa) = 7.15278 8.95041 40.84107
#
# Poissons Ratio (x) = 0.24764 -0.24572
# Poissons Ratio (y) = 0.19790 1.59756
# Poissons Ratio (z) = -0.04304 0.35011
#
# Static dielectric constant tensor:
#      x y z
#    x 1.555380 0.000000 -0.020590 
#    y 0.000000 1.564930 0.000000 
#    z -0.020590 0.000000 1.584020 
# 
# From -- ./inp_files/326972.got.cif
#   From: 2010.05.17/outbox.cif.g08.bks.cpg/sg12_164_cif.got.tgz:326972.got - 2010.06.03 13:09:07.
