data_PCOD9171390
_publ_section_title
;
Structure prediction by ZEFSAII (Michael W. Deem and Ramdas Pophale) SiO2 
 PCOD9171390
Probable space group: C 2/M
;
_chemical_formula_sum "Si O2"
_cell_formula_units_Z 56
_cell_length_a 13.941728
_cell_length_b 31.582882
_cell_length_c 17.367445
_cell_angle_alpha 90.000000
_cell_angle_beta 152.227729
_cell_angle_gamma 90.000000
_cell_volume 3563.292855
_symmetry_space_group_name_H-M "C 2/M"
_symmetry_group_IT_number 12
_symmetry_cell_setting 'monoclinic'
loop_
_space_group_symop_operation_xyz
x,y,z
-x,y,-z
-x,-y,-z
x,-y,z
1/2+x,1/2+y,z
1/2-x,1/2+y,-z
1/2-x,1/2-y,-z
1/2+x,1/2-y,z
loop_
_atom_site_type_symbol
_atom_site_label
_atom_site_fract_x
_atom_site_fract_y
_atom_site_fract_z
Si Si1 0.924456 0.952350 0.035210
Si Si2 0.139424 0.691547 0.364123
Si Si3 0.498960 0.683949 0.153169
Si Si4 0.266759 0.109639 0.314803
Si Si5 0.690672 0.871809 0.834900
Si Si6 0.733612 0.265254 0.696024
Si Si7 0.067146 0.778679 0.738166
O O1 0.114520 0.930172 0.213925
O O2 0.876726 0.000000 0.026572
O O3 0.740818 0.918090 0.905132
O O4 0.000000 0.954496 0.000000
O O5 0.183531 0.700236 0.305584
O O6 0.990334 0.729711 0.286451
O O7 0.353662 0.699510 0.559796
O O8 0.031825 0.647519 0.306373
O O9 0.672017 0.648643 0.295063
O O10 0.620689 0.724481 0.207737
O O11 0.375720 0.699485 0.141005
O O12 0.349514 0.660812 0.987338
O O13 0.500000 0.099541 0.500000
O O14 0.266966 0.124823 0.225805
O O15 0.500000 0.254383 0.500000
O O16 0.716834 0.280164 0.771842
#
# Coordination Sequence:
#
# PCOD9171390 Si02
#       7
#     8   8   8   8   8   8   8
#     4   8  16  30  45  64  90 114 134 167 215 258
#     4   9  17  29  42  60  85 117 152 182 213 250
#     4  10  18  28  42  61  85 115 149 180 214 254
#     4  10  18  28  45  64  84 114 146 174 206 253
#     4  10  19  30  44  63  88 113 142 178 215 258
#     4   9  17  28  42  60  86 119 152 186 217 243
#     4   9  17  28  43  59  84 118 151 185 213 243
#
# _framework density 15.715801000000001
#
# number of rings (size 3 to 8) (size 9 to 14) (size 15 to 20)
#    0.000    2.714    0.000    4.286    0.000    2.571 
#    0.000    2.143    0.000    0.000    0.000    0.000 
#    0.000   14.286    0.000    0.000    0.000    1.286 
#
# Total GULP energy -156090.210682 kJ/mol
# GULP energy per Si atom -5574.650381 kJ/mol
# Density = 1.568003 g / cm^3
# Si number density = 15.715801 Si / 1000 Ang^3
#
#
#
# Elastic Constant Matrix: (Units=GPa)
#
#
# Indices 1 2 3 4 5 6 
#
# 1 80.9841 33.0281 13.7918 -0.0001 -10.9527 0.0000
# 2 33.0281 97.7597 31.7150 -0.0001 1.4309 0.0000
# 3 13.7918 31.7150 40.5002 -0.0004 -4.8198 0.0000
# 4 -0.0001 -0.0001 -0.0004 12.6241 -0.0002 5.5263
# 5 -10.9527 1.4309 -4.8198 -0.0002 16.9657 0.0000
# 6 0.0000 0.0000 0.0000 5.5263 0.0000 14.5628
#
#
#
# Elastic Compliance Matrix: (Units=1/GPa)
#
#
# Indices 1 2 3 4 5 6 
#
# 1 0.016103 -0.005690 0.000276 0.000000 0.010954 0.000000
# 2 -0.005690 0.016042 -0.011615 -0.000001 -0.008326 0.000000
# 3 0.000276 -0.011615 0.035014 0.000001 0.011105 0.000000
# 4 0.000000 -0.000001 0.000001 0.094994 0.000002 -0.036048
# 5 0.010954 -0.008326 0.011105 0.000002 0.069871 -0.000001
# 6 0.000000 0.000000 0.000000 -0.036048 -0.000001 0.082347
#
#
# Mechanical properties :
#
#
# Convention : Reuss Voigt Hill
#
# Bulk Modulus (GPa) = 30.21116 41.81263 36.01189
# Shear Modulus (GPa) = 13.90960 18.21114 16.06037
#
# Velocity S-wave (km/s) = 2.97824 3.40778 3.20022
# Velocity P-wave (km/s) = 5.57600 6.49208 6.05140
#
# Compressibility (1/GPa) = 0.03310035
#
# Stress axis : x y z
#
# Youngs Moduli (GPa) = 62.09887 62.33783 28.55972
#
# Poissons Ratio (x) = 0.35472 -0.00788
# Poissons Ratio (y) = 0.35336 0.33172
# Poissons Ratio (z) = -0.01713 0.72405
#
# Static dielectric constant tensor:
#      x y z
#    x 1.530780 0.000000 -0.008910 
#    y 0.000000 1.513510 0.000000 
#    z -0.008910 0.000000 1.585530 
# 
# From -- ./inp_files/273140.got.cif
#   From: 2010.05.17/outbox.cif.g08.bks.cpg/sg12_137_cif.got.tgz:273140.got - 2010.06.03 13:09:07.
