data_PCOD9171194
_publ_section_title
;
Structure prediction by ZEFSAII (Michael W. Deem and Ramdas Pophale) SiO2 
 PCOD9171194
Probable space group: C 2/M
;
_chemical_formula_sum "Si O2"
_cell_formula_units_Z 56
_cell_length_a 23.417147
_cell_length_b 7.452910
_cell_length_c 20.513004
_cell_angle_alpha 90.000000
_cell_angle_beta 50.324424
_cell_angle_gamma 90.000000
_cell_volume 2755.463651
_symmetry_space_group_name_H-M "C 2/M"
_symmetry_group_IT_number 12
_symmetry_cell_setting 'monoclinic'
loop_
_space_group_symop_operation_xyz
x,y,z
-x,y,-z
-x,-y,-z
x,-y,z
1/2+x,1/2+y,z
1/2-x,1/2+y,-z
1/2-x,1/2-y,-z
1/2+x,1/2-y,z
loop_
_atom_site_type_symbol
_atom_site_label
_atom_site_fract_x
_atom_site_fract_y
_atom_site_fract_z
Si Si1 0.800103 0.780383 0.639434
Si Si2 0.947315 0.781345 0.598696
Si Si3 0.361864 0.791962 0.204591
Si Si4 0.420397 0.716723 0.028016
Si Si5 0.515070 0.279884 0.687406
Si Si6 0.521845 0.707419 0.145514
Si Si7 0.170789 0.786297 0.526770
O O1 0.862990 0.727182 0.644976
O O2 0.716310 0.718171 0.713132
O O3 0.828046 0.720492 0.548186
O O4 0.797694 0.000000 0.641565
O O5 0.000000 0.724578 0.500000
O O6 0.976140 0.724719 0.648466
O O7 0.950036 0.000000 0.596563
O O8 0.363449 0.778148 0.124625
O O9 0.437064 0.708875 0.179342
O O10 0.366230 0.000000 0.219738
O O11 0.417224 0.500000 0.029197
O O12 0.500000 0.769529 0.000000
O O13 0.425340 0.783351 0.950067
O O14 0.513694 0.500000 0.690653
O O15 0.480149 0.214771 0.780571
O O16 0.600858 0.220924 0.618987
O O17 0.543817 0.500000 0.136091
O O18 0.250000 0.750000 0.500000
O O19 0.161595 0.000000 0.529315
#
# Coordination Sequence:
#
# PCOD9171194 Si02
#       7
#     8   8   8   8   8   8   8
#     4   9  17  27  40  63  93 116 140 180 222 255
#     4   9  14  25  44  64  86 114 148 186 221 247
#     4  10  18  27  42  66  93 118 144 175 216 267
#     4   8  15  28  44  61  86 117 146 180 217 254
#     4   9  16  26  44  66  86 112 148 183 214 255
#     4   9  17  29  44  66  92 114 143 182 219 258
#     4  10  18  28  42  64  92 117 140 170 213 263
#
# _framework density 20.323257000000002
#
# number of rings (size 3 to 8) (size 9 to 14) (size 15 to 20)
#    0.000    2.857    1.429    2.143    0.000    2.571 
#    0.000    0.714    0.000    0.857    0.000    7.000 
#    0.000    0.000    0.000    0.000    0.000    1.429 
#
# Total GULP energy -156103.238142 kJ/mol
# GULP energy per Si atom -5575.115648 kJ/mol
# Density = 2.027700 g / cm^3
# Si number density = 20.323257 Si / 1000 Ang^3
#
#
#
# Elastic Constant Matrix: (Units=GPa)
#
#
# Indices 1 2 3 4 5 6 
#
# 1 64.6241 -8.8098 1.8217 -0.0058 26.5530 0.0153
# 2 -8.8098 57.3970 0.6533 -0.0020 2.3748 0.0061
# 3 1.8217 0.6533 71.9083 -0.0044 35.2273 0.0107
# 4 -0.0058 -0.0020 -0.0044 1.8203 0.0021 -1.0823
# 5 26.5530 2.3748 35.2273 0.0021 34.0983 -0.0062
# 6 0.0153 0.0061 0.0107 -1.0823 -0.0062 5.6030
#
#
#
# Elastic Compliance Matrix: (Units=1/GPa)
#
#
# Indices 1 2 3 4 5 6 
#
# 1 0.043523 0.009108 0.031847 0.000166 -0.067428 -0.000232
# 2 0.009108 0.019407 0.007551 0.000046 -0.016245 -0.000069
# 3 0.031847 0.007551 0.051506 0.000179 -0.078537 -0.000246
# 4 0.000166 0.000046 0.000179 0.620628 -0.000333 0.119886
# 5 -0.067428 -0.016245 -0.078537 -0.000333 0.164103 0.000470
# 6 -0.000232 -0.000069 -0.000246 0.119886 0.000470 0.201637
#
#
# Mechanical properties :
#
#
# Convention : Reuss Voigt Hill
#
# Bulk Modulus (GPa) = 4.72930 20.14000 12.43465
# Shear Modulus (GPa) = 4.65431 21.65527 13.15479
#
# Velocity S-wave (km/s) = 1.51496 3.26780 2.54693
# Velocity P-wave (km/s) = 2.32212 4.91624 3.84458
#
# Compressibility (1/GPa) = 0.21144765
#
# Stress axis : x y z
#
# Youngs Moduli (GPa) = 22.97630 51.52879 19.41530
#
# Poissons Ratio (x) = -0.46930 -0.61832
# Poissons Ratio (y) = -0.20926 -0.14661
# Poissons Ratio (z) = -0.73173 -0.38911
#
# Static dielectric constant tensor:
#      x y z
#    x 1.668820 0.000000 0.049790 
#    y 0.000000 1.771460 0.000000 
#    z 0.049790 0.000000 1.733040 
# 
# From -- ./inp_files/323569.got.cif
#   From: 2010.05.17/outbox.cif.g08.bks.cpg/sg12_162_cif.got.tgz:323569.got - 2010.06.03 13:09:07.
