data_PCOD9171746
_publ_section_title
;
Structure prediction by ZEFSAII (Michael W. Deem and Ramdas Pophale) SiO2 
 PCOD9171746
Probable space group: C 2/M
;
_chemical_formula_sum "Si O2"
_cell_formula_units_Z 56
_cell_length_a 30.673715
_cell_length_b 7.596317
_cell_length_c 12.161144
_cell_angle_alpha 90.000000
_cell_angle_beta 90.391244
_cell_angle_gamma 90.000000
_cell_volume 2833.568811
_symmetry_space_group_name_H-M "C 2/M"
_symmetry_group_IT_number 12
_symmetry_cell_setting 'monoclinic'
loop_
_space_group_symop_operation_xyz
x,y,z
-x,y,-z
-x,-y,-z
x,-y,z
1/2+x,1/2+y,z
1/2-x,1/2+y,-z
1/2-x,1/2-y,-z
1/2+x,1/2-y,z
loop_
_atom_site_type_symbol
_atom_site_label
_atom_site_fract_x
_atom_site_fract_y
_atom_site_fract_z
Si Si1 0.451580 0.211516 0.976000
Si Si2 0.163014 0.711092 0.404831
Si Si3 0.614009 0.704101 0.200113
Si Si4 0.871760 0.716963 0.126839
Si Si5 0.807083 0.300744 0.949699
Si Si6 0.256557 0.214205 0.746589
Si Si7 0.662027 0.206568 0.650958
O O1 0.415007 0.272898 0.062710
O O2 0.452764 0.000000 0.984573
O O3 0.500000 0.278813 0.000000
O O4 0.432113 0.255895 0.856061
O O5 0.167353 0.500000 0.411163
O O6 0.121768 0.752829 0.327203
O O7 0.205568 0.773124 0.337725
O O8 0.160228 0.782348 0.528296
O O9 0.623783 0.500000 0.183083
O O10 0.650880 0.807019 0.131800
O O11 0.870350 0.500000 0.123950
O O12 0.868539 0.776945 0.252202
O O13 0.828997 0.780338 0.058218
O O14 0.794010 0.500000 0.975255
O O15 0.769921 0.223134 0.869808
O O16 0.210702 0.276409 0.699892
O O17 0.256662 0.000000 0.749527
O O18 0.651519 0.000000 0.640480
#
# Coordination Sequence:
#
# PCOD9171746 Si02
#       7
#     8   8   8   8   8   8   8
#     4   9  17  32  55  76  94 118 143 172 220 280
#     4   9  18  32  46  61  88 126 162 191 222 261
#     4  10  18  28  47  73  95 115 146 190 229 261
#     4   8  15  29  47  68  92 116 148 186 224 270
#     4   8  15  30  47  62  89 125 154 186 228 272
#     4   9  17  28  42  61  87 122 162 198 227 259
#     4  10  19  29  44  65  90 122 156 193 230 262
#
# _framework density 19.763064
#
# number of rings (size 3 to 8) (size 9 to 14) (size 15 to 20)
#    0.000    3.000    0.000    3.429    0.000    3.714 
#    0.000    2.857    0.000    0.857    0.000    6.000 
#    0.000    0.000    0.000    0.000    0.000    0.000 
#
# Total GULP energy -156125.529387 kJ/mol
# GULP energy per Si atom -5575.911764 kJ/mol
# Density = 1.971808 g / cm^3
# Si number density = 19.763064 Si / 1000 Ang^3
#
#
#
# Elastic Constant Matrix: (Units=GPa)
#
#
# Indices 1 2 3 4 5 6 
#
# 1 91.3693 -0.9378 60.4623 0.0000 12.0127 0.0000
# 2 -0.9378 49.7504 3.8723 0.0000 -8.9933 0.0000
# 3 60.4623 3.8723 129.0887 0.0000 -5.1573 0.0000
# 4 0.0000 0.0000 0.0000 3.4470 0.0000 8.6208
# 5 12.0127 -8.9933 -5.1573 0.0000 24.3175 0.0000
# 6 0.0000 0.0000 0.0000 8.6208 0.0000 9.0418
#
#
#
# Elastic Compliance Matrix: (Units=1/GPa)
#
#
# Indices 1 2 3 4 5 6 
#
# 1 0.018424 -0.001008 -0.009054 0.000000 -0.011394 0.000000
# 2 -0.001008 0.021610 0.000164 0.000000 0.008524 0.000000
# 3 -0.009054 0.000164 0.012268 0.000000 0.007135 0.000000
# 4 0.000000 0.000000 0.000000 -0.209538 0.000000 0.199781
# 5 -0.011394 0.008524 0.007135 0.000000 0.051417 0.000000
# 6 0.000000 0.000000 0.000000 0.199781 0.000000 -0.079881
#
#
# Mechanical properties :
#
#
# Convention : Reuss Voigt Hill
#
# Bulk Modulus (GPa) = 30.76394 44.11133 37.43763
# Shear Modulus (GPa) = -32.24334 21.14870 -5.54732
#
# Velocity S-wave (km/s) = -4.04356 3.27481 -1.67720
# Velocity P-wave (km/s) = 2.49004 6.05538 3.90303
#
# Compressibility (1/GPa) = 0.03250559
#
# Stress axis : x y z
#
# Youngs Moduli (GPa) = 54.27754 46.27594 81.51567
#
# Poissons Ratio (x) = 0.04663 0.73807
# Poissons Ratio (y) = 0.05469 -0.01339
# Poissons Ratio (z) = 0.49144 -0.00760
#
# Static dielectric constant tensor:
#      x y z
#    x 1.685460 0.000000 -0.008170 
#    y 0.000000 1.725910 0.000000 
#    z -0.008170 0.000000 1.742830 
# 
# From -- ./inp_files/186846.got.cif
#   From: 2010.05.17/outbox.cif.g08.bks.cpg/sg12_94_cif.got.tgz:186846.got - 2010.06.03 13:09:07.
