data_PCOD9171672
_publ_section_title
;
Structure prediction by ZEFSAII (Michael W. Deem and Ramdas Pophale) SiO2 
 PCOD9171672
Probable space group: C 2/M
;
_chemical_formula_sum "Si O2"
_cell_formula_units_Z 48
_cell_length_a 28.564178
_cell_length_b 8.925216
_cell_length_c 11.989693
_cell_angle_alpha 90.000000
_cell_angle_beta 70.318461
_cell_angle_gamma 90.000000
_cell_volume 2878.096449
_symmetry_space_group_name_H-M "C 2/M"
_symmetry_group_IT_number 12
_symmetry_cell_setting 'monoclinic'
loop_
_space_group_symop_operation_xyz
x,y,z
-x,y,-z
-x,-y,-z
x,-y,z
1/2+x,1/2+y,z
1/2-x,1/2+y,-z
1/2-x,1/2-y,-z
1/2+x,1/2-y,z
loop_
_atom_site_type_symbol
_atom_site_label
_atom_site_fract_x
_atom_site_fract_y
_atom_site_fract_z
Si Si1 0.210943 0.174193 0.862419
Si Si2 0.357253 0.178750 0.263307
Si Si3 0.120918 0.825857 0.107792
Si Si4 0.312845 0.319481 0.753730
Si Si5 0.556261 0.180383 0.973997
Si Si6 0.801733 0.820954 0.502000
O O1 0.187671 0.273198 0.782253
O O2 0.265081 0.237602 0.843717
O O3 0.213910 0.000000 0.825817
O O4 0.171726 0.183613 0.994354
O O5 0.406911 0.226381 0.156685
O O6 0.345572 0.258967 0.388462
O O7 0.357619 0.000000 0.277128
O O8 0.137804 0.775697 0.217212
O O9 0.106024 0.000000 0.123750
O O10 0.080098 0.737288 0.070171
O O11 0.307422 0.500000 0.770625
O O12 0.312019 0.284150 0.623099
O O13 0.556505 0.000000 0.975644
O O14 0.500000 0.232481 0.000000
O O15 0.750000 0.750000 0.500000
O O16 0.797986 0.000000 0.494873
#
# Coordination Sequence:
#
# PCOD9171672 Si02
#       6
#     8   8   8   8   8   8
#     4  10  18  28  46  70  98 130 166 203 238 292
#     4  10  19  32  50  72 100 131 165 206 249 293
#     4   9  19  33  48  72 100 127 162 203 250 299
#     4  10  20  32  46  66 100 138 166 199 243 289
#     4   9  19  36  57  78  98 123 159 208 262 306
#     4  11  21  32  48  70 101 139 175 205 236 285
#
# _framework density 16.677689000000001
#
# number of rings (size 3 to 8) (size 9 to 14) (size 15 to 20)
#    0.000    2.167    1.667    2.000    0.000    3.000 
#    0.000    0.000    0.000    1.000    0.000    7.000 
#    0.000    0.000    0.000    0.000    0.000    0.000 
#
# Total GULP energy -133831.758369 kJ/mol
# GULP energy per Si atom -5576.323265 kJ/mol
# Density = 1.663973 g / cm^3
# Si number density = 16.677689 Si / 1000 Ang^3
#
#
#
# Elastic Constant Matrix: (Units=GPa)
#
#
# Indices 1 2 3 4 5 6 
#
# 1 122.8243 31.0329 51.9720 0.0000 7.4462 0.0000
# 2 31.0329 31.3324 28.4079 0.0000 5.1365 0.0000
# 3 51.9720 28.4079 75.5310 0.0000 15.5800 0.0000
# 4 0.0000 0.0000 0.0000 21.8096 0.0000 0.8115
# 5 7.4462 5.1365 15.5800 0.0000 20.8904 0.0000
# 6 0.0000 0.0000 0.0000 0.8115 0.0000 21.0817
#
#
#
# Elastic Compliance Matrix: (Units=1/GPa)
#
#
# Indices 1 2 3 4 5 6 
#
# 1 0.012468 -0.006864 -0.006416 0.000000 0.002028 0.000000
# 2 -0.006864 0.052280 -0.015119 0.000000 0.000868 0.000000
# 3 -0.006416 -0.015119 0.026120 0.000000 -0.013476 0.000000
# 4 0.000000 0.000000 0.000000 0.045917 0.000000 -0.001767
# 5 0.002028 0.000868 -0.013476 0.000000 0.056983 0.000000
# 6 0.000000 0.000000 0.000000 -0.001767 0.000000 0.047503
#
#
# Mechanical properties :
#
#
# Convention : Reuss Voigt Hill
#
# Bulk Modulus (GPa) = 29.35087 50.27926 39.81507
# Shear Modulus (GPa) = 16.15901 20.64132 18.40017
#
# Velocity S-wave (km/s) = 3.11609 3.52186 3.32517
# Velocity P-wave (km/s) = 5.53026 6.83747 6.21831
#
# Compressibility (1/GPa) = 0.03407054
#
# Stress axis : x y z
#
# Youngs Moduli (GPa) = 80.20659 19.12782 38.28459
#
# Poissons Ratio (x) = 0.13130 0.24562
# Poissons Ratio (y) = 0.55057 0.57881
# Poissons Ratio (z) = 0.51457 0.28919
#
# Static dielectric constant tensor:
#      x y z
#    x 1.552920 0.000000 0.007240 
#    y 0.000000 1.560980 0.000000 
#    z 0.007240 0.000000 1.595320 
# 
# From -- ./inp_files/172155.got.cif
#   From: 2010.05.17/outbox.cif.g08.bks.cpg/sg12_87_cif.got.tgz:172155.got - 2010.06.03 13:09:07.
