data_PCOD9171235
_publ_section_title
;
Structure prediction by ZEFSAII (Michael W. Deem and Ramdas Pophale) SiO2 
 PCOD9171235
Probable space group: C 2/M
;
_chemical_formula_sum "Si O2"
_cell_formula_units_Z 64
_cell_length_a 10.041491
_cell_length_b 14.505604
_cell_length_c 24.986116
_cell_angle_alpha 90.000000
_cell_angle_beta 51.090040
_cell_angle_gamma 90.000000
_cell_volume 2831.960231
_symmetry_space_group_name_H-M "C 2/M"
_symmetry_group_IT_number 12
_symmetry_cell_setting 'monoclinic'
loop_
_space_group_symop_operation_xyz
x,y,z
-x,y,-z
-x,-y,-z
x,-y,z
1/2+x,1/2+y,z
1/2-x,1/2+y,-z
1/2-x,1/2-y,-z
1/2+x,1/2-y,z
loop_
_atom_site_type_symbol
_atom_site_label
_atom_site_fract_x
_atom_site_fract_y
_atom_site_fract_z
Si Si1 0.662546 0.351930 0.240846
Si Si2 0.551823 0.365954 0.152274
Si Si3 0.628668 0.112798 0.514475
Si Si4 0.177109 0.632855 0.218119
Si Si5 0.482683 0.611005 0.608439
Si Si6 0.339192 0.841860 0.001421
Si Si7 0.955991 0.641388 0.857938
Si Si8 0.153133 0.605882 0.627014
O O1 0.601033 0.390784 0.200039
O O2 0.675486 0.243065 0.226557
O O3 0.549042 0.367368 0.321352
O O4 0.852215 0.387635 0.204346
O O5 0.360356 0.399104 0.191647
O O6 0.547977 0.253639 0.146184
O O7 0.696437 0.392952 0.072846
O O8 0.500000 0.145722 0.500000
O O9 0.826465 0.140078 0.455462
O O10 0.591465 0.143725 0.585009
O O11 0.618708 0.000000 0.514887
O O12 0.164556 0.608923 0.158955
O O13 0.007644 0.603857 0.292511
O O14 0.479493 0.500000 0.604348
O O15 0.322414 0.647504 0.613021
O O16 0.408464 0.887733 0.929711
O O17 0.500000 0.820824 0.000000
O O18 0.250000 0.750000 0.000000
O O19 0.201952 0.500000 0.603076
#
# Coordination Sequence:
#
# PCOD9171235 Si02
#       8
#     8   8   8   8   8   8   8   8
#     4  10  18  33  50  75 107 139 168 209 257 309
#     4   9  19  28  46  71 102 137 171 211 260 299
#     4   9  19  35  54  78 106 132 166 213 258 298
#     4  10  20  33  50  77 106 140 169 207 263 306
#     4  10  20  35  57  80 102 135 173 210 253 304
#     4  10  18  27  43  69 101 137 174 216 260 304
#     4   9  17  30  47  68 105 136 172 212 252 308
#     4  10  20  36  57  79 103 134 173 212 251 305
#
# _framework density 22.599188999999999
#
# number of rings (size 3 to 8) (size 9 to 14) (size 15 to 20)
#    0.000    2.375    2.500    0.375    7.000    1.500 
#    0.000    0.625    0.000    0.000    0.000    5.250 
#    0.000    0.000    0.000    0.000    0.000    0.000 
#
# Total GULP energy -178604.148039 kJ/mol
# GULP energy per Si atom -5581.379626 kJ/mol
# Density = 2.254775 g / cm^3
# Si number density = 22.599189 Si / 1000 Ang^3
#
#
#
# Elastic Constant Matrix: (Units=GPa)
#
#
# Indices 1 2 3 4 5 6 
#
# 1 143.1402 9.5618 54.3396 0.0000 7.3095 0.0000
# 2 9.5618 69.2819 -8.1224 0.0000 2.1651 0.0000
# 3 54.3396 -8.1224 136.8734 0.0000 13.6496 0.0000
# 4 0.0000 0.0000 0.0000 31.0798 0.0000 -4.9571
# 5 7.3095 2.1651 13.6496 0.0000 38.2443 0.0000
# 6 0.0000 0.0000 0.0000 -4.9571 0.0000 -7.1738
#
#
#
# Elastic Compliance Matrix: (Units=1/GPa)
#
#
# Indices 1 2 3 4 5 6 
#
# 1 0.008393 -0.001547 -0.003394 0.000000 -0.000305 0.000000
# 2 -0.001547 0.014871 0.001608 0.000000 -0.001120 0.000000
# 3 -0.003394 0.001608 0.009014 0.000000 -0.002660 0.000000
# 4 0.000000 0.000000 0.000000 0.028981 0.000000 -0.020026
# 5 -0.000305 -0.001120 -0.002660 0.000000 0.027219 0.000000
# 6 0.000000 0.000000 0.000000 -0.020026 0.000000 -0.125558
#
#
# Mechanical properties :
#
#
# Convention : Reuss Voigt Hill
#
# Bulk Modulus (GPa) = 39.04100 51.20594 45.12347
# Shear Modulus (GPa) = -228.54459 31.99781 -98.27339
#
# Velocity S-wave (km/s) = -10.06723 3.76690 -6.60150
# Velocity P-wave (km/s) = 10.85446 6.45189 6.17221
#
# Compressibility (1/GPa) = 0.02561409
#
# Stress axis : x y z
#
# Youngs Moduli (GPa) = 119.14197 67.24590 110.93925
#
# Poissons Ratio (x) = 0.10401 0.37648
# Poissons Ratio (y) = 0.18428 -0.17842
# Poissons Ratio (z) = 0.40431 -0.10815
#
# Static dielectric constant tensor:
#      x y z
#    x 1.822630 0.000000 0.002480 
#    y 0.000000 0.225870 0.000000 
#    z 0.002480 0.000000 1.806810 
# 
# From -- ./inp_files/301697.got.cif
#   From: 2010.05.17/outbox.cif.g08.bks.cpg/sg12_151_cif.got.tgz:301697.got - 2010.06.03 13:09:07.
