data_PCOD9171157
_publ_section_title
;
Structure prediction by ZEFSAII (Michael W. Deem and Ramdas Pophale) SiO2 
 PCOD9171157
Probable space group: C 2/M
;
_chemical_formula_sum "Si O2"
_cell_formula_units_Z 64
_cell_length_a 28.437467
_cell_length_b 9.336477
_cell_length_c 16.665359
_cell_angle_alpha 90.000000
_cell_angle_beta 85.156361
_cell_angle_gamma 90.000000
_cell_volume 4408.947253
_symmetry_space_group_name_H-M "C 2/M"
_symmetry_group_IT_number 12
_symmetry_cell_setting 'monoclinic'
loop_
_space_group_symop_operation_xyz
x,y,z
-x,y,-z
-x,-y,-z
x,-y,z
1/2+x,1/2+y,z
1/2-x,1/2+y,-z
1/2-x,1/2-y,-z
1/2+x,1/2-y,z
loop_
_atom_site_type_symbol
_atom_site_label
_atom_site_fract_x
_atom_site_fract_y
_atom_site_fract_z
Si Si1 0.214806 0.828370 0.065388
Si Si2 0.239845 0.829143 0.243518
Si Si3 0.709469 0.164977 0.400806
Si Si4 0.011922 0.835993 0.093724
Si Si5 0.818951 0.835142 0.444450
Si Si6 0.079317 0.671149 0.862006
Si Si7 0.890013 0.172034 0.980223
Si Si8 0.653974 0.169969 0.713388
O O1 0.225787 0.787862 0.155595
O O2 0.160956 0.796457 0.048883
O O3 0.221545 0.000000 0.058012
O O4 0.250000 0.750000 0.000000
O O5 0.211125 0.745190 0.315669
O O6 0.295485 0.801602 0.251181
O O7 0.232480 0.000000 0.254266
O O8 0.763980 0.166154 0.423892
O O9 0.680129 0.248730 0.472583
O O10 0.694891 0.000000 0.395877
O O11 0.066775 0.792516 0.086219
O O12 0.973308 0.734471 0.139079
O O13 0.006719 0.000000 0.122652
O O14 0.000000 0.835324 0.000000
O O15 0.846784 0.758174 0.368734
O O16 0.832910 0.000000 0.452821
O O17 0.077975 0.500000 0.873035
O O18 0.112284 0.703980 0.781179
O O19 0.101531 0.744755 0.937958
O O20 0.893403 0.000000 0.994752
O O21 0.652771 0.000000 0.695686
#
# Coordination Sequence:
#
# PCOD9171157 Si02
#       8
#     8   8   8   8   8   8   8   8
#     4  10  20  32  45  61  83 112 145 179 211 242
#     4   9  17  29  42  56  78 109 142 172 201 236
#     4   9  16  26  40  57  78 104 134 168 203 237
#     4   8  15  28  43  58  78 105 136 170 209 252
#     4   9  16  25  39  58  78 104 136 165 196 238
#     4  10  18  27  42  63  84 107 137 173 212 250
#     4   9  18  31  44  58  80 111 143 174 210 249
#     4   9  17  27  38  56  84 111 133 163 204 245
#
# _framework density 14.515936999999999
#
# number of rings (size 3 to 8) (size 9 to 14) (size 15 to 20)
#    0.000    2.875    0.000    2.625    0.000    8.250 
#    0.000    2.500    0.000    0.000    0.000    0.000 
#    0.000    1.000    0.000   11.500    0.000    3.375 
#
# Total GULP energy -178239.086264 kJ/mol
# GULP energy per Si atom -5569.971446 kJ/mol
# Density = 1.448290 g / cm^3
# Si number density = 14.515937 Si / 1000 Ang^3
#
#
#
# Elastic Constant Matrix: (Units=GPa)
#
#
# Indices 1 2 3 4 5 6 
#
# 1 86.8408 49.1207 58.7304 0.0000 -17.4990 0.0000
# 2 49.1207 72.1397 71.0893 0.0000 -20.0118 0.0000
# 3 58.7304 71.0893 123.2841 0.0000 -22.0843 0.0000
# 4 0.0000 0.0000 0.0000 25.7527 0.0000 -7.0817
# 5 -17.4990 -20.0118 -22.0843 0.0000 19.8193 0.0000
# 6 0.0000 0.0000 0.0000 -7.0817 0.0000 18.1583
#
#
#
# Elastic Compliance Matrix: (Units=1/GPa)
#
#
# Indices 1 2 3 4 5 6 
#
# 1 0.019775 -0.008571 -0.003624 0.000000 0.004767 0.000000
# 2 -0.008571 0.039675 -0.016209 0.000000 0.014430 0.000000
# 3 -0.003624 -0.016209 0.019590 0.000000 0.002262 0.000000
# 4 0.000000 0.000000 0.000000 0.043496 0.000000 0.016963
# 5 0.004767 0.014430 0.002262 0.000000 0.071756 0.000000
# 6 0.000000 0.000000 0.000000 0.016963 0.000000 0.061687
#
#
# Mechanical properties :
#
#
# Convention : Reuss Voigt Hill
#
# Bulk Modulus (GPa) = 44.98434 71.12729 58.05581
# Shear Modulus (GPa) = 15.61533 19.63434 17.62484
#
# Velocity S-wave (km/s) = 3.28340 3.68177 3.48828
# Velocity P-wave (km/s) = 6.74027 8.19632 7.50370
#
# Compressibility (1/GPa) = 0.02222996
#
# Stress axis : x y z
#
# Youngs Moduli (GPa) = 50.56820 25.20486 51.04682
#
# Poissons Ratio (x) = 0.21604 0.18500
# Poissons Ratio (y) = 0.43344 0.82744
# Poissons Ratio (z) = 0.18326 0.40856
#
# Static dielectric constant tensor:
#      x y z
#    x 1.479760 0.000000 -0.005720 
#    y 0.000000 1.487310 0.000000 
#    z -0.005720 0.000000 1.457530 
# 
# From -- ./inp_files/248422.got.cif
#   From: 2010.05.17/outbox.cif.g08.bks.cpg/sg12_125_cif.got.tgz:248422.got - 2010.06.03 13:09:07.
