data_PCOD9171878
_publ_section_title
;
Structure prediction by ZEFSAII (Michael W. Deem and Ramdas Pophale) SiO2 
 PCOD9171878
Probable space group: C 2/M
;
_chemical_formula_sum "Si O2"
_cell_formula_units_Z 52
_cell_length_a 10.199682
_cell_length_b 24.904556
_cell_length_c 8.860884
_cell_angle_alpha 90.000000
_cell_angle_beta 77.594550
_cell_angle_gamma 90.000000
_cell_volume 2198.276224
_symmetry_space_group_name_H-M "C 2/M"
_symmetry_group_IT_number 12
_symmetry_cell_setting 'monoclinic'
loop_
_space_group_symop_operation_xyz
x,y,z
-x,y,-z
-x,-y,-z
x,-y,z
1/2+x,1/2+y,z
1/2-x,1/2+y,-z
1/2-x,1/2-y,-z
1/2+x,1/2-y,z
loop_
_atom_site_type_symbol
_atom_site_label
_atom_site_fract_x
_atom_site_fract_y
_atom_site_fract_z
Si Si1 0.115112 0.000000 0.641707
Si Si2 0.470359 0.182743 0.832046
Si Si3 0.263942 0.612953 0.044902
Si Si4 0.572640 0.300794 0.149370
Si Si5 0.376497 0.117852 0.412809
Si Si6 0.386425 0.000000 0.394387
Si Si7 0.662659 0.500000 0.968422
Si Si8 0.899642 0.884507 0.330192
O O1 0.196456 0.000000 0.781448
O O2 0.038066 0.943460 0.651953
O O3 0.235108 0.000000 0.494882
O O4 0.371875 0.132048 0.844218
O O5 0.402571 0.239576 0.807974
O O6 0.599603 0.168065 0.702495
O O7 0.500000 0.185179 0.000000
O O8 0.276625 0.553673 0.975628
O O9 0.365609 0.611298 0.160555
O O10 0.305960 0.659516 0.920081
O O11 0.491034 0.331920 0.300815
O O12 0.500000 0.296622 0.000000
O O13 0.500000 0.121181 0.500000
O O14 0.394270 0.059990 0.324871
O O15 0.234549 0.120250 0.536319
O O16 0.500000 0.000000 0.500000
O O17 0.500000 0.500000 0.000000
#
# Coordination Sequence:
#
# PCOD9171878 Si02
#       8
#     4   8   8   8   8   4   4   8
#     4   8  14  24  44  78 106 121 153 217 282 308
#     4  11  23  36  50  75 112 153 181 211 262 329
#     4  10  18  33  54  77 110 140 175 221 279 324
#     4   9  19  33  52  75 104 144 184 224 268 319
#     4  10  18  33  54  78 106 137 182 227 273 315
#     4   8  16  26  48  74 100 131 159 212 267 314
#     4  10  18  28  52  88 110 128 170 233 275 309
#     4   9  16  30  54  81 103 132 176 232 279 314
#
# _framework density 23.654897999999999
#
# number of rings (size 3 to 8) (size 9 to 14) (size 15 to 20)
#    0.000    2.462    1.538    2.769    2.154    0.615 
#    0.000    1.538    0.000    0.000    0.000    0.000 
#    0.000   11.077    0.000    0.000    0.000    0.000 
#
# Total GULP energy -144888.068711 kJ/mol
# GULP energy per Si atom -5572.618027 kJ/mol
# Density = 2.360106 g / cm^3
# Si number density = 23.654898 Si / 1000 Ang^3
#
#
#
# Elastic Constant Matrix: (Units=GPa)
#
#
# Indices 1 2 3 4 5 6 
#
# 1 31.0494 21.4026 17.8615 0.0000 -4.5341 0.0000
# 2 21.4026 175.7914 62.7440 0.0000 -27.9351 0.0000
# 3 17.8615 62.7440 88.5530 0.0000 -24.3407 0.0000
# 4 0.0000 0.0000 0.0000 42.5693 0.0000 -18.3957
# 5 -4.5341 -27.9351 -24.3407 0.0000 36.2672 0.0000
# 6 0.0000 0.0000 0.0000 -18.3957 0.0000 5.0658
#
#
#
# Elastic Compliance Matrix: (Units=1/GPa)
#
#
# Indices 1 2 3 4 5 6 
#
# 1 0.037282 -0.002598 -0.006067 0.000000 -0.001412 0.000000
# 2 -0.002598 0.008026 -0.004356 0.000000 0.002933 0.000000
# 3 -0.006067 -0.004356 0.017746 0.000000 0.007796 0.000000
# 4 0.000000 0.000000 0.000000 -0.041267 0.000000 -0.149856
# 5 -0.001412 0.002933 0.007796 0.000000 0.034889 0.000000
# 6 0.000000 0.000000 0.000000 -0.149856 0.000000 -0.346780
#
#
# Mechanical properties :
#
#
# Convention : Reuss Voigt Hill
#
# Bulk Modulus (GPa) = 27.01940 55.48998 41.25469
# Shear Modulus (GPa) = -19.86294 29.67282 4.90494
#
# Velocity S-wave (km/s) = -2.90090 3.54560 1.44154
# Velocity P-wave (km/s) = 0.47630 6.34593 4.49987
#
# Compressibility (1/GPa) = 0.03701044
#
# Stress axis : x y z
#
# Youngs Moduli (GPa) = 26.82295 124.59649 56.35025
#
# Poissons Ratio (x) = 0.32369 0.34189
# Poissons Ratio (y) = 0.06968 0.24548
# Poissons Ratio (z) = 0.16274 0.54279
#
# Static dielectric constant tensor:
#      x y z
#    x 1.987470 0.000000 0.041320 
#    y 0.000000 2.030260 0.000000 
#    z 0.041320 0.000000 1.921990 
# 
# From -- ./inp_files/147025.got.cif
#   From: 2010.05.17/outbox.cif.g08.bks.cpg/sg12_74_cif.got.tgz:147025.got - 2010.06.03 13:09:07.
