data_PCOD9171605
_publ_section_title
;
Structure prediction by ZEFSAII (Michael W. Deem and Ramdas Pophale) SiO2 
 PCOD9171605
Probable space group: C 2/M
;
_chemical_formula_sum "Si O2"
_cell_formula_units_Z 48
_cell_length_a 21.184314
_cell_length_b 8.319434
_cell_length_c 23.981373
_cell_angle_alpha 90.000000
_cell_angle_beta 41.076776
_cell_angle_gamma 90.000000
_cell_volume 2777.113956
_symmetry_space_group_name_H-M "C 2/M"
_symmetry_group_IT_number 12
_symmetry_cell_setting 'monoclinic'
loop_
_space_group_symop_operation_xyz
x,y,z
-x,y,-z
-x,-y,-z
x,-y,z
1/2+x,1/2+y,z
1/2-x,1/2+y,-z
1/2-x,1/2-y,-z
1/2+x,1/2-y,z
loop_
_atom_site_type_symbol
_atom_site_label
_atom_site_fract_x
_atom_site_fract_y
_atom_site_fract_z
Si Si1 0.562978 0.192250 0.227007
Si Si2 0.923604 0.806827 0.220051
Si Si3 0.257378 0.691548 0.404537
Si Si4 0.736812 0.808283 0.945521
Si Si5 0.470199 0.805738 0.958582
Si Si6 0.605254 0.804522 0.586684
O O1 0.501794 0.251426 0.214135
O O2 0.670158 0.257010 0.151317
O O3 0.502202 0.238794 0.322700
O O4 0.566251 0.000000 0.221870
O O5 0.818585 0.747107 0.311099
O O6 0.956247 0.745422 0.138478
O O7 0.923427 0.000000 0.220042
O O8 0.249618 0.500000 0.402695
O O9 0.327992 0.730230 0.409348
O O10 0.153151 0.748029 0.496210
O O11 0.732632 0.000000 0.949526
O O12 0.750000 0.750000 0.000000
O O13 0.636027 0.747337 0.988050
O O14 0.467774 0.000000 0.961196
O O15 0.500000 0.748771 0.000000
O O16 0.612604 0.000000 0.584911
#
# Coordination Sequence:
#
# PCOD9171605 Si02
#       6
#     8   8   8   8   8   8
#     4  10  18  28  45  69  97 128 159 192 231 280
#     4  10  18  28  46  70  95 124 158 198 239 279
#     4   8  14  24  38  60  90 121 152 187 230 276
#     4  11  21  33  51  72  95 124 158 198 242 288
#     4  10  22  38  52  67  92 127 163 198 240 290
#     4   8  14  24  38  59  90 124 153 184 226 275
#
# _framework density 17.284130000000001
#
# number of rings (size 3 to 8) (size 9 to 14) (size 15 to 20)
#    0.000    2.500    1.667    1.500    0.000    2.333 
#    0.000    0.000    0.000    0.000    0.000    1.167 
#    0.000    9.333    0.000    0.000    0.000    0.000 
#
# Total GULP energy -133606.674818 kJ/mol
# GULP energy per Si atom -5566.944784 kJ/mol
# Density = 1.724479 g / cm^3
# Si number density = 17.284130 Si / 1000 Ang^3
#
#
#
# Elastic Constant Matrix: (Units=GPa)
#
#
# Indices 1 2 3 4 5 6 
#
# 1 68.6902 13.0704 64.5864 -0.0001 5.1039 0.0003
# 2 13.0704 15.3838 12.9114 -0.0002 -0.5913 0.0004
# 3 64.5864 12.9114 211.0343 -0.0001 3.0987 0.0001
# 4 -0.0001 -0.0002 -0.0001 22.1137 0.0000 -1.0801
# 5 5.1039 -0.5913 3.0987 0.0000 13.3296 -0.0002
# 6 0.0003 0.0004 0.0001 -1.0801 -0.0002 12.0416
#
#
#
# Elastic Compliance Matrix: (Units=1/GPa)
#
#
# Indices 1 2 3 4 5 6 
#
# 1 0.024040 -0.015472 -0.006287 0.000000 -0.008430 0.000000
# 2 -0.015472 0.078696 -0.000219 0.000000 0.009466 -0.000002
# 3 -0.006287 -0.000219 0.006664 0.000000 0.000849 0.000000
# 4 0.000000 0.000000 0.000000 0.045420 0.000000 0.004074
# 5 -0.008430 0.009466 0.000849 0.000000 0.078471 0.000001
# 6 0.000000 -0.000002 0.000000 0.004074 0.000001 0.083411
#
#
# Mechanical properties :
#
#
# Convention : Reuss Voigt Hill
#
# Bulk Modulus (GPa) = 15.28014 52.91608 34.09811
# Shear Modulus (GPa) = 13.07286 23.13300 18.10293
#
# Velocity S-wave (km/s) = 2.75317 3.66238 3.23983
# Velocity P-wave (km/s) = 4.35503 6.96892 5.81086
#
# Compressibility (1/GPa) = 0.06544443
#
# Stress axis : x y z
#
# Youngs Moduli (GPa) = 41.59762 12.70706 150.06969
#
# Poissons Ratio (x) = 0.19661 0.94348
# Poissons Ratio (y) = 0.64361 0.03280
# Poissons Ratio (z) = 0.26152 0.00278
#
# Static dielectric constant tensor:
#      x y z
#    x 1.543130 0.000000 -0.009790 
#    y 0.000000 1.601640 0.000000 
#    z -0.009790 0.000000 1.667760 
# 
# From -- ./inp_files/314479.got.cif
#   From: 2010.05.17/outbox.cif.g08.bks.cpg/sg12_158_cif.got.tgz:314479.got - 2010.06.03 13:09:07.
