data_PCOD9171302
_publ_section_title
;
Structure prediction by ZEFSAII (Michael W. Deem and Ramdas Pophale) SiO2 
 PCOD9171302
Probable space group: C 2/M
;
_chemical_formula_sum "Si O2"
_cell_formula_units_Z 40
_cell_length_a 25.292853
_cell_length_b 7.640238
_cell_length_c 12.730433
_cell_angle_alpha 90.000000
_cell_angle_beta 117.692585
_cell_angle_gamma 90.000000
_cell_volume 2178.280368
_symmetry_space_group_name_H-M "C 2/M"
_symmetry_group_IT_number 12
_symmetry_cell_setting 'monoclinic'
loop_
_space_group_symop_operation_xyz
x,y,z
-x,y,-z
-x,-y,-z
x,-y,z
1/2+x,1/2+y,z
1/2-x,1/2+y,-z
1/2-x,1/2-y,-z
1/2+x,1/2-y,z
loop_
_atom_site_type_symbol
_atom_site_label
_atom_site_fract_x
_atom_site_fract_y
_atom_site_fract_z
Si Si1 0.214776 0.289246 0.073142
Si Si2 0.418268 0.213558 0.012204
Si Si3 0.954229 0.710911 0.809509
Si Si4 0.761364 0.202422 0.334751
Si Si5 0.837608 0.206196 0.594016
O O1 0.211486 0.500000 0.081256
O O2 0.247928 0.219768 0.208348
O O3 0.250000 0.250000 0.000000
O O4 0.146221 0.225592 0.009057
O O5 0.476922 0.269702 0.131054
O O6 0.418368 0.000000 0.013376
O O7 0.429391 0.265855 0.901280
O O8 0.954072 0.500000 0.808361
O O9 0.907348 0.770360 0.679290
O O10 0.811353 0.277026 0.459899
O O11 0.700248 0.209450 0.346184
O O12 0.176551 0.000000 0.414875
O O13 0.777937 0.000000 0.332643
#
# Coordination Sequence:
#
# PCOD9171302 Si02
#       5
#     8   8   8   8   8
#     4  10  19  33  50  68  92 123 158 194 226 269
#     4   8  15  28  48  68  89 122 161 185 221 283
#     4   9  15  28  49  69  91 123 153 186 233 282
#     4   9  18  32  47  64  93 129 158 183 227 283
#     4  10  18  27  45  73  98 119 148 193 237 275
#
# _framework density 18.363109000000001
#
# number of rings (size 3 to 8) (size 9 to 14) (size 15 to 20)
#    0.000    2.800    2.000    1.800    0.000    1.600 
#    0.000    3.000    0.000    1.200    0.000    8.400 
#    0.000    0.000    0.000    0.000    0.000    0.000 
#
# Total GULP energy -111442.223307 kJ/mol
# GULP energy per Si atom -5572.111165 kJ/mol
# Density = 1.832131 g / cm^3
# Si number density = 18.363109 Si / 1000 Ang^3
#
#
#
# Elastic Constant Matrix: (Units=GPa)
#
#
# Indices 1 2 3 4 5 6 
#
# 1 110.2864 -0.3118 85.4998 0.0000 13.3288 0.0000
# 2 -0.3118 34.1032 0.8006 0.0000 0.8022 0.0000
# 3 85.4998 0.8006 170.4814 0.0000 22.2882 0.0000
# 4 0.0000 0.0000 0.0000 11.9493 0.0000 1.5103
# 5 13.3288 0.8022 22.2882 0.0000 31.6139 0.0000
# 6 0.0000 0.0000 0.0000 1.5103 0.0000 17.8478
#
#
#
# Elastic Compliance Matrix: (Units=1/GPa)
#
#
# Indices 1 2 3 4 5 6 
#
# 1 0.014875 0.000334 -0.007315 0.000000 -0.001123 0.000000
# 2 0.000334 0.029348 -0.000209 0.000000 -0.000738 0.000000
# 3 -0.007315 -0.000209 0.010058 0.000000 -0.004002 0.000000
# 4 0.000000 0.000000 0.000000 0.084592 0.000000 -0.007158
# 5 -0.001123 -0.000738 -0.004002 0.000000 0.034945 0.000000
# 6 0.000000 0.000000 0.000000 -0.007158 0.000000 0.056635
#
#
# Mechanical properties :
#
#
# Convention : Reuss Voigt Hill
#
# Bulk Modulus (GPa) = 25.06121 54.09424 39.57773
# Shear Modulus (GPa) = 19.36983 27.54101 23.45542
#
# Velocity S-wave (km/s) = 3.25133 3.87693 3.57783
# Velocity P-wave (km/s) = 5.26992 7.04009 6.21831
#
# Compressibility (1/GPa) = 0.03990230
#
# Stress axis : x y z
#
# Youngs Moduli (GPa) = 67.22817 34.07377 99.41916
#
# Poissons Ratio (x) = -0.01139 0.72722
# Poissons Ratio (y) = -0.02246 0.02077
# Poissons Ratio (z) = 0.49176 0.00712
#
# Static dielectric constant tensor:
#      x y z
#    x 1.603390 0.000000 0.040030 
#    y 0.000000 1.686220 0.000000 
#    z 0.040030 0.000000 1.667400 
# 
# From -- ./inp_files/162361.got.cif
#   From: 2010.05.17/outbox.cif.g08.bks.cpg/sg12_82_cif.got.tgz:162361.got - 2010.06.03 13:09:07.
