data_PCOD9171007
_publ_section_title
;
Structure prediction by ZEFSAII (Michael W. Deem and Ramdas Pophale) SiO2 
 PCOD9171007
Probable space group: C 2/M
;
_chemical_formula_sum "Si O2"
_cell_formula_units_Z 64
_cell_length_a 24.833417
_cell_length_b 9.183618
_cell_length_c 20.803684
_cell_angle_alpha 90.000000
_cell_angle_beta 115.440767
_cell_angle_gamma 90.000000
_cell_volume 4284.426094
_symmetry_space_group_name_H-M "C 2/M"
_symmetry_group_IT_number 12
_symmetry_cell_setting 'monoclinic'
loop_
_space_group_symop_operation_xyz
x,y,z
-x,y,-z
-x,-y,-z
x,-y,z
1/2+x,1/2+y,z
1/2-x,1/2+y,-z
1/2-x,1/2-y,-z
1/2+x,1/2-y,z
loop_
_atom_site_type_symbol
_atom_site_label
_atom_site_fract_x
_atom_site_fract_y
_atom_site_fract_z
Si Si1 0.208092 0.172835 0.385836
Si Si2 0.721304 0.828210 0.260197
Si Si3 0.569550 0.825950 0.546071
Si Si4 0.814725 0.824766 0.025798
Si Si5 0.138183 0.826941 0.695965
Si Si6 0.837201 0.326911 0.515133
Si Si7 0.842617 0.330614 0.164594
Si Si8 0.200187 0.167441 0.122820
O O1 0.199710 0.245945 0.312559
O O2 0.167294 0.240444 0.420767
O O3 0.276221 0.202302 0.444197
O O4 0.200489 0.000000 0.377914
O O5 0.792642 0.801355 0.288990
O O6 0.691502 0.768846 0.179665
O O7 0.712437 0.000000 0.262182
O O8 0.500000 0.796682 0.500000
O O9 0.596525 0.740620 0.620093
O O10 0.607749 0.787996 0.502288
O O11 0.577434 0.000000 0.560789
O O12 0.852380 0.754823 0.102854
O O13 0.809763 0.000000 0.030579
O O14 0.750000 0.750000 0.000000
O O15 0.832605 0.794989 0.960950
O O16 0.128770 0.748313 0.759474
O O17 0.130050 0.000000 0.697888
O O18 0.838814 0.500000 0.529188
O O19 0.859459 0.500000 0.168314
O O20 0.771073 0.326588 0.142203
O O21 0.186744 0.000000 0.132687
#
# Coordination Sequence:
#
# PCOD9171007 Si02
#       8
#     8   8   8   8   8   8   8   8
#     4  10  18  28  45  63  83 110 138 175 216 255
#     4  10  18  26  39  59  82 109 140 176 212 250
#     4  10  20  34  50  65  84 112 143 177 219 263
#     4   9  15  23  34  50  73 103 138 173 208 247
#     4  10  19  29  42  60  82 107 140 179 216 256
#     4   9  18  31  45  63  84 107 137 175 214 257
#     4   9  16  25  38  53  73 103 138 176 212 248
#     4   8  15  24  34  50  75 106 137 169 205 247
#
# _framework density 14.937824000000001
#
# number of rings (size 3 to 8) (size 9 to 14) (size 15 to 20)
#    0.000    2.625    1.250    2.625    0.000    5.750 
#    0.000    0.000    0.000    0.000    0.000    0.000 
#    0.000    0.000    0.000    1.125    0.000   21.875 
#
# Total GULP energy -178235.716020 kJ/mol
# GULP energy per Si atom -5569.866126 kJ/mol
# Density = 1.490382 g / cm^3
# Si number density = 14.937824 Si / 1000 Ang^3
#
#
#
# Elastic Constant Matrix: (Units=GPa)
#
#
# Indices 1 2 3 4 5 6 
#
# 1 49.7937 34.0198 46.6751 0.0000 -11.9972 0.0000
# 2 34.0198 74.1203 78.8477 0.0000 -20.9473 0.0000
# 3 46.6751 78.8477 130.5570 0.0000 -36.8842 0.0000
# 4 0.0000 0.0000 0.0000 31.6736 0.0000 -8.2430
# 5 -11.9972 -20.9473 -36.8842 0.0000 18.9728 0.0000
# 6 0.0000 0.0000 0.0000 -8.2430 0.0000 13.2914
#
#
#
# Elastic Compliance Matrix: (Units=1/GPa)
#
#
# Indices 1 2 3 4 5 6 
#
# 1 0.031517 -0.006768 -0.008121 0.000000 -0.003331 0.000000
# 2 -0.006768 0.039483 -0.022892 0.000000 -0.005191 0.000000
# 3 -0.008121 -0.022892 0.035044 0.000000 0.037718 0.000000
# 4 0.000000 0.000000 0.000000 0.037648 0.000000 0.023349
# 5 -0.003331 -0.005191 0.037718 0.000000 0.118195 0.000000
# 6 0.000000 0.000000 0.000000 0.023349 0.000000 0.089717
#
#
# Mechanical properties :
#
#
# Convention : Reuss Voigt Hill
#
# Bulk Modulus (GPa) = 32.80689 63.72847 48.26768
# Shear Modulus (GPa) = 11.43309 19.11611 15.27460
#
# Velocity S-wave (km/s) = 2.76955 3.58119 3.20120
# Velocity P-wave (km/s) = 5.67778 7.73660 6.78573
#
# Compressibility (1/GPa) = 0.03048141
#
# Stress axis : x y z
#
# Youngs Moduli (GPa) = 31.72917 25.32744 28.53552
#
# Poissons Ratio (x) = 0.17141 0.23175
# Poissons Ratio (y) = 0.21473 0.65324
# Poissons Ratio (z) = 0.25768 0.57980
#
# Static dielectric constant tensor:
#      x y z
#    x 1.463940 0.000000 -0.016130 
#    y 0.000000 1.497090 0.000000 
#    z -0.016130 0.000000 1.506320 
# 
# From -- ./inp_files/326628.got.cif
#   From: 2010.05.17/outbox.cif.g08.bks.cpg/sg12_164_cif.got.tgz:326628.got - 2010.06.03 13:09:07.
