data_PCOD9171204
_publ_section_title
;
Structure prediction by ZEFSAII (Michael W. Deem and Ramdas Pophale) SiO2 
 PCOD9171204
Probable space group: C 2/M
;
_chemical_formula_sum "Si O2"
_cell_formula_units_Z 48
_cell_length_a 25.247002
_cell_length_b 8.768703
_cell_length_c 14.543249
_cell_angle_alpha 90.000000
_cell_angle_beta 109.574167
_cell_angle_gamma 90.000000
_cell_volume 3033.567619
_symmetry_space_group_name_H-M "C 2/M"
_symmetry_group_IT_number 12
_symmetry_cell_setting 'monoclinic'
loop_
_space_group_symop_operation_xyz
x,y,z
-x,y,-z
-x,-y,-z
x,-y,z
1/2+x,1/2+y,z
1/2-x,1/2+y,-z
1/2-x,1/2-y,-z
1/2+x,1/2-y,z
loop_
_atom_site_type_symbol
_atom_site_label
_atom_site_fract_x
_atom_site_fract_y
_atom_site_fract_z
Si Si1 0.270327 0.183149 0.736568
Si Si2 0.209036 0.817193 0.052524
Si Si3 0.534011 0.684251 0.160086
Si Si4 0.301703 0.317525 0.471425
Si Si5 0.374370 0.818064 0.661519
Si Si6 0.418171 0.685041 0.012076
O O1 0.272998 0.264699 0.835354
O O2 0.215332 0.220591 0.643139
O O3 0.325037 0.224577 0.706450
O O4 0.271753 0.000000 0.750431
O O5 0.209745 0.000000 0.048075
O O6 0.250000 0.750000 0.000000
O O7 0.144414 0.763508 0.000966
O O8 0.536235 0.500000 0.168153
O O9 0.567819 0.756268 0.263426
O O10 0.469165 0.732017 0.108304
O O11 0.564945 0.728614 0.082315
O O12 0.301609 0.500000 0.479519
O O13 0.250000 0.250000 0.500000
O O14 0.356355 0.250970 0.552921
O O15 0.374691 0.000000 0.655374
O O16 0.418224 0.500000 0.012764
#
# Coordination Sequence:
#
# PCOD9171204 Si02
#       6
#     8   8   8   8   8   8
#     4   9  18  31  44  63  92 122 155 193 227 268
#     4  11  21  33  49  68  91 124 160 194 231 271
#     4   9  15  28  48  67  90 121 156 190 228 277
#     4   9  17  28  43  64  92 123 154 188 229 277
#     4  10  18  27  42  69  99 124 152 185 230 282
#     4   8  16  29  46  67  89 119 158 193 228 275
#
# _framework density 15.822955
#
# number of rings (size 3 to 8) (size 9 to 14) (size 15 to 20)
#    0.000    2.667    1.667    3.500    0.000    3.333 
#    0.000    3.333    0.000    0.000    0.000    1.167 
#    0.000    9.333    0.000    0.000    0.000    0.000 
#
# Total GULP energy -133672.131923 kJ/mol
# GULP energy per Si atom -5569.672163 kJ/mol
# Density = 1.578694 g / cm^3
# Si number density = 15.822955 Si / 1000 Ang^3
#
#
#
# Elastic Constant Matrix: (Units=GPa)
#
#
# Indices 1 2 3 4 5 6 
#
# 1 99.1956 29.3360 71.2807 0.0000 22.4868 0.0000
# 2 29.3360 35.1750 40.9738 0.0000 9.3366 0.0000
# 3 71.2807 40.9738 111.1829 0.0000 35.6110 0.0000
# 4 0.0000 0.0000 0.0000 27.7470 0.0000 3.8898
# 5 22.4868 9.3366 35.6110 0.0000 32.9453 0.0000
# 6 0.0000 0.0000 0.0000 3.8898 0.0000 17.6839
#
#
#
# Elastic Compliance Matrix: (Units=1/GPa)
#
#
# Indices 1 2 3 4 5 6 
#
# 1 0.018859 -0.002922 -0.010946 0.000000 -0.000213 0.000000
# 2 -0.002922 0.051975 -0.020193 0.000000 0.009092 0.000000
# 3 -0.010946 -0.020193 0.029409 0.000000 -0.018595 0.000000
# 4 0.000000 0.000000 0.000000 0.037187 0.000000 -0.008180
# 5 -0.000213 0.009092 -0.018595 0.000000 0.048022 0.000000
# 6 0.000000 0.000000 0.000000 -0.008180 0.000000 0.058348
#
#
# Mechanical properties :
#
#
# Convention : Reuss Voigt Hill
#
# Bulk Modulus (GPa) = 31.13130 58.74829 44.93980
# Shear Modulus (GPa) = 15.49777 22.60609 19.05193
#
# Velocity S-wave (km/s) = 3.13301 3.78390 3.47373
# Velocity P-wave (km/s) = 5.72758 7.50331 6.67476
#
# Compressibility (1/GPa) = 0.03212201
#
# Stress axis : x y z
#
# Youngs Moduli (GPa) = 53.02537 19.24019 34.00284
#
# Poissons Ratio (x) = 0.05621 0.37219
# Poissons Ratio (y) = 0.15491 0.68662
# Poissons Ratio (z) = 0.58041 0.38852
#
# Static dielectric constant tensor:
#      x y z
#    x 1.532760 0.000000 0.042490 
#    y 0.000000 1.580090 0.000000 
#    z 0.042490 0.000000 1.539650 
# 
# From -- ./inp_files/179310.got.cif
#   From: 2010.05.17/outbox.cif.g08.bks.cpg/sg12_90_cif.got.tgz:179310.got - 2010.06.03 13:09:07.
