data_PCOD9171786
_publ_section_title
;
Structure prediction by ZEFSAII (Michael W. Deem and Ramdas Pophale) SiO2 
 PCOD9171786
Probable space group: C 2/M
;
_chemical_formula_sum "Si O2"
_cell_formula_units_Z 44
_cell_length_a 8.609594
_cell_length_b 22.859749
_cell_length_c 13.157584
_cell_angle_alpha 90.000000
_cell_angle_beta 123.969432
_cell_angle_gamma 90.000000
_cell_volume 2147.636068
_symmetry_space_group_name_H-M "C 2/M"
_symmetry_group_IT_number 12
_symmetry_cell_setting 'monoclinic'
loop_
_space_group_symop_operation_xyz
x,y,z
-x,y,-z
-x,-y,-z
x,-y,z
1/2+x,1/2+y,z
1/2-x,1/2+y,-z
1/2-x,1/2-y,-z
1/2+x,1/2-y,z
loop_
_atom_site_type_symbol
_atom_site_label
_atom_site_fract_x
_atom_site_fract_y
_atom_site_fract_z
Si Si1 0.000000 0.250436 0.000000
Si Si2 0.565659 0.109003 0.640175
Si Si3 0.296757 0.344563 0.438994
Si Si4 0.351071 0.317302 0.128684
Si Si5 0.765896 0.780992 0.646012
Si Si6 0.533449 0.433441 0.133999
O O1 0.155137 0.295128 0.100399
O O2 0.877542 0.206686 0.023635
O O3 0.500000 0.091639 0.500000
O O4 0.376444 0.111563 0.637431
O O5 0.637267 0.176501 0.665395
O O6 0.748712 0.076459 0.751490
O O7 0.500000 0.372754 0.500000
O O8 0.300326 0.285234 0.375124
O O9 0.263786 0.314811 0.537420
O O10 0.521361 0.284360 0.243658
O O11 0.406382 0.385347 0.145377
O O12 0.482606 0.500000 0.140539
O O13 0.500000 0.425951 0.000000
#
# Coordination Sequence:
#
# PCOD9171786 Si02
#       6
#     4   8   8   8   8   8
#     4  10  22  34  54  82 118 144 176 224 290 344
#     4   9  19  34  52  80 110 141 186 232 280 331
#     4  10  18  28  47  80 108 147 180 222 275 332
#     4  10  21  36  53  84 113 149 182 228 282 340
#     4   9  18  29  47  72 114 145 178 218 275 336
#     4  10  21  39  61  81 107 150 199 235 270 333
#
# _framework density 20.487644
#
# number of rings (size 3 to 8) (size 9 to 14) (size 15 to 20)
#    0.000    2.364    0.909    2.727    7.636    0.364 
#    0.000    0.455    0.000    0.545    0.000    0.000 
#    0.000    0.000    0.000    0.000    0.000    0.000 
#
# Total GULP energy -122491.212600 kJ/mol
# GULP energy per Si atom -5567.782391 kJ/mol
# Density = 2.044101 g / cm^3
# Si number density = 20.487644 Si / 1000 Ang^3
#
#
#
# Elastic Constant Matrix: (Units=GPa)
#
#
# Indices 1 2 3 4 5 6 
#
# 1 67.4481 26.1956 8.3096 0.0000 28.7691 0.0000
# 2 26.1956 93.9878 14.9804 0.0000 13.7278 0.0000
# 3 8.3096 14.9804 84.2028 0.0000 29.0669 0.0000
# 4 0.0000 0.0000 0.0000 7.1069 0.0000 1.0055
# 5 28.7691 13.7278 29.0669 0.0000 38.7764 0.0000
# 6 0.0000 0.0000 0.0000 1.0055 0.0000 4.9877
#
#
#
# Elastic Compliance Matrix: (Units=1/GPa)
#
#
# Indices 1 2 3 4 5 6 
#
# 1 0.024981 -0.004786 0.005665 0.000000 -0.021086 0.000000
# 2 -0.004786 0.012181 -0.001932 0.000000 0.000686 0.000000
# 3 0.005665 -0.001932 0.017370 0.000000 -0.016540 0.000000
# 4 0.000000 0.000000 0.000000 0.144839 0.000000 -0.029199
# 5 -0.021086 0.000686 -0.016540 0.000000 0.053589 0.000000
# 6 0.000000 0.000000 0.000000 -0.029199 0.000000 0.206380
#
#
# Mechanical properties :
#
#
# Convention : Reuss Voigt Hill
#
# Bulk Modulus (GPa) = 19.07370 38.29001 28.68185
# Shear Modulus (GPa) = 10.44013 23.25107 16.84560
#
# Velocity S-wave (km/s) = 2.25984 3.37246 2.87057
# Velocity P-wave (km/s) = 4.01737 5.82190 5.00169
#
# Compressibility (1/GPa) = 0.05242823
#
# Stress axis : x y z
#
# Youngs Moduli (GPa) = 40.03031 82.09396 57.56936
#
# Poissons Ratio (x) = 0.39287 -0.32614
# Poissons Ratio (y) = 0.19157 0.11121
# Poissons Ratio (z) = -0.22678 0.15858
#
# Static dielectric constant tensor:
#      x y z
#    x 1.809070 0.000000 -0.061700 
#    y 0.000000 1.718530 0.000000 
#    z -0.061700 0.000000 1.893200 
# 
# From -- ./inp_files/198620.got.cif
#   From: 2010.05.17/outbox.cif.g08.bks.cpg/sg12_100_cif.got.tgz:198620.got - 2010.06.03 13:09:07.
