data_PCOD9171563
_publ_section_title
;
Structure prediction by ZEFSAII (Michael W. Deem and Ramdas Pophale) SiO2 
 PCOD9171563
Probable space group: C 2/M
;
_chemical_formula_sum "Si O2"
_cell_formula_units_Z 48
_cell_length_a 30.040838
_cell_length_b 10.762875
_cell_length_c 18.203909
_cell_angle_alpha 90.000000
_cell_angle_beta 22.787383
_cell_angle_gamma 90.000000
_cell_volume 2279.641704
_symmetry_space_group_name_H-M "C 2/M"
_symmetry_group_IT_number 12
_symmetry_cell_setting 'monoclinic'
loop_
_space_group_symop_operation_xyz
x,y,z
-x,y,-z
-x,-y,-z
x,-y,z
1/2+x,1/2+y,z
1/2-x,1/2+y,-z
1/2-x,1/2-y,-z
1/2+x,1/2-y,z
loop_
_atom_site_type_symbol
_atom_site_label
_atom_site_fract_x
_atom_site_fract_y
_atom_site_fract_z
Si Si1 0.809254 0.500000 0.985482
Si Si2 0.901190 0.500000 0.588967
Si Si3 0.811173 0.355595 0.274846
Si Si4 0.331462 0.250138 0.629679
Si Si5 0.392981 0.752708 0.920922
Si Si6 0.677674 0.500000 0.031996
Si Si7 0.595729 0.500000 0.416813
Si Si8 0.464294 0.856026 0.173515
O O1 0.878967 0.373032 0.890509
O O2 0.718609 0.500000 0.189759
O O3 0.735957 0.500000 0.022868
O O4 0.898954 0.624341 0.543899
O O5 0.783105 0.500000 0.814450
O O6 0.000000 0.500000 0.500000
O O7 0.771884 0.500000 0.336453
O O8 0.720090 0.268581 0.372992
O O9 0.857580 0.319188 0.284449
O O10 0.923888 0.355233 0.050376
O O11 0.220645 0.249576 0.853451
O O12 0.404583 0.372311 0.537999
O O13 0.391800 0.625200 0.878363
O O14 0.500341 0.772846 0.811591
O O15 0.500000 0.500000 0.500000
O O16 0.449361 0.000000 0.219282
#
# Coordination Sequence:
#
# PCOD9171563 Si02
#       8
#     4   4   8   8   8   4   4   8
#     4  10  18  30  45  61  85 113 146 176 209 252
#     4  10  20  32  43  57  85 119 148 174 211 256
#     4   8  12  20  37  60  83 107 136 169 209 256
#     4   9  16  27  41  60  85 112 139 173 213 252
#     4   9  16  27  41  60  85 113 140 172 213 251
#     4  10  20  30  43  61  85 115 146 180 211 246
#     4  10  18  28  45  65  85 109 142 178 211 246
#     4   8  12  20  37  59  83 110 136 165 208 260
#
# _framework density 21.055942000000002
#
# number of rings (size 3 to 8) (size 9 to 14) (size 15 to 20)
#    0.000    3.000    1.667    2.000    0.000    0.000 
#    0.000    0.833    0.000    5.000    0.000    0.000 
#    0.000    8.000    0.000    0.000    0.000    0.000 
#
# Total GULP energy -133949.181536 kJ/mol
# GULP energy per Si atom -5581.215897 kJ/mol
# Density = 2.100802 g / cm^3
# Si number density = 21.055942 Si / 1000 Ang^3
#
#
#
# Elastic Constant Matrix: (Units=GPa)
#
#
# Indices 1 2 3 4 5 6 
#
# 1 165.7932 114.7396 32.4096 0.0000 -60.3133 0.0000
# 2 114.7396 194.3410 34.5832 0.0000 -44.8813 0.0000
# 3 32.4096 34.5832 63.6080 0.0000 2.1773 0.0000
# 4 0.0000 0.0000 0.0000 -9.9026 0.0000 -11.5507
# 5 -60.3133 -44.8813 2.1773 0.0000 49.0042 0.0000
# 6 0.0000 0.0000 0.0000 -11.5507 0.0000 16.6618
#
#
#
# Elastic Compliance Matrix: (Units=1/GPa)
#
#
# Indices 1 2 3 4 5 6 
#
# 1 0.016531 -0.004914 -0.006303 0.000000 0.016125 0.000000
# 2 -0.004914 0.009027 -0.002484 0.000000 0.002329 0.000000
# 3 -0.006303 -0.002484 0.020658 0.000000 -0.010950 0.000000
# 4 0.000000 0.000000 0.000000 -0.055835 0.000000 -0.038707
# 5 0.016125 0.002329 -0.010950 0.000000 0.042872 0.000000
# 6 0.000000 0.000000 0.000000 -0.038707 0.000000 0.033184
#
#
# Mechanical properties :
#
#
# Convention : Reuss Voigt Hill
#
# Bulk Modulus (GPa) = 53.15209 87.46745 70.30977
# Shear Modulus (GPa) = 49.94478 27.28665 38.61571
#
# Velocity S-wave (km/s) = 4.87561 3.60378 4.28712
# Velocity P-wave (km/s) = 7.54940 7.67770 7.61382
#
# Compressibility (1/GPa) = 0.01881394
#
# Stress axis : x y z
#
# Youngs Moduli (GPa) = 60.49337 110.77942 48.40765
#
# Poissons Ratio (x) = 0.54441 0.30511
# Poissons Ratio (y) = 0.29728 0.12023
# Poissons Ratio (z) = 0.38128 0.27514
#
# Static dielectric constant tensor:
#      x y z
#    x 1.760210 0.000000 0.046310 
#    y 0.000000 1.728050 0.000000 
#    z 0.046310 0.000000 1.839090 
# 
# From -- ./inp_files/181714.got.cif
#   From: 2010.05.17/outbox.cif.g08.bks.cpg/sg12_91_cif.got.tgz:181714.got - 2010.06.03 13:09:07.
