data_PCOD9171984
_publ_section_title
;
Structure prediction by ZEFSAII (Michael W. Deem and Ramdas Pophale) SiO2 
 PCOD9171984
Probable space group: C 2/M
;
_chemical_formula_sum "Si O2"
_cell_formula_units_Z 56
_cell_length_a 17.208247
_cell_length_b 23.741400
_cell_length_c 18.856004
_cell_angle_alpha 90.000000
_cell_angle_beta 22.343008
_cell_angle_gamma 90.000000
_cell_volume 2928.520268
_symmetry_space_group_name_H-M "C 2/M"
_symmetry_group_IT_number 12
_symmetry_cell_setting 'monoclinic'
loop_
_space_group_symop_operation_xyz
x,y,z
-x,y,-z
-x,-y,-z
x,-y,z
1/2+x,1/2+y,z
1/2-x,1/2+y,-z
1/2-x,1/2-y,-z
1/2+x,1/2-y,z
loop_
_atom_site_type_symbol
_atom_site_label
_atom_site_fract_x
_atom_site_fract_y
_atom_site_fract_z
Si Si1 0.073681 0.436899 0.156141
Si Si2 0.090430 0.762040 0.535333
Si Si3 0.534807 0.436012 0.374422
Si Si4 0.655140 0.100967 0.781494
Si Si5 0.825446 0.274814 0.196084
Si Si6 0.967643 0.936015 0.263670
Si Si7 0.318244 0.843439 0.454792
O O1 0.011983 0.500000 0.231550
O O2 0.005903 0.431184 0.131027
O O3 0.960519 0.387268 0.292804
O O4 0.316190 0.431019 0.957733
O O5 0.245099 0.750556 0.338801
O O6 0.182870 0.807284 0.512772
O O7 0.063879 0.703789 0.600105
O O8 0.877122 0.781894 0.681231
O O9 0.475817 0.500000 0.442053
O O10 0.756398 0.424692 0.220667
O O11 0.361609 0.398773 0.558501
O O12 0.519635 0.431090 0.303621
O O13 0.589186 0.164201 0.852661
O O14 0.000000 0.246794 0.000000
O O15 0.817469 0.883688 0.379910
O O16 0.888869 0.000000 0.317903
#
# Coordination Sequence:
#
# PCOD9171984 Si02
#       7
#     8   8   8   8   8   8   8
#     4  11  22  34  52  82 115 151 191 226 274 336
#     4  10  23  39  58  85 105 152 198 236 290 338
#     4  10  18  29  45  66 104 149 188 227 259 304
#     4  11  19  29  49  73 104 151 184 220 270 321
#     4  11  23  39  57  80 112 143 189 243 286 331
#     4  10  21  34  51  77 111 149 188 230 278 333
#     4  11  21  38  59  78 116 149 195 240 280 335
#
# _framework density 19.122285000000002
#
# number of rings (size 3 to 8) (size 9 to 14) (size 15 to 20)
#    0.000    1.429    2.857    4.714    4.000    1.143 
#    0.000    5.000    0.000    0.000    0.000    8.000 
#    0.000   13.714    0.000    0.000    0.000    0.000 
#
# Total GULP energy -156227.574841 kJ/mol
# GULP energy per Si atom -5579.556244 kJ/mol
# Density = 1.907876 g / cm^3
# Si number density = 19.122285 Si / 1000 Ang^3
#
#
#
# Elastic Constant Matrix: (Units=GPa)
#
#
# Indices 1 2 3 4 5 6 
#
# 1 25.8721 16.1530 -0.2935 0.0707 5.6614 0.0258
# 2 16.1530 108.9143 18.8958 -0.1656 6.9268 0.0189
# 3 -0.2935 18.8958 65.4915 -0.3664 11.4978 0.0322
# 4 0.0707 -0.1656 -0.3664 7.0040 -0.1469 0.7722
# 5 5.6614 6.9268 11.4978 -0.1469 17.9813 -0.0255
# 6 0.0258 0.0189 0.0322 0.7722 -0.0255 28.8082
#
#
#
# Elastic Compliance Matrix: (Units=1/GPa)
#
#
# Indices 1 2 3 4 5 6 
#
# 1 0.046193 -0.006726 0.004780 -0.000686 -0.015015 -0.000037
# 2 -0.006726 0.010722 -0.003120 0.000158 -0.000016 -0.000002
# 3 0.004780 -0.003120 0.018301 0.000589 -0.012001 -0.000049
# 4 -0.000686 0.000158 0.000589 0.143260 0.000943 -0.003839
# 5 -0.015015 -0.000016 -0.012001 0.000943 0.068028 0.000062
# 6 -0.000037 -0.000002 -0.000049 -0.003839 0.000062 0.034815
#
#
# Mechanical properties :
#
#
# Convention : Reuss Voigt Hill
#
# Bulk Modulus (GPa) = 15.36500 29.97650 22.67075
# Shear Modulus (GPa) = 14.15846 21.79354 17.97600
#
# Velocity S-wave (km/s) = 2.72401 3.37960 3.06936
# Velocity P-wave (km/s) = 4.23630 5.56230 4.94395
#
# Compressibility (1/GPa) = 0.06508298
#
# Stress axis : x y z
#
# Youngs Moduli (GPa) = 21.64840 93.26932 54.64220
#
# Poissons Ratio (x) = 0.62735 -0.26118
# Poissons Ratio (y) = 0.14561 0.17048
# Poissons Ratio (z) = -0.10348 0.29099
#
# Static dielectric constant tensor:
#      x y z
#    x 1.666880 0.000030 0.023670 
#    y 0.000030 1.681760 0.000140 
#    z 0.023670 0.000140 1.727190 
# 
# From -- ./inp_files/318250.got.cif
#   From: 2010.05.17/outbox.cif.g08.bks.cpg/sg12_160_cif.got.tgz:318250.got - 2010.06.03 13:09:07.
