data_PCOD9171884
_publ_section_title
;
Structure prediction by ZEFSAII (Michael W. Deem and Ramdas Pophale) SiO2 
 PCOD9171884
Probable space group: C 2/M
;
_chemical_formula_sum "Si O2"
_cell_formula_units_Z 64
_cell_length_a 27.258410
_cell_length_b 17.607516
_cell_length_c 8.800001
_cell_angle_alpha 90.000000
_cell_angle_beta 45.996871
_cell_angle_gamma 90.000000
_cell_volume 3038.033216
_symmetry_space_group_name_H-M "C 2/M"
_symmetry_group_IT_number 12
_symmetry_cell_setting 'monoclinic'
loop_
_space_group_symop_operation_xyz
x,y,z
-x,y,-z
-x,-y,-z
x,-y,z
1/2+x,1/2+y,z
1/2-x,1/2+y,-z
1/2-x,1/2-y,-z
1/2+x,1/2-y,z
loop_
_atom_site_type_symbol
_atom_site_label
_atom_site_fract_x
_atom_site_fract_y
_atom_site_fract_z
Si Si1 0.060852 0.710728 0.263092
Si Si2 0.852645 0.730011 0.632120
Si Si3 0.341035 0.373318 0.164018
Si Si4 0.435716 0.341174 0.237248
Si Si5 0.634275 0.911021 0.902534
Si Si6 0.527866 0.385425 0.277586
Si Si7 0.317944 0.916463 0.536949
Si Si8 0.726001 0.776516 0.723356
O O1 0.121290 0.730053 0.253306
O O2 0.033394 0.792787 0.266848
O O3 0.000000 0.679039 0.500000
O O4 0.080575 0.645508 0.099239
O O5 0.901663 0.777017 0.414151
O O6 0.845817 0.644158 0.592911
O O7 0.779358 0.762765 0.741972
O O8 0.377702 0.373488 0.249410
O O9 0.263295 0.402964 0.323508
O O10 0.334611 0.284321 0.131826
O O11 0.396449 0.410743 0.932816
O O12 0.471730 0.402049 0.270080
O O13 0.500000 0.311920 0.000000
O O14 0.637048 0.909933 0.713116
O O15 0.703706 0.863302 0.782762
O O16 0.632263 0.000000 0.953118
O O17 0.500000 0.409316 0.500000
O O18 0.324148 0.000000 0.586145
O O19 0.750000 0.750000 0.500000
#
# Coordination Sequence:
#
# PCOD9171884 Si02
#       8
#     8   8   8   8   8   8   8   8
#     4  11  23  37  53  80 118 154 190 229 282 333
#     4  11  20  34  57  82 113 147 186 240 282 335
#     4  10  18  34  58  83 112 142 179 245 290 326
#     4  10  18  28  55  85 111 138 184 233 281 326
#     4  11  22  38  58  81 117 153 188 231 284 343
#     4  10  19  33  53  85 116 143 184 231 275 338
#     4  10  22  39  59  82 108 146 193 238 288 338
#     4  11  18  33  58  86 109 140 192 242 289 326
#
# _framework density 21.066261999999998
#
# number of rings (size 3 to 8) (size 9 to 14) (size 15 to 20)
#    0.000    1.500    7.500    0.000    1.750    1.250 
#    0.000    0.000    0.000    5.625    0.000    0.000 
#    0.000    0.500    0.000    0.000    0.000    0.000 
#
# Total GULP energy -178259.887840 kJ/mol
# GULP energy per Si atom -5570.621495 kJ/mol
# Density = 2.101831 g / cm^3
# Si number density = 21.066262 Si / 1000 Ang^3
#
#
#
# Elastic Constant Matrix: (Units=GPa)
#
#
# Indices 1 2 3 4 5 6 
#
# 1 88.2977 -14.1705 12.1153 0.0000 11.3191 0.0000
# 2 -14.1705 93.6058 5.5165 0.0000 9.1147 0.0000
# 3 12.1153 5.5165 111.4162 0.0000 2.6936 0.0000
# 4 0.0000 0.0000 0.0000 11.3852 0.0000 6.1954
# 5 11.3191 9.1147 2.6936 0.0000 22.4013 0.0000
# 6 0.0000 0.0000 0.0000 6.1954 0.0000 7.5399
#
#
#
# Elastic Compliance Matrix: (Units=1/GPa)
#
#
# Indices 1 2 3 4 5 6 
#
# 1 0.012915 0.002764 -0.001360 0.000000 -0.007487 0.000000
# 2 0.002764 0.011737 -0.000735 0.000000 -0.006084 0.000000
# 3 -0.001360 -0.000735 0.009162 0.000000 -0.000115 0.000000
# 4 0.000000 0.000000 0.000000 0.158865 0.000000 -0.130535
# 5 -0.007487 -0.006084 -0.000115 0.000000 0.050913 0.000000
# 6 0.000000 0.000000 0.000000 -0.130535 0.000000 0.239884
#
#
# Mechanical properties :
#
#
# Convention : Reuss Voigt Hill
#
# Bulk Modulus (GPa) = 28.44615 33.36026 30.90321
# Shear Modulus (GPa) = 10.12441 27.58918 18.85679
#
# Velocity S-wave (km/s) = 2.19463 3.62282 2.99510
# Velocity P-wave (km/s) = 4.46703 5.77668 5.16354
#
# Compressibility (1/GPa) = 0.03515414
#
# Stress axis : x y z
#
# Youngs Moduli (GPa) = 77.42682 85.19834 109.14124
#
# Poissons Ratio (x) = -0.23552 0.14846
# Poissons Ratio (y) = -0.21404 0.08018
# Poissons Ratio (z) = 0.10532 0.06259
#
# Static dielectric constant tensor:
#      x y z
#    x 1.766660 0.000000 -0.045540 
#    y 0.000000 1.768030 0.000000 
#    z -0.045540 0.000000 1.891510 
# 
# From -- ./inp_files/106395.got.cif
#   From: 2010.05.17/outbox.cif.g08.bks.cpg/sg12_54_cif.got.tgz:106395.got - 2010.06.03 13:09:07.
