data_PCOD9171495
_publ_section_title
;
Structure prediction by ZEFSAII (Michael W. Deem and Ramdas Pophale) SiO2 
 PCOD9171495
Probable space group: C 2/M
;
_chemical_formula_sum "Si O2"
_cell_formula_units_Z 56
_cell_length_a 27.611010
_cell_length_b 14.617055
_cell_length_c 7.460848
_cell_angle_alpha 90.000000
_cell_angle_beta 85.720981
_cell_angle_gamma 90.000000
_cell_volume 3002.742496
_symmetry_space_group_name_H-M "C 2/M"
_symmetry_group_IT_number 12
_symmetry_cell_setting 'monoclinic'
loop_
_space_group_symop_operation_xyz
x,y,z
-x,y,-z
-x,-y,-z
x,-y,z
1/2+x,1/2+y,z
1/2-x,1/2+y,-z
1/2-x,1/2-y,-z
1/2+x,1/2-y,z
loop_
_atom_site_type_symbol
_atom_site_label
_atom_site_fract_x
_atom_site_fract_y
_atom_site_fract_z
Si Si1 0.712081 0.898915 0.852432
Si Si2 0.767727 0.105276 0.221011
Si Si3 0.965150 0.102076 0.243945
Si Si4 0.844700 0.232259 0.034673
Si Si5 0.622645 0.394456 0.469351
Si Si6 0.709326 0.279679 0.332163
Si Si7 0.065559 0.848399 0.131371
O O1 0.670148 0.823948 0.860705
O O2 0.753454 0.862133 0.710506
O O3 0.695718 0.000000 0.812835
O O4 0.737089 0.899347 0.042836
O O5 0.820526 0.146057 0.146800
O O6 0.740038 0.184943 0.344406
O O7 0.769651 0.000000 0.287364
O O8 0.920768 0.129034 0.382573
O O9 0.012489 0.166540 0.231519
O O10 0.981610 0.000000 0.295172
O O11 0.946445 0.096093 0.045257
O O12 0.815992 0.233727 0.854671
O O13 0.900744 0.229285 0.965154
O O14 0.637802 0.500000 0.498139
O O15 0.665941 0.320371 0.464378
O O16 0.599220 0.391232 0.275984
#
# Coordination Sequence:
#
# PCOD9171495 Si02
#       7
#     8   8   8   8   8   8   8
#     4   8  12  21  37  59  87 113 142 180 212 248
#     4   8  13  21  35  58  87 115 144 177 210 250
#     4  10  20  30  42  63  86 113 147 177 215 260
#     4   8  15  23  37  62  85 112 147 174 210 259
#     4  10  18  28  44  64  87 116 145 174 211 255
#     4   8  14  23  36  60  88 113 143 175 211 253
#     4  10  18  30  44  61  88 115 142 179 213 252
#
# _framework density 18.649616999999999
#
# number of rings (size 3 to 8) (size 9 to 14) (size 15 to 20)
#    0.000    3.143    0.000    4.286    0.000    5.714 
#    0.000    0.000    0.000    3.429    0.000    6.000 
#    0.000    6.857    0.000    0.000    0.000    0.143 
#
# Total GULP energy -155885.899632 kJ/mol
# GULP energy per Si atom -5567.353558 kJ/mol
# Density = 1.860717 g / cm^3
# Si number density = 18.649617 Si / 1000 Ang^3
#
#
#
# Elastic Constant Matrix: (Units=GPa)
#
#
# Indices 1 2 3 4 5 6 
#
# 1 102.4684 46.9123 39.5944 0.0000 -34.0879 0.0000
# 2 46.9123 117.9504 28.4113 0.0000 -36.3880 0.0000
# 3 39.5944 28.4113 76.3980 0.0000 -18.1824 0.0000
# 4 0.0000 0.0000 0.0000 14.9114 0.0000 -0.3926
# 5 -34.0879 -36.3880 -18.1824 0.0000 44.1027 0.0000
# 6 0.0000 0.0000 0.0000 -0.3926 0.0000 -13.8352
#
#
#
# Elastic Compliance Matrix: (Units=1/GPa)
#
#
# Indices 1 2 3 4 5 6 
#
# 1 0.015524 -0.002514 -0.005265 0.000000 0.007754 0.000000
# 2 -0.002514 0.012128 -0.001428 0.000000 0.007474 0.000000
# 3 -0.005265 -0.001428 0.016743 0.000000 0.001655 0.000000
# 4 0.000000 0.000000 0.000000 0.067013 0.000000 -0.001902
# 5 0.007754 0.007474 0.001655 0.000000 0.035517 0.000000
# 6 0.000000 0.000000 0.000000 -0.001902 0.000000 -0.072225
#
#
# Mechanical properties :
#
#
# Convention : Reuss Voigt Hill
#
# Bulk Modulus (GPa) = 38.49140 58.51698 48.50419
# Shear Modulus (GPa) = 49.12802 21.16234 35.14518
#
# Velocity S-wave (km/s) = 5.13808 3.37223 4.34579
# Velocity P-wave (km/s) = 7.47555 6.82699 7.15862
#
# Compressibility (1/GPa) = 0.02597983
#
# Stress axis : x y z
#
# Youngs Moduli (GPa) = 64.41603 82.45385 59.72591
#
# Poissons Ratio (x) = 0.20729 0.31447
# Poissons Ratio (y) = 0.16194 0.08531
# Poissons Ratio (z) = 0.33917 0.11778
#
# Static dielectric constant tensor:
#      x y z
#    x 1.694290 0.000000 0.020940 
#    y 0.000000 1.644990 0.000000 
#    z 0.020940 0.000000 1.710650 
# 
# From -- ./inp_files/103999.got.cif
#   From: 2010.05.17/outbox.cif.g08.bks.cpg/sg12_52_cif.got.tgz:103999.got - 2010.06.03 13:09:07.
