data_PCOD9171589
_publ_section_title
;
Structure prediction by ZEFSAII (Michael W. Deem and Ramdas Pophale) SiO2 
 PCOD9171589
Probable space group: C 2/M
;
_chemical_formula_sum "Si O2"
_cell_formula_units_Z 56
_cell_length_a 16.262501
_cell_length_b 7.657836
_cell_length_c 27.335386
_cell_angle_alpha 90.000000
_cell_angle_beta 39.132936
_cell_angle_gamma 90.000000
_cell_volume 2148.482373
_symmetry_space_group_name_H-M "C 2/M"
_symmetry_group_IT_number 12
_symmetry_cell_setting 'monoclinic'
loop_
_space_group_symop_operation_xyz
x,y,z
-x,y,-z
-x,-y,-z
x,-y,z
1/2+x,1/2+y,z
1/2-x,1/2+y,-z
1/2-x,1/2-y,-z
1/2+x,1/2-y,z
loop_
_atom_site_type_symbol
_atom_site_label
_atom_site_fract_x
_atom_site_fract_y
_atom_site_fract_z
Si Si1 0.853507 0.204997 0.520468
Si Si2 0.572821 0.209103 0.614307
Si Si3 0.608692 0.709060 0.044447
Si Si4 0.668477 0.285086 0.807259
Si Si5 0.500841 0.788482 0.247032
Si Si6 0.716495 0.286787 0.896315
Si Si7 0.714978 0.198153 0.341968
O O1 0.715631 0.282574 0.564488
O O2 0.952638 0.245263 0.430486
O O3 0.863072 0.243893 0.573607
O O4 0.839788 0.000000 0.525677
O O5 0.485971 0.256053 0.701062
O O6 0.577662 0.000000 0.612407
O O7 0.594816 0.500000 0.049424
O O8 0.481475 0.772801 0.131758
O O9 0.750000 0.750000 0.000000
O O10 0.618295 0.771394 0.983694
O O11 0.676749 0.500000 0.801512
O O12 0.691915 0.232627 0.852250
O O13 0.766641 0.218382 0.720251
O O14 0.634903 0.734544 0.159975
O O15 0.367183 0.708012 0.289464
O O16 0.486694 0.000000 0.250300
O O17 0.713053 0.500000 0.897579
O O18 0.674499 0.000000 0.353300
#
# Coordination Sequence:
#
# PCOD9171589 Si02
#       7
#     8   8   8   8   8   8   8
#     4   9  16  26  42  65  92 121 156 196 236 281
#     4   8  14  24  39  63  92 118 149 193 242 283
#     4  10  19  32  53  77 100 126 157 196 237 278
#     4   9  18  31  48  72  98 126 162 198 232 275
#     4   9  17  29  47  70  94 122 158 199 238 280
#     4   9  17  31  51  72  95 126 163 198 232 274
#     4  10  18  28  45  68  96 126 156 196 240 281
#
# _framework density 26.064910000000001
#
# number of rings (size 3 to 8) (size 9 to 14) (size 15 to 20)
#    0.000    2.857    0.000    3.000    0.000    5.143 
#    0.000    0.714    0.000    6.857    0.000    6.000 
#    0.000    0.000    0.000    0.000    0.000    0.000 
#
# Total GULP energy -156356.601168 kJ/mol
# GULP energy per Si atom -5584.164327 kJ/mol
# Density = 2.600559 g / cm^3
# Si number density = 26.064910 Si / 1000 Ang^3
#
#
#
# Elastic Constant Matrix: (Units=GPa)
#
#
# Indices 1 2 3 4 5 6 
#
# 1 96.0782 -6.4075 32.3759 -0.0003 20.9688 -0.0002
# 2 -6.4075 48.7402 11.2214 -0.0010 3.2116 0.0002
# 3 32.3759 11.2214 204.5079 0.0000 14.8521 -0.0001
# 4 -0.0003 -0.0010 0.0000 8.7861 -0.0001 -1.7869
# 5 20.9688 3.2116 14.8521 -0.0001 51.5002 -0.0003
# 6 -0.0002 0.0002 -0.0001 -1.7869 -0.0003 10.9087
#
#
#
# Elastic Compliance Matrix: (Units=1/GPa)
#
#
# Indices 1 2 3 4 5 6 
#
# 1 0.012141 0.002293 -0.001714 0.000001 -0.004592 0.000000
# 2 0.002293 0.021262 -0.001395 0.000003 -0.001857 0.000000
# 3 -0.001714 -0.001395 0.005292 0.000000 -0.000741 0.000000
# 4 0.000001 0.000003 0.000000 0.117739 0.000000 0.019287
# 5 -0.004592 -0.001857 -0.000741 0.000000 0.021617 0.000001
# 6 0.000000 0.000000 0.000000 0.019287 0.000001 0.094829
#
#
# Mechanical properties :
#
#
# Convention : Reuss Voigt Hill
#
# Bulk Modulus (GPa) = 26.98126 47.07844 37.02985
# Shear Modulus (GPa) = 17.42977 35.04810 26.23893
#
# Velocity S-wave (km/s) = 2.58874 3.67092 3.17626
# Velocity P-wave (km/s) = 4.39425 6.00573 5.26204
#
# Compressibility (1/GPa) = 0.03706276
#
# Stress axis : x y z
#
# Youngs Moduli (GPa) = 82.36538 47.03240 188.98067
#
# Poissons Ratio (x) = -0.10786 0.32399
# Poissons Ratio (y) = -0.18889 0.26359
# Poissons Ratio (z) = 0.14121 0.06560
#
# Static dielectric constant tensor:
#      x y z
#    x 2.157640 0.000000 -0.000630 
#    y 0.000000 1.957370 0.000000 
#    z -0.000630 0.000000 2.107170 
# 
# From -- ./inp_files/362953.got.cif
#   From: 2010.05.17/outbox.cif.g08.bks.cpg/sg12_182_cif.got.tgz:362953.got - 2010.06.03 13:09:07.
