data_PCOD9171668
_publ_section_title
;
Structure prediction by ZEFSAII (Michael W. Deem and Ramdas Pophale) SiO2 
 PCOD9171668
Probable space group: C 2/M
;
_chemical_formula_sum "Si O2"
_cell_formula_units_Z 56
_cell_length_a 13.493370
_cell_length_b 11.615226
_cell_length_c 15.970902
_cell_angle_alpha 90.000000
_cell_angle_beta 56.720376
_cell_angle_gamma 90.000000
_cell_volume 2092.594811
_symmetry_space_group_name_H-M "C 2/M"
_symmetry_group_IT_number 12
_symmetry_cell_setting 'monoclinic'
loop_
_space_group_symop_operation_xyz
x,y,z
-x,y,-z
-x,-y,-z
x,-y,z
1/2+x,1/2+y,z
1/2-x,1/2+y,-z
1/2-x,1/2-y,-z
1/2+x,1/2-y,z
loop_
_atom_site_type_symbol
_atom_site_label
_atom_site_fract_x
_atom_site_fract_y
_atom_site_fract_z
Si Si1 0.622934 0.875807 0.894377
Si Si2 0.127975 0.375060 0.623952
Si Si3 0.872025 0.875061 0.876048
Si Si4 0.750001 0.815450 0.250000
Si Si5 0.108305 0.123429 0.655072
Si Si6 0.877065 0.875807 0.605623
Si Si7 0.391695 0.876571 0.844928
O O1 0.743849 0.877736 0.891837
O O2 0.642309 0.766903 0.826821
O O3 0.621718 0.000000 0.850363
O O4 0.500000 0.867238 0.000000
O O5 0.115424 0.500000 0.582760
O O6 0.122034 0.241447 0.595915
O O7 0.256150 0.377736 0.608162
O O8 0.018582 0.376800 0.739829
O O9 0.877966 0.741447 0.904084
O O10 0.981417 0.876800 0.760170
O O11 0.884575 0.000000 0.917240
O O12 0.796057 0.875060 0.312861
O O13 0.642310 0.733097 0.326821
O O14 0.703944 0.875060 0.187139
O O15 0.122511 0.000000 0.603857
O O16 0.000000 0.867238 0.500000
O O17 0.878281 0.000000 0.649637
O O18 0.377488 0.000000 0.896143
#
# Coordination Sequence:
#
# PCOD9171668 Si02
#       7
#     8   8   8   8   8   8   8
#     4   9  17  30  48  69  93 121 154 192 229 266
#     4   8  15  28  46  67  91 121 156 190 225 269
#     4   8  15  28  46  67  91 121 156 190 225 269
#     4  10  18  28  46  70  93 120 153 188 227 276
#     4   9  16  27  45  68  94 123 152 186 230 274
#     4   9  17  30  48  69  93 121 154 192 229 266
#     4   9  16  27  45  68  94 123 152 186 230 274
#
# _framework density 26.761033000000001
#
# number of rings (size 3 to 8) (size 9 to 14) (size 15 to 20)
#    0.000    3.143    0.000    0.857    0.000    1.143 
#    0.000    1.429    0.000   21.429    0.000    0.000 
#    0.000    0.000    0.000    0.000    0.000    0.000 
#
# Total GULP energy -156311.780314 kJ/mol
# GULP energy per Si atom -5582.563583 kJ/mol
# Density = 2.670012 g / cm^3
# Si number density = 26.761033 Si / 1000 Ang^3
#
#
#
# Elastic Constant Matrix: (Units=GPa)
#
#
# Indices 1 2 3 4 5 6 
#
# 1 143.2668 24.2650 19.5605 0.0000 -30.5278 0.0000
# 2 24.2650 291.5977 30.9793 0.0000 6.6989 0.0000
# 3 19.5605 30.9793 123.9395 0.0000 -35.9250 0.0000
# 4 0.0000 0.0000 0.0000 3.1384 0.0000 -4.4546
# 5 -30.5278 6.6989 -35.9250 0.0000 31.8179 0.0000
# 6 0.0000 0.0000 0.0000 -4.4546 0.0000 -10.3063
#
#
#
# Elastic Compliance Matrix: (Units=1/GPa)
#
#
# Indices 1 2 3 4 5 6 
#
# 1 0.009423 -0.001300 0.002286 0.000000 0.011895 0.000000
# 2 -0.001300 0.003851 -0.002013 0.000000 -0.004331 0.000000
# 3 0.002286 -0.002013 0.013333 0.000000 0.017671 0.000000
# 4 0.000000 0.000000 0.000000 0.197483 0.000000 -0.085356
# 5 0.011895 -0.004331 0.017671 0.000000 0.063706 0.000000
# 6 0.000000 0.000000 0.000000 -0.085356 0.000000 -0.060135
#
#
# Mechanical properties :
#
#
# Convention : Reuss Voigt Hill
#
# Bulk Modulus (GPa) = 40.72904 78.71265 59.72085
# Shear Modulus (GPa) = 21.01741 37.19659 29.10700
#
# Velocity S-wave (km/s) = 2.80549 3.73225 3.30155
# Velocity P-wave (km/s) = 5.07415 6.93181 6.07441
#
# Compressibility (1/GPa) = 0.02455250
#
# Stress axis : x y z
#
# Youngs Moduli (GPa) = 106.12499 259.67998 75.00315
#
# Poissons Ratio (x) = 0.33765 -0.17145
# Poissons Ratio (y) = 0.13799 0.15095
# Poissons Ratio (z) = -0.24259 0.52264
#
# Static dielectric constant tensor:
#      x y z
#    x 2.069120 0.000000 0.033260 
#    y 0.000000 2.178450 0.000000 
#    z 0.033260 0.000000 2.022670 
# 
# From -- ./inp_files/342994.got.cif
#   From: 2010.05.17/outbox.cif.g08.bks.cpg/sg12_172_cif.got.tgz:342994.got - 2010.06.03 13:09:07.
