data_PCOD9171097
_publ_section_title
;
Structure prediction by ZEFSAII (Michael W. Deem and Ramdas Pophale) SiO2 
 PCOD9171097
Probable space group: C 2/M
;
_chemical_formula_sum "Si O2"
_cell_formula_units_Z 56
_cell_length_a 25.008796
_cell_length_b 9.045572
_cell_length_c 18.347837
_cell_angle_alpha 90.000000
_cell_angle_beta 63.497079
_cell_angle_gamma 90.000000
_cell_volume 3714.444176
_symmetry_space_group_name_H-M "C 2/M"
_symmetry_group_IT_number 12
_symmetry_cell_setting 'monoclinic'
loop_
_space_group_symop_operation_xyz
x,y,z
-x,y,-z
-x,-y,-z
x,-y,z
1/2+x,1/2+y,z
1/2-x,1/2+y,-z
1/2-x,1/2-y,-z
1/2+x,1/2-y,z
loop_
_atom_site_type_symbol
_atom_site_label
_atom_site_fract_x
_atom_site_fract_y
_atom_site_fract_z
Si Si1 0.162853 0.176916 0.014773
Si Si2 0.793863 0.675879 0.869020
Si Si3 0.856259 0.675226 0.220254
Si Si4 0.695800 0.825097 0.435498
Si Si5 0.215643 0.176145 0.277627
Si Si6 0.821681 0.323309 0.396469
Si Si7 0.568435 0.678274 0.950935
O O1 0.166747 0.258572 0.089459
O O2 0.160163 0.000000 0.028199
O O3 0.224988 0.207789 0.934385
O O4 0.108494 0.223261 0.996067
O O5 0.800633 0.500000 0.859963
O O6 0.805253 0.750911 0.784599
O O7 0.863700 0.500000 0.204188
O O8 0.786742 0.710877 0.244051
O O9 0.864205 0.705980 0.301767
O O10 0.899857 0.761130 0.140517
O O11 0.682612 0.739566 0.369091
O O12 0.762549 0.772152 0.416757
O O13 0.658683 0.794461 0.532359
O O14 0.694949 0.000000 0.422368
O O15 0.210017 0.000000 0.278457
O O16 0.806166 0.500000 0.401924
O O17 0.569596 0.500000 0.947596
O O18 0.500000 0.726971 0.000000
#
# Coordination Sequence:
#
# PCOD9171097 Si02
#       7
#     8   8   8   8   8   8   8
#     4   9  18  31  44  61  85 111 141 179 221 256
#     4  10  18  28  45  65  84 111 146 178 213 259
#     4   9  17  28  42  59  82 112 146 179 214 254
#     4   9  15  23  37  56  81 111 143 174 207 250
#     4  10  18  27  40  60  88 116 143 175 213 255
#     4   8  15  26  37  54  80 111 142 175 212 251
#     4  10  20  33  47  63  85 113 147 184 219 255
#
# _framework density 15.076279
#
# number of rings (size 3 to 8) (size 9 to 14) (size 15 to 20)
#    0.000    2.714    1.429    2.143    0.000    4.286 
#    0.000    0.000    0.000    0.000    0.000    0.000 
#    0.000    1.143    0.000   13.143    0.000    4.286 
#
# Total GULP energy -155878.041157 kJ/mol
# GULP energy per Si atom -5567.072898 kJ/mol
# Density = 1.504196 g / cm^3
# Si number density = 15.076279 Si / 1000 Ang^3
#
#
#
# Elastic Constant Matrix: (Units=GPa)
#
#
# Indices 1 2 3 4 5 6 
#
# 1 65.0526 26.7421 57.8621 0.0000 14.0319 -0.0003
# 2 26.7421 30.8956 47.1681 0.0000 14.9473 -0.0006
# 3 57.8621 47.1681 128.9008 0.0000 38.0757 0.0000
# 4 0.0000 0.0000 0.0000 27.9499 0.0000 7.2942
# 5 14.0319 14.9473 38.0757 0.0000 24.8401 -0.0001
# 6 -0.0003 -0.0006 0.0000 7.2942 -0.0001 14.3614
#
#
#
# Elastic Compliance Matrix: (Units=1/GPa)
#
#
# Indices 1 2 3 4 5 6 
#
# 1 0.027846 -0.011905 -0.010257 0.000000 0.007157 0.000000
# 2 -0.011905 0.078837 -0.020975 -0.000001 -0.008563 0.000003
# 3 -0.010257 -0.020975 0.026676 0.000000 -0.022475 -0.000001
# 4 0.000000 -0.000001 0.000000 0.041245 0.000000 -0.020949
# 5 0.007157 -0.008563 -0.022475 0.000000 0.075817 0.000000
# 6 0.000000 0.000003 -0.000001 -0.020949 0.000000 0.080271
#
#
# Mechanical properties :
#
#
# Convention : Reuss Voigt Hill
#
# Bulk Modulus (GPa) = 21.23847 54.26596 37.75221
# Shear Modulus (GPa) = 11.55636 19.63539 15.59587
#
# Velocity S-wave (km/s) = 2.77162 3.61280 3.21980
# Velocity P-wave (km/s) = 4.93563 7.31269 6.23843
#
# Compressibility (1/GPa) = 0.04708438
#
# Stress axis : x y z
#
# Youngs Moduli (GPa) = 35.91167 12.68445 37.48643
#
# Poissons Ratio (x) = 0.15101 0.38451
# Poissons Ratio (y) = 0.42753 0.78627
# Poissons Ratio (z) = 0.36836 0.26606
#
# Static dielectric constant tensor:
#      x y z
#    x 1.477000 0.000000 0.027030 
#    y 0.000000 1.500480 0.000000 
#    z 0.027030 0.000000 1.524020 
# 
# From -- ./inp_files/287350.got.cif
#   From: 2010.05.17/outbox.cif.g08.bks.cpg/sg12_144_cif.got.tgz:287350.got - 2010.06.03 13:09:07.
