data_PCOD9171268
_publ_section_title
;
Structure prediction by ZEFSAII (Michael W. Deem and Ramdas Pophale) SiO2 
 PCOD9171268
Probable space group: C 2/M
;
_chemical_formula_sum "Si O2"
_cell_formula_units_Z 64
_cell_length_a 10.010274
_cell_length_b 23.169956
_cell_length_c 13.656423
_cell_angle_alpha 90.000000
_cell_angle_beta 106.321177
_cell_angle_gamma 90.000000
_cell_volume 3039.795050
_symmetry_space_group_name_H-M "C 2/M"
_symmetry_group_IT_number 12
_symmetry_cell_setting 'monoclinic'
loop_
_space_group_symop_operation_xyz
x,y,z
-x,y,-z
-x,-y,-z
x,-y,z
1/2+x,1/2+y,z
1/2-x,1/2+y,-z
1/2-x,1/2-y,-z
1/2+x,1/2-y,z
loop_
_atom_site_type_symbol
_atom_site_label
_atom_site_fract_x
_atom_site_fract_y
_atom_site_fract_z
Si Si1 0.017248 0.932053 0.351681
Si Si2 0.321598 0.389692 0.803993
Si Si3 0.780999 0.567116 0.515058
Si Si4 0.744178 0.064321 0.977424
Si Si5 0.985238 0.209457 0.115871
Si Si6 0.056058 0.432533 0.659218
Si Si7 0.288287 0.619789 0.183371
Si Si8 0.014861 0.662222 0.891135
O O1 0.100653 0.923286 0.266678
O O2 0.126959 0.910319 0.457128
O O3 0.875688 0.898595 0.296904
O O4 0.992851 0.000000 0.362804
O O5 0.352297 0.420892 0.913335
O O6 0.377752 0.324623 0.818277
O O7 0.157895 0.395182 0.746694
O O8 0.761415 0.500000 0.537944
O O9 0.899056 0.589988 0.612810
O O10 0.865119 0.567356 0.429304
O O11 0.630266 0.113434 0.932669
O O12 0.689791 0.000000 0.950955
O O13 0.791291 0.070958 0.099124
O O14 0.963638 0.274574 0.150329
O O15 0.860148 0.172400 0.138115
O O16 0.000000 0.203675 0.000000
O O17 0.052848 0.500000 0.690666
O O18 0.129399 0.634673 0.172960
O O19 0.000000 0.682036 0.000000
#
# Coordination Sequence:
#
# PCOD9171268 Si02
#       8
#     8   8   8   8   8   8   8   8
#     4   9  16  26  42  67  98 122 148 185 230 275
#     4  10  18  27  44  70  95 124 150 188 226 276
#     4   7  11  20  36  59  89 123 147 177 221 270
#     4  11  21  32  46  68  98 128 153 183 232 278
#     4  10  19  33  49  66  90 117 162 194 231 263
#     4   8  12  21  37  60  94 122 145 179 225 273
#     4  10  20  32  46  68  89 124 154 191 226 269
#     4   9  22  34  49  63  85 126 162 202 215 258
#
# _framework density 21.054051000000001
#
# number of rings (size 3 to 8) (size 9 to 14) (size 15 to 20)
#    0.000    2.750    1.250    3.000    1.750    4.250 
#    0.000    1.875    0.000    0.000    0.000    1.750 
#    7.500    4.125    0.000    0.000    0.000    0.000 
#
# Total GULP energy -178141.222320 kJ/mol
# GULP energy per Si atom -5566.913198 kJ/mol
# Density = 2.100613 g / cm^3
# Si number density = 21.054051 Si / 1000 Ang^3
#
#
#
# Elastic Constant Matrix: (Units=GPa)
#
#
# Indices 1 2 3 4 5 6 
#
# 1 45.1363 4.7894 32.8564 0.0000 15.9822 0.0000
# 2 4.7894 95.8113 25.5390 0.0000 7.6511 0.0000
# 3 32.8564 25.5390 109.4871 0.0000 41.9886 0.0000
# 4 0.0000 0.0000 0.0000 -15.0724 0.0000 7.7450
# 5 15.9822 7.6511 41.9886 0.0000 36.1223 0.0000
# 6 0.0000 0.0000 0.0000 7.7450 0.0000 -23.2985
#
#
#
# Elastic Compliance Matrix: (Units=1/GPa)
#
#
# Indices 1 2 3 4 5 6 
#
# 1 0.028873 0.000809 -0.007016 0.000000 -0.004790 0.000000
# 2 0.000809 0.011180 -0.003257 0.000000 0.001060 0.000000
# 3 -0.007016 -0.003257 0.019025 0.000000 -0.018320 0.000000
# 4 0.000000 0.000000 0.000000 -0.080014 0.000000 -0.026599
# 5 -0.004790 0.001060 -0.018320 0.000000 0.050874 0.000000
# 6 0.000000 0.000000 0.000000 -0.026599 0.000000 -0.051763
#
#
# Mechanical properties :
#
#
# Convention : Reuss Voigt Hill
#
# Bulk Modulus (GPa) = 24.90695 41.86716 33.38706
# Shear Modulus (GPa) = 476.82998 12.03360 244.43179
#
# Velocity S-wave (km/s) = 15.06554 2.39332 10.78653
# Velocity P-wave (km/s) = 17.73367 5.25034 13.07764
#
# Compressibility (1/GPa) = 0.04014944
#
# Stress axis : x y z
#
# Youngs Moduli (GPa) = 34.63461 89.44274 52.56338
#
# Poissons Ratio (x) = -0.07240 0.36880
# Poissons Ratio (y) = -0.02804 0.17122
# Poissons Ratio (z) = 0.24300 0.29135
#
# Static dielectric constant tensor:
#      x y z
#    x 1.879020 0.000000 0.001900 
#    y 0.000000 1.747570 0.000000 
#    z 0.001900 0.000000 1.832970 
# 
# From -- ./inp_files/307039.got.cif
#   From: 2010.05.17/outbox.cif.g08.bks.cpg/sg12_154_cif.got.tgz:307039.got - 2010.06.03 13:09:07.
