data_PCOD9171954
_publ_section_title
;
Structure prediction by ZEFSAII (Michael W. Deem and Ramdas Pophale) SiO2 
 PCOD9171954
Probable space group: C 2/M
;
_chemical_formula_sum "Si O2"
_cell_formula_units_Z 64
_cell_length_a 25.837100
_cell_length_b 7.473097
_cell_length_c 18.431023
_cell_angle_alpha 90.000000
_cell_angle_beta 102.307725
_cell_angle_gamma 90.000000
_cell_volume 3476.929441
_symmetry_space_group_name_H-M "C 2/M"
_symmetry_group_IT_number 12
_symmetry_cell_setting 'monoclinic'
loop_
_space_group_symop_operation_xyz
x,y,z
-x,y,-z
-x,-y,-z
x,-y,z
1/2+x,1/2+y,z
1/2-x,1/2+y,-z
1/2-x,1/2-y,-z
1/2+x,1/2-y,z
loop_
_atom_site_type_symbol
_atom_site_label
_atom_site_fract_x
_atom_site_fract_y
_atom_site_fract_z
Si Si1 0.487699 0.780728 0.079000
Si Si2 0.089384 0.294352 0.191642
Si Si3 0.664212 0.216795 0.339227
Si Si4 0.286789 0.787260 0.337454
Si Si5 0.675328 0.710292 0.099488
Si Si6 0.293009 0.780580 0.177790
Si Si7 0.311325 0.213934 0.498748
Si Si8 0.631493 0.215662 0.928221
O O1 0.534549 0.716581 0.145667
O O2 0.429148 0.722455 0.084370
O O3 0.488626 0.000000 0.079500
O O4 0.500000 0.726459 0.000000
O O5 0.077745 0.500000 0.207721
O O6 0.120746 0.215079 0.269462
O O7 0.130526 0.294610 0.136878
O O8 0.723517 0.262272 0.329706
O O9 0.658035 0.280157 0.420683
O O10 0.662200 0.000000 0.338912
O O11 0.302357 0.718955 0.262944
O O12 0.316371 0.715278 0.418204
O O13 0.295940 0.000000 0.339359
O O14 0.673939 0.500000 0.115768
O O15 0.734111 0.775941 0.135854
O O16 0.661424 0.736400 0.011403
O O17 0.336055 0.721227 0.131982
O O18 0.293113 0.000000 0.177737
O O19 0.250000 0.250000 0.500000
O O20 0.319241 0.000000 0.498269
O O21 0.630026 0.000000 0.924642
#
# Coordination Sequence:
#
# PCOD9171954 Si02
#       8
#     8   8   8   8   8   8   8   8
#     4   9  16  28  46  63  76 101 144 181 207 238
#     4  10  18  29  45  63  83 110 141 173 207 242
#     4   9  16  25  39  62  85 106 137 167 200 241
#     4   9  15  26  41  58  85 113 134 159 200 246
#     4  11  20  30  43  63  88 108 135 169 210 255
#     4   9  18  29  43  63  84 110 141 169 200 248
#     4   8  14  23  37  57  82 110 133 159 194 241
#     4  10  19  33  48  59  78 109 146 179 204 238
#
# _framework density 18.407046999999999
#
# number of rings (size 3 to 8) (size 9 to 14) (size 15 to 20)
#    0.000    2.625    2.500    0.750    0.000    0.000 
#    0.000    2.500    0.000    0.000    0.000    0.875 
#    0.000    7.000    0.000    0.000    0.000   46.875 
#
# Total GULP energy -178417.092846 kJ/mol
# GULP energy per Si atom -5575.534151 kJ/mol
# Density = 1.836515 g / cm^3
# Si number density = 18.407047 Si / 1000 Ang^3
#
#
#
# Elastic Constant Matrix: (Units=GPa)
#
#
# Indices 1 2 3 4 5 6 
#
# 1 65.5872 -0.8016 62.4710 0.0000 -8.6207 0.0000
# 2 -0.8016 54.5590 -0.7481 0.0000 0.0784 0.0000
# 3 62.4710 -0.7481 196.8861 0.0000 11.8592 0.0000
# 4 0.0000 0.0000 0.0000 19.9993 0.0000 1.2730
# 5 -8.6207 0.0784 11.8592 0.0000 17.4847 0.0000
# 6 0.0000 0.0000 0.0000 1.2730 0.0000 3.7474
#
#
#
# Elastic Compliance Matrix: (Units=1/GPa)
#
#
# Indices 1 2 3 4 5 6 
#
# 1 0.027310 0.000237 -0.009879 0.000000 0.020164 0.000000
# 2 0.000237 0.018332 -0.000008 0.000000 0.000040 0.000000
# 3 -0.009879 -0.000008 0.008869 0.000000 -0.010886 0.000000
# 4 0.000000 0.000000 0.000000 0.051107 0.000000 -0.017361
# 5 0.020164 0.000040 -0.010886 0.000000 0.074518 0.000000
# 6 0.000000 0.000000 0.000000 -0.017361 0.000000 0.272752
#
#
# Mechanical properties :
#
#
# Convention : Reuss Voigt Hill
#
# Bulk Modulus (GPa) = 28.40010 48.76386 38.58198
# Shear Modulus (GPa) = 10.33218 25.32035 17.82626
#
# Velocity S-wave (km/s) = 2.37178 3.71290 3.11537
# Velocity P-wave (km/s) = 4.79196 6.70301 5.82637
#
# Compressibility (1/GPa) = 0.03521115
#
# Stress axis : x y z
#
# Youngs Moduli (GPa) = 36.61714 54.54913 112.74867
#
# Poissons Ratio (x) = -0.01292 1.11383
# Poissons Ratio (y) = -0.00867 0.00089
# Poissons Ratio (z) = 0.36174 0.00043
#
# Static dielectric constant tensor:
#      x y z
#    x 1.593100 0.000000 0.019270 
#    y 0.000000 1.685690 0.000000 
#    z 0.019270 0.000000 1.673650 
# 
# From -- ./inp_files/287643.got.cif
#   From: 2010.05.17/outbox.cif.g08.bks.cpg/sg12_144_cif.got.tgz:287643.got - 2010.06.03 13:09:07.
