data_PCOD9171858
_publ_section_title
;
Structure prediction by ZEFSAII (Michael W. Deem and Ramdas Pophale) SiO2 
 PCOD9171858
Probable space group: C 2/M
;
_chemical_formula_sum "Si O2"
_cell_formula_units_Z 64
_cell_length_a 34.523979
_cell_length_b 9.238027
_cell_length_c 11.713929
_cell_angle_alpha 90.000000
_cell_angle_beta 94.724223
_cell_angle_gamma 90.000000
_cell_volume 3723.271439
_symmetry_space_group_name_H-M "C 2/M"
_symmetry_group_IT_number 12
_symmetry_cell_setting 'monoclinic'
loop_
_space_group_symop_operation_xyz
x,y,z
-x,y,-z
-x,-y,-z
x,-y,z
1/2+x,1/2+y,z
1/2-x,1/2+y,-z
1/2-x,1/2-y,-z
1/2+x,1/2-y,z
loop_
_atom_site_type_symbol
_atom_site_label
_atom_site_fract_x
_atom_site_fract_y
_atom_site_fract_z
Si Si1 0.572220 0.172495 0.588309
Si Si2 0.016426 0.327015 0.788634
Si Si3 0.863311 0.171755 0.260634
Si Si4 0.435084 0.826108 0.674884
Si Si5 0.876934 0.826617 0.814571
Si Si6 0.420027 0.328190 0.058675
Si Si7 0.703809 0.671874 0.097500
Si Si8 0.292329 0.828541 0.144469
O O1 0.539592 0.202974 0.675938
O O2 0.610532 0.259159 0.634039
O O3 0.559131 0.208015 0.457174
O O4 0.579917 0.000000 0.595300
O O5 0.016578 0.500000 0.805761
O O6 0.040912 0.252783 0.894524
O O7 0.972389 0.277578 0.757785
O O8 0.888024 0.198863 0.150030
O O9 0.822034 0.248246 0.234783
O O10 0.859227 0.000000 0.273097
O O11 0.396550 0.753548 0.714263
O O12 0.432668 0.000000 0.683745
O O13 0.832066 0.791359 0.829598
O O14 0.879900 0.000000 0.801511
O O15 0.901356 0.785127 0.934015
O O16 0.427229 0.500000 0.058302
O O17 0.746665 0.694533 0.159274
O O18 0.799769 0.000000 0.932336
O O19 0.701324 0.762218 0.980271
O O20 0.299917 0.000000 0.145411
#
# Coordination Sequence:
#
# PCOD9171858 Si02
#       8
#     8   8   8   8   8   8   8   8
#     4   9  18  34  54  74  97 127 167 210 254 297
#     4   9  18  33  53  74  97 126 162 209 258 297
#     4  10  18  31  51  75 105 132 161 204 251 295
#     4  10  21  35  51  73  99 129 167 212 253 293
#     4  10  20  35  51  68 101 141 169 197 240 298
#     4   9  18  32  49  70  99 134 165 199 244 293
#     4   9  18  33  49  71 104 137 165 200 242 290
#     4  10  18  28  50  79 103 129 164 202 246 294
#
# _framework density 17.189184000000001
#
# number of rings (size 3 to 8) (size 9 to 14) (size 15 to 20)
#    0.000    2.500    1.250    1.125    0.000    5.000 
#    0.000    2.500    0.000    4.500    0.000    0.000 
#    0.000    0.000    0.000    0.000    0.000    0.000 
#
# Total GULP energy -178482.426436 kJ/mol
# GULP energy per Si atom -5577.575826 kJ/mol
# Density = 1.715006 g / cm^3
# Si number density = 17.189184 Si / 1000 Ang^3
#
#
#
# Elastic Constant Matrix: (Units=GPa)
#
#
# Indices 1 2 3 4 5 6 
#
# 1 98.5456 34.3770 1.5495 0.0000 6.0174 0.0000
# 2 34.3770 22.6289 5.7461 0.0000 4.1495 0.0000
# 3 1.5495 5.7461 6.3928 0.0000 -0.4540 0.0000
# 4 0.0000 0.0000 0.0000 23.7521 0.0000 1.8721
# 5 6.0174 4.1495 -0.4540 0.0000 21.0225 0.0000
# 6 0.0000 0.0000 0.0000 1.8721 0.0000 23.3452
#
#
#
# Elastic Compliance Matrix: (Units=1/GPa)
#
#
# Indices 1 2 3 4 5 6 
#
# 1 0.028120 -0.054029 0.041998 0.000000 0.003523 0.000000
# 2 -0.054029 0.164510 -0.136189 0.000000 -0.019948 0.000000
# 3 0.041998 -0.136189 0.270128 0.000000 0.020694 0.000000
# 4 0.000000 0.000000 0.000000 0.042369 0.000000 -0.003398
# 5 0.003523 -0.019948 0.020694 0.000000 0.050944 0.000000
# 6 0.000000 0.000000 0.000000 -0.003398 0.000000 0.043108
#
#
# Mechanical properties :
#
#
# Convention : Reuss Voigt Hill
#
# Bulk Modulus (GPa) = 6.01263 23.43475 14.72369
# Shear Modulus (GPa) = 5.25731 19.35027 12.30379
#
# Velocity S-wave (km/s) = 1.75075 3.35882 2.67832
# Velocity P-wave (km/s) = 2.75542 5.35773 4.26014
#
# Compressibility (1/GPa) = 0.16631667
#
# Stress axis : x y z
#
# Youngs Moduli (GPa) = 35.56234 6.07867 3.70195
#
# Poissons Ratio (x) = 0.32842 -0.15547
# Poissons Ratio (y) = 1.92138 0.50417
# Poissons Ratio (z) = -1.49353 0.82785
#
# Static dielectric constant tensor:
#      x y z
#    x 1.590980 0.000000 0.003980 
#    y 0.000000 1.570390 0.000000 
#    z 0.003980 0.000000 1.562520 
# 
# From -- ./inp_files/187408.got.cif
#   From: 2010.05.17/outbox.cif.g08.bks.cpg/sg12_94_cif.got.tgz:187408.got - 2010.06.03 13:09:07.
