data_PCOD9171295
_publ_section_title
;
Structure prediction by ZEFSAII (Michael W. Deem and Ramdas Pophale) SiO2 
 PCOD9171295
Probable space group: C 2/M
;
_chemical_formula_sum "Si O2"
_cell_formula_units_Z 48
_cell_length_a 29.162268
_cell_length_b 8.685426
_cell_length_c 22.120780
_cell_angle_alpha 90.000000
_cell_angle_beta 31.875063
_cell_angle_gamma 90.000000
_cell_volume 2958.716500
_symmetry_space_group_name_H-M "C 2/M"
_symmetry_group_IT_number 12
_symmetry_cell_setting 'monoclinic'
loop_
_space_group_symop_operation_xyz
x,y,z
-x,y,-z
-x,-y,-z
x,-y,z
1/2+x,1/2+y,z
1/2-x,1/2+y,-z
1/2-x,1/2-y,-z
1/2+x,1/2-y,z
loop_
_atom_site_type_symbol
_atom_site_label
_atom_site_fract_x
_atom_site_fract_y
_atom_site_fract_z
Si Si1 0.634224 0.185157 0.965368
Si Si2 0.600978 0.815898 0.445613
Si Si3 0.544633 0.178938 0.883513
Si Si4 0.295240 0.317585 0.239254
Si Si5 0.264479 0.183913 0.917225
Si Si6 0.079875 0.816270 0.334436
O O1 0.532707 0.231809 0.073908
O O2 0.637750 0.000000 0.966657
O O3 0.679258 0.232533 0.851644
O O4 0.686317 0.262910 0.960996
O O5 0.695719 0.780024 0.366230
O O6 0.519024 0.733886 0.567923
O O7 0.601604 0.759143 0.375253
O O8 0.587916 0.000000 0.461071
O O9 0.633606 0.271046 0.790628
O O10 0.563933 0.000000 0.849697
O O11 0.500000 0.186114 0.000000
O O12 0.300350 0.500000 0.222078
O O13 0.351898 0.252975 0.790052
O O14 0.269794 0.000000 0.912403
O O15 0.250000 0.250000 0.000000
O O16 0.086310 0.000000 0.332263
#
# Coordination Sequence:
#
# PCOD9171295 Si02
#       6
#     8   8   8   8   8   8
#     4  10  19  32  48  68  97 131 166 205 248 293
#     4  10  19  31  48  72 103 135 165 204 249 295
#     4   8  16  28  43  65  96 130 162 199 243 293
#     4  10  18  27  45  72 101 133 165 199 245 296
#     4  12  24  38  54  73  98 131 169 210 250 295
#     4  11  21  33  50  72  97 131 169 206 248 298
#
# _framework density 16.22325
#
# number of rings (size 3 to 8) (size 9 to 14) (size 15 to 20)
#    0.000    1.833    1.667    6.500    0.000    5.667 
#    0.000    0.000    0.000    0.000    0.000    1.167 
#    0.000    0.000    0.000    0.000    0.000    0.000 
#
# Total GULP energy -133876.750187 kJ/mol
# GULP energy per Si atom -5578.197924 kJ/mol
# Density = 1.618632 g / cm^3
# Si number density = 16.223250 Si / 1000 Ang^3
#
#
#
# Elastic Constant Matrix: (Units=GPa)
#
#
# Indices 1 2 3 4 5 6 
#
# 1 84.5241 28.5656 59.6894 -0.0026 -22.9214 0.0014
# 2 28.5656 68.6435 29.6994 -0.0098 -9.6013 0.0051
# 3 59.6894 29.6994 91.3522 -0.0019 -18.6069 0.0015
# 4 -0.0026 -0.0098 -0.0019 31.9212 0.0018 -6.2536
# 5 -22.9214 -9.6013 -18.6069 0.0018 30.7638 -0.0014
# 6 0.0014 0.0051 0.0015 -6.2536 -0.0014 26.9226
#
#
#
# Elastic Compliance Matrix: (Units=1/GPa)
#
#
# Indices 1 2 3 4 5 6 
#
# 1 0.024873 -0.003291 -0.013249 0.000000 0.009492 0.000000
# 2 -0.003291 0.017524 -0.003344 0.000004 0.000994 -0.000002
# 3 -0.013249 -0.003344 0.021062 -0.000001 0.001824 0.000000
# 4 0.000000 0.000004 -0.000001 0.032821 -0.000001 0.007624
# 5 0.009492 0.000994 0.001824 -0.000001 0.040992 0.000001
# 6 0.000000 -0.000002 0.000000 0.007624 0.000001 0.038914
#
#
# Mechanical properties :
#
#
# Convention : Reuss Voigt Hill
#
# Bulk Modulus (GPa) = 42.21021 53.38095 47.79558
# Shear Modulus (GPa) = 22.33630 26.35922 24.34776
#
# Velocity S-wave (km/s) = 3.71456 4.03523 3.87821
# Velocity P-wave (km/s) = 6.66874 7.39501 7.04125
#
# Compressibility (1/GPa) = 0.02369095
#
# Stress axis : x y z
#
# Youngs Moduli (GPa) = 40.20355 57.06619 47.47842
#
# Poissons Ratio (x) = 0.18780 0.62904
# Poissons Ratio (y) = 0.13231 0.15878
# Poissons Ratio (z) = 0.53265 0.19084
#
# Static dielectric constant tensor:
#      x y z
#    x 1.554420 0.000000 -0.045590 
#    y 0.000000 1.542370 0.000000 
#    z -0.045590 0.000000 1.537040 
# 
# From -- ./inp_files/329016.got.cif
#   From: 2010.05.17/outbox.cif.g08.bks.cpg/sg12_165_cif.got.tgz:329016.got - 2010.06.03 13:09:07.
