data_PCOD9171217
_publ_section_title
;
Structure prediction by ZEFSAII (Michael W. Deem and Ramdas Pophale) SiO2 
 PCOD9171217
Probable space group: C 2/M
;
_chemical_formula_sum "Si O2"
_cell_formula_units_Z 48
_cell_length_a 25.056083
_cell_length_b 7.882835
_cell_length_c 14.958853
_cell_angle_alpha 90.000000
_cell_angle_beta 70.151540
_cell_angle_gamma 90.000000
_cell_volume 2779.048221
_symmetry_space_group_name_H-M "C 2/M"
_symmetry_group_IT_number 12
_symmetry_cell_setting 'monoclinic'
loop_
_space_group_symop_operation_xyz
x,y,z
-x,y,-z
-x,-y,-z
x,-y,z
1/2+x,1/2+y,z
1/2-x,1/2+y,-z
1/2-x,1/2-y,-z
1/2+x,1/2-y,z
loop_
_atom_site_type_symbol
_atom_site_label
_atom_site_fract_x
_atom_site_fract_y
_atom_site_fract_z
Si Si1 0.083232 0.698364 0.494390
Si Si2 0.235859 0.704752 0.227716
Si Si3 0.305169 0.704150 0.027394
Si Si4 0.289046 0.204048 0.560754
Si Si5 0.125324 0.205497 0.173334
Si Si6 0.475682 0.303445 0.652651
O O1 0.086894 0.500000 0.467693
O O2 0.145466 0.760246 0.485932
O O3 0.059981 0.791136 0.419505
O O4 0.035530 0.717203 0.597481
O O5 0.239188 0.500000 0.228204
O O6 0.287948 0.766866 0.135778
O O7 0.233702 0.767896 0.330381
O O8 0.176909 0.747756 0.210836
O O9 0.309904 0.500000 0.029494
O O10 0.250000 0.750000 0.000000
O O11 0.357134 0.765305 0.936140
O O12 0.250000 0.250000 0.500000
O O13 0.290101 0.000000 0.564732
O O14 0.066011 0.267924 0.247636
O O15 0.122763 0.000000 0.173874
O O16 0.487329 0.500000 0.665043
#
# Coordination Sequence:
#
# PCOD9171217 Si02
#       6
#     8   8   8   8   8   8
#     4  10  19  31  44  61  86 115 149 181 214 257
#     4   9  16  28  43  60  85 115 146 177 212 256
#     4   8  14  24  39  59  85 113 139 170 208 255
#     4  10  21  33  46  64  85 115 151 185 220 255
#     4   9  16  25  40  65  91 115 140 169 212 259
#     4  10  18  27  43  66  91 117 143 173 215 260
#
# _framework density 17.272099999999998
#
# number of rings (size 3 to 8) (size 9 to 14) (size 15 to 20)
#    0.000    2.667    1.667    2.000    0.000    2.667 
#    0.000    0.000    0.000    0.000    0.000    1.167 
#    0.000    9.333    0.000    0.000    0.000    0.000 
#
# Total GULP energy -133624.250817 kJ/mol
# GULP energy per Si atom -5567.677117 kJ/mol
# Density = 1.723279 g / cm^3
# Si number density = 17.272100 Si / 1000 Ang^3
#
#
#
# Elastic Constant Matrix: (Units=GPa)
#
#
# Indices 1 2 3 4 5 6 
#
# 1 72.8968 -0.2603 68.8587 0.0000 -9.7018 0.0000
# 2 -0.2603 20.2969 3.7752 0.0000 -0.0736 0.0000
# 3 68.8587 3.7752 171.9098 0.0000 -30.3202 0.0000
# 4 0.0000 0.0000 0.0000 7.2680 0.0000 -0.3745
# 5 -9.7018 -0.0736 -30.3202 0.0000 26.0145 0.0000
# 6 0.0000 0.0000 0.0000 -0.3745 0.0000 17.7778
#
#
#
# Elastic Compliance Matrix: (Units=1/GPa)
#
#
# Indices 1 2 3 4 5 6 
#
# 1 0.022292 0.002034 -0.009449 0.000000 -0.002693 0.000000
# 2 0.002034 0.049698 -0.002200 0.000000 -0.001665 0.000000
# 3 -0.009449 -0.002200 0.011363 0.000000 0.009714 0.000000
# 4 0.000000 0.000000 0.000000 0.137738 0.000000 0.002901
# 5 -0.002693 -0.001665 0.009714 0.000000 0.048753 0.000000
# 6 0.000000 0.000000 0.000000 0.002901 0.000000 0.056311
#
#
# Mechanical properties :
#
#
# Convention : Reuss Voigt Hill
#
# Bulk Modulus (GPa) = 15.59485 45.53896 30.56690
# Shear Modulus (GPa) = 13.63290 23.06073 18.34682
#
# Velocity S-wave (km/s) = 2.81250 3.65793 3.26271
# Velocity P-wave (km/s) = 4.42667 6.65308 5.65061
#
# Compressibility (1/GPa) = 0.06412373
#
# Stress axis : x y z
#
# Youngs Moduli (GPa) = 44.85846 20.12163 88.00197
#
# Poissons Ratio (x) = -0.04092 0.83152
# Poissons Ratio (y) = -0.09122 0.19356
# Poissons Ratio (z) = 0.42386 0.04426
#
# Static dielectric constant tensor:
#      x y z
#    x 1.547820 0.000000 -0.049820 
#    y 0.000000 1.588940 0.000000 
#    z -0.049820 0.000000 1.660950 
# 
# From -- ./inp_files/236626.got.cif
#   From: 2010.05.17/outbox.cif.g08.bks.cpg/sg12_119_cif.got.tgz:236626.got - 2010.06.03 13:09:07.
