data_PCOD9171727
_publ_section_title
;
Structure prediction by ZEFSAII (Michael W. Deem and Ramdas Pophale) SiO2 
 PCOD9171727
Probable space group: C 2/M
;
_chemical_formula_sum "Si O2"
_cell_formula_units_Z 56
_cell_length_a 29.910853
_cell_length_b 8.424898
_cell_length_c 14.241938
_cell_angle_alpha 90.000000
_cell_angle_beta 75.359803
_cell_angle_gamma 90.000000
_cell_volume 3472.385372
_symmetry_space_group_name_H-M "C 2/M"
_symmetry_group_IT_number 12
_symmetry_cell_setting 'monoclinic'
loop_
_space_group_symop_operation_xyz
x,y,z
-x,y,-z
-x,-y,-z
x,-y,z
1/2+x,1/2+y,z
1/2-x,1/2+y,-z
1/2-x,1/2-y,-z
1/2+x,1/2-y,z
loop_
_atom_site_type_symbol
_atom_site_label
_atom_site_fract_x
_atom_site_fract_y
_atom_site_fract_z
Si Si1 0.897499 0.188707 0.770884
Si Si2 0.986583 0.193146 0.610246
Si Si3 0.539088 0.688055 0.767008
Si Si4 0.549284 0.812483 0.081400
Si Si5 0.392533 0.190955 0.127747
Si Si6 0.302522 0.810720 0.863643
Si Si7 0.701802 0.191919 0.914690
O O1 0.934450 0.232440 0.670736
O O2 0.914354 0.281157 0.854598
O O3 0.844331 0.232221 0.784612
O O4 0.902205 0.000000 0.785088
O O5 0.000000 0.251091 0.500000
O O6 0.021028 0.247630 0.675202
O O7 0.989101 0.000000 0.607574
O O8 0.543782 0.500000 0.758597
O O9 0.497425 0.729254 0.860630
O O10 0.585774 0.757650 0.785424
O O11 0.539916 0.000000 0.077692
O O12 0.572644 0.754265 0.973355
O O13 0.341196 0.244722 0.126369
O O14 0.392166 0.000000 0.123952
O O15 0.251442 0.759499 0.859744
O O16 0.306970 0.000000 0.857132
O O17 0.306567 0.761213 0.971758
O O18 0.704023 0.000000 0.911870
#
# Coordination Sequence:
#
# PCOD9171727 Si02
#       7
#     8   8   8   8   8   8   8
#     4  10  18  28  47  71  92 119 154 192 230 270
#     4   8  16  32  50  68  91 117 148 188 232 277
#     4  10  20  30  44  68  90 115 153 191 227 270
#     4  10  18  30  44  61  89 126 158 183 220 267
#     4  10  19  31  44  61  90 128 157 181 221 268
#     4  10  18  30  45  65  92 124 157 190 228 265
#     4   9  18  31  44  62  89 125 164 190 216 261
#
# _framework density 16.127241999999999
#
# number of rings (size 3 to 8) (size 9 to 14) (size 15 to 20)
#    0.000    2.429    1.429    3.000    0.000    4.000 
#    0.000    0.000    0.000   15.429    0.000    1.000 
#    0.000    0.000    0.000    0.000    0.000    0.000 
#
# Total GULP energy -156082.226970 kJ/mol
# GULP energy per Si atom -5574.365249 kJ/mol
# Density = 1.609054 g / cm^3
# Si number density = 16.127242 Si / 1000 Ang^3
#
#
#
# Elastic Constant Matrix: (Units=GPa)
#
#
# Indices 1 2 3 4 5 6 
#
# 1 134.3080 9.1752 59.7442 0.0000 7.2270 0.0000
# 2 9.1752 8.3938 11.7833 0.0000 4.0045 0.0000
# 3 59.7442 11.7833 87.8911 0.0000 -1.2866 0.0000
# 4 0.0000 0.0000 0.0000 26.3727 0.0000 -8.1219
# 5 7.2270 4.0045 -1.2866 0.0000 9.3119 0.0000
# 6 0.0000 0.0000 0.0000 -8.1219 0.0000 32.7920
#
#
#
# Elastic Compliance Matrix: (Units=1/GPa)
#
#
# Indices 1 2 3 4 5 6 
#
# 1 0.011711 0.005873 -0.008936 0.000000 -0.012849 0.000000
# 2 0.005873 0.205515 -0.032972 0.000000 -0.097493 0.000000
# 3 -0.008936 -0.032972 0.022226 0.000000 0.024186 0.000000
# 4 0.000000 0.000000 0.000000 0.041049 0.000000 0.010167
# 5 -0.012849 -0.097493 0.024186 0.000000 0.162629 0.000000
# 6 0.000000 0.000000 0.000000 0.010167 0.000000 0.033013
#
#
# Mechanical properties :
#
#
# Convention : Reuss Voigt Hill
#
# Bulk Modulus (GPa) = 5.97434 43.55536 24.76485
# Shear Modulus (GPa) = 8.27804 23.68798 15.98301
#
# Velocity S-wave (km/s) = 2.26806 3.83667 3.15152
# Velocity P-wave (km/s) = 3.25136 6.83321 5.35089
#
# Compressibility (1/GPa) = 0.16738238
#
# Stress axis : x y z
#
# Youngs Moduli (GPa) = 85.39212 4.86583 44.99138
#
# Poissons Ratio (x) = -0.02858 0.40204
# Poissons Ratio (y) = -0.50155 1.48348
# Poissons Ratio (z) = 0.76306 0.16044
#
# Static dielectric constant tensor:
#      x y z
#    x 1.570410 0.000000 0.003380 
#    y 0.000000 1.549930 0.000000 
#    z 0.003380 0.000000 1.525990 
# 
# From -- ./inp_files/247739.got.cif
#   From: 2010.05.17/outbox.cif.g08.bks.cpg/sg12_124_cif.got.tgz:247739.got - 2010.06.03 13:09:07.
