data_PCOD9171656
_publ_section_title
;
Structure prediction by ZEFSAII (Michael W. Deem and Ramdas Pophale) SiO2 
 PCOD9171656
Probable space group: C 2/M
;
_chemical_formula_sum "Si O2"
_cell_formula_units_Z 34
_cell_length_a 9.074525
_cell_length_b 22.560821
_cell_length_c 7.281891
_cell_angle_alpha 90.000000
_cell_angle_beta 70.670351
_cell_angle_gamma 90.000000
_cell_volume 1406.774928
_symmetry_space_group_name_H-M "C 2/M"
_symmetry_group_IT_number 12
_symmetry_cell_setting 'monoclinic'
loop_
_space_group_symop_operation_xyz
x,y,z
-x,y,-z
-x,-y,-z
x,-y,z
1/2+x,1/2+y,z
1/2-x,1/2+y,-z
1/2-x,1/2-y,-z
1/2+x,1/2-y,z
loop_
_atom_site_type_symbol
_atom_site_label
_atom_site_fract_x
_atom_site_fract_y
_atom_site_fract_z
Si Si1 0.088918 0.935509 0.160669
Si Si2 0.000000 0.500000 0.500000
Si Si3 0.864946 0.601718 0.830895
Si Si4 0.086628 0.699476 0.662277
Si Si5 0.622033 0.329631 0.678173
O O1 0.009772 0.879404 0.289490
O O2 0.066791 0.000000 0.260599
O O3 0.270890 0.926179 0.039180
O O4 0.000000 0.939255 0.000000
O O5 0.079694 0.551750 0.334867
O O6 0.735271 0.642992 0.785166
O O7 0.007915 0.645916 0.800812
O O8 0.266215 0.684042 0.542072
O O9 0.065916 0.764244 0.756594
O O10 0.000000 0.702367 0.500000
#
# Coordination Sequence:
#
# PCOD9171656 Si02
#       5
#     8   2   8   8   8
#     4   9  17  26  41  66  91 113 140 180 228 266
#     4  12  16  28  46  72  94 114 138 184 226 276
#     4  10  18  28  46  68  93 115 141 182 224 268
#     4   9  17  30  44  62  88 120 150 178 214 263
#     4   9  17  28  43  64  90 117 145 179 221 262
#
# _framework density 24.168756999999999
#
# number of rings (size 3 to 8) (size 9 to 14) (size 15 to 20)
#    0.000    2.588    4.706    0.000    1.647    0.941 
#    0.000    0.000    0.000    0.706    0.000    0.000 
#    0.000   18.824    0.000    0.000    0.000    0.000 
#
# Total GULP energy -94687.994194 kJ/mol
# GULP energy per Si atom -5569.882011 kJ/mol
# Density = 2.411375 g / cm^3
# Si number density = 24.168757 Si / 1000 Ang^3
#
#
#
# Elastic Constant Matrix: (Units=GPa)
#
#
# Indices 1 2 3 4 5 6 
#
# 1 35.9257 32.5001 24.6850 0.0000 5.9260 0.0000
# 2 32.5001 243.7514 87.9047 0.0000 -25.9272 0.0000
# 3 24.6850 87.9047 126.3428 0.0000 -29.6761 0.0000
# 4 0.0000 0.0000 0.0000 19.9532 0.0000 -6.6556
# 5 5.9260 -25.9272 -29.6761 0.0000 34.4838 0.0000
# 6 0.0000 0.0000 0.0000 -6.6556 0.0000 8.3082
#
#
#
# Elastic Compliance Matrix: (Units=1/GPa)
#
#
# Indices 1 2 3 4 5 6 
#
# 1 0.040974 -0.003966 -0.009526 0.000000 -0.018221 0.000000
# 2 -0.003966 0.005891 -0.002662 0.000000 0.002820 0.000000
# 3 -0.009526 -0.002662 0.014467 0.000000 0.012086 0.000000
# 4 0.000000 0.000000 0.000000 0.068393 0.000000 0.054789
# 5 -0.018221 0.002820 0.012086 0.000000 0.044652 0.000000
# 6 0.000000 0.000000 0.000000 0.054789 0.000000 0.164254
#
#
# Mechanical properties :
#
#
# Convention : Reuss Voigt Hill
#
# Bulk Modulus (GPa) = 34.45314 77.35551 55.90432
# Shear Modulus (GPa) = 13.13673 29.94438 21.54055
#
# Velocity S-wave (km/s) = 2.33393 3.52372 2.98863
# Velocity P-wave (km/s) = 4.64211 6.97362 5.92370
#
# Compressibility (1/GPa) = 0.02902493
#
# Stress axis : x y z
#
# Youngs Moduli (GPa) = 24.40567 169.74596 69.12408
#
# Poissons Ratio (x) = 0.67320 0.65848
# Poissons Ratio (y) = 0.09679 0.18397
# Poissons Ratio (z) = 0.23249 0.45178
#
# Static dielectric constant tensor:
#      x y z
#    x 2.650640 0.000000 -0.108250 
#    y 0.000000 1.922910 0.000000 
#    z -0.108250 0.000000 1.981200 
# 
# From -- ./inp_files/48066.got.cif
#   From: 2010.05.17/outbox.cif.g08.bks.cpg/sg12_25_cif.got.tgz:48066.got - 2010.06.03 13:09:07.
