data_PCOD9171176
_publ_section_title
;
Structure prediction by ZEFSAII (Michael W. Deem and Ramdas Pophale) SiO2 
 PCOD9171176
Probable space group: C 2/M
;
_chemical_formula_sum "Si O2"
_cell_formula_units_Z 64
_cell_length_a 28.825489
_cell_length_b 8.916349
_cell_length_c 21.449519
_cell_angle_alpha 90.000000
_cell_angle_beta 129.472689
_cell_angle_gamma 90.000000
_cell_volume 4255.571796
_symmetry_space_group_name_H-M "C 2/M"
_symmetry_group_IT_number 12
_symmetry_cell_setting 'monoclinic'
loop_
_space_group_symop_operation_xyz
x,y,z
-x,y,-z
-x,-y,-z
x,-y,z
1/2+x,1/2+y,z
1/2-x,1/2+y,-z
1/2-x,1/2-y,-z
1/2+x,1/2-y,z
loop_
_atom_site_type_symbol
_atom_site_label
_atom_site_fract_x
_atom_site_fract_y
_atom_site_fract_z
Si Si1 0.383266 0.177851 0.765274
Si Si2 0.840444 0.829118 0.608102
Si Si3 0.192823 0.179706 0.916565
Si Si4 0.795730 0.327779 0.453147
Si Si5 0.370422 0.680882 0.017485
Si Si6 0.736418 0.680821 0.278213
Si Si7 0.000232 0.820386 0.073937
Si Si8 0.255261 0.180351 0.849165
O O1 0.376755 0.228134 0.687706
O O2 0.328090 0.255398 0.755098
O O3 0.445340 0.235583 0.846777
O O4 0.377518 0.000000 0.765728
O O5 0.836094 0.768724 0.534145
O O6 0.771777 0.827790 0.575431
O O7 0.861930 0.000000 0.628959
O O8 0.201796 0.222651 0.852123
O O9 0.198058 0.000000 0.922325
O O10 0.250000 0.250000 0.000000
O O11 0.138276 0.218348 0.916408
O O12 0.816571 0.500000 0.470889
O O13 0.784544 0.275419 0.372923
O O14 0.363094 0.500000 0.003862
O O15 0.317403 0.760735 0.933357
O O16 0.435728 0.720989 0.047645
O O17 0.733011 0.500000 0.274691
O O18 0.751674 0.744688 0.223791
O O19 0.008622 0.000000 0.089174
O O20 0.000000 0.789291 0.000000
O O21 0.257799 0.000000 0.845503
#
# Coordination Sequence:
#
# PCOD9171176 Si02
#       8
#     8   8   8   8   8   8   8   8
#     4  11  21  31  44  61  84 113 145 180 213 246
#     4   9  16  27  43  60  81 109 140 172 205 246
#     4   8  15  27  42  61  82 107 139 173 211 253
#     4   8  15  26  40  59  81 107 138 171 205 243
#     4   9  17  30  46  60  81 115 148 177 212 253
#     4  10  19  30  43  60  86 116 144 172 207 255
#     4  10  20  32  45  61  83 113 148 182 213 247
#     4  10  18  27  42  64  88 110 138 177 215 253
#
# _framework density 15.039108000000001
#
# number of rings (size 3 to 8) (size 9 to 14) (size 15 to 20)
#    0.000    2.625    0.000    3.750    0.000    5.750 
#    0.000    0.000    0.000    0.000    0.000    0.000 
#    0.000    1.000    0.000   11.500    0.000    3.125 
#
# Total GULP energy -178199.415663 kJ/mol
# GULP energy per Si atom -5568.731739 kJ/mol
# Density = 1.500488 g / cm^3
# Si number density = 15.039108 Si / 1000 Ang^3
#
#
#
# Elastic Constant Matrix: (Units=GPa)
#
#
# Indices 1 2 3 4 5 6 
#
# 1 101.6345 31.9119 50.4020 0.0000 -25.4828 0.0000
# 2 31.9119 51.5707 41.5600 -0.0001 -11.1704 0.0001
# 3 50.4020 41.5600 90.1433 0.0000 -29.0678 0.0000
# 4 0.0000 -0.0001 0.0000 13.5326 0.0000 5.4713
# 5 -25.4828 -11.1704 -29.0678 0.0000 24.6941 0.0000
# 6 0.0000 0.0001 0.0000 5.4713 0.0000 7.6616
#
#
#
# Elastic Compliance Matrix: (Units=1/GPa)
#
#
# Indices 1 2 3 4 5 6 
#
# 1 0.015441 -0.004821 -0.003184 0.000000 0.010004 0.000000
# 2 -0.004821 0.032673 -0.014839 0.000000 -0.007663 -0.000001
# 3 -0.003184 -0.014839 0.026580 0.000000 0.021290 0.000000
# 4 0.000000 0.000000 0.000000 0.103892 0.000000 -0.074191
# 5 0.010004 -0.007663 0.021290 0.000000 0.072413 0.000000
# 6 0.000000 -0.000001 0.000000 -0.074191 0.000000 0.183501
#
#
# Mechanical properties :
#
#
# Convention : Reuss Voigt Hill
#
# Bulk Modulus (GPa) = 34.47709 54.56624 44.52166
# Shear Modulus (GPa) = 10.20705 17.14265 13.67485
#
# Velocity S-wave (km/s) = 2.60801 3.37986 3.01871
# Velocity P-wave (km/s) = 5.66072 7.18282 6.46671
#
# Compressibility (1/GPa) = 0.02900477
#
# Stress axis : x y z
#
# Youngs Moduli (GPa) = 64.76418 30.60649 37.62176
#
# Poissons Ratio (x) = 0.14756 0.11981
# Poissons Ratio (y) = 0.31225 0.55826
# Poissons Ratio (z) = 0.20624 0.45416
#
# Static dielectric constant tensor:
#      x y z
#    x 1.510170 0.000000 -0.031990 
#    y 0.000000 1.505230 0.000000 
#    z -0.031990 0.000000 1.489330 
# 
# From -- ./inp_files/326933.got.cif
#   From: 2010.05.17/outbox.cif.g08.bks.cpg/sg12_164_cif.got.tgz:326933.got - 2010.06.03 13:09:07.
