data_PCOD9171199
_publ_section_title
;
Structure prediction by ZEFSAII (Michael W. Deem and Ramdas Pophale) SiO2 
 PCOD9171199
Probable space group: C 2/M
;
_chemical_formula_sum "Si O2"
_cell_formula_units_Z 64
_cell_length_a 25.638911
_cell_length_b 9.081713
_cell_length_c 24.358563
_cell_angle_alpha 90.000000
_cell_angle_beta 46.377396
_cell_angle_gamma 90.000000
_cell_volume 4105.796621
_symmetry_space_group_name_H-M "C 2/M"
_symmetry_group_IT_number 12
_symmetry_cell_setting 'monoclinic'
loop_
_space_group_symop_operation_xyz
x,y,z
-x,y,-z
-x,-y,-z
x,-y,z
1/2+x,1/2+y,z
1/2-x,1/2+y,-z
1/2-x,1/2-y,-z
1/2+x,1/2-y,z
loop_
_atom_site_type_symbol
_atom_site_label
_atom_site_fract_x
_atom_site_fract_y
_atom_site_fract_z
Si Si1 0.316099 0.676440 0.684226
Si Si2 0.583982 0.677284 0.579101
Si Si3 0.119446 0.177091 0.675781
Si Si4 0.442987 0.830157 0.990638
Si Si5 0.271247 0.676177 0.591931
Si Si6 0.664942 0.177610 0.842897
Si Si7 0.445630 0.324116 0.161660
Si Si8 0.469168 0.176151 0.582833
O O1 0.328321 0.500000 0.677037
O O2 0.292059 0.714159 0.639463
O O3 0.248272 0.711888 0.772351
O O4 0.389089 0.759294 0.645593
O O5 0.575108 0.500000 0.581499
O O6 0.586734 0.720360 0.640920
O O7 0.661152 0.713955 0.495694
O O8 0.521744 0.755005 0.589892
O O9 0.198221 0.245624 0.626960
O O10 0.070837 0.217221 0.763583
O O11 0.126880 0.000000 0.670013
O O12 0.479009 0.734990 0.916980
O O13 0.436777 0.000000 0.977534
O O14 0.500000 0.826283 0.000000
O O15 0.369078 0.781003 0.073491
O O16 0.260471 0.500000 0.597498
O O17 0.617031 0.253341 0.830552
O O18 0.655906 0.000000 0.843993
O O19 0.442806 0.500000 0.158435
O O20 0.500000 0.215684 0.500000
O O21 0.468287 0.000000 0.587813
#
# Coordination Sequence:
#
# PCOD9171199 Si02
#       8
#     8   8   8   8   8   8   8   8
#     4  10  19  32  52  74  95 126 164 198 236 286
#     4  10  21  37  52  68  93 129 169 202 236 283
#     4  10  21  33  47  70 101 132 161 197 240 283
#     4   8  15  27  43  63  91 126 158 190 228 278
#     4  10  19  31  51  73  94 126 166 200 233 281
#     4   9  17  30  46  67  95 125 159 194 232 280
#     4  10  18  27  42  67  98 129 157 189 234 282
#     4  11  23  36  51  72  96 123 159 205 250 284
#
# _framework density 15.587718000000001
#
# number of rings (size 3 to 8) (size 9 to 14) (size 15 to 20)
#    0.000    2.250    2.500    1.875    0.000    5.250 
#    0.000    0.000    0.000    0.000    0.000    0.875 
#    0.000    0.000    0.000    0.000    0.000    0.000 
#
# Total GULP energy -178444.320623 kJ/mol
# GULP energy per Si atom -5576.385019 kJ/mol
# Density = 1.555224 g / cm^3
# Si number density = 15.587718 Si / 1000 Ang^3
#
#
#
# Elastic Constant Matrix: (Units=GPa)
#
#
# Indices 1 2 3 4 5 6 
#
# 1 104.4073 41.3119 78.8013 0.0000 5.0695 -0.0006
# 2 41.3119 29.6461 51.7993 -0.0004 -0.6498 0.0006
# 3 78.8013 51.7993 159.5164 -0.0002 -8.8448 0.0001
# 4 0.0000 -0.0004 -0.0002 23.3828 0.0002 -3.2580
# 5 5.0695 -0.6498 -8.8448 0.0002 13.3833 0.0001
# 6 -0.0006 0.0006 0.0001 -3.2580 0.0001 21.1012
#
#
#
# Elastic Compliance Matrix: (Units=1/GPa)
#
#
# Indices 1 2 3 4 5 6 
#
# 1 0.023474 -0.026594 -0.003659 0.000000 -0.012601 0.000001
# 2 -0.026594 0.110499 -0.022721 0.000001 0.000423 -0.000004
# 3 -0.003659 -0.022721 0.016059 0.000000 0.010896 0.000000
# 4 0.000000 0.000001 0.000000 0.043707 -0.000001 0.006748
# 5 -0.012601 0.000423 0.010896 -0.000001 0.086715 -0.000001
# 6 0.000001 -0.000004 0.000000 0.006748 -0.000001 0.048433
#
#
# Mechanical properties :
#
#
# Convention : Reuss Voigt Hill
#
# Bulk Modulus (GPa) = 22.68428 70.82166 46.75297
# Shear Modulus (GPa) = 11.12274 19.68394 15.40334
#
# Velocity S-wave (km/s) = 2.67415 3.55742 3.14693
# Velocity P-wave (km/s) = 4.91111 7.89978 6.57745
#
# Compressibility (1/GPa) = 0.04408340
#
# Stress axis : x y z
#
# Youngs Moduli (GPa) = 42.59984 9.04987 62.27064
#
# Poissons Ratio (x) = 0.24067 0.22786
# Poissons Ratio (y) = 1.13290 1.41486
# Poissons Ratio (z) = 0.15588 0.20562
#
# Static dielectric constant tensor:
#      x y z
#    x 1.478130 0.000000 0.003950 
#    y 0.000000 1.519710 0.000000 
#    z 0.003950 0.000000 1.547250 
# 
# From -- ./inp_files/348532.got.cif
#   From: 2010.05.17/outbox.cif.g08.bks.cpg/sg12_175_cif.got.tgz:348532.got - 2010.06.03 13:09:07.
