data_PCOD9171779
_publ_section_title
;
Structure prediction by ZEFSAII (Michael W. Deem and Ramdas Pophale) SiO2 
 PCOD9171779
Probable space group: C 2/M
;
_chemical_formula_sum "Si O2"
_cell_formula_units_Z 56
_cell_length_a 32.522452
_cell_length_b 13.612513
_cell_length_c 9.862142
_cell_angle_alpha 90.000000
_cell_angle_beta 56.391772
_cell_angle_gamma 90.000000
_cell_volume 3636.263399
_symmetry_space_group_name_H-M "C 2/M"
_symmetry_group_IT_number 12
_symmetry_cell_setting 'monoclinic'
loop_
_space_group_symop_operation_xyz
x,y,z
-x,y,-z
-x,-y,-z
x,-y,z
1/2+x,1/2+y,z
1/2-x,1/2+y,-z
1/2-x,1/2-y,-z
1/2+x,1/2-y,z
loop_
_atom_site_type_symbol
_atom_site_label
_atom_site_fract_x
_atom_site_fract_y
_atom_site_fract_z
Si Si1 0.472482 0.380625 0.415003
Si Si2 0.258300 0.612737 0.340817
Si Si3 0.264491 0.718367 0.821142
Si Si4 0.539133 0.387272 0.049553
Si Si5 0.302457 0.114431 0.272329
Si Si6 0.360055 0.300722 0.237026
Si Si7 0.138757 0.119136 0.457948
O O1 0.500000 0.349504 0.500000
O O2 0.472870 0.500000 0.408242
O O3 0.507386 0.345341 0.230451
O O4 0.415111 0.354560 0.503618
O O5 0.250974 0.500000 0.316406
O O6 0.233399 0.685517 0.279181
O O7 0.236488 0.626891 0.532178
O O8 0.315956 0.639437 0.244769
O O9 0.223642 0.651244 0.818139
O O10 0.316322 0.660964 0.713390
O O11 0.250000 0.750000 0.000000
O O12 0.554528 0.500000 0.052015
O O13 0.500000 0.391572 0.000000
O O14 0.587293 0.328728 0.919310
O O15 0.346296 0.187637 0.234097
O O16 0.315466 0.000000 0.240199
O O17 0.358400 0.333317 0.397315
O O18 0.142473 0.000000 0.463333
#
# Coordination Sequence:
#
# PCOD9171779 Si02
#       7
#     8   8   8   8   8   8   8
#     4   9  19  32  46  70 105 138 166 203 258 314
#     4  10  19  33  52  74 102 136 174 214 253 304
#     4  11  22  34  50  78 109 137 175 212 256 318
#     4  10  18  28  47  77 104 130 170 217 258 305
#     4  10  20  36  55  74 103 138 176 221 260 302
#     4  11  18  31  54  80 100 134 180 214 256 312
#     4  11  19  32  54  76 105 142 173 210 261 314
#
# _framework density 15.400423999999999
#
# number of rings (size 3 to 8) (size 9 to 14) (size 15 to 20)
#    0.000    1.714    4.286    2.571    0.000    3.429 
#    0.000    1.429    0.000    0.429    0.000    0.000 
#    0.000    2.857    0.000    0.000    0.000    0.000 
#
# Total GULP energy -156075.294827 kJ/mol
# GULP energy per Si atom -5574.117672 kJ/mol
# Density = 1.536537 g / cm^3
# Si number density = 15.400424 Si / 1000 Ang^3
#
#
#
# Elastic Constant Matrix: (Units=GPa)
#
#
# Indices 1 2 3 4 5 6 
#
# 1 93.9842 48.5418 63.0515 0.0000 -10.8457 0.0000
# 2 48.5418 101.3728 38.6070 0.0000 -5.1602 0.0000
# 3 63.0515 38.6070 110.4252 0.0000 -1.7438 0.0000
# 4 0.0000 0.0000 0.0000 23.1351 0.0000 -6.0238
# 5 -10.8457 -5.1602 -1.7438 0.0000 32.8626 0.0000
# 6 0.0000 0.0000 0.0000 -6.0238 0.0000 26.9689
#
#
#
# Elastic Compliance Matrix: (Units=1/GPa)
#
#
# Indices 1 2 3 4 5 6 
#
# 1 0.020926 -0.006028 -0.009755 0.000000 0.005442 0.000000
# 2 -0.006028 0.013199 -0.001172 0.000000 0.000021 0.000000
# 3 -0.009755 -0.001172 0.014994 0.000000 -0.002608 0.000000
# 4 0.000000 0.000000 0.000000 0.045893 0.000000 0.010251
# 5 0.005442 0.000021 -0.002608 0.000000 0.032091 0.000000
# 6 0.000000 0.000000 0.000000 0.010251 0.000000 0.039369
#
#
# Mechanical properties :
#
#
# Convention : Reuss Voigt Hill
#
# Bulk Modulus (GPa) = 65.75285 67.35364 66.55324
# Shear Modulus (GPa) = 24.33653 26.96543 25.65098
#
# Velocity S-wave (km/s) = 3.97955 4.18898 4.08561
# Velocity P-wave (km/s) = 7.99399 8.19918 8.09724
#
# Compressibility (1/GPa) = 0.01520847
#
# Stress axis : x y z
#
# Youngs Moduli (GPa) = 47.78773 75.76563 66.69114
#
# Poissons Ratio (x) = 0.45673 0.65057
# Poissons Ratio (y) = 0.28807 0.07817
# Poissons Ratio (z) = 0.46617 0.08881
#
# Static dielectric constant tensor:
#      x y z
#    x 1.495580 0.000000 -0.001760 
#    y 0.000000 1.516860 0.000000 
#    z -0.001760 0.000000 1.501420 
# 
# From -- ./inp_files/111107.got.cif
#   From: 2010.05.17/outbox.cif.g08.bks.cpg/sg12_56_cif.got.tgz:111107.got - 2010.06.03 13:09:07.
