data_PCOD9171765
_publ_section_title
;
Structure prediction by ZEFSAII (Michael W. Deem and Ramdas Pophale) SiO2 
 PCOD9171765
Probable space group: C 2/M
;
_chemical_formula_sum "Si O2"
_cell_formula_units_Z 56
_cell_length_a 19.845089
_cell_length_b 13.616407
_cell_length_c 17.903861
_cell_angle_alpha 90.000000
_cell_angle_beta 139.265492
_cell_angle_gamma 90.000000
_cell_volume 3157.034466
_symmetry_space_group_name_H-M "C 2/M"
_symmetry_group_IT_number 12
_symmetry_cell_setting 'monoclinic'
loop_
_space_group_symop_operation_xyz
x,y,z
-x,y,-z
-x,-y,-z
x,-y,z
1/2+x,1/2+y,z
1/2-x,1/2+y,-z
1/2-x,1/2-y,-z
1/2+x,1/2-y,z
loop_
_atom_site_type_symbol
_atom_site_label
_atom_site_fract_x
_atom_site_fract_y
_atom_site_fract_z
Si Si1 0.782485 0.617247 0.852551
Si Si2 0.556642 0.613089 0.626081
Si Si3 0.805831 0.609648 0.587809
Si Si4 0.767750 0.383608 0.019022
Si Si5 0.428141 0.258170 0.125463
Si Si6 0.572034 0.883798 0.156523
Si Si7 0.412616 0.699404 0.623865
O O1 0.791194 0.500000 0.855525
O O2 0.675089 0.645285 0.723147
O O3 0.768901 0.636946 0.929631
O O4 0.875901 0.649318 0.877234
O O5 0.500000 0.611534 0.500000
O O6 0.555603 0.500000 0.654992
O O7 0.492999 0.682506 0.626215
O O8 0.832775 0.500000 0.587059
O O9 0.842012 0.619267 0.704749
O O10 0.684887 0.629565 0.473489
O O11 0.866372 0.691935 0.592744
O O12 0.773716 0.500000 0.035565
O O13 0.664323 0.335621 0.966629
O O14 0.869600 0.323132 0.128569
O O15 0.483160 0.190558 0.109231
O O16 0.520197 0.314537 0.244801
O O17 0.537901 0.000000 0.123894
#
# Coordination Sequence:
#
# PCOD9171765 Si02
#       7
#     8   8   8   8   8   8   8
#     4   9  17  29  47  73 105 133 158 200 254 300
#     4  10  18  28  47  75 105 132 156 193 252 308
#     4   9  18  30  47  73 104 134 164 200 244 301
#     4  10  20  34  50  73 102 130 170 214 250 296
#     4  10  20  32  49  72 100 135 171 203 250 293
#     4   9  17  31  50  77 109 134 159 196 250 311
#     4  10  18  30  48  71 101 132 169 202 242 302
#
# _framework density 17.738166
#
# number of rings (size 3 to 8) (size 9 to 14) (size 15 to 20)
#    0.000    2.429    1.429    1.714    0.000    4.000 
#    0.000    2.143    0.000    0.429    0.000   10.000 
#    0.000    0.000    0.000    0.000    0.000    0.000 
#
# Total GULP energy -155898.855770 kJ/mol
# GULP energy per Si atom -5567.816278 kJ/mol
# Density = 1.769779 g / cm^3
# Si number density = 17.738166 Si / 1000 Ang^3
#
#
#
# Elastic Constant Matrix: (Units=GPa)
#
#
# Indices 1 2 3 4 5 6 
#
# 1 92.2267 16.3845 20.6020 0.0000 14.5582 0.0000
# 2 16.3845 49.5514 1.4825 0.0000 -1.7912 0.0000
# 3 20.6020 1.4825 73.5422 0.0000 10.3989 0.0000
# 4 0.0000 0.0000 0.0000 4.4284 0.0000 -11.1883
# 5 14.5582 -1.7912 10.3989 0.0000 26.3145 0.0000
# 6 0.0000 0.0000 0.0000 -11.1883 0.0000 1.5140
#
#
#
# Elastic Compliance Matrix: (Units=1/GPa)
#
#
# Indices 1 2 3 4 5 6 
#
# 1 0.013297 -0.004554 -0.002700 0.000000 -0.006599 0.000000
# 2 -0.004554 0.021819 0.000286 0.000000 0.003892 0.000000
# 3 -0.002700 0.000286 0.014971 0.000000 -0.004403 0.000000
# 4 0.000000 0.000000 0.000000 -0.012779 0.000000 -0.094437
# 5 -0.006599 0.003892 -0.004403 0.000000 0.043658 0.000000
# 6 0.000000 0.000000 0.000000 -0.094437 0.000000 -0.037379
#
#
# Mechanical properties :
#
#
# Convention : Reuss Voigt Hill
#
# Bulk Modulus (GPa) = 27.66306 32.47316 30.06811
# Shear Modulus (GPa) = 71.86609 18.24146 45.05377
#
# Velocity S-wave (km/s) = 6.37204 3.21031 5.04524
# Velocity P-wave (km/s) = 8.35262 5.66464 7.13633
#
# Compressibility (1/GPa) = 0.03614929
#
# Stress axis : x y z
#
# Youngs Moduli (GPa) = 75.20589 45.83125 66.79655
#
# Poissons Ratio (x) = 0.20874 0.18035
# Poissons Ratio (y) = 0.34252 -0.01908
# Poissons Ratio (z) = 0.20306 -0.01309
#
# Static dielectric constant tensor:
#      x y z
#    x 1.602840 0.000000 0.001490 
#    y 0.000000 1.603280 0.000000 
#    z 0.001490 0.000000 1.733520 
# 
# From -- ./inp_files/224404.got.cif
#   From: 2010.05.17/outbox.cif.g08.bks.cpg/sg12_113_cif.got.tgz:224404.got - 2010.06.03 13:09:07.
