data_PCOD9171150
_publ_section_title
;
Structure prediction by ZEFSAII (Michael W. Deem and Ramdas Pophale) SiO2 
 PCOD9171150
Probable space group: C 2/M
;
_chemical_formula_sum "Si O2"
_cell_formula_units_Z 64
_cell_length_a 19.673858
_cell_length_b 7.954710
_cell_length_c 20.921246
_cell_angle_alpha 90.000000
_cell_angle_beta 91.646042
_cell_angle_gamma 90.000000
_cell_volume 3272.820476
_symmetry_space_group_name_H-M "C 2/M"
_symmetry_group_IT_number 12
_symmetry_cell_setting 'monoclinic'
loop_
_space_group_symop_operation_xyz
x,y,z
-x,y,-z
-x,-y,-z
x,-y,z
1/2+x,1/2+y,z
1/2-x,1/2+y,-z
1/2-x,1/2-y,-z
1/2+x,1/2-y,z
loop_
_atom_site_type_symbol
_atom_site_label
_atom_site_fract_x
_atom_site_fract_y
_atom_site_fract_z
Si Si1 0.770733 0.695415 0.209977
Si Si2 0.824379 0.797790 0.474866
Si Si3 0.584832 0.696308 0.814932
Si Si4 0.491319 0.197647 0.927835
Si Si5 0.244654 0.802964 0.647944
Si Si6 0.466093 0.705306 0.723114
Si Si7 0.371527 0.702869 0.840295
Si Si8 0.610555 0.697223 0.399600
O O1 0.757055 0.500000 0.222689
O O2 0.843045 0.715403 0.178865
O O3 0.772762 0.781720 0.278957
O O4 0.706405 0.757620 0.167559
O O5 0.750000 0.750000 0.500000
O O6 0.816429 0.744915 0.400880
O O7 0.878174 0.730947 0.528569
O O8 0.831938 0.000000 0.476000
O O9 0.597788 0.500000 0.803923
O O10 0.540273 0.716064 0.877482
O O11 0.537569 0.761154 0.755265
O O12 0.415421 0.222369 0.898810
O O13 0.507893 0.000000 0.927913
O O14 0.500000 0.261929 0.000000
O O15 0.315135 0.711364 0.631985
O O16 0.256780 0.000000 0.634854
O O17 0.467681 0.500000 0.721165
O O18 0.409160 0.749384 0.774680
O O19 0.443081 0.768309 0.652975
O O20 0.375377 0.500000 0.846271
O O21 0.593936 0.500000 0.406132
#
# Coordination Sequence:
#
# PCOD9171150 Si02
#       8
#     8   8   8   8   8   8   8   8
#     4  11  21  35  53  75 104 139 176 215 261 308
#     4   8  15  24  38  62  94 128 166 211 258 309
#     4  10  21  36  54  79 108 137 171 212 256 302
#     4  10  21  38  60  85 111 138 168 201 241 297
#     4  10  18  27  41  69 102 132 168 213 263 312
#     4   8  14  28  49  72  97 127 167 212 257 303
#     4   9  18  33  54  79 104 134 174 215 253 297
#     4   9  14  26  46  67  94 131 171 213 261 310
#
# _framework density 19.555
#
# number of rings (size 3 to 8) (size 9 to 14) (size 15 to 20)
#    0.000    2.625    1.250    2.250    0.000    2.500 
#    0.000    1.250    0.000    0.750    0.000    5.250 
#    0.000    0.000    0.000    0.000    0.000    0.000 
#
# Total GULP energy -178302.474527 kJ/mol
# GULP energy per Si atom -5571.952329 kJ/mol
# Density = 1.951049 g / cm^3
# Si number density = 19.555000 Si / 1000 Ang^3
#
#
#
# Elastic Constant Matrix: (Units=GPa)
#
#
# Indices 1 2 3 4 5 6 
#
# 1 92.7343 -2.9653 38.5093 0.0000 23.7581 0.0000
# 2 -2.9653 20.7473 -3.0639 0.0000 3.2687 0.0000
# 3 38.5093 -3.0639 108.0748 0.0000 39.1877 0.0000
# 4 0.0000 0.0000 0.0000 16.5321 0.0000 0.7367
# 5 23.7581 3.2687 39.1877 0.0000 24.9489 0.0000
# 6 0.0000 0.0000 0.0000 0.7367 0.0000 16.3483
#
#
#
# Elastic Compliance Matrix: (Units=1/GPa)
#
#
# Indices 1 2 3 4 5 6 
#
# 1 0.014651 0.004555 0.000427 0.000000 -0.015220 0.000000
# 2 0.004555 0.054398 0.009469 0.000000 -0.026339 0.000000
# 3 0.000427 0.009469 0.023153 0.000000 -0.038015 0.000000
# 4 0.000000 0.000000 0.000000 0.060610 0.000000 -0.002731
# 5 -0.015220 -0.026339 -0.038015 0.000000 0.117736 0.000000
# 6 0.000000 0.000000 0.000000 -0.002731 0.000000 0.061291
#
#
# Mechanical properties :
#
#
# Convention : Reuss Voigt Hill
#
# Bulk Modulus (GPa) = 8.25727 31.83517 20.04622
# Shear Modulus (GPa) = 14.56431 24.17095 19.36763
#
# Velocity S-wave (km/s) = 2.73204 3.51956 3.15051
# Velocity P-wave (km/s) = 3.76614 5.72989 4.84847
#
# Compressibility (1/GPa) = 0.12110545
#
# Stress axis : x y z
#
# Youngs Moduli (GPa) = 68.25527 18.38301 43.19083
#
# Poissons Ratio (x) = -0.08373 -0.01846
# Poissons Ratio (y) = -0.31090 -0.40899
# Poissons Ratio (z) = -0.02917 -0.17408
#
# Static dielectric constant tensor:
#      x y z
#    x 1.679140 0.000000 0.044810 
#    y 0.000000 1.750850 0.000000 
#    z 0.044810 0.000000 1.705870 
# 
# From -- ./inp_files/314202.got.cif
#   From: 2010.05.17/outbox.cif.g08.bks.cpg/sg12_158_cif.got.tgz:314202.got - 2010.06.03 13:09:07.
