data_PCOD9171537
_publ_section_title
;
Structure prediction by ZEFSAII (Michael W. Deem and Ramdas Pophale) SiO2 
 PCOD9171537
Probable space group: C 2/M
;
_chemical_formula_sum "Si O2"
_cell_formula_units_Z 48
_cell_length_a 27.688955
_cell_length_b 8.621403
_cell_length_c 11.824428
_cell_angle_alpha 90.000000
_cell_angle_beta 91.109076
_cell_angle_gamma 90.000000
_cell_volume 2822.170734
_symmetry_space_group_name_H-M "C 2/M"
_symmetry_group_IT_number 12
_symmetry_cell_setting 'monoclinic'
loop_
_space_group_symop_operation_xyz
x,y,z
-x,y,-z
-x,-y,-z
x,-y,z
1/2+x,1/2+y,z
1/2-x,1/2+y,-z
1/2-x,1/2-y,-z
1/2+x,1/2-y,z
loop_
_atom_site_type_symbol
_atom_site_label
_atom_site_fract_x
_atom_site_fract_y
_atom_site_fract_z
Si Si1 0.202281 0.187816 0.639940
Si Si2 0.193089 0.815012 0.375907
Si Si3 0.371986 0.324524 0.180475
Si Si4 0.299572 0.324766 0.967678
Si Si5 0.126383 0.680480 0.192926
Si Si6 0.056136 0.187874 0.002459
O O1 0.192794 0.228554 0.508576
O O2 0.255952 0.250144 0.670828
O O3 0.158125 0.246178 0.716627
O O4 0.203881 0.000000 0.651151
O O5 0.145326 0.754816 0.310163
O O6 0.194523 0.000000 0.368114
O O7 0.386658 0.500000 0.215998
O O8 0.331934 0.336180 0.080800
O O9 0.416664 0.254092 0.110927
O O10 0.294963 0.500000 0.920503
O O11 0.327470 0.213388 0.884319
O O12 0.250000 0.250000 0.000000
O O13 0.117044 0.500000 0.207525
O O14 0.083245 0.755147 0.117107
O O15 0.060560 0.000000 0.001309
O O16 0.000000 0.229829 0.000000
#
# Coordination Sequence:
#
# PCOD9171537 Si02
#       6
#     8   8   8   8   8   8
#     4   9  17  30  48  70  98 130 161 194 234 283
#     4  10  19  30  46  69  98 131 166 199 231 276
#     4   8  15  28  46  68  92 118 149 187 235 289
#     4  10  18  28  44  68  98 127 156 192 237 288
#     4  11  21  32  47  67  95 129 164 200 237 283
#     4   9  18  34  55  75  94 117 150 199 256 305
#
# _framework density 17.008184
#
# number of rings (size 3 to 8) (size 9 to 14) (size 15 to 20)
#    0.000    2.500    0.000    4.500    0.000    2.333 
#    0.000    3.333    0.000    1.000    0.000    7.000 
#    0.000    0.000    0.000    0.000    0.000    0.000 
#
# Total GULP energy -133613.321718 kJ/mol
# GULP energy per Si atom -5567.221738 kJ/mol
# Density = 1.696947 g / cm^3
# Si number density = 17.008184 Si / 1000 Ang^3
#
#
#
# Elastic Constant Matrix: (Units=GPa)
#
#
# Indices 1 2 3 4 5 6 
#
# 1 127.6671 22.6183 50.6600 0.0000 -2.6656 0.0000
# 2 22.6183 24.1652 13.5277 0.0000 0.7035 0.0000
# 3 50.6600 13.5277 85.1167 0.0000 0.3532 0.0000
# 4 0.0000 0.0000 0.0000 16.8917 0.0000 3.3902
# 5 -2.6656 0.7035 0.3532 0.0000 25.0955 0.0000
# 6 0.0000 0.0000 0.0000 3.3902 0.0000 18.0650
#
#
#
# Elastic Compliance Matrix: (Units=1/GPa)
#
#
# Indices 1 2 3 4 5 6 
#
# 1 0.011436 -0.007611 -0.005603 0.000000 0.001507 0.000000
# 2 -0.007611 0.050523 -0.003491 0.000000 -0.002176 0.000000
# 3 -0.005603 -0.003491 0.015641 0.000000 -0.000717 0.000000
# 4 0.000000 0.000000 0.000000 0.061518 0.000000 -0.011545
# 5 0.001507 -0.002176 -0.000717 0.000000 0.040079 0.000000
# 6 0.000000 0.000000 0.000000 -0.011545 0.000000 0.057522
#
#
# Mechanical properties :
#
#
# Convention : Reuss Voigt Hill
#
# Bulk Modulus (GPa) = 22.62930 45.61791 34.12361
# Shear Modulus (GPa) = 17.55248 22.01997 19.78623
#
# Velocity S-wave (km/s) = 3.21596 3.60205 3.41447
# Velocity P-wave (km/s) = 5.20804 6.64674 5.97088
#
# Compressibility (1/GPa) = 0.04419049
#
# Stress axis : x y z
#
# Youngs Moduli (GPa) = 87.44124 19.79288 63.93351
#
# Poissons Ratio (x) = 0.15065 0.35823
# Poissons Ratio (y) = 0.66555 0.22316
# Poissons Ratio (z) = 0.48995 0.06909
#
# Static dielectric constant tensor:
#      x y z
#    x 1.544680 0.000000 -0.007470 
#    y 0.000000 1.600760 0.000000 
#    z -0.007470 0.000000 1.618620 
# 
# From -- ./inp_files/179207.got.cif
#   From: 2010.05.17/outbox.cif.g08.bks.cpg/sg12_90_cif.got.tgz:179207.got - 2010.06.03 13:09:07.
