data_PCOD9171477
_publ_section_title
;
Structure prediction by ZEFSAII (Michael W. Deem and Ramdas Pophale) SiO2 
 PCOD9171477
Probable space group: C 2/M
;
_chemical_formula_sum "Si O2"
_cell_formula_units_Z 56
_cell_length_a 22.983054
_cell_length_b 8.757120
_cell_length_c 17.174566
_cell_angle_alpha 90.000000
_cell_angle_beta 98.572377
_cell_angle_gamma 90.000000
_cell_volume 3418.028841
_symmetry_space_group_name_H-M "C 2/M"
_symmetry_group_IT_number 12
_symmetry_cell_setting 'monoclinic'
loop_
_space_group_symop_operation_xyz
x,y,z
-x,y,-z
-x,-y,-z
x,-y,z
1/2+x,1/2+y,z
1/2-x,1/2+y,-z
1/2-x,1/2-y,-z
1/2+x,1/2-y,z
loop_
_atom_site_type_symbol
_atom_site_label
_atom_site_fract_x
_atom_site_fract_y
_atom_site_fract_z
Si Si1 0.452222 0.181360 0.597977
Si Si2 0.588206 0.181121 0.569696
Si Si3 0.044409 0.817279 0.078405
Si Si4 0.335844 0.182331 0.961375
Si Si5 0.795131 0.816617 0.113583
Si Si6 0.503194 0.815842 0.233846
Si Si7 0.120417 0.182270 0.732218
O O1 0.520129 0.197286 0.583890
O O2 0.412036 0.242061 0.519273
O O3 0.453672 0.238053 0.686895
O O4 0.440193 0.000000 0.598264
O O5 0.625292 0.261618 0.644279
O O6 0.601061 0.000000 0.572283
O O7 0.109099 0.761834 0.067757
O O8 0.023756 0.744148 0.155044
O O9 0.042995 0.000000 0.085206
O O10 0.000000 0.772638 0.000000
O O11 0.273639 0.222769 0.908212
O O12 0.343089 0.000000 0.960093
O O13 0.328962 0.236650 0.049202
O O14 0.824983 0.777126 0.201388
O O15 0.800185 0.000000 0.103815
O O16 0.438119 0.755947 0.241883
O O17 0.502060 0.000000 0.234468
O O18 0.113303 0.000000 0.731300
#
# Coordination Sequence:
#
# PCOD9171477 Si02
#       7
#     8   8   8   8   8   8   8
#     4   7  12  24  41  60  86 118 149 185 224 260
#     4   8  13  24  41  61  87 119 152 183 219 265
#     4  11  23  36  48  66  95 124 147 181 231 274
#     4  10  20  34  52  70  87 116 158 192 220 263
#     4   9  19  34  49  67  94 122 147 185 233 269
#     4  10  19  31  47  67  91 122 159 190 219 264
#     4  10  18  28  43  67  98 125 148 181 229 272
#
# _framework density 16.383711999999999
#
# number of rings (size 3 to 8) (size 9 to 14) (size 15 to 20)
#    0.000    2.714    0.000    4.286    0.000    6.286 
#    0.000    6.429    0.000    0.000    0.000    1.000 
#    0.000    0.000    0.000    0.000    0.000    0.000 
#
# Total GULP energy -155952.009145 kJ/mol
# GULP energy per Si atom -5569.714612 kJ/mol
# Density = 1.634642 g / cm^3
# Si number density = 16.383712 Si / 1000 Ang^3
#
#
#
# Elastic Constant Matrix: (Units=GPa)
#
#
# Indices 1 2 3 4 5 6 
#
# 1 40.9000 18.8640 45.0292 0.0000 1.1818 0.0000
# 2 18.8640 34.5799 45.5931 0.0000 2.9637 0.0000
# 3 45.0292 45.5931 184.7991 0.0000 12.8866 0.0000
# 4 0.0000 0.0000 0.0000 24.8997 0.0000 3.6788
# 5 1.1818 2.9637 12.8866 0.0000 19.2387 0.0000
# 6 0.0000 0.0000 0.0000 3.6788 0.0000 14.2555
#
#
#
# Elastic Compliance Matrix: (Units=1/GPa)
#
#
# Indices 1 2 3 4 5 6 
#
# 1 0.036824 -0.012204 -0.006226 0.000000 0.003788 0.000000
# 2 -0.012204 0.046910 -0.008547 0.000000 -0.000751 0.000000
# 3 -0.006226 -0.008547 0.009356 0.000000 -0.004567 0.000000
# 4 0.000000 0.000000 0.000000 0.041753 0.000000 -0.010775
# 5 0.003788 -0.000751 -0.004567 0.000000 0.054921 0.000000
# 6 0.000000 0.000000 0.000000 -0.010775 0.000000 0.072929
#
#
# Mechanical properties :
#
#
# Convention : Reuss Voigt Hill
#
# Bulk Modulus (GPa) = 25.55270 53.25017 39.40143
# Shear Modulus (GPa) = 15.16571 21.73164 18.44867
#
# Velocity S-wave (km/s) = 3.04576 3.64595 3.35929
# Velocity P-wave (km/s) = 5.29142 7.09200 6.25682
#
# Compressibility (1/GPa) = 0.03913481
#
# Stress axis : x y z
#
# Youngs Moduli (GPa) = 27.15657 21.31745 106.88753
#
# Poissons Ratio (x) = 0.26015 0.66547
# Poissons Ratio (y) = 0.33141 0.91361
# Poissons Ratio (z) = 0.16907 0.18221
#
# Static dielectric constant tensor:
#      x y z
#    x 1.517950 0.000000 0.019460 
#    y 0.000000 1.551250 0.000000 
#    z 0.019460 0.000000 1.598650 
# 
# From -- ./inp_files/237838.got.cif
#   From: 2010.05.17/outbox.cif.g08.bks.cpg/sg12_119_cif.got.tgz:237838.got - 2010.06.03 13:09:07.
