data_PCOD9171092
_publ_section_title
;
Structure prediction by ZEFSAII (Michael W. Deem and Ramdas Pophale) SiO2 
 PCOD9171092
Probable space group: C 2/M
;
_chemical_formula_sum "Si O2"
_cell_formula_units_Z 64
_cell_length_a 24.636733
_cell_length_b 7.422061
_cell_length_c 17.532366
_cell_angle_alpha 90.000000
_cell_angle_beta 83.597576
_cell_angle_gamma 90.000000
_cell_volume 3185.892195
_symmetry_space_group_name_H-M "C 2/M"
_symmetry_group_IT_number 12
_symmetry_cell_setting 'monoclinic'
loop_
_space_group_symop_operation_xyz
x,y,z
-x,y,-z
-x,-y,-z
x,-y,z
1/2+x,1/2+y,z
1/2-x,1/2+y,-z
1/2-x,1/2-y,-z
1/2+x,1/2-y,z
loop_
_atom_site_type_symbol
_atom_site_label
_atom_site_fract_x
_atom_site_fract_y
_atom_site_fract_z
Si Si1 0.934006 0.720877 0.733446
Si Si2 0.018393 0.703693 0.836393
Si Si3 0.185816 0.720714 0.213707
Si Si4 0.118644 0.282078 0.910647
Si Si5 0.688852 0.784684 0.039300
Si Si6 0.990111 0.285163 0.416881
Si Si7 0.697729 0.286964 0.754551
Si Si8 0.596939 0.715026 0.684898
O O1 0.936607 0.500000 0.735110
O O2 0.871142 0.773395 0.739657
O O3 0.963705 0.782745 0.807299
O O4 0.968279 0.782956 0.654685
O O5 0.004987 0.500000 0.863426
O O6 0.058697 0.784918 0.893816
O O7 0.057983 0.699228 0.755555
O O8 0.187513 0.500000 0.212832
O O9 0.184458 0.781444 0.126069
O O10 0.241632 0.786120 0.243667
O O11 0.114767 0.500000 0.913321
O O12 0.162661 0.238057 0.837638
O O13 0.144162 0.216561 0.985850
O O14 0.681624 0.000000 0.043050
O O15 0.750000 0.750000 0.000000
O O16 0.998187 0.500000 0.418612
O O17 0.929924 0.252472 0.392138
O O18 0.000000 0.213668 0.500000
O O19 0.704036 0.500000 0.741563
O O20 0.657991 0.220248 0.693610
O O21 0.594839 0.500000 0.698147
#
# Coordination Sequence:
#
# PCOD9171092 Si02
#       8
#     8   8   8   8   8   8   8   8
#     4   8  14  26  44  63  83 109 140 172 208 252
#     4   8  14  26  42  59  82 111 142 177 214 250
#     4   9  16  26  41  61  85 113 144 177 211 251
#     4   9  16  25  39  60  83 107 141 184 222 247
#     4  10  18  27  40  59  84 112 145 182 217 250
#     4   9  17  30  49  70  88 108 136 170 209 252
#     4   9  16  26  41  61  84 112 144 174 206 245
#     4   9  16  25  41  66  89 109 137 171 208 245
#
# _framework density 20.088563000000001
#
# number of rings (size 3 to 8) (size 9 to 14) (size 15 to 20)
#    0.000    3.125    1.250    1.125    0.000    0.750 
#    0.000    0.625    0.000   10.500    0.000    0.000 
#    0.000   14.000    0.000    0.000    0.000    0.375 
#
# Total GULP energy -178297.535003 kJ/mol
# GULP energy per Si atom -5571.797969 kJ/mol
# Density = 2.004284 g / cm^3
# Si number density = 20.088563 Si / 1000 Ang^3
#
#
#
# Elastic Constant Matrix: (Units=GPa)
#
#
# Indices 1 2 3 4 5 6 
#
# 1 145.4149 -2.6050 59.9921 0.0000 29.2747 0.0000
# 2 -2.6050 63.6532 0.2380 0.0000 -0.5435 0.0000
# 3 59.9921 0.2380 91.1733 0.0000 32.7919 0.0000
# 4 0.0000 0.0000 0.0000 3.3135 0.0000 -0.3382
# 5 29.2747 -0.5435 32.7919 0.0000 32.1508 0.0000
# 6 0.0000 0.0000 0.0000 -0.3382 0.0000 8.5178
#
#
#
# Elastic Compliance Matrix: (Units=1/GPa)
#
#
# Indices 1 2 3 4 5 6 
#
# 1 0.009715 0.000385 -0.005077 0.000000 -0.003662 0.000000
# 2 0.000385 0.015730 -0.000417 0.000000 0.000340 0.000000
# 3 -0.005077 -0.000417 0.019979 0.000000 -0.015761 0.000000
# 4 0.000000 0.000000 0.000000 0.303027 0.000000 0.012033
# 5 -0.003662 0.000340 -0.015761 0.000000 0.050519 0.000000
# 6 0.000000 0.000000 0.000000 0.012033 0.000000 0.117878
#
#
# Mechanical properties :
#
#
# Convention : Reuss Voigt Hill
#
# Bulk Modulus (GPa) = 28.40313 46.16574 37.28443
# Shear Modulus (GPa) = 9.27985 24.97083 17.12534
#
# Velocity S-wave (km/s) = 2.15163 3.52950 2.92291
# Velocity P-wave (km/s) = 4.51025 6.29609 5.47645
#
# Compressibility (1/GPa) = 0.03520739
#
# Stress axis : x y z
#
# Youngs Moduli (GPa) = 102.92917 63.57131 50.05377
#
# Poissons Ratio (x) = -0.02450 0.25411
# Poissons Ratio (y) = -0.03966 0.02088
# Poissons Ratio (z) = 0.52254 0.02651
#
# Static dielectric constant tensor:
#      x y z
#    x 1.748030 0.000000 0.040140 
#    y 0.000000 1.753880 0.000000 
#    z 0.040140 0.000000 1.702390 
# 
# From -- ./inp_files/291566.got.cif
#   From: 2010.05.17/outbox.cif.g08.bks.cpg/sg12_146_cif.got.tgz:291566.got - 2010.06.03 13:09:07.
