data_PCOD9171622
_publ_section_title
;
Structure prediction by ZEFSAII (Michael W. Deem and Ramdas Pophale) SiO2 
 PCOD9171622
Probable space group: C 2/M
;
_chemical_formula_sum "Si O2"
_cell_formula_units_Z 48
_cell_length_a 24.737867
_cell_length_b 8.873251
_cell_length_c 21.888881
_cell_angle_alpha 90.000000
_cell_angle_beta 38.380919
_cell_angle_gamma 90.000000
_cell_volume 2983.190400
_symmetry_space_group_name_H-M "C 2/M"
_symmetry_group_IT_number 12
_symmetry_cell_setting 'monoclinic'
loop_
_space_group_symop_operation_xyz
x,y,z
-x,y,-z
-x,-y,-z
x,-y,z
1/2+x,1/2+y,z
1/2-x,1/2+y,-z
1/2-x,1/2-y,-z
1/2+x,1/2-y,z
loop_
_atom_site_type_symbol
_atom_site_label
_atom_site_fract_x
_atom_site_fract_y
_atom_site_fract_z
Si Si1 0.862690 0.821156 0.232400
Si Si2 0.386622 0.820137 0.662319
Si Si3 0.967899 0.673572 0.957647
Si Si4 0.792830 0.319583 0.167943
Si Si5 0.082916 0.319594 0.508523
Si Si6 0.739530 0.679597 0.442580
O O1 0.819382 0.759185 0.208207
O O2 0.813711 0.743966 0.331911
O O3 0.964195 0.775195 0.138846
O O4 0.851827 0.000000 0.244664
O O5 0.304036 0.733142 0.761638
O O6 0.481017 0.781221 0.606095
O O7 0.393145 0.789377 0.583650
O O8 0.374293 0.000000 0.679827
O O9 0.974215 0.500000 0.931086
O O10 0.867178 0.720388 0.052478
O O11 0.000000 0.675549 0.000000
O O12 0.797061 0.500000 0.172672
O O13 0.092783 0.500000 0.508883
O O14 0.148143 0.231636 0.494057
O O15 0.744583 0.500000 0.440646
O O16 0.750000 0.750000 0.500000
#
# Coordination Sequence:
#
# PCOD9171622 Si02
#       6
#     8   8   8   8   8   8
#     4  11  20  31  47  68  96 128 164 204 244 291
#     4   9  17  29  49  72 101 133 161 197 244 293
#     4   8  16  29  43  64  96 129 160 197 241 289
#     4  10  18  28  45  71 101 131 163 198 241 292
#     4   9  18  33  49  71  99 130 164 202 244 289
#     4  12  24  37  53  72  96 130 168 207 246 289
#
# _framework density 16.090156
#
# number of rings (size 3 to 8) (size 9 to 14) (size 15 to 20)
#    0.000    2.167    1.667    5.500    0.000    4.333 
#    0.000    1.667    0.000    0.000    0.000    1.167 
#    0.000    0.000    0.000    0.000    0.000    0.000 
#
# Total GULP energy -133849.430398 kJ/mol
# GULP energy per Si atom -5577.059600 kJ/mol
# Density = 1.605353 g / cm^3
# Si number density = 16.090156 Si / 1000 Ang^3
#
#
#
# Elastic Constant Matrix: (Units=GPa)
#
#
# Indices 1 2 3 4 5 6 
#
# 1 70.0410 55.0228 60.8365 -0.0007 -11.3347 0.0001
# 2 55.0228 101.0061 65.6706 -0.0062 -11.3511 0.0032
# 3 60.8365 65.6706 119.7786 -0.0015 -30.8706 0.0009
# 4 -0.0007 -0.0062 -0.0015 28.4750 0.0019 -6.1715
# 5 -11.3347 -11.3511 -30.8706 0.0019 27.9622 -0.0004
# 6 0.0001 0.0032 0.0009 -6.1715 -0.0004 22.6045
#
#
#
# Elastic Compliance Matrix: (Units=1/GPa)
#
#
# Indices 1 2 3 4 5 6 
#
# 1 0.031644 -0.010203 -0.011517 -0.000001 -0.004029 0.000001
# 2 -0.010203 0.019051 -0.006060 0.000003 -0.003092 -0.000001
# 3 -0.011517 -0.006060 0.021920 -0.000002 0.017072 0.000000
# 4 -0.000001 0.000003 -0.000002 0.037327 -0.000003 0.010191
# 5 -0.004029 -0.003092 0.017072 -0.000003 0.051722 0.000000
# 6 0.000001 -0.000001 0.000000 0.010191 0.000000 0.047021
#
#
# Mechanical properties :
#
#
# Convention : Reuss Voigt Hill
#
# Bulk Modulus (GPa) = 58.62905 72.65392 65.64149
# Shear Modulus (GPa) = 18.52338 23.09471 20.80905
#
# Velocity S-wave (km/s) = 3.39665 3.79269 3.60012
# Velocity P-wave (km/s) = 7.20416 8.02693 7.62665
#
# Compressibility (1/GPa) = 0.01705639
#
# Stress axis : x y z
#
# Youngs Moduli (GPa) = 31.60198 52.49165 45.61954
#
# Poissons Ratio (x) = 0.53557 0.52538
# Poissons Ratio (y) = 0.32243 0.27644
# Poissons Ratio (z) = 0.36395 0.31808
#
# Static dielectric constant tensor:
#      x y z
#    x 1.523390 0.000000 -0.037800 
#    y 0.000000 1.535090 0.000000 
#    z -0.037800 0.000000 1.558270 
# 
# From -- ./inp_files/323503.got.cif
#   From: 2010.05.17/outbox.cif.g08.bks.cpg/sg12_162_cif.got.tgz:323503.got - 2010.06.03 13:09:07.
