data_PCOD9171999
_publ_section_title
;
Structure prediction by ZEFSAII (Michael W. Deem and Ramdas Pophale) SiO2 
 PCOD9171999
Probable space group: C 2/M
;
_chemical_formula_sum "Si O2"
_cell_formula_units_Z 64
_cell_length_a 20.611346
_cell_length_b 9.190089
_cell_length_c 26.142612
_cell_angle_alpha 90.000000
_cell_angle_beta 131.421640
_cell_angle_gamma 90.000000
_cell_volume 3713.265114
_symmetry_space_group_name_H-M "C 2/M"
_symmetry_group_IT_number 12
_symmetry_cell_setting 'monoclinic'
loop_
_space_group_symop_operation_xyz
x,y,z
-x,y,-z
-x,-y,-z
x,-y,z
1/2+x,1/2+y,z
1/2-x,1/2+y,-z
1/2-x,1/2-y,-z
1/2+x,1/2-y,z
loop_
_atom_site_type_symbol
_atom_site_label
_atom_site_fract_x
_atom_site_fract_y
_atom_site_fract_z
Si Si1 0.059687 0.825002 0.929227
Si Si2 0.300701 0.827312 0.691742
Si Si3 0.384847 0.667388 0.580303
Si Si4 0.818581 0.823416 0.917131
Si Si5 0.793082 0.332088 0.445595
Si Si6 0.474214 0.172235 0.715536
Si Si7 0.143882 0.175586 0.178004
Si Si8 0.636325 0.175444 0.870447
O O1 0.111795 0.750162 0.910748
O O2 0.958428 0.789976 0.872134
O O3 0.068060 0.000000 0.929328
O O4 0.101024 0.780691 0.005095
O O5 0.229977 0.754772 0.617758
O O6 0.393576 0.802973 0.712032
O O7 0.307098 0.752684 0.750114
O O8 0.287570 0.000000 0.688640
O O9 0.405047 0.500000 0.579805
O O10 0.295450 0.670226 0.566722
O O11 0.364535 0.755800 0.518295
O O12 0.454968 0.740546 0.653872
O O13 0.825081 0.776011 0.861915
O O14 0.729724 0.779383 0.898110
O O15 0.819173 0.000000 0.915651
O O16 0.813864 0.500000 0.446074
O O17 0.561916 0.212189 0.790421
O O18 0.475698 0.000000 0.704857
O O19 0.153073 0.000000 0.187140
O O20 0.635653 0.000000 0.876445
#
# Coordination Sequence:
#
# PCOD9171999 Si02
#       8
#     8   8   8   8   8   8   8   8
#     4  10  19  32  52  74  96 124 162 207 252 296
#     4  10  18  29  45  67  96 127 162 201 242 287
#     4   9  16  25  40  64  94 126 158 195 238 282
#     4   9  19  34  51  71  96 128 165 205 247 296
#     4   9  16  26  41  64  95 128 160 194 237 286
#     4   9  17  28  43  64  92 126 160 196 238 287
#     4  10  19  32  50  71  96 128 166 204 246 295
#     4  10  19  33  51  71  97 129 165 203 247 294
#
# _framework density 17.235505
#
# number of rings (size 3 to 8) (size 9 to 14) (size 15 to 20)
#    0.000    2.500    1.250    1.875    0.000    5.500 
#    0.000    1.250    0.000    1.500    0.000    0.875 
#    0.000    7.000    0.000    0.000    0.000    0.000 
#
# Total GULP energy -178444.325992 kJ/mol
# GULP energy per Si atom -5576.385187 kJ/mol
# Density = 1.719628 g / cm^3
# Si number density = 17.235505 Si / 1000 Ang^3
#
#
#
# Elastic Constant Matrix: (Units=GPa)
#
#
# Indices 1 2 3 4 5 6 
#
# 1 48.1499 17.5879 20.9169 0.0000 -22.6634 0.0000
# 2 17.5879 42.2923 43.1791 0.0000 -14.4036 0.0000
# 3 20.9169 43.1791 122.4428 0.0000 -32.3430 0.0000
# 4 0.0000 0.0000 0.0000 27.6551 0.0000 -6.1687
# 5 -22.6634 -14.4036 -32.3430 0.0000 18.2752 0.0000
# 6 0.0000 0.0000 0.0000 -6.1687 0.0000 15.3556
#
#
#
# Elastic Compliance Matrix: (Units=1/GPa)
#
#
# Indices 1 2 3 4 5 6 
#
# 1 0.074266 -0.014011 0.025661 0.000000 0.126469 0.000000
# 2 -0.014011 0.040896 -0.015218 0.000000 -0.012076 0.000000
# 3 0.025661 -0.015218 0.027018 0.000000 0.067644 0.000000
# 4 0.000000 0.000000 0.000000 0.039719 0.000000 0.015956
# 5 0.126469 -0.012076 0.067644 0.000000 0.321751 0.000000
# 6 0.000000 0.000000 0.000000 0.015956 0.000000 0.071533
#
#
# Mechanical properties :
#
#
# Convention : Reuss Voigt Hill
#
# Bulk Modulus (GPa) = 7.40508 41.80586 24.60547
# Shear Modulus (GPa) = 7.97022 21.00393 14.48707
#
# Velocity S-wave (km/s) = 2.15275 3.49469 2.90235
# Velocity P-wave (km/s) = 3.23803 6.37120 5.05356
#
# Compressibility (1/GPa) = 0.13504235
#
# Stress axis : x y z
#
# Youngs Moduli (GPa) = 13.46512 24.45204 37.01226
#
# Poissons Ratio (x) = 0.34261 -0.94976
# Poissons Ratio (y) = 0.18866 0.56326
# Poissons Ratio (z) = -0.34552 0.37212
#
# Static dielectric constant tensor:
#      x y z
#    x 1.562010 0.000000 0.001290 
#    y 0.000000 1.574310 0.000000 
#    z 0.001290 0.000000 1.577250 
# 
# From -- ./inp_files/319085.got.cif
#   From: 2010.05.17/outbox.cif.g08.bks.cpg/sg12_160_cif.got.tgz:319085.got - 2010.06.03 13:09:07.
