data_PCOD9171212
_publ_section_title
;
Structure prediction by ZEFSAII (Michael W. Deem and Ramdas Pophale) SiO2 
 PCOD9171212
Probable space group: C 2/M
;
_chemical_formula_sum "Si O2"
_cell_formula_units_Z 64
_cell_length_a 27.663959
_cell_length_b 9.034844
_cell_length_c 17.633641
_cell_angle_alpha 90.000000
_cell_angle_beta 101.453102
_cell_angle_gamma 90.000000
_cell_volume 4319.583404
_symmetry_space_group_name_H-M "C 2/M"
_symmetry_group_IT_number 12
_symmetry_cell_setting 'monoclinic'
loop_
_space_group_symop_operation_xyz
x,y,z
-x,y,-z
-x,-y,-z
x,-y,z
1/2+x,1/2+y,z
1/2-x,1/2+y,-z
1/2-x,1/2-y,-z
1/2+x,1/2-y,z
loop_
_atom_site_type_symbol
_atom_site_label
_atom_site_fract_x
_atom_site_fract_y
_atom_site_fract_z
Si Si1 0.813376 0.321351 0.191499
Si Si2 0.790443 0.171581 0.916869
Si Si3 0.792013 0.177487 0.342162
Si Si4 0.641121 0.822430 0.945315
Si Si5 0.697092 0.177317 0.501256
Si Si6 0.324142 0.176502 0.671812
Si Si7 0.556047 0.821262 0.033774
Si Si8 0.879044 0.828172 0.823104
O O1 0.814193 0.500000 0.203157
O O2 0.761194 0.282841 0.135477
O O3 0.814629 0.239964 0.271888
O O4 0.853958 0.278983 0.141035
O O5 0.831471 0.182129 0.863713
O O6 0.786292 0.000000 0.938936
O O7 0.811826 0.264693 0.992921
O O8 0.817538 0.250457 0.423691
O O9 0.733145 0.217615 0.326978
O O10 0.794905 0.000000 0.347200
O O11 0.642389 0.000000 0.947417
O O12 0.592778 0.773785 0.976838
O O13 0.750000 0.250000 0.500000
O O14 0.667039 0.207392 0.414665
O O15 0.701793 0.000000 0.510256
O O16 0.361604 0.257144 0.739154
O O17 0.327625 0.000000 0.684371
O O18 0.577957 0.755252 0.118034
O O19 0.557907 0.000000 0.038750
O O20 0.500000 0.776671 0.000000
O O21 0.891407 0.000000 0.817428
#
# Coordination Sequence:
#
# PCOD9171212 Si02
#       8
#     8   8   8   8   8   8   8   8
#     4  10  18  28  40  57  84 113 144 179 211 250
#     4   9  17  27  38  56  82 111 139 172 214 249
#     4  10  19  28  40  59  83 117 153 180 212 250
#     4   9  18  29  43  61  79 107 144 178 214 255
#     4   9  17  28  41  58  82 114 150 184 215 247
#     4   9  17  28  41  59  83 112 146 178 208 247
#     4   9  18  33  49  63  84 112 141 178 222 263
#     4  10  18  27  43  65  86 110 142 178 214 254
#
# _framework density 14.816243
#
# number of rings (size 3 to 8) (size 9 to 14) (size 15 to 20)
#    0.000    2.625    1.250    2.250    0.000    4.250 
#    0.000    0.000    0.000    0.000    0.000    0.000 
#    0.000    1.000    0.000   11.500    0.000    3.250 
#
# Total GULP energy -178237.504670 kJ/mol
# GULP energy per Si atom -5569.922021 kJ/mol
# Density = 1.478252 g / cm^3
# Si number density = 14.816243 Si / 1000 Ang^3
#
#
#
# Elastic Constant Matrix: (Units=GPa)
#
#
# Indices 1 2 3 4 5 6 
#
# 1 45.1348 23.0119 42.5771 0.0000 5.4840 0.0000
# 2 23.0119 34.7524 54.0048 0.0000 0.9420 0.0000
# 3 42.5771 54.0048 148.9555 0.0000 -5.8885 0.0000
# 4 0.0000 0.0000 0.0000 27.3830 0.0000 1.3100
# 5 5.4840 0.9420 -5.8885 0.0000 16.5584 0.0000
# 6 0.0000 0.0000 0.0000 1.3100 0.0000 11.4319
#
#
#
# Elastic Compliance Matrix: (Units=1/GPa)
#
#
# Indices 1 2 3 4 5 6 
#
# 1 0.036814 -0.015703 -0.005352 0.000000 -0.013202 0.000000
# 2 -0.015703 0.075226 -0.023073 0.000000 -0.007284 0.000000
# 3 -0.005352 -0.023073 0.016969 0.000000 0.009119 0.000000
# 4 0.000000 0.000000 0.000000 0.036720 0.000000 -0.004208
# 5 -0.013202 -0.007284 0.009119 0.000000 0.068422 0.000000
# 6 0.000000 0.000000 0.000000 -0.004208 0.000000 0.087957
#
#
# Mechanical properties :
#
#
# Convention : Reuss Voigt Hill
#
# Bulk Modulus (GPa) = 24.53770 52.00335 38.27053
# Shear Modulus (GPa) = 11.79389 18.35791 15.07590
#
# Velocity S-wave (km/s) = 2.82443 3.52382 3.19333
# Velocity P-wave (km/s) = 5.21860 7.19246 6.28352
#
# Compressibility (1/GPa) = 0.04075361
#
# Stress axis : x y z
#
# Youngs Moduli (GPa) = 27.16323 13.29334 58.93149
#
# Poissons Ratio (x) = 0.20875 0.31538
# Poissons Ratio (y) = 0.42655 1.35972
# Poissons Ratio (z) = 0.14537 0.30672
#
# Static dielectric constant tensor:
#      x y z
#    x 1.475550 0.000000 -0.023320 
#    y 0.000000 1.493830 0.000000 
#    z -0.023320 0.000000 1.511690 
# 
# From -- ./inp_files/244114.got.cif
#   From: 2010.05.17/outbox.cif.g08.bks.cpg/sg12_123_cif.got.tgz:244114.got - 2010.06.03 13:09:07.
