data_PCOD9171187
_publ_section_title
;
Structure prediction by ZEFSAII (Michael W. Deem and Ramdas Pophale) SiO2 
 PCOD9171187
Probable space group: C 2/M
;
_chemical_formula_sum "Si O2"
_cell_formula_units_Z 56
_cell_length_a 32.473997
_cell_length_b 9.128432
_cell_length_c 18.002232
_cell_angle_alpha 90.000000
_cell_angle_beta 41.719426
_cell_angle_gamma 90.000000
_cell_volume 3551.366983
_symmetry_space_group_name_H-M "C 2/M"
_symmetry_group_IT_number 12
_symmetry_cell_setting 'monoclinic'
loop_
_space_group_symop_operation_xyz
x,y,z
-x,y,-z
-x,-y,-z
x,-y,z
1/2+x,1/2+y,z
1/2-x,1/2+y,-z
1/2-x,1/2-y,-z
1/2+x,1/2-y,z
loop_
_atom_site_type_symbol
_atom_site_label
_atom_site_fract_x
_atom_site_fract_y
_atom_site_fract_z
Si Si1 0.286194 0.173383 0.561221
Si Si2 0.794153 0.828029 0.701651
Si Si3 0.814650 0.669185 0.824166
Si Si4 0.165902 0.169141 0.053502
Si Si5 0.838097 0.326625 0.331184
Si Si6 0.073259 0.173489 0.895392
Si Si7 0.146424 0.327916 0.929518
O O1 0.310604 0.246768 0.603291
O O2 0.221618 0.250951 0.626201
O O3 0.329937 0.192545 0.430498
O O4 0.275854 0.000000 0.586106
O O5 0.823277 0.752413 0.734899
O O6 0.719446 0.814577 0.811508
O O7 0.808781 0.000000 0.679088
O O8 0.833979 0.500000 0.794082
O O9 0.844442 0.752005 0.853981
O O10 0.740380 0.669962 0.939571
O O11 0.146132 0.000000 0.081264
O O12 0.137745 0.256357 0.022086
O O13 0.837043 0.500000 0.315949
O O14 0.897778 0.251752 0.215500
O O15 0.107422 0.244006 0.920099
O O16 0.086014 0.000000 0.875417
O O17 0.000000 0.195553 0.000000
O O18 0.131359 0.500000 0.950542
#
# Coordination Sequence:
#
# PCOD9171187 Si02
#       7
#     8   8   8   8   8   8   8
#     4  10  19  30  47  68  93 121 153 191 231 278
#     4  10  18  27  42  65  92 121 155 188 226 275
#     4   9  16  25  38  58  86 119 152 185 224 268
#     4   9  16  26  40  58  84 117 151 187 226 270
#     4  10  20  33  48  68  90 119 155 192 235 279
#     4  11  23  36  50  68  91 121 158 199 240 279
#     4  10  19  30  45  64  87 118 156 192 230 277
#
# _framework density 15.768575999999999
#
# number of rings (size 3 to 8) (size 9 to 14) (size 15 to 20)
#    0.000    2.143    1.429    3.000    0.000    7.429 
#    0.000    0.000    0.000    0.000    0.000    0.000 
#    0.000    1.143    0.000   12.000    0.000    7.143 
#
# Total GULP energy -156181.486726 kJ/mol
# GULP energy per Si atom -5577.910240 kJ/mol
# Density = 1.573269 g / cm^3
# Si number density = 15.768576 Si / 1000 Ang^3
#
#
#
# Elastic Constant Matrix: (Units=GPa)
#
#
# Indices 1 2 3 4 5 6 
#
# 1 64.4776 62.6529 41.9948 -0.0001 34.6715 0.0000
# 2 62.6529 150.2402 67.6671 0.0003 28.3849 0.0000
# 3 41.9948 67.6671 71.1436 0.0002 23.1149 0.0000
# 4 -0.0001 0.0003 0.0002 21.9185 -0.0001 9.0638
# 5 34.6715 28.3849 23.1149 -0.0001 29.9103 0.0000
# 6 0.0000 0.0000 0.0000 9.0638 0.0000 27.2402
#
#
#
# Elastic Compliance Matrix: (Units=1/GPa)
#
#
# Indices 1 2 3 4 5 6 
#
# 1 0.060128 -0.011949 -0.006898 0.000000 -0.053029 0.000000
# 2 -0.011949 0.014272 -0.008841 0.000000 0.007139 0.000000
# 3 -0.006898 -0.008841 0.028325 0.000000 -0.005503 0.000000
# 4 0.000000 0.000000 0.000000 0.052903 0.000000 -0.017603
# 5 -0.053029 0.007139 -0.005503 0.000000 0.092382 0.000000
# 6 0.000000 0.000000 0.000000 -0.017603 0.000000 0.042567
#
#
# Mechanical properties :
#
#
# Convention : Reuss Voigt Hill
#
# Bulk Modulus (GPa) = 21.11964 70.05455 45.58709
# Shear Modulus (GPa) = 13.82223 23.38358 18.60290
#
# Velocity S-wave (km/s) = 2.96390 3.85505 3.43847
# Velocity P-wave (km/s) = 5.01353 8.02112 6.68857
#
# Compressibility (1/GPa) = 0.04734930
#
# Stress axis : x y z
#
# Youngs Moduli (GPa) = 16.63112 70.06733 35.30466
#
# Poissons Ratio (x) = 0.83723 0.24354
# Poissons Ratio (y) = 0.19872 0.31212
# Poissons Ratio (z) = 0.11472 0.61946
#
# Static dielectric constant tensor:
#      x y z
#    x 1.509130 0.000000 0.023270 
#    y 0.000000 1.525760 0.000000 
#    z 0.023270 0.000000 1.514730 
# 
# From -- ./inp_files/281729.got.cif
#   From: 2010.05.17/outbox.cif.g08.bks.cpg/sg12_141_cif.got.tgz:281729.got - 2010.06.03 13:09:07.
