data_PCOD9171752
_publ_section_title
;
Structure prediction by ZEFSAII (Michael W. Deem and Ramdas Pophale) SiO2 
 PCOD9171752
Probable space group: C 2/M
;
_chemical_formula_sum "Si O2"
_cell_formula_units_Z 40
_cell_length_a 24.788065
_cell_length_b 9.404044
_cell_length_c 21.871211
_cell_angle_alpha 90.000000
_cell_angle_beta 30.078508
_cell_angle_gamma 90.000000
_cell_volume 2555.225275
_symmetry_space_group_name_H-M "C 2/M"
_symmetry_group_IT_number 12
_symmetry_cell_setting 'monoclinic'
loop_
_space_group_symop_operation_xyz
x,y,z
-x,y,-z
-x,-y,-z
x,-y,z
1/2+x,1/2+y,z
1/2-x,1/2+y,-z
1/2-x,1/2-y,-z
1/2+x,1/2-y,z
loop_
_atom_site_type_symbol
_atom_site_label
_atom_site_fract_x
_atom_site_fract_y
_atom_site_fract_z
Si Si1 0.500347 0.669664 0.600862
Si Si2 0.403044 0.832287 0.806478
Si Si3 0.322867 0.669525 0.670116
Si Si4 0.848836 0.167876 0.978421
Si Si5 0.885571 0.829249 0.082837
O O1 0.499878 0.500000 0.613131
O O2 0.479467 0.756313 0.682625
O O3 0.402741 0.698570 0.648986
O O4 0.609155 0.705564 0.457331
O O5 0.405712 0.758828 0.870060
O O6 0.423819 0.000000 0.789910
O O7 0.279837 0.812628 0.903557
O O8 0.303540 0.500000 0.688556
O O9 0.213291 0.753638 0.786636
O O10 0.871117 0.000000 0.947592
O O11 0.881106 0.208755 0.015366
O O12 0.871915 0.000000 0.100163
O O13 0.000000 0.791765 0.000000
#
# Coordination Sequence:
#
# PCOD9171752 Si02
#       5
#     8   8   8   8   8
#     4   9  17  30  48  71 100 129 154 194 245 290
#     4  10  18  28  47  73  97 125 158 197 241 287
#     4   9  18  31  48  71  98 128 162 194 237 289
#     4   9  18  31  45  67  98 129 158 192 240 287
#     4  10  20  34  51  71  98 130 163 198 236 281
#
# _framework density 15.654197
#
# number of rings (size 3 to 8) (size 9 to 14) (size 15 to 20)
#    0.000    2.600    2.000    1.800    0.000    2.800 
#    0.000    2.000    0.000    1.200    0.000    0.000 
#    0.000    0.000    0.000    0.000    0.000    0.000 
#
# Total GULP energy -111494.693441 kJ/mol
# GULP energy per Si atom -5574.734672 kJ/mol
# Density = 1.561857 g / cm^3
# Si number density = 15.654197 Si / 1000 Ang^3
#
#
#
# Elastic Constant Matrix: (Units=GPa)
#
#
# Indices 1 2 3 4 5 6 
#
# 1 81.2060 45.6698 71.2723 0.0000 8.7513 0.0000
# 2 45.6698 52.3309 76.8441 0.0000 14.2303 -0.0001
# 3 71.2723 76.8441 151.7179 -0.0001 20.0583 0.0000
# 4 0.0000 0.0000 -0.0001 33.4670 0.0000 4.9955
# 5 8.7513 14.2303 20.0583 0.0000 26.5620 0.0000
# 6 0.0000 -0.0001 0.0000 4.9955 0.0000 18.4133
#
#
#
# Elastic Compliance Matrix: (Units=1/GPa)
#
#
# Indices 1 2 3 4 5 6 
#
# 1 0.024796 -0.018885 -0.002600 0.000000 0.003912 0.000000
# 2 -0.018885 0.093020 -0.036078 0.000000 -0.016368 0.000000
# 3 -0.002600 -0.036078 0.026015 0.000000 0.000540 0.000000
# 4 0.000000 0.000000 0.000000 0.031141 0.000000 -0.008449
# 5 0.003912 -0.016368 0.000540 0.000000 0.044720 0.000000
# 6 0.000000 0.000000 0.000000 -0.008449 0.000000 0.056601
#
#
# Mechanical properties :
#
#
# Convention : Reuss Voigt Hill
#
# Bulk Modulus (GPa) = 34.83954 74.75858 54.79906
# Shear Modulus (GPa) = 12.46925 21.78638 17.12781
#
# Velocity S-wave (km/s) = 2.82537 3.73463 3.31136
# Velocity P-wave (km/s) = 5.74001 8.15209 7.04997
#
# Compressibility (1/GPa) = 0.02870302
#
# Stress axis : x y z
#
# Youngs Moduli (GPa) = 40.32937 10.75043 38.43964
#
# Poissons Ratio (x) = 0.20302 0.09996
# Poissons Ratio (y) = 0.76161 1.38684
# Poissons Ratio (z) = 0.10487 0.38786
#
# Static dielectric constant tensor:
#      x y z
#    x 1.505740 0.000000 0.008820 
#    y 0.000000 1.513660 0.000000 
#    z 0.008820 0.000000 1.504540 
# 
# From -- ./inp_files/110226.got.cif
#   From: 2010.05.17/outbox.cif.g08.bks.cpg/sg12_56_cif.got.tgz:110226.got - 2010.06.03 13:09:07.
