data_PCOD9171028
_publ_section_title
;
Structure prediction by ZEFSAII (Michael W. Deem and Ramdas Pophale) SiO2 
 PCOD9171028
Probable space group: C 2/M
;
_chemical_formula_sum "Si O2"
_cell_formula_units_Z 56
_cell_length_a 24.493084
_cell_length_b 9.230240
_cell_length_c 26.227532
_cell_angle_alpha 90.000000
_cell_angle_beta 37.080865
_cell_angle_gamma 90.000000
_cell_volume 3575.107704
_symmetry_space_group_name_H-M "C 2/M"
_symmetry_group_IT_number 12
_symmetry_cell_setting 'monoclinic'
loop_
_space_group_symop_operation_xyz
x,y,z
-x,y,-z
-x,-y,-z
x,-y,z
1/2+x,1/2+y,z
1/2-x,1/2+y,-z
1/2-x,1/2-y,-z
1/2+x,1/2-y,z
loop_
_atom_site_type_symbol
_atom_site_label
_atom_site_fract_x
_atom_site_fract_y
_atom_site_fract_z
Si Si1 0.438519 0.168905 0.712645
Si Si2 0.648619 0.329013 0.132489
Si Si3 0.755020 0.330954 0.781523
Si Si4 0.342457 0.328892 0.992152
Si Si5 0.463026 0.668456 0.445861
Si Si6 0.853055 0.831424 0.623247
Si Si7 0.906089 0.329016 0.040358
O O1 0.422501 0.258959 0.775906
O O2 0.344285 0.181226 0.750860
O O3 0.515989 0.234923 0.618703
O O4 0.453699 0.000000 0.711799
O O5 0.659855 0.500000 0.134574
O O6 0.625264 0.311786 0.090184
O O7 0.744179 0.247075 0.069075
O O8 0.731033 0.500000 0.796366
O O9 0.782670 0.266855 0.706002
O O10 0.675248 0.239713 0.866354
O O11 0.332736 0.500000 0.010173
O O12 0.404997 0.252807 0.987156
O O13 0.449332 0.500000 0.442067
O O14 0.554645 0.673041 0.411872
O O15 0.383023 0.713788 0.544059
O O16 0.824304 0.000000 0.643514
O O17 0.890206 0.500000 0.044622
O O18 0.000000 0.309745 0.000000
#
# Coordination Sequence:
#
# PCOD9171028 Si02
#       7
#     8   8   8   8   8   8   8
#     4  10  18  26  40  64  92 120 152 186 222 266
#     4  10  19  30  47  67  91 121 151 186 225 274
#     4  10  19  29  43  63  87 117 152 189 229 269
#     4  10  20  33  48  68  89 115 152 190 233 272
#     4   8  14  24  38  57  83 117 151 181 219 263
#     4   8  14  25  40  57  81 115 151 184 219 265
#     4  11  23  36  50  67  88 119 157 194 233 274
#
# _framework density 15.663862999999999
#
# number of rings (size 3 to 8) (size 9 to 14) (size 15 to 20)
#    0.000    2.429    1.429    3.000    0.000    4.571 
#    0.000    2.857    0.000    0.000    0.000    0.000 
#    0.000    1.143    0.000    3.714    0.000    4.571 
#
# Total GULP energy -156058.083090 kJ/mol
# GULP energy per Si atom -5573.502968 kJ/mol
# Density = 1.562821 g / cm^3
# Si number density = 15.663863 Si / 1000 Ang^3
#
#
#
# Elastic Constant Matrix: (Units=GPa)
#
#
# Indices 1 2 3 4 5 6 
#
# 1 49.2238 50.0100 29.4573 0.0001 15.5414 0.0000
# 2 50.0100 120.8185 67.1743 0.0002 24.6613 -0.0001
# 3 29.4573 67.1743 88.0498 0.0001 33.5795 -0.0001
# 4 0.0001 0.0002 0.0001 25.3765 -0.0001 6.8528
# 5 15.5414 24.6613 33.5795 -0.0001 20.7166 0.0001
# 6 0.0000 -0.0001 -0.0001 6.8528 0.0001 18.1214
#
#
#
# Elastic Compliance Matrix: (Units=1/GPa)
#
#
# Indices 1 2 3 4 5 6 
#
# 1 0.038927 -0.015726 0.007783 0.000000 -0.023098 0.000000
# 2 -0.015726 0.020751 -0.014793 0.000000 0.011073 0.000000
# 3 0.007783 -0.014793 0.040724 0.000000 -0.054238 0.000001
# 4 0.000000 0.000000 0.000000 0.043889 0.000001 -0.016597
# 5 -0.023098 0.011073 -0.054238 0.000001 0.140331 -0.000001
# 6 0.000000 0.000000 0.000001 -0.016597 -0.000001 0.061460
#
#
# Mechanical properties :
#
#
# Convention : Reuss Voigt Hill
#
# Bulk Modulus (GPa) = 18.20465 61.26393 39.73429
# Shear Modulus (GPa) = 12.19923 20.27292 16.23608
#
# Velocity S-wave (km/s) = 2.79375 3.60147 3.22301
# Velocity P-wave (km/s) = 4.69617 7.51603 6.26676
#
# Compressibility (1/GPa) = 0.05493101
#
# Stress axis : x y z
#
# Youngs Moduli (GPa) = 25.68893 48.19146 24.55577
#
# Poissons Ratio (x) = 0.75784 -0.19112
# Poissons Ratio (y) = 0.40397 0.36325
# Poissons Ratio (z) = -0.19994 0.71288
#
# Static dielectric constant tensor:
#      x y z
#    x 1.504160 0.000000 0.024770 
#    y 0.000000 1.521770 0.000000 
#    z 0.024770 0.000000 1.532090 
# 
# From -- ./inp_files/243235.got.cif
#   From: 2010.05.17/outbox.cif.g08.bks.cpg/sg12_122_cif.got.tgz:243235.got - 2010.06.03 13:09:07.
