data_PCOD9171435
_publ_section_title
;
Structure prediction by ZEFSAII (Michael W. Deem and Ramdas Pophale) SiO2 
 PCOD9171435
Probable space group: C 2/M
;
_chemical_formula_sum "Si O2"
_cell_formula_units_Z 56
_cell_length_a 30.083908
_cell_length_b 7.282346
_cell_length_c 12.447632
_cell_angle_alpha 90.000000
_cell_angle_beta 111.749262
_cell_angle_gamma 90.000000
_cell_volume 2532.918447
_symmetry_space_group_name_H-M "C 2/M"
_symmetry_group_IT_number 12
_symmetry_cell_setting 'monoclinic'
loop_
_space_group_symop_operation_xyz
x,y,z
-x,y,-z
-x,-y,-z
x,-y,z
1/2+x,1/2+y,z
1/2-x,1/2+y,-z
1/2-x,1/2-y,-z
1/2+x,1/2-y,z
loop_
_atom_site_type_symbol
_atom_site_label
_atom_site_fract_x
_atom_site_fract_y
_atom_site_fract_z
Si Si1 0.347030 0.710885 0.399042
Si Si2 0.842181 0.224441 0.635108
Si Si3 0.464098 0.723056 0.120326
Si Si4 0.736392 0.722350 0.275442
Si Si5 0.068417 0.776733 0.141650
Si Si6 0.299851 0.717880 0.983702
Si Si7 0.113770 0.225027 0.787637
O O1 0.363014 0.500000 0.423281
O O2 0.350226 0.790619 0.521307
O O3 0.290809 0.713248 0.319204
O O4 0.375678 0.789328 0.323520
O O5 0.792078 0.280454 0.643836
O O6 0.885009 0.281490 0.752165
O O7 0.841597 0.000000 0.632215
O O8 0.464435 0.500000 0.120334
O O9 0.519003 0.780217 0.154933
O O10 0.435615 0.780286 0.200381
O O11 0.435889 0.779081 0.986679
O O12 0.738022 0.500000 0.275052
O O13 0.707278 0.784898 0.144030
O O14 0.069200 0.000000 0.141607
O O15 0.307702 0.500000 0.981440
O O16 0.250000 0.750000 0.000000
O O17 0.343337 0.786583 0.095130
O O18 0.115221 0.000000 0.786304
#
# Coordination Sequence:
#
# PCOD9171435 Si02
#       7
#     8   8   8   8   8   8   8
#     4  10  19  30  43  60  89 122 145 175 217 258
#     4   9  17  28  41  59  84 115 149 180 214 253
#     4   8  13  22  39  60  82 110 142 175 214 259
#     4  10  19  30  45  63  84 115 152 184 211 247
#     4   8  13  23  39  59  82 109 143 179 212 255
#     4  10  18  28  43  62  86 113 140 175 213 250
#     4   9  16  26  39  58  85 115 141 169 215 263
#
# _framework density 22.108885000000001
#
# number of rings (size 3 to 8) (size 9 to 14) (size 15 to 20)
#    0.000    2.857    1.429    2.143    0.000    3.429 
#    0.000    0.714    0.000    4.286    0.000    0.000 
#    0.000    5.714    0.000   15.714    0.000   14.286 
#
# Total GULP energy -156383.033318 kJ/mol
# GULP energy per Si atom -5585.108333 kJ/mol
# Density = 2.205856 g / cm^3
# Si number density = 22.108885 Si / 1000 Ang^3
#
#
#
# Elastic Constant Matrix: (Units=GPa)
#
#
# Indices 1 2 3 4 5 6 
#
# 1 104.5561 -6.5923 45.1999 0.0000 -49.1511 0.0000
# 2 -6.5923 94.3204 -0.3217 0.0000 -3.3743 0.0000
# 3 45.1999 -0.3217 97.9267 0.0000 -41.8909 0.0000
# 4 0.0000 0.0000 0.0000 -6.6428 0.0000 4.3615
# 5 -49.1511 -3.3743 -41.8909 0.0000 39.0794 0.0000
# 6 0.0000 0.0000 0.0000 4.3615 0.0000 0.4584
#
#
#
# Elastic Compliance Matrix: (Units=1/GPa)
#
#
# Indices 1 2 3 4 5 6 
#
# 1 0.024816 0.003016 0.003728 0.000000 0.035469 0.000000
# 2 0.003016 0.011035 0.001246 0.000000 0.006081 0.000000
# 3 0.003728 0.001246 0.019479 0.000000 0.025677 0.000000
# 4 0.000000 0.000000 0.000000 -0.020772 0.000000 0.197642
# 5 0.035469 0.006081 0.025677 0.000000 0.098249 0.000000
# 6 0.000000 0.000000 0.000000 0.197642 0.000000 0.301020
#
#
# Mechanical properties :
#
#
# Convention : Reuss Voigt Hill
#
# Bulk Modulus (GPa) = 14.02320 41.48612 27.75466
# Shear Modulus (GPa) = 11.32203 23.81348 17.56776
#
# Velocity S-wave (km/s) = 2.26542 3.28548 2.82193
# Velocity P-wave (km/s) = 3.63310 5.76175 4.81649
#
# Compressibility (1/GPa) = 0.07131041
#
# Stress axis : x y z
#
# Youngs Moduli (GPa) = 40.29586 90.62269 51.33715
#
# Poissons Ratio (x) = -0.27333 -0.19140
# Poissons Ratio (y) = -0.12154 -0.06395
# Poissons Ratio (z) = -0.15024 -0.11288
#
# Static dielectric constant tensor:
#      x y z
#    x 1.761540 0.000000 -0.023880 
#    y 0.000000 1.858980 0.000000 
#    z -0.023880 0.000000 1.789400 
# 
# From -- ./inp_files/181563.got.cif
#   From: 2010.05.17/outbox.cif.g08.bks.cpg/sg12_91_cif.got.tgz:181563.got - 2010.06.03 13:09:07.
