data_PCOD9171106
_publ_section_title
;
Structure prediction by ZEFSAII (Michael W. Deem and Ramdas Pophale) SiO2 
 PCOD9171106
Probable space group: C 2/M
;
_chemical_formula_sum "Si O2"
_cell_formula_units_Z 56
_cell_length_a 28.320362
_cell_length_b 7.796147
_cell_length_c 15.161299
_cell_angle_alpha 90.000000
_cell_angle_beta 77.297090
_cell_angle_gamma 90.000000
_cell_volume 3265.524251
_symmetry_space_group_name_H-M "C 2/M"
_symmetry_group_IT_number 12
_symmetry_cell_setting 'monoclinic'
loop_
_space_group_symop_operation_xyz
x,y,z
-x,y,-z
-x,-y,-z
x,-y,z
1/2+x,1/2+y,z
1/2-x,1/2+y,-z
1/2-x,1/2-y,-z
1/2+x,1/2-y,z
loop_
_atom_site_type_symbol
_atom_site_label
_atom_site_fract_x
_atom_site_fract_y
_atom_site_fract_z
Si Si1 0.066914 0.710553 0.896812
Si Si2 0.958275 0.705289 0.900074
Si Si3 0.628051 0.799683 0.716066
Si Si4 0.956228 0.208625 0.381804
Si Si5 0.112401 0.205974 0.434390
Si Si6 0.436512 0.293775 0.715077
Si Si7 0.305396 0.202791 0.463103
O O1 0.067570 0.500000 0.893965
O O2 0.110518 0.773197 0.817006
O O3 0.014385 0.765811 0.879956
O O4 0.066994 0.764414 0.999001
O O5 0.960735 0.500000 0.904680
O O6 0.932796 0.748903 0.819094
O O7 0.580103 0.785225 0.675311
O O8 0.669835 0.722097 0.636331
O O9 0.639661 0.000000 0.726203
O O10 0.933263 0.256822 0.485386
O O11 0.010651 0.264949 0.340609
O O12 0.954591 0.000000 0.376342
O O13 0.103162 0.269571 0.339006
O O14 0.160545 0.254621 0.467567
O O15 0.112463 0.000000 0.431828
O O16 0.436761 0.500000 0.710451
O O17 0.250000 0.250000 0.500000
O O18 0.307849 0.000000 0.452090
#
# Coordination Sequence:
#
# PCOD9171106 Si02
#       7
#     8   8   8   8   8   8   8
#     4   8  14  26  42  61  85 117 154 184 213 249
#     4   9  16  26  42  60  85 122 155 183 212 246
#     4   9  16  28  46  65  86 114 149 183 214 255
#     4   9  16  26  40  60  87 120 152 178 209 251
#     4   9  18  31  45  61  87 120 150 179 214 260
#     4  10  18  27  40  62  91 122 151 180 215 252
#     4  10  20  33  50  70  89 110 140 182 227 267
#
# _framework density 17.148852999999999
#
# number of rings (size 3 to 8) (size 9 to 14) (size 15 to 20)
#    0.000    2.857    1.429    1.714    0.000    2.857 
#    0.000    2.143    0.000    4.286    0.000    1.000 
#    0.000    0.000    0.000    0.000    0.000    0.000 
#
# Total GULP energy -155929.592400 kJ/mol
# GULP energy per Si atom -5568.914014 kJ/mol
# Density = 1.710982 g / cm^3
# Si number density = 17.148853 Si / 1000 Ang^3
#
#
#
# Elastic Constant Matrix: (Units=GPa)
#
#
# Indices 1 2 3 4 5 6 
#
# 1 78.4690 1.6551 75.5639 0.0000 -9.3773 0.0000
# 2 1.6551 17.8100 9.2079 0.0000 -0.2835 0.0000
# 3 75.5639 9.2079 164.4490 0.0000 -1.5875 0.0000
# 4 0.0000 0.0000 0.0000 16.7452 0.0000 3.4921
# 5 -9.3773 -0.2835 -1.5875 0.0000 17.8377 0.0000
# 6 0.0000 0.0000 0.0000 3.4921 0.0000 15.6380
#
#
#
# Elastic Compliance Matrix: (Units=1/GPa)
#
#
# Indices 1 2 3 4 5 6 
#
# 1 0.025550 0.003945 -0.011841 0.000000 0.012441 0.000000
# 2 0.003945 0.058439 -0.005060 0.000000 0.002552 0.000000
# 3 -0.011841 -0.005060 0.011754 0.000000 -0.005259 0.000000
# 4 0.000000 0.000000 0.000000 0.062635 0.000000 -0.013987
# 5 0.012441 0.002552 -0.005259 0.000000 0.062174 0.000000
# 6 0.000000 0.000000 0.000000 -0.013987 0.000000 0.067070
#
#
# Mechanical properties :
#
#
# Convention : Reuss Voigt Hill
#
# Bulk Modulus (GPa) = 14.32029 48.17575 31.24802
# Shear Modulus (GPa) = 14.84512 21.66425 18.25469
#
# Velocity S-wave (km/s) = 2.94541 3.55816 3.26618
# Velocity P-wave (km/s) = 4.46497 6.71076 5.69957
#
# Compressibility (1/GPa) = 0.06983101
#
# Stress axis : x y z
#
# Youngs Moduli (GPa) = 39.13908 17.11200 85.07473
#
# Poissons Ratio (x) = -0.06751 1.00737
# Poissons Ratio (y) = -0.15442 0.43051
# Poissons Ratio (z) = 0.46344 0.08659
#
# Static dielectric constant tensor:
#      x y z
#    x 1.489270 0.000000 0.005400 
#    y 0.000000 1.639000 0.000000 
#    z 0.005400 0.000000 1.644320 
# 
# From -- ./inp_files/247803.got.cif
#   From: 2010.05.17/outbox.cif.g08.bks.cpg/sg12_124_cif.got.tgz:247803.got - 2010.06.03 13:09:07.
