data_PCOD9171074
_publ_section_title
;
Structure prediction by ZEFSAII (Michael W. Deem and Ramdas Pophale) SiO2 
 PCOD9171074
Probable space group: C 2/M
;
_chemical_formula_sum "Si O2"
_cell_formula_units_Z 48
_cell_length_a 26.932904
_cell_length_b 10.946540
_cell_length_c 17.451365
_cell_angle_alpha 90.000000
_cell_angle_beta 20.941226
_cell_angle_gamma 90.000000
_cell_volume 1838.892188
_symmetry_space_group_name_H-M "C 2/M"
_symmetry_group_IT_number 12
_symmetry_cell_setting 'monoclinic'
loop_
_space_group_symop_operation_xyz
x,y,z
-x,y,-z
-x,-y,-z
x,-y,z
1/2+x,1/2+y,z
1/2-x,1/2+y,-z
1/2-x,1/2-y,-z
1/2+x,1/2-y,z
loop_
_atom_site_type_symbol
_atom_site_label
_atom_site_fract_x
_atom_site_fract_y
_atom_site_fract_z
Si Si1 0.138103 0.871553 0.884223
Si Si2 0.585865 0.361979 0.585327
Si Si3 0.666535 0.870948 0.257633
Si Si4 0.208090 0.648180 0.495200
Si Si5 0.098328 0.624405 0.932063
Si Si6 0.881845 0.869452 0.736903
O O1 0.274311 0.869441 0.741713
O O2 0.177221 0.861404 0.738657
O O3 0.060040 0.751954 0.023311
O O4 0.066788 0.000000 0.000268
O O5 0.571749 0.500000 0.643080
O O6 0.590443 0.230941 0.621512
O O7 0.740904 0.368807 0.324442
O O8 0.469915 0.357198 0.687179
O O9 0.500000 0.873458 0.500000
O O10 0.707397 0.749451 0.154023
O O11 0.715011 0.000000 0.153320
O O12 0.188136 0.500000 0.545143
O O13 0.250000 0.750000 0.500000
O O14 0.082276 0.500000 0.000923
O O15 0.000000 0.617149 0.000000
O O16 0.000000 0.873869 0.500000
O O17 0.807393 0.000000 0.841971
#
# Coordination Sequence:
#
# PCOD9171074 Si02
#       6
#     8   8   8   8   8   8
#     4   9  18  29  39  54  77 104 130 156 187 223
#     4   9  17  28  39  54  79 105 129 157 186 220
#     4   9  15  23  36  53  73  98 125 149 177 217
#     4  10  18  27  39  53  70  96 130 162 193 225
#     4   9  16  25  38  54  71  96 129 161 191 220
#     4   9  15  22  35  54  74  99 125 147 178 218
#
# _framework density 26.102671999999998
#
# number of rings (size 3 to 8) (size 9 to 14) (size 15 to 20)
#    0.000    2.833    0.000    4.500    0.000    5.000 
#    0.000    0.000    0.000    0.000    0.000    0.000 
#    0.000    0.000    0.000   96.000    0.000 1349.333 
#
# Total GULP energy -133722.531234 kJ/mol
# GULP energy per Si atom -5571.772135 kJ/mol
# Density = 2.604326 g / cm^3
# Si number density = 26.102672 Si / 1000 Ang^3
#
#
#
# Elastic Constant Matrix: (Units=GPa)
#
#
# Indices 1 2 3 4 5 6 
#
# 1 109.3093 73.2805 34.3293 0.0000 -11.1025 0.0000
# 2 73.2805 373.2505 12.0718 0.0000 -6.3898 0.0000
# 3 34.3293 12.0718 92.7609 0.0000 18.3427 0.0000
# 4 0.0000 0.0000 0.0000 -3.6884 0.0000 -21.3585
# 5 -11.1025 -6.3898 18.3427 0.0000 40.0279 0.0000
# 6 0.0000 0.0000 0.0000 -21.3585 0.0000 35.2338
#
#
#
# Elastic Compliance Matrix: (Units=1/GPa)
#
#
# Indices 1 2 3 4 5 6 
#
# 1 0.013063 -0.002280 -0.005698 0.000000 0.005871 0.000000
# 2 -0.002280 0.003104 0.000513 0.000000 -0.000372 0.000000
# 3 -0.005698 0.000513 0.014426 0.000000 -0.008109 0.000000
# 4 0.000000 0.000000 0.000000 -0.060111 0.000000 -0.036439
# 5 0.005871 -0.000372 -0.008109 0.000000 0.030268 0.000000
# 6 0.000000 0.000000 0.000000 -0.036439 0.000000 0.006293
#
#
# Mechanical properties :
#
#
# Convention : Reuss Voigt Hill
#
# Bulk Modulus (GPa) = 63.84570 90.52042 77.18306
# Shear Modulus (GPa) = 183.87838 44.69061 114.28450
#
# Velocity S-wave (km/s) = 8.40221 4.14225 6.62403
# Velocity P-wave (km/s) = 10.89230 7.59155 9.38812
#
# Compressibility (1/GPa) = 0.01566276
#
# Stress axis : x y z
#
# Youngs Moduli (GPa) = 76.55441 322.18737 69.31915
#
# Poissons Ratio (x) = 0.73452 0.39501
# Poissons Ratio (y) = 0.17453 -0.03559
# Poissons Ratio (z) = 0.43624 -0.16540
#
# Static dielectric constant tensor:
#      x y z
#    x 2.029570 0.000000 0.027810 
#    y 0.000000 2.246830 0.000000 
#    z 0.027810 0.000000 1.981370 
# 
# From -- ./inp_files/289324.got.cif
#   From: 2010.05.17/outbox.cif.g08.bks.cpg/sg12_145_cif.got.tgz:289324.got - 2010.06.03 13:09:07.
