data_PCOD9171411
_publ_section_title
;
Structure prediction by ZEFSAII (Michael W. Deem and Ramdas Pophale) SiO2 
 PCOD9171411
Probable space group: C 2/M
;
_chemical_formula_sum "Si O2"
_cell_formula_units_Z 64
_cell_length_a 26.091847
_cell_length_b 7.534624
_cell_length_c 18.142988
_cell_angle_alpha 90.000000
_cell_angle_beta 100.952023
_cell_angle_gamma 90.000000
_cell_volume 3501.807978
_symmetry_space_group_name_H-M "C 2/M"
_symmetry_group_IT_number 12
_symmetry_cell_setting 'monoclinic'
loop_
_space_group_symop_operation_xyz
x,y,z
-x,y,-z
-x,-y,-z
x,-y,z
1/2+x,1/2+y,z
1/2-x,1/2+y,-z
1/2-x,1/2-y,-z
1/2+x,1/2-y,z
loop_
_atom_site_type_symbol
_atom_site_label
_atom_site_fract_x
_atom_site_fract_y
_atom_site_fract_z
Si Si1 0.727670 0.712416 0.668962
Si Si2 0.507182 0.283406 0.916456
Si Si3 0.206164 0.709351 0.831528
Si Si4 0.877228 0.207125 0.075715
Si Si5 0.598841 0.717346 0.188295
Si Si6 0.345367 0.708004 0.653541
Si Si7 0.309552 0.712475 0.492150
Si Si8 0.181700 0.217066 0.085078
O O1 0.730972 0.500000 0.664479
O O2 0.709029 0.759096 0.745171
O O3 0.786373 0.780706 0.669891
O O4 0.689947 0.776531 0.592158
O O5 0.505740 0.500000 0.913513
O O6 0.564065 0.220619 0.905779
O O7 0.457760 0.223863 0.855099
O O8 0.500000 0.233603 0.000000
O O9 0.205500 0.500000 0.843846
O O10 0.155449 0.780858 0.858668
O O11 0.259801 0.780594 0.882355
O O12 0.883960 0.000000 0.059049
O O13 0.842412 0.279920 0.998778
O O14 0.599090 0.500000 0.189663
O O15 0.616461 0.781742 0.273608
O O16 0.642578 0.768288 0.140181
O O17 0.357987 0.500000 0.649735
O O18 0.343475 0.783907 0.569891
O O19 0.317325 0.500000 0.492814
O O20 0.250000 0.750000 0.500000
O O21 0.183662 0.000000 0.085328
#
# Coordination Sequence:
#
# PCOD9171411 Si02
#       8
#     8   8   8   8   8   8   8   8
#     4  10  18  28  42  63  91 118 148 182 218 259
#     4   9  15  25  44  68  90 113 145 185 223 256
#     4  11  21  32  45  63  89 122 154 181 219 268
#     4  10  19  31  47  67  89 115 151 190 222 253
#     4   9  14  23  43  69  91 115 147 180 213 257
#     4   9  15  26  44  65  92 120 146 175 216 267
#     4   8  15  25  39  61  88 118 144 173 214 262
#     4   9  16  27  44  65  89 116 148 182 215 257
#
# _framework density 18.276274000000001
#
# number of rings (size 3 to 8) (size 9 to 14) (size 15 to 20)
#    0.000    2.625    2.500    1.125    0.000    0.500 
#    0.000    0.625    0.000    1.125    0.000    0.875 
#    0.000    7.000    0.000    0.000    0.000    0.000 
#
# Total GULP energy -178377.383034 kJ/mol
# GULP energy per Si atom -5574.293220 kJ/mol
# Density = 1.823468 g / cm^3
# Si number density = 18.276274 Si / 1000 Ang^3
#
#
#
# Elastic Constant Matrix: (Units=GPa)
#
#
# Indices 1 2 3 4 5 6 
#
# 1 114.0064 -3.3551 70.0743 0.0000 10.1208 0.0000
# 2 -3.3551 44.3672 -8.6524 0.0000 4.6031 0.0000
# 3 70.0743 -8.6524 125.2129 0.0000 31.1864 0.0000
# 4 0.0000 0.0000 0.0000 4.3687 0.0000 -4.6792
# 5 10.1208 4.6031 31.1864 0.0000 18.6681 0.0000
# 6 0.0000 0.0000 0.0000 -4.6792 0.0000 -1.7893
#
#
#
# Elastic Compliance Matrix: (Units=1/GPa)
#
#
# Indices 1 2 3 4 5 6 
#
# 1 0.014506 -0.002211 -0.011042 0.000000 0.011128 0.000000
# 2 -0.002211 0.025603 0.007331 0.000000 -0.017361 0.000000
# 3 -0.011042 0.007331 0.023346 0.000000 -0.034822 0.000000
# 4 0.000000 0.000000 0.000000 0.060221 0.000000 -0.157487
# 5 0.011128 -0.017361 -0.034822 0.000000 0.109987 0.000000
# 6 0.000000 0.000000 0.000000 -0.157487 0.000000 -0.147038
#
#
# Mechanical properties :
#
#
# Convention : Reuss Voigt Hill
#
# Bulk Modulus (GPa) = 19.37680 44.41333 31.89506
# Shear Modulus (GPa) = 43.22525 19.28416 31.25471
#
# Velocity S-wave (km/s) = 4.86851 3.25183 4.13985
# Velocity P-wave (km/s) = 6.49833 6.20105 6.35143
#
# Compressibility (1/GPa) = 0.05160812
#
# Stress axis : x y z
#
# Youngs Moduli (GPa) = 68.93817 39.05829 42.83443
#
# Poissons Ratio (x) = 0.08636 0.47300
# Poissons Ratio (y) = 0.15243 -0.31400
# Poissons Ratio (z) = 0.76125 -0.28632
#
# Static dielectric constant tensor:
#      x y z
#    x 1.598090 0.000000 0.022580 
#    y 0.000000 1.709100 0.000000 
#    z 0.022580 0.000000 1.671490 
# 
# From -- ./inp_files/287776.got.cif
#   From: 2010.05.17/outbox.cif.g08.bks.cpg/sg12_144_cif.got.tgz:287776.got - 2010.06.03 13:09:07.
