data_PCOD9171161
_publ_section_title
;
Structure prediction by ZEFSAII (Michael W. Deem and Ramdas Pophale) SiO2 
 PCOD9171161
Probable space group: C 2/M
;
_chemical_formula_sum "Si O2"
_cell_formula_units_Z 56
_cell_length_a 19.939729
_cell_length_b 7.358136
_cell_length_c 23.595563
_cell_angle_alpha 90.000000
_cell_angle_beta 38.925243
_cell_angle_gamma 90.000000
_cell_volume 2175.146554
_symmetry_space_group_name_H-M "C 2/M"
_symmetry_group_IT_number 12
_symmetry_cell_setting 'monoclinic'
loop_
_space_group_symop_operation_xyz
x,y,z
-x,y,-z
-x,-y,-z
x,-y,z
1/2+x,1/2+y,z
1/2-x,1/2+y,-z
1/2-x,1/2-y,-z
1/2+x,1/2-y,z
loop_
_atom_site_type_symbol
_atom_site_label
_atom_site_fract_x
_atom_site_fract_y
_atom_site_fract_z
Si Si1 0.941045 0.222060 0.669096
Si Si2 0.923523 0.782690 0.808287
Si Si3 0.120807 0.709863 0.893696
Si Si4 0.695911 0.222926 0.961354
Si Si5 0.315239 0.716401 0.515406
Si Si6 0.470191 0.783826 0.156463
Si Si7 0.372027 0.283386 0.597590
O O1 0.925054 0.284270 0.743456
O O2 0.866352 0.284609 0.666263
O O3 0.063237 0.271602 0.576419
O O4 0.935394 0.000000 0.673033
O O5 0.810631 0.715073 0.908068
O O6 0.026605 0.740849 0.778523
O O7 0.655536 0.000000 0.865306
O O8 0.192329 0.500000 0.964559
O O9 0.189998 0.783438 0.899384
O O10 0.111537 0.788054 0.836649
O O11 0.000000 0.710062 0.000000
O O12 0.918170 0.000000 0.809858
O O13 0.586533 0.288641 0.061005
O O14 0.310941 0.500000 0.524036
O O15 0.250000 0.750000 0.500000
O O16 0.302068 0.785283 0.589871
O O17 0.469678 0.000000 0.147870
O O18 0.500000 0.263007 0.500000
O O19 0.351340 0.500000 0.614323
#
# Coordination Sequence:
#
# PCOD9171161 Si02
#       7
#     8   8   8   8   8   8   8
#     4   8  15  28  44  62  85 114 144 172 205 244
#     4  10  18  27  42  63  86 111 141 178 213 247
#     4   7  11  22  40  58  75 100 137 177 212 246
#     4   8  14  25  42  62  80 106 148 185 208 241
#     4   9  16  28  48  70  89 109 136 171 208 248
#     4   9  16  27  43  61  84 113 142 176 217 253
#     4   7  11  23  44  64  80 105 141 171 194 232
#
# _framework density 25.745391000000001
#
# number of rings (size 3 to 8) (size 9 to 14) (size 15 to 20)
#    0.000    3.714    0.000    3.857    0.000    0.000 
#    0.000    2.143    0.000   12.857    0.000    0.000 
#    0.000    0.000    0.000    0.000    0.000    0.000 
#
# Total GULP energy -155972.690056 kJ/mol
# GULP energy per Si atom -5570.453216 kJ/mol
# Density = 2.568679 g / cm^3
# Si number density = 25.745391 Si / 1000 Ang^3
#
#
#
# Elastic Constant Matrix: (Units=GPa)
#
#
# Indices 1 2 3 4 5 6 
#
# 1 240.4807 0.1810 42.9215 -0.0003 36.4090 0.0000
# 2 0.1810 94.6564 -2.9546 -0.0008 2.4596 -0.0010
# 3 42.9215 -2.9546 32.8013 -0.0001 20.8030 0.0004
# 4 -0.0003 -0.0008 -0.0001 -2.4500 0.0001 7.2039
# 5 36.4090 2.4596 20.8030 0.0001 46.4431 0.0001
# 6 0.0000 -0.0010 0.0004 7.2039 0.0001 20.3064
#
#
#
# Elastic Compliance Matrix: (Units=1/GPa)
#
#
# Indices 1 2 3 4 5 6 
#
# 1 0.005504 -0.000167 -0.006266 0.000000 -0.001499 0.000000
# 2 -0.000167 0.010663 0.002031 -0.000001 -0.001344 0.000001
# 3 -0.006266 0.002031 0.050036 -0.000002 -0.017608 0.000000
# 4 0.000000 -0.000001 -0.000002 -0.199773 0.000001 0.070872
# 5 -0.001499 -0.001344 -0.017608 0.000001 0.030665 0.000000
# 6 0.000000 0.000001 0.000000 0.070872 0.000000 0.024103
#
#
# Mechanical properties :
#
#
# Convention : Reuss Voigt Hill
#
# Bulk Modulus (GPa) = 17.42192 49.80378 33.61285
# Shear Modulus (GPa) = -98.29944 34.71261 -31.79341
#
# Velocity S-wave (km/s) = -6.18581 3.67591 -3.51795
# Velocity P-wave (km/s) = 6.65111 6.11581 1.84854
#
# Compressibility (1/GPa) = 0.05739895
#
# Stress axis : x y z
#
# Youngs Moduli (GPa) = 181.69135 93.78081 19.98553
#
# Poissons Ratio (x) = 0.01568 0.12523
# Poissons Ratio (y) = 0.03037 -0.04060
# Poissons Ratio (z) = 1.13853 -0.19050
#
# Static dielectric constant tensor:
#      x y z
#    x 2.075580 0.000000 0.076540 
#    y 0.000000 2.025710 0.000000 
#    z 0.076540 0.000000 2.117850 
# 
# From -- ./inp_files/342864.got.cif
#   From: 2010.05.17/outbox.cif.g08.bks.cpg/sg12_172_cif.got.tgz:342864.got - 2010.06.03 13:09:07.
