data_PCOD9171153
_publ_section_title
;
Structure prediction by ZEFSAII (Michael W. Deem and Ramdas Pophale) SiO2 
 PCOD9171153
Probable space group: C 2/M
;
_chemical_formula_sum "Si O2"
_cell_formula_units_Z 64
_cell_length_a 32.861252
_cell_length_b 9.067369
_cell_length_c 16.384312
_cell_angle_alpha 90.000000
_cell_angle_beta 110.573442
_cell_angle_gamma 90.000000
_cell_volume 4570.594470
_symmetry_space_group_name_H-M "C 2/M"
_symmetry_group_IT_number 12
_symmetry_cell_setting 'monoclinic'
loop_
_space_group_symop_operation_xyz
x,y,z
-x,y,-z
-x,-y,-z
x,-y,z
1/2+x,1/2+y,z
1/2-x,1/2+y,-z
1/2-x,1/2-y,-z
1/2+x,1/2-y,z
loop_
_atom_site_type_symbol
_atom_site_label
_atom_site_fract_x
_atom_site_fract_y
_atom_site_fract_z
Si Si1 0.264300 0.324518 0.639235
Si Si2 0.091279 0.676958 0.477856
Si Si3 0.835669 0.824712 0.181827
Si Si4 0.497633 0.330128 0.597380
Si Si5 0.292175 0.676723 0.988130
Si Si6 0.760057 0.323539 0.811670
Si Si7 0.587012 0.824017 0.666434
Si Si8 0.683060 0.823724 0.465187
O O1 0.268627 0.500000 0.653436
O O2 0.266016 0.241951 0.726283
O O3 0.300196 0.263175 0.601811
O O4 0.218021 0.296103 0.561916
O O5 0.086099 0.500000 0.469740
O O6 0.095848 0.714727 0.577303
O O7 0.135145 0.717958 0.461550
O O8 0.047908 0.753407 0.413819
O O9 0.829789 0.793771 0.081015
O O10 0.789314 0.790396 0.192400
O O11 0.874310 0.737693 0.251327
O O12 0.842780 0.000000 0.196442
O O13 0.500000 0.325884 0.500000
O O14 0.498399 0.500000 0.623657
O O15 0.540551 0.245603 0.656814
O O16 0.286780 0.500000 0.978947
O O17 0.250000 0.750000 0.000000
O O18 0.292844 0.748466 0.899476
O O19 0.765141 0.500000 0.816580
O O20 0.584732 0.000000 0.670270
O O21 0.683969 0.000000 0.449693
#
# Coordination Sequence:
#
# PCOD9171153 Si02
#       8
#     8   8   8   8   8   8   8   8
#     4  10  19  30  44  62  84 111 144 179 213 249
#     4   9  17  29  43  59  81 110 143 175 209 248
#     4   9  18  29  41  60  85 111 139 172 208 246
#     4   9  17  28  41  58  81 108 138 172 208 246
#     4   9  17  29  43  60  83 110 140 174 210 248
#     4  10  19  30  44  61  83 113 145 176 212 251
#     4  10  18  27  42  62  84 111 141 172 206 247
#     4   9  18  31  44  60  84 112 142 178 216 250
#
# _framework density 14.002554999999999
#
# number of rings (size 3 to 8) (size 9 to 14) (size 15 to 20)
#    0.000    2.625    0.000    3.375    0.000    7.000 
#    0.000    0.000    0.000    0.000    0.000    0.000 
#    0.000    1.000    0.000   10.500    0.000    4.500 
#
# Total GULP energy -178304.650927 kJ/mol
# GULP energy per Si atom -5572.020341 kJ/mol
# Density = 1.397068 g / cm^3
# Si number density = 14.002555 Si / 1000 Ang^3
#
#
#
# Elastic Constant Matrix: (Units=GPa)
#
#
# Indices 1 2 3 4 5 6 
#
# 1 97.8761 48.3610 50.3794 0.0000 8.3076 0.0000
# 2 48.3610 62.1717 59.2047 0.0000 6.0037 0.0000
# 3 50.3794 59.2047 105.0717 0.0000 1.2357 0.0000
# 4 0.0000 0.0000 0.0000 26.1137 0.0000 2.5629
# 5 8.3076 6.0037 1.2357 0.0000 20.7355 0.0000
# 6 0.0000 0.0000 0.0000 2.5629 0.0000 22.6905
#
#
#
# Elastic Compliance Matrix: (Units=1/GPa)
#
#
# Indices 1 2 3 4 5 6 
#
# 1 0.016935 -0.011103 -0.001823 0.000000 -0.003462 0.000000
# 2 -0.011103 0.043706 -0.019220 0.000000 -0.007061 0.000000
# 3 -0.001823 -0.019220 0.021162 0.000000 0.005034 0.000000
# 4 0.000000 0.000000 0.000000 0.038723 0.000000 -0.004374
# 5 -0.003462 -0.007061 0.005034 0.000000 0.051358 0.000000
# 6 0.000000 0.000000 0.000000 -0.004374 0.000000 0.044565
#
#
# Mechanical properties :
#
#
# Convention : Reuss Voigt Hill
#
# Bulk Modulus (GPa) = 57.10785 64.55663 60.83224
# Shear Modulus (GPa) = 17.44716 21.05289 19.25002
#
# Velocity S-wave (km/s) = 3.53370 3.88171 3.71179
# Velocity P-wave (km/s) = 7.58431 8.14210 7.86815
#
# Compressibility (1/GPa) = 0.01751073
#
# Stress axis : x y z
#
# Youngs Moduli (GPa) = 59.04855 22.88026 47.25356
#
# Poissons Ratio (x) = 0.25403 0.08616
# Poissons Ratio (y) = 0.65560 0.90823
# Poissons Ratio (z) = 0.10766 0.43977
#
# Static dielectric constant tensor:
#      x y z
#    x 1.441800 0.000000 -0.000740 
#    y 0.000000 1.465410 0.000000 
#    z -0.000740 0.000000 1.459040 
# 
# From -- ./inp_files/243883.got.cif
#   From: 2010.05.17/outbox.cif.g08.bks.cpg/sg12_122_cif.got.tgz:243883.got - 2010.06.03 13:09:07.
