data_PCOD9171734
_publ_section_title
;
Structure prediction by ZEFSAII (Michael W. Deem and Ramdas Pophale) SiO2 
 PCOD9171734
Probable space group: C 2/M
;
_chemical_formula_sum "Si O2"
_cell_formula_units_Z 64
_cell_length_a 23.640076
_cell_length_b 7.410213
_cell_length_c 17.680240
_cell_angle_alpha 90.000000
_cell_angle_beta 73.610924
_cell_angle_gamma 90.000000
_cell_volume 2971.343415
_symmetry_space_group_name_H-M "C 2/M"
_symmetry_group_IT_number 12
_symmetry_cell_setting 'monoclinic'
loop_
_space_group_symop_operation_xyz
x,y,z
-x,y,-z
-x,-y,-z
x,-y,z
1/2+x,1/2+y,z
1/2-x,1/2+y,-z
1/2-x,1/2-y,-z
1/2+x,1/2-y,z
loop_
_atom_site_type_symbol
_atom_site_label
_atom_site_fract_x
_atom_site_fract_y
_atom_site_fract_z
Si Si1 0.422996 0.719805 0.456999
Si Si2 0.596716 0.290932 0.093760
Si Si3 0.367741 0.279736 0.327747
Si Si4 0.154378 0.291335 0.224242
Si Si5 0.466682 0.280655 0.171806
Si Si6 0.722995 0.279649 0.761317
Si Si7 0.125888 0.219120 0.918420
Si Si8 0.942238 0.217691 0.617054
O O1 0.422461 0.500000 0.458132
O O2 0.377377 0.779359 0.410190
O O3 0.415202 0.777699 0.546654
O O4 0.489395 0.773788 0.407730
O O5 0.584122 0.500000 0.081116
O O6 0.640864 0.286730 0.147230
O O7 0.533543 0.213887 0.143766
O O8 0.621377 0.214743 0.005897
O O9 0.367341 0.500000 0.328063
O O10 0.424887 0.223186 0.256740
O O11 0.310195 0.221090 0.302766
O O12 0.166864 0.500000 0.205421
O O13 0.210865 0.216901 0.247711
O O14 0.096976 0.275923 0.298241
O O15 0.467644 0.500000 0.177006
O O16 0.432310 0.233616 0.107727
O O17 0.723001 0.500000 0.758425
O O18 0.681631 0.223283 0.847247
O O19 0.129280 0.000000 0.917410
O O20 0.942708 0.000000 0.617797
#
# Coordination Sequence:
#
# PCOD9171734 Si02
#       8
#     8   8   8   8   8   8   8   8
#     4   8  14  26  49  77  97 111 136 181 231 274
#     4  10  18  28  47  72  92 113 147 192 236 273
#     4   8  12  22  42  66  90 117 147 179 221 268
#     4  11  22  33  43  60  91 128 160 186 216 259
#     4   8  13  22  42  73  99 111 132 182 237 275
#     4   8  16  29  42  59  89 125 156 186 219 260
#     4   8  14  26  45  69  92 114 146 190 233 267
#     4   9  17  31  50  73  97 116 139 179 230 275
#
# _framework density 21.539079000000001
#
# number of rings (size 3 to 8) (size 9 to 14) (size 15 to 20)
#    0.000    3.250    0.000    3.750    0.000    4.000 
#    0.000    1.875    0.000    2.250    0.000   14.875 
#    0.000    0.000    0.000    0.000    0.000    0.000 
#
# Total GULP energy -178494.402207 kJ/mol
# GULP energy per Si atom -5577.950069 kJ/mol
# Density = 2.149006 g / cm^3
# Si number density = 21.539079 Si / 1000 Ang^3
#
#
#
# Elastic Constant Matrix: (Units=GPa)
#
#
# Indices 1 2 3 4 5 6 
#
# 1 40.0198 -4.9921 11.2910 0.0000 14.2759 0.0000
# 2 -4.9921 63.0733 -7.7316 0.0000 -2.2275 0.0000
# 3 11.2910 -7.7316 91.5914 0.0000 32.0124 0.0000
# 4 0.0000 0.0000 0.0000 -18.9710 0.0000 2.6296
# 5 14.2759 -2.2275 32.0124 0.0000 20.5539 0.0000
# 6 0.0000 0.0000 0.0000 2.6296 0.0000 1.1134
#
#
#
# Elastic Compliance Matrix: (Units=1/GPa)
#
#
# Indices 1 2 3 4 5 6 
#
# 1 0.037173 0.002718 0.010026 0.000000 -0.041139 0.000000
# 2 0.002718 0.016225 0.002370 0.000000 -0.003821 0.000000
# 3 0.010026 0.002370 0.026833 0.000000 -0.048499 0.000000
# 4 0.000000 0.000000 0.000000 -0.039712 0.000000 0.093789
# 5 -0.041139 -0.003821 -0.048499 0.000000 0.152349 0.000000
# 6 0.000000 0.000000 0.000000 0.093789 0.000000 0.676631
#
#
# Mechanical properties :
#
#
# Convention : Reuss Voigt Hill
#
# Bulk Modulus (GPa) = 9.05308 21.31323 15.18315
# Shear Modulus (GPa) = 5.70716 13.61373 9.66044
#
# Velocity S-wave (km/s) = 1.62955 2.51678 2.12010
# Velocity P-wave (km/s) = 2.78438 4.28512 3.61352
#
# Compressibility (1/GPa) = 0.11045968
#
# Stress axis : x y z
#
# Youngs Moduli (GPa) = 26.90097 61.63220 37.26715
#
# Poissons Ratio (x) = -0.16753 -0.37363
# Poissons Ratio (y) = -0.07312 -0.08832
# Poissons Ratio (z) = -0.26970 -0.14607
#
# Static dielectric constant tensor:
#      x y z
#    x 1.765020 0.000000 0.018270 
#    y 0.000000 1.858370 0.000000 
#    z 0.018270 0.000000 1.758580 
# 
# From -- ./inp_files/281316.got.cif
#   From: 2010.05.17/outbox.cif.g08.bks.cpg/sg12_141_cif.got.tgz:281316.got - 2010.06.03 13:09:07.
