data_PCOD9171410
_publ_section_title
;
Structure prediction by ZEFSAII (Michael W. Deem and Ramdas Pophale) SiO2 
 PCOD9171410
Probable space group: C 2/M
;
_chemical_formula_sum "Si O2"
_cell_formula_units_Z 64
_cell_length_a 25.536522
_cell_length_b 7.704064
_cell_length_c 16.745373
_cell_angle_alpha 90.000000
_cell_angle_beta 100.561314
_cell_angle_gamma 90.000000
_cell_volume 3238.591590
_symmetry_space_group_name_H-M "C 2/M"
_symmetry_group_IT_number 12
_symmetry_cell_setting 'monoclinic'
loop_
_space_group_symop_operation_xyz
x,y,z
-x,y,-z
-x,-y,-z
x,-y,z
1/2+x,1/2+y,z
1/2-x,1/2+y,-z
1/2-x,1/2-y,-z
1/2+x,1/2-y,z
loop_
_atom_site_type_symbol
_atom_site_label
_atom_site_fract_x
_atom_site_fract_y
_atom_site_fract_z
Si Si1 0.301783 0.207616 0.063742
Si Si2 0.728348 0.212518 0.768933
Si Si3 0.349719 0.294757 0.792574
Si Si4 0.487052 0.207548 0.408568
Si Si5 0.605715 0.794998 0.022302
Si Si6 0.452267 0.293459 0.143412
Si Si7 0.947757 0.210106 0.725029
Si Si8 0.886442 0.708872 0.281538
O O1 0.288245 0.271136 0.147325
O O2 0.349836 0.280919 0.025557
O O3 0.310312 0.000000 0.072524
O O4 0.250000 0.250000 0.000000
O O5 0.788960 0.274807 0.771964
O O6 0.673251 0.265115 0.709636
O O7 0.730527 0.000000 0.767302
O O8 0.344254 0.500000 0.777474
O O9 0.390580 0.224405 0.738126
O O10 0.380315 0.276943 0.886476
O O11 0.500000 0.276646 0.500000
O O12 0.533759 0.239398 0.357903
O O13 0.433118 0.277380 0.352019
O O14 0.480040 0.000000 0.413652
O O15 0.555034 0.768972 0.949910
O O16 0.612564 0.000000 0.033975
O O17 0.454555 0.500000 0.140654
O O18 0.506410 0.227850 0.200463
O O19 0.405952 0.246851 0.195535
O O20 0.947646 0.000000 0.728861
O O21 0.886193 0.500000 0.285462
#
# Coordination Sequence:
#
# PCOD9171410 Si02
#       8
#     8   8   8   8   8   8   8   8
#     4  10  18  28  42  63  90 121 165 208 245 277
#     4   9  16  28  47  68  91 125 162 201 242 278
#     4  10  20  34  49  66  93 130 171 203 237 283
#     4   9  18  33  57  84 103 122 149 186 237 293
#     4  11  21  31  44  66  95 128 169 209 249 283
#     4  10  19  31  47  67  93 126 165 206 248 281
#     4   9  20  36  52  72  97 127 160 197 238 287
#     4   9  16  30  50  74 101 122 152 199 243 283
#
# _framework density 19.761678
#
# number of rings (size 3 to 8) (size 9 to 14) (size 15 to 20)
#    0.000    2.375    2.500    0.750    0.000    2.250 
#    0.000    3.125    0.000    0.750    0.000    0.000 
#    0.000    0.000    0.000    0.000    0.000    0.000 
#
# Total GULP energy -178189.389117 kJ/mol
# GULP energy per Si atom -5568.418410 kJ/mol
# Density = 1.971670 g / cm^3
# Si number density = 19.761678 Si / 1000 Ang^3
#
#
#
# Elastic Constant Matrix: (Units=GPa)
#
#
# Indices 1 2 3 4 5 6 
#
# 1 129.3713 3.2504 68.7648 0.0000 -8.5442 0.0000
# 2 3.2504 29.6092 -6.3007 0.0000 0.9908 0.0000
# 3 68.7648 -6.3007 108.0679 0.0000 1.6493 0.0000
# 4 0.0000 0.0000 0.0000 13.1132 0.0000 -1.7791
# 5 -8.5442 0.9908 1.6493 0.0000 15.4118 0.0000
# 6 0.0000 0.0000 0.0000 -1.7791 0.0000 11.1007
#
#
#
# Elastic Compliance Matrix: (Units=1/GPa)
#
#
# Indices 1 2 3 4 5 6 
#
# 1 0.012908 -0.003513 -0.008545 0.000000 0.008296 0.000000
# 2 -0.003513 0.035244 0.004362 0.000000 -0.004680 0.000000
# 3 -0.008545 0.004362 0.015046 0.000000 -0.006628 0.000000
# 4 0.000000 0.000000 0.000000 0.077954 0.000000 0.012494
# 5 0.008296 -0.004680 -0.006628 0.000000 0.070495 0.000000
# 6 0.000000 0.000000 0.000000 0.012494 0.000000 0.092087
#
#
# Mechanical properties :
#
#
# Convention : Reuss Voigt Hill
#
# Bulk Modulus (GPa) = 20.91822 44.27526 32.59674
# Shear Modulus (GPa) = 14.92268 21.34739 18.13504
#
# Velocity S-wave (km/s) = 2.75095 3.29027 3.03262
# Velocity P-wave (km/s) = 4.54956 6.07353 5.36592
#
# Compressibility (1/GPa) = 0.04780522
#
# Stress axis : x y z
#
# Youngs Moduli (GPa) = 77.47353 28.37390 66.46293
#
# Poissons Ratio (x) = 0.09967 0.56791
# Poissons Ratio (y) = 0.27215 -0.28988
# Poissons Ratio (z) = 0.66199 -0.12375
#
# Static dielectric constant tensor:
#      x y z
#    x 1.781280 0.000000 0.044470 
#    y 0.000000 1.710910 0.000000 
#    z 0.044470 0.000000 1.701730 
# 
# From -- ./inp_files/244024.got.cif
#   From: 2010.05.17/outbox.cif.g08.bks.cpg/sg12_123_cif.got.tgz:244024.got - 2010.06.03 13:09:07.
