data_PCOD9171810
_publ_section_title
;
Structure prediction by ZEFSAII (Michael W. Deem and Ramdas Pophale) SiO2 
 PCOD9171810
Probable space group: C 2/M
;
_chemical_formula_sum "Si O2"
_cell_formula_units_Z 40
_cell_length_a 29.426187
_cell_length_b 9.164504
_cell_length_c 12.983817
_cell_angle_alpha 90.000000
_cell_angle_beta 136.680641
_cell_angle_gamma 90.000000
_cell_volume 2402.205223
_symmetry_space_group_name_H-M "C 2/M"
_symmetry_group_IT_number 12
_symmetry_cell_setting 'monoclinic'
loop_
_space_group_symop_operation_xyz
x,y,z
-x,y,-z
-x,-y,-z
x,-y,z
1/2+x,1/2+y,z
1/2-x,1/2+y,-z
1/2-x,1/2-y,-z
1/2+x,1/2-y,z
loop_
_atom_site_type_symbol
_atom_site_label
_atom_site_fract_x
_atom_site_fract_y
_atom_site_fract_z
Si Si1 0.044775 0.326236 0.803305
Si Si2 0.096331 0.824511 0.464967
Si Si3 0.421711 0.668173 0.340685
Si Si4 0.319748 0.325764 0.594893
Si Si5 0.425084 0.826617 0.914971
O O1 0.037305 0.500000 0.782508
O O2 0.084754 0.264477 0.771539
O O3 0.971974 0.253459 0.679338
O O4 0.076939 0.293456 0.966801
O O5 0.113107 0.783596 0.610691
O O6 0.151822 0.791952 0.472234
O O7 0.084687 0.000000 0.446238
O O8 0.500000 0.671920 0.500000
O O9 0.404752 0.500000 0.290126
O O10 0.313905 0.500000 0.594162
O O11 0.250000 0.250000 0.500000
O O12 0.373513 0.265043 0.764022
O O13 0.412479 0.000000 0.879654
O O14 0.500000 0.798451 0.000000
#
# Coordination Sequence:
#
# PCOD9171810 Si02
#       5
#     8   8   8   8   8
#     4  10  18  28  48  77 105 132 166 211 257 299
#     4   9  18  32  49  71 101 137 171 207 253 307
#     4   8  15  28  45  68 101 134 165 205 254 304
#     4  11  23  37  55  77 104 139 178 215 258 312
#     4  10  20  35  53  76 108 140 170 213 263 305
#
# _framework density 16.651367
#
# number of rings (size 3 to 8) (size 9 to 14) (size 15 to 20)
#    0.000    2.400    2.000    2.400    0.000    6.400 
#    0.000    0.000    0.000    1.200    0.000    0.000 
#    0.000    0.000    0.000    0.000    0.000    0.000 
#
# Total GULP energy -111497.567837 kJ/mol
# GULP energy per Si atom -5574.878392 kJ/mol
# Density = 1.661347 g / cm^3
# Si number density = 16.651367 Si / 1000 Ang^3
#
#
#
# Elastic Constant Matrix: (Units=GPa)
#
#
# Indices 1 2 3 4 5 6 
#
# 1 145.8413 65.4299 77.2689 0.0000 -30.7891 0.0000
# 2 65.4299 52.1024 46.1082 0.0000 -13.2805 0.0000
# 3 77.2689 46.1082 72.6923 0.0000 -21.2544 0.0000
# 4 0.0000 0.0000 0.0000 26.9776 0.0000 -5.3194
# 5 -30.7891 -13.2805 -21.2544 0.0000 31.2585 0.0000
# 6 0.0000 0.0000 0.0000 -5.3194 0.0000 24.7119
#
#
#
# Elastic Compliance Matrix: (Units=1/GPa)
#
#
# Indices 1 2 3 4 5 6 
#
# 1 0.020352 -0.014680 -0.010340 0.000000 0.006779 0.000000
# 2 -0.014680 0.054343 -0.020398 0.000000 -0.005241 0.000000
# 3 -0.010340 -0.020398 0.040158 0.000000 0.008454 0.000000
# 4 0.000000 0.000000 0.000000 0.038711 0.000000 0.008333
# 5 0.006779 -0.005241 0.008454 0.000000 0.042190 0.000000
# 6 0.000000 0.000000 0.000000 0.008333 0.000000 0.042260
#
#
# Mechanical properties :
#
#
# Convention : Reuss Voigt Hill
#
# Bulk Modulus (GPa) = 41.63585 72.02777 56.83181
# Shear Modulus (GPa) = 14.84316 22.04486 18.44401
#
# Velocity S-wave (km/s) = 2.98888 3.64250 3.33176
# Velocity P-wave (km/s) = 6.08030 7.81285 7.00038
#
# Compressibility (1/GPa) = 0.02401776
#
# Stress axis : x y z
#
# Youngs Moduli (GPa) = 49.13497 18.40167 24.90165
#
# Poissons Ratio (x) = 0.27013 0.25749
# Poissons Ratio (y) = 0.72128 0.50794
# Poissons Ratio (z) = 0.50807 0.37535
#
# Static dielectric constant tensor:
#      x y z
#    x 1.587010 0.000000 -0.037090 
#    y 0.000000 1.553650 0.000000 
#    z -0.037090 0.000000 1.534680 
# 
# From -- ./inp_files/162653.got.cif
#   From: 2010.05.17/outbox.cif.g08.bks.cpg/sg12_82_cif.got.tgz:162653.got - 2010.06.03 13:09:07.
