data_PCOD9171863
_publ_section_title
;
Structure prediction by ZEFSAII (Michael W. Deem and Ramdas Pophale) SiO2 
 PCOD9171863
Probable space group: C 2/M
;
_chemical_formula_sum "Si O2"
_cell_formula_units_Z 64
_cell_length_a 33.205404
_cell_length_b 8.895741
_cell_length_c 20.588484
_cell_angle_alpha 90.000000
_cell_angle_beta 142.690102
_cell_angle_gamma 90.000000
_cell_volume 3686.192797
_symmetry_space_group_name_H-M "C 2/M"
_symmetry_group_IT_number 12
_symmetry_cell_setting 'monoclinic'
loop_
_space_group_symop_operation_xyz
x,y,z
-x,y,-z
-x,-y,-z
x,-y,z
1/2+x,1/2+y,z
1/2-x,1/2+y,-z
1/2-x,1/2-y,-z
1/2+x,1/2-y,z
loop_
_atom_site_type_symbol
_atom_site_label
_atom_site_fract_x
_atom_site_fract_y
_atom_site_fract_z
Si Si1 0.093851 0.819835 0.820730
Si Si2 0.661711 0.820585 0.434276
Si Si3 0.799177 0.678344 0.657191
Si Si4 0.670353 0.180197 0.034839
Si Si5 0.452241 0.180864 0.610144
Si Si6 0.145071 0.319698 0.630175
Si Si7 0.179387 0.819416 0.807112
Si Si8 0.202983 0.179321 0.210662
O O1 0.145963 0.771997 0.831455
O O2 0.021571 0.763472 0.707031
O O3 0.095260 0.000000 0.827492
O O4 0.116225 0.747320 0.917066
O O5 0.724897 0.733268 0.543875
O O6 0.658267 0.788336 0.353069
O O7 0.596327 0.786230 0.391470
O O8 0.674996 0.000000 0.458838
O O9 0.799241 0.500000 0.667903
O O10 0.820490 0.760924 0.750003
O O11 0.743496 0.225731 0.101338
O O12 0.667362 0.244733 0.103699
O O13 0.666740 0.000000 0.031394
O O14 0.411701 0.225401 0.493351
O O15 0.462409 0.000000 0.621114
O O16 0.142677 0.500000 0.633508
O O17 0.141236 0.246794 0.695995
O O18 0.218215 0.281952 0.695528
O O19 0.176843 0.000000 0.800351
O O20 0.197076 0.000000 0.199387
#
# Coordination Sequence:
#
# PCOD9171863 Si02
#       8
#     8   8   8   8   8   8   8   8
#     4  11  23  37  52  75 103 137 174 214 265 311
#     4   9  18  33  50  73 108 142 173 210 254 302
#     4  10  18  28  50  81 108 136 171 211 255 306
#     4  10  20  36  57  79 100 131 175 219 259 307
#     4  10  20  36  53  72 104 144 179 211 249 306
#     4   9  18  32  52  75 102 137 175 209 254 305
#     4   9  20  36  54  76 104 131 167 218 266 307
#     4  10  18  32  53  78 109 139 167 212 262 306
#
# _framework density 17.362086000000001
#
# number of rings (size 3 to 8) (size 9 to 14) (size 15 to 20)
#    0.000    2.250    1.250    1.875    0.000    4.000 
#    0.000    2.500    0.000    0.750    0.000    5.250 
#    0.000    0.000    0.000    0.000    0.000    0.000 
#
# Total GULP energy -178572.334153 kJ/mol
# GULP energy per Si atom -5580.385442 kJ/mol
# Density = 1.732257 g / cm^3
# Si number density = 17.362086 Si / 1000 Ang^3
#
#
#
# Elastic Constant Matrix: (Units=GPa)
#
#
# Indices 1 2 3 4 5 6 
#
# 1 26.7467 10.2936 12.3075 0.0000 -21.4399 0.0000
# 2 10.2936 26.6681 23.0621 0.0000 -11.2595 0.0000
# 3 12.3075 23.0621 96.4402 0.0000 -23.8665 0.0000
# 4 0.0000 0.0000 0.0000 31.4033 0.0000 -5.2544
# 5 -21.4399 -11.2595 -23.8665 0.0000 25.4598 0.0000
# 6 0.0000 0.0000 0.0000 -5.2544 0.0000 26.0554
#
#
#
# Elastic Compliance Matrix: (Units=1/GPa)
#
#
# Indices 1 2 3 4 5 6 
#
# 1 0.130868 -0.014222 0.016167 0.000000 0.119071 0.000000
# 2 -0.014222 0.052627 -0.010383 0.000000 0.001565 0.000000
# 3 0.016167 -0.010383 0.016955 0.000000 0.024917 0.000000
# 4 0.000000 0.000000 0.000000 0.032956 0.000000 0.006646
# 5 0.119071 0.001565 0.024917 0.000000 0.163598 0.000000
# 6 0.000000 0.000000 0.000000 0.006646 0.000000 0.039720
#
#
# Mechanical properties :
#
#
# Convention : Reuss Voigt Hill
#
# Bulk Modulus (GPa) = 5.44737 26.79793 16.12265
# Shear Modulus (GPa) = 9.71268 23.52980 16.62124
#
# Velocity S-wave (km/s) = 2.36777 3.68535 3.09743
# Velocity P-wave (km/s) = 3.25875 5.79460 4.70089
#
# Compressibility (1/GPa) = 0.18357475
#
# Stress axis : x y z
#
# Youngs Moduli (GPa) = 7.64127 19.00165 58.97961
#
# Poissons Ratio (x) = 0.27024 -0.95352
# Poissons Ratio (y) = 0.10867 0.61237
# Poissons Ratio (z) = -0.12354 0.19729
#
# Static dielectric constant tensor:
#      x y z
#    x 1.594450 0.000000 -0.012010 
#    y 0.000000 1.579520 0.000000 
#    z -0.012010 0.000000 1.566890 
# 
# From -- ./inp_files/295740.got.cif
#   From: 2010.05.17/outbox.cif.g08.bks.cpg/sg12_148_cif.got.tgz:295740.got - 2010.06.03 13:09:07.
