data_PCOD9171831
_publ_section_title
;
Structure prediction by ZEFSAII (Michael W. Deem and Ramdas Pophale) SiO2 
 PCOD9171831
Probable space group: C 2/M
;
_chemical_formula_sum "Si O2"
_cell_formula_units_Z 52
_cell_length_a 22.149614
_cell_length_b 7.998036
_cell_length_c 28.038464
_cell_angle_alpha 90.000000
_cell_angle_beta 145.106314
_cell_angle_gamma 90.000000
_cell_volume 2841.462262
_symmetry_space_group_name_H-M "C 2/M"
_symmetry_group_IT_number 12
_symmetry_cell_setting 'monoclinic'
loop_
_space_group_symop_operation_xyz
x,y,z
-x,y,-z
-x,-y,-z
x,-y,z
1/2+x,1/2+y,z
1/2-x,1/2+y,-z
1/2-x,1/2-y,-z
1/2+x,1/2-y,z
loop_
_atom_site_type_symbol
_atom_site_label
_atom_site_fract_x
_atom_site_fract_y
_atom_site_fract_z
Si Si1 0.079386 0.805354 0.408420
Si Si2 0.925789 0.308956 0.759762
Si Si3 0.154182 0.304301 0.872712
Si Si4 0.275011 0.305497 0.585093
Si Si5 0.552652 0.000000 0.138397
Si Si6 0.647018 0.814827 0.752860
Si Si7 0.289124 0.000000 0.840530
Si Si8 0.694735 0.000000 0.034431
O O1 0.164392 0.786197 0.505628
O O2 0.142479 0.745427 0.402077
O O3 0.970631 0.708915 0.343408
O O4 0.052616 0.000000 0.383757
O O5 0.923972 0.500000 0.738599
O O6 0.833687 0.214396 0.673113
O O7 0.911444 0.340318 0.806633
O O8 0.043238 0.247390 0.823879
O O9 0.176126 0.500000 0.899930
O O10 0.139100 0.300828 0.805483
O O11 0.244165 0.168039 0.942020
O O12 0.254987 0.500000 0.562260
O O13 0.603738 0.000000 0.120076
O O14 0.426606 0.000000 0.058894
O O15 0.721781 0.665071 0.784830
O O16 0.687649 0.000000 0.767988
O O17 0.305516 0.000000 0.907951
#
# Coordination Sequence:
#
# PCOD9171831 Si02
#       8
#     8   8   8   8   4   8   4   4
#     4  10  18  28  48  82 119 151 183 227 284 326
#     4   9  19  34  51  72 112 150 178 218 272 348
#     4   9  18  33  54  84 114 142 178 224 294 335
#     4  10  19  28  48  80 120 152 181 224 277 341
#     4  10  23  40  57  78 107 156 190 224 291 337
#     4  10  18  31  57  83 110 143 185 240 278 324
#     4  10  21  40  59  80 109 149 196 240 276 328
#     4  10  21  36  64  84 108 141 190 247 281 338
#
# _framework density 18.300436000000001
#
# number of rings (size 3 to 8) (size 9 to 14) (size 15 to 20)
#    0.462    1.846    2.308    1.154    1.077    1.846 
#    0.000    2.308    0.000    5.538    0.000    2.154 
#    0.000    0.000    0.000    0.000    0.000    0.000 
#
# Total GULP energy -144908.618286 kJ/mol
# GULP energy per Si atom -5573.408396 kJ/mol
# Density = 1.825878 g / cm^3
# Si number density = 18.300436 Si / 1000 Ang^3
#
#
#
# Elastic Constant Matrix: (Units=GPa)
#
#
# Indices 1 2 3 4 5 6 
#
# 1 42.7232 16.3669 10.7082 0.0000 -0.0087 0.0001
# 2 16.3669 72.5953 20.9310 0.0000 1.7641 0.0000
# 3 10.7082 20.9310 71.2979 0.0000 -1.3132 0.0000
# 4 0.0000 0.0000 0.0000 30.0371 0.0000 -1.1772
# 5 -0.0087 1.7641 -1.3132 0.0000 12.5601 0.0000
# 6 0.0001 0.0000 0.0000 -1.1772 0.0000 12.8989
#
#
#
# Elastic Compliance Matrix: (Units=1/GPa)
#
#
# Indices 1 2 3 4 5 6 
#
# 1 0.025988 -0.005188 -0.002371 0.000000 0.000499 0.000000
# 2 -0.005188 0.016168 -0.004017 0.000000 -0.002694 0.000000
# 3 -0.002371 -0.004017 0.015601 0.000000 0.002194 0.000000
# 4 0.000000 0.000000 0.000000 0.033412 0.000000 0.003049
# 5 0.000499 -0.002694 0.002194 0.000000 0.080226 0.000000
# 6 0.000000 0.000000 0.000000 0.003049 0.000000 0.077804
#
#
# Mechanical properties :
#
#
# Convention : Reuss Voigt Hill
#
# Bulk Modulus (GPa) = 28.89630 31.40318 30.14974
# Shear Modulus (GPa) = 17.61269 20.33990 18.97630
#
# Velocity S-wave (km/s) = 3.10565 3.33745 3.22364
# Velocity P-wave (km/s) = 5.35578 5.66114 5.51057
#
# Compressibility (1/GPa) = 0.03460651
#
# Stress axis : x y z
#
# Youngs Moduli (GPa) = 38.47902 61.84964 64.09659
#
# Poissons Ratio (x) = 0.32085 0.15197
# Poissons Ratio (y) = 0.19962 0.25748
# Poissons Ratio (z) = 0.09123 0.24845
#
# Static dielectric constant tensor:
#      x y z
#    x 1.597480 0.000000 -0.019880 
#    y 0.000000 1.663530 0.000000 
#    z -0.019880 0.000000 1.643630 
# 
# From -- ./inp_files/381917.got.cif
#   From: 2010.05.17/outbox.cif.g08.bks.cpg/sg12_191_cif.got.tgz:381917.got - 2010.06.03 13:09:07.
