data_PCOD9171870
_publ_section_title
;
Structure prediction by ZEFSAII (Michael W. Deem and Ramdas Pophale) SiO2 
 PCOD9171870
Probable space group: C 2/M
;
_chemical_formula_sum "Si O2"
_cell_formula_units_Z 58
_cell_length_a 26.312424
_cell_length_b 13.559477
_cell_length_c 9.083873
_cell_angle_alpha 90.000000
_cell_angle_beta 59.546176
_cell_angle_gamma 90.000000
_cell_volume 2793.838002
_symmetry_space_group_name_H-M "C 2/M"
_symmetry_group_IT_number 12
_symmetry_cell_setting 'monoclinic'
loop_
_space_group_symop_operation_xyz
x,y,z
-x,y,-z
-x,-y,-z
x,-y,z
1/2+x,1/2+y,z
1/2-x,1/2+y,-z
1/2-x,1/2-y,-z
1/2+x,1/2-y,z
loop_
_atom_site_type_symbol
_atom_site_label
_atom_site_fract_x
_atom_site_fract_y
_atom_site_fract_z
Si Si1 0.805017 0.115659 0.585618
Si Si2 0.539030 0.797176 0.566008
Si Si3 0.347482 0.739371 0.773740
Si Si4 0.683316 0.883784 0.633834
Si Si5 0.374892 0.615020 0.006770
Si Si6 0.265413 0.888030 0.769632
Si Si7 0.500000 0.000000 0.500000
Si Si8 0.905315 0.218150 0.241994
O O1 0.823431 0.144370 0.722001
O O2 0.739297 0.151857 0.646431
O O3 0.853935 0.162627 0.409063
O O4 0.804678 0.000000 0.560429
O O5 0.500000 0.742041 0.500000
O O6 0.603727 0.793527 0.398150
O O7 0.543577 0.745316 0.717208
O O8 0.516942 0.910163 0.593373
O O9 0.293270 0.815720 0.849758
O O10 0.377320 0.696684 0.874977
O O11 0.703625 0.870646 0.434004
O O12 0.625991 0.821038 0.754348
O O13 0.674052 0.000000 0.671250
O O14 0.387393 0.500000 0.950330
O O15 0.304765 0.619516 0.149714
O O16 0.414094 0.651828 0.085918
O O17 0.278412 0.000000 0.795322
#
# Coordination Sequence:
#
# PCOD9171870 Si02
#       8
#     8   8   8   8   8   8   2   8
#     4  10  18  30  49  76 107 147 195 232 265 312
#     4   9  21  37  65  87 107 132 178 234 282 337
#     4  11  21  35  56  80 114 154 187 231 275 332
#     4  10  18  28  51  82 114 146 189 234 277 325
#     4  11  23  37  52  80 120 158 190 222 272 329
#     4  10  19  31  53  82 117 156 191 224 273 334
#     4   8  20  40  68  94 110 124 180 234 292 340
#     4  11  19  33  56  79 109 148 189 229 275 333
#
# _framework density 20.759971
#
# number of rings (size 3 to 8) (size 9 to 14) (size 15 to 20)
#    0.414    1.379    4.138    2.483    1.931    0.000 
#    0.000    2.759    0.000   16.552    0.000    0.000 
#    0.000    0.000    0.000    0.000    0.000    0.000 
#
# Total GULP energy -161450.656651 kJ/mol
# GULP energy per Si atom -5567.264022 kJ/mol
# Density = 2.071272 g / cm^3
# Si number density = 20.759971 Si / 1000 Ang^3
#
#
#
# Elastic Constant Matrix: (Units=GPa)
#
#
# Indices 1 2 3 4 5 6 
#
# 1 59.7010 3.4315 8.5559 0.0000 33.1573 0.0000
# 2 3.4315 87.4544 13.1099 0.0000 15.6085 0.0000
# 3 8.5559 13.1099 46.3068 0.0000 28.2033 0.0000
# 4 0.0000 0.0000 0.0000 23.7602 0.0000 12.6519
# 5 33.1573 15.6085 28.2033 0.0000 38.1812 0.0000
# 6 0.0000 0.0000 0.0000 12.6519 0.0000 21.8554
#
#
#
# Elastic Compliance Matrix: (Units=1/GPa)
#
#
# Indices 1 2 3 4 5 6 
#
# 1 0.050235 0.005667 0.031076 0.000000 -0.068897 0.000000
# 2 0.005667 0.012989 0.002739 0.000000 -0.012254 0.000000
# 3 0.031076 0.002739 0.058527 0.000000 -0.071339 0.000000
# 4 0.000000 0.000000 0.000000 0.060841 0.000000 -0.035220
# 5 -0.068897 -0.012254 -0.071339 0.000000 0.143728 0.000000
# 6 0.000000 0.000000 0.000000 -0.035220 0.000000 0.066144
#
#
# Mechanical properties :
#
#
# Convention : Reuss Voigt Hill
#
# Bulk Modulus (GPa) = 4.98220 27.07298 16.02759
# Shear Modulus (GPa) = 13.14389 27.98369 20.56379
#
# Velocity S-wave (km/s) = 2.51895 3.67545 3.15071
# Velocity P-wave (km/s) = 3.29625 5.57505 4.57965
#
# Compressibility (1/GPa) = 0.20071460
#
# Stress axis : x y z
#
# Youngs Moduli (GPa) = 19.90628 76.99033 17.08617
#
# Poissons Ratio (x) = -0.43629 -0.53096
# Poissons Ratio (y) = -0.11281 -0.04681
# Poissons Ratio (z) = -0.61860 -0.21091
#
# Static dielectric constant tensor:
#      x y z
#    x 1.795990 0.000000 0.000060 
#    y 0.000000 1.736420 0.000000 
#    z 0.000060 0.000000 1.798710 
# 
# From -- ./inp_files/104055.got.cif
#   From: 2010.05.17/outbox.cif.g08.bks.cpg/sg12_53_cif.got.tgz:104055.got - 2010.06.03 13:09:07.
