data_PCOD9171440
_publ_section_title
;
Structure prediction by ZEFSAII (Michael W. Deem and Ramdas Pophale) SiO2 
 PCOD9171440
Probable space group: C 2/M
;
_chemical_formula_sum "Si O2"
_cell_formula_units_Z 56
_cell_length_a 28.637056
_cell_length_b 8.729269
_cell_length_c 14.477340
_cell_angle_alpha 90.000000
_cell_angle_beta 82.410393
_cell_angle_gamma 90.000000
_cell_volume 3587.348968
_symmetry_space_group_name_H-M "C 2/M"
_symmetry_group_IT_number 12
_symmetry_cell_setting 'monoclinic'
loop_
_space_group_symop_operation_xyz
x,y,z
-x,y,-z
-x,-y,-z
x,-y,z
1/2+x,1/2+y,z
1/2-x,1/2+y,-z
1/2-x,1/2-y,-z
1/2+x,1/2-y,z
loop_
_atom_site_type_symbol
_atom_site_label
_atom_site_fract_x
_atom_site_fract_y
_atom_site_fract_z
Si Si1 0.162148 0.684039 0.674546
Si Si2 0.890093 0.685761 0.973451
Si Si3 0.761423 0.314472 0.721593
Si Si4 0.799355 0.684223 0.523492
Si Si5 0.711077 0.185115 0.079309
Si Si6 0.086620 0.181362 0.831513
Si Si7 0.510190 0.176365 0.107719
O O1 0.161351 0.500000 0.680863
O O2 0.210905 0.743857 0.707489
O O3 0.163674 0.730523 0.565427
O O4 0.118699 0.751398 0.742126
O O5 0.891986 0.500000 0.979397
O O6 0.840904 0.731581 0.940804
O O7 0.936010 0.732763 0.901812
O O8 0.895370 0.750697 0.075295
O O9 0.756529 0.500000 0.722414
O O10 0.799104 0.271893 0.631408
O O11 0.777532 0.266561 0.819006
O O12 0.797707 0.500000 0.521262
O O13 0.750000 0.750000 0.500000
O O14 0.712767 0.000000 0.076103
O O15 0.750000 0.250000 0.000000
O O16 0.031884 0.228800 0.836618
O O17 0.091147 0.000000 0.833251
O O18 0.507350 0.000000 0.140096
O O19 0.500000 0.176361 0.000000
#
# Coordination Sequence:
#
# PCOD9171440 Si02
#       7
#     8   8   8   8   8   8   8
#     4  10  18  28  43  63  87 115 143 172 211 258
#     4   9  18  32  46  61  85 117 147 172 205 252
#     4   9  17  30  45  63  87 113 143 179 213 243
#     4   8  15  27  43  61  82 109 140 174 212 252
#     4  10  20  31  44  63  88 117 146 174 203 240
#     4  11  20  28  42  65  89 111 138 177 218 251
#     4   8  15  29  46  61  81 110 141 173 211 256
#
# _framework density 15.610414
#
# number of rings (size 3 to 8) (size 9 to 14) (size 15 to 20)
#    0.000    2.714    0.000    3.429    0.000    6.571 
#    0.000    0.000    0.000    0.000    0.000    1.000 
#    0.000    8.000    0.000    0.000    0.000    0.000 
#
# Total GULP energy -155907.333647 kJ/mol
# GULP energy per Si atom -5568.119059 kJ/mol
# Density = 1.557488 g / cm^3
# Si number density = 15.610414 Si / 1000 Ang^3
#
#
#
# Elastic Constant Matrix: (Units=GPa)
#
#
# Indices 1 2 3 4 5 6 
#
# 1 111.4213 26.3826 68.5232 0.0000 -19.7506 0.0000
# 2 26.3826 27.0802 31.8958 0.0000 -10.2610 0.0000
# 3 68.5232 31.8958 140.5650 0.0000 -22.6562 0.0000
# 4 0.0000 0.0000 0.0000 15.8924 0.0000 -4.2592
# 5 -19.7506 -10.2610 -22.6562 0.0000 25.7285 0.0000
# 6 0.0000 0.0000 0.0000 -4.2592 0.0000 18.7298
#
#
#
# Elastic Compliance Matrix: (Units=1/GPa)
#
#
# Indices 1 2 3 4 5 6 
#
# 1 0.014201 -0.006710 -0.004748 0.000000 0.004044 0.000000
# 2 -0.006710 0.056775 -0.007916 0.000000 0.010521 0.000000
# 3 -0.004748 -0.007916 0.011804 0.000000 0.003592 0.000000
# 4 0.000000 0.000000 0.000000 0.067007 0.000000 0.015238
# 5 0.004044 0.010521 0.003592 0.000000 0.049331 0.000000
# 6 0.000000 0.000000 0.000000 0.015238 0.000000 0.056856
#
#
# Mechanical properties :
#
#
# Convention : Reuss Voigt Hill
#
# Bulk Modulus (GPa) = 22.71121 59.18553 40.94837
# Shear Modulus (GPa) = 16.16034 22.22112 19.19073
#
# Velocity S-wave (km/s) = 3.22099 3.77700 3.51002
# Velocity P-wave (km/s) = 5.33042 7.55099 6.53570
#
# Compressibility (1/GPa) = 0.04403113
#
# Stress axis : x y z
#
# Youngs Moduli (GPa) = 70.41902 17.61345 84.71613
#
# Poissons Ratio (x) = 0.11819 0.40225
# Poissons Ratio (y) = 0.47251 0.67062
# Poissons Ratio (z) = 0.33437 0.13943
#
# Static dielectric constant tensor:
#      x y z
#    x 1.516190 0.000000 -0.016100 
#    y 0.000000 1.528030 0.000000 
#    z -0.016100 0.000000 1.537360 
# 
# From -- ./inp_files/247829.got.cif
#   From: 2010.05.17/outbox.cif.g08.bks.cpg/sg12_124_cif.got.tgz:247829.got - 2010.06.03 13:09:07.
