data_PCOD9171331
_publ_section_title
;
Structure prediction by ZEFSAII (Michael W. Deem and Ramdas Pophale) SiO2 
 PCOD9171331
Probable space group: C 2/M
;
_chemical_formula_sum "Si O2"
_cell_formula_units_Z 64
_cell_length_a 18.300380
_cell_length_b 12.557359
_cell_length_c 31.706111
_cell_angle_alpha 90.000000
_cell_angle_beta 151.942812
_cell_angle_gamma 90.000000
_cell_volume 3427.085640
_symmetry_space_group_name_H-M "C 2/M"
_symmetry_group_IT_number 12
_symmetry_cell_setting 'monoclinic'
loop_
_space_group_symop_operation_xyz
x,y,z
-x,y,-z
-x,-y,-z
x,-y,z
1/2+x,1/2+y,z
1/2-x,1/2+y,-z
1/2-x,1/2-y,-z
1/2+x,1/2-y,z
loop_
_atom_site_type_symbol
_atom_site_label
_atom_site_fract_x
_atom_site_fract_y
_atom_site_fract_z
Si Si1 0.479434 0.253679 0.239329
Si Si2 0.566648 0.884131 0.401052
Si Si3 0.295079 0.374681 0.074267
Si Si4 0.773094 0.376197 0.202626
Si Si5 0.349164 0.127209 0.746348
Si Si6 0.487554 0.265568 0.099367
Si Si7 0.002980 0.117087 0.451471
Si Si8 0.764636 0.211393 0.566823
O O1 0.385165 0.334142 0.161644
O O2 0.367543 0.190313 0.215083
O O3 0.562221 0.169918 0.249947
O O4 0.619370 0.311843 0.335811
O O5 0.381574 0.876627 0.300329
O O6 0.661394 0.879890 0.492924
O O7 0.625168 0.775997 0.409201
O O8 0.604521 0.000000 0.399960
O O9 0.262102 0.500000 0.059040
O O10 0.399768 0.347074 0.086322
O O11 0.141904 0.302364 0.991066
O O12 0.756231 0.500000 0.181120
O O13 0.609706 0.323903 0.131376
O O14 0.422112 0.184495 0.823783
O O15 0.166383 0.153020 0.649861
O O16 0.363964 0.000000 0.756250
O O17 0.000000 0.106096 0.500000
O O18 0.137392 0.199685 0.512188
O O19 0.034162 0.000000 0.448502
#
# Coordination Sequence:
#
# PCOD9171331 Si02
#       8
#     8   8   8   8   8   8   8   8
#     4  10  21  35  55  81 111 145 182 222 272 320
#     4   9  19  32  51  75 105 143 177 211 261 314
#     4  10  22  41  60  81 108 140 176 222 274 324
#     4  10  20  37  59  83 110 140 178 225 269 319
#     4  10  19  33  54  82 112 144 182 227 271 317
#     4  10  21  38  61  82 105 140 183 221 268 327
#     4  10  18  27  47  76 105 136 173 215 261 303
#     4  10  18  32  50  74 108 142 178 220 256 308
#
# _framework density 18.674759000000002
#
# number of rings (size 3 to 8) (size 9 to 14) (size 15 to 20)
#    0.000    2.125    1.250    2.250    0.000    2.000 
#    0.000    4.375    0.000    1.125    0.000    0.000 
#    0.000    0.000    0.000    0.000    0.000    0.000 
#
# Total GULP energy -178231.787034 kJ/mol
# GULP energy per Si atom -5569.743345 kJ/mol
# Density = 1.863225 g / cm^3
# Si number density = 18.674759 Si / 1000 Ang^3
#
#
#
# Elastic Constant Matrix: (Units=GPa)
#
#
# Indices 1 2 3 4 5 6 
#
# 1 61.0224 23.5494 35.9903 0.0000 12.1287 0.0000
# 2 23.5494 75.9754 45.6096 0.0001 0.1688 0.0000
# 3 35.9903 45.6096 121.7968 0.0002 4.2996 0.0001
# 4 0.0000 0.0001 0.0002 27.7137 0.0000 5.2143
# 5 12.1287 0.1688 4.2996 0.0000 30.3055 0.0000
# 6 0.0000 0.0000 0.0001 5.2143 0.0000 22.2499
#
#
#
# Elastic Compliance Matrix: (Units=1/GPa)
#
#
# Indices 1 2 3 4 5 6 
#
# 1 0.022436 -0.004039 -0.004825 0.000000 -0.008272 0.000000
# 2 -0.004039 0.017726 -0.005526 0.000000 0.002302 0.000000
# 3 -0.004825 -0.005526 0.011695 0.000000 0.000303 0.000000
# 4 0.000000 0.000000 0.000000 0.037748 0.000000 -0.008846
# 5 -0.008272 0.002302 0.000303 0.000000 0.036252 0.000000
# 6 0.000000 0.000000 0.000000 -0.008846 0.000000 0.047017
#
#
# Mechanical properties :
#
#
# Convention : Reuss Voigt Hill
#
# Bulk Modulus (GPa) = 43.33331 52.12148 47.72740
# Shear Modulus (GPa) = 23.88380 26.29683 25.09032
#
# Velocity S-wave (km/s) = 3.58010 3.75660 3.66941
# Velocity P-wave (km/s) = 6.35170 6.84009 6.60041
#
# Compressibility (1/GPa) = 0.02307693
#
# Stress axis : x y z
#
# Youngs Moduli (GPa) = 44.57076 56.41358 85.50868
#
# Poissons Ratio (x) = 0.22787 0.41259
# Poissons Ratio (y) = 0.18004 0.47249
# Poissons Ratio (z) = 0.21506 0.31172
#
# Static dielectric constant tensor:
#      x y z
#    x 1.723240 0.000000 0.002850 
#    y 0.000000 1.654210 0.000000 
#    z 0.002850 0.000000 1.684340 
# 
# From -- ./inp_files/379075.got.cif
#   From: 2010.05.17/outbox.cif.g08.bks.cpg/sg12_190_cif.got.tgz:379075.got - 2010.06.03 13:09:07.
