data_PCOD9171514
_publ_section_title
;
Structure prediction by ZEFSAII (Michael W. Deem and Ramdas Pophale) SiO2 
 PCOD9171514
Probable space group: C 2/M
;
_chemical_formula_sum "Si O2"
_cell_formula_units_Z 56
_cell_length_a 19.443438
_cell_length_b 7.645452
_cell_length_c 19.646882
_cell_angle_alpha 90.000000
_cell_angle_beta 60.308491
_cell_angle_gamma 90.000000
_cell_volume 2537.126658
_symmetry_space_group_name_H-M "C 2/M"
_symmetry_group_IT_number 12
_symmetry_cell_setting 'monoclinic'
loop_
_space_group_symop_operation_xyz
x,y,z
-x,y,-z
-x,-y,-z
x,-y,z
1/2+x,1/2+y,z
1/2-x,1/2+y,-z
1/2-x,1/2-y,-z
1/2+x,1/2-y,z
loop_
_atom_site_type_symbol
_atom_site_label
_atom_site_fract_x
_atom_site_fract_y
_atom_site_fract_z
Si Si1 0.325157 0.290979 0.008731
Si Si2 0.435661 0.703883 0.584382
Si Si3 0.997319 0.214285 0.922098
Si Si4 0.238470 0.710321 0.335004
Si Si5 0.940961 0.701122 0.738160
Si Si6 0.908192 0.795279 0.251499
Si Si7 0.767718 0.713247 0.820397
O O1 0.332632 0.500000 0.009352
O O2 0.301137 0.226987 0.095739
O O3 0.250000 0.250000 0.000000
O O4 0.409688 0.228265 0.941289
O O5 0.500000 0.774416 0.500000
O O6 0.453393 0.500000 0.587445
O O7 0.346160 0.718311 0.599923
O O8 0.440605 0.790702 0.656169
O O9 0.061378 0.277836 0.836022
O O10 0.002586 0.000000 0.919003
O O11 0.000000 0.265680 0.000000
O O12 0.231045 0.500000 0.345379
O O13 0.323841 0.772373 0.320563
O O14 0.243593 0.758352 0.252388
O O15 0.942819 0.500000 0.758683
O O16 0.018435 0.783824 0.733000
O O17 0.854871 0.776643 0.800729
O O18 0.892528 0.000000 0.246303
O O19 0.769623 0.500000 0.821813
#
# Coordination Sequence:
#
# PCOD9171514 Si02
#       7
#     8   8   8   8   8   8   8
#     4  10  18  28  44  66  94 128 168 214 258 297
#     4  10  21  38  60  84 107 129 160 207 258 310
#     4   9  17  29  48  73 100 136 180 221 260 301
#     4   9  18  33  54  77 102 136 172 206 250 305
#     4  10  20  34  54  78 106 141 176 211 256 310
#     4  10  19  32  51  77 109 141 178 221 259 301
#     4   8  15  29  47  67  93 129 173 215 253 297
#
# _framework density 22.072213999999999
#
# number of rings (size 3 to 8) (size 9 to 14) (size 15 to 20)
#    0.000    2.571    0.000    3.429    0.000    5.143 
#    0.000    3.571    0.000    3.429    0.000    0.000 
#    0.000    0.000    0.000    0.000    0.000    0.000 
#
# Total GULP energy -156209.097245 kJ/mol
# GULP energy per Si atom -5578.896330 kJ/mol
# Density = 2.202198 g / cm^3
# Si number density = 22.072214 Si / 1000 Ang^3
#
#
#
# Elastic Constant Matrix: (Units=GPa)
#
#
# Indices 1 2 3 4 5 6 
#
# 1 99.6702 -5.0682 20.0897 -0.0001 -28.1417 -0.0017
# 2 -5.0682 41.0511 2.4265 -0.0018 -3.5901 -0.0032
# 3 20.0897 2.4265 81.8556 0.0002 -33.5210 -0.0003
# 4 -0.0001 -0.0018 0.0002 -19.1852 0.0000 3.7008
# 5 -28.1417 -3.5901 -33.5210 0.0000 34.6280 0.0000
# 6 -0.0017 -0.0032 -0.0003 3.7008 0.0000 19.0036
#
#
#
# Elastic Compliance Matrix: (Units=1/GPa)
#
#
# Indices 1 2 3 4 5 6 
#
# 1 0.013489 0.002700 0.002010 0.000000 0.013188 0.000002
# 2 0.002700 0.025137 0.000924 -0.000001 0.005695 0.000005
# 3 0.002010 0.000924 0.020551 0.000000 0.021623 0.000001
# 4 0.000000 -0.000001 0.000000 -0.050236 0.000000 0.009783
# 5 0.013188 0.005695 0.021623 0.000000 0.061118 0.000002
# 6 0.000002 0.000005 0.000001 0.009783 0.000002 0.050716
#
#
# Mechanical properties :
#
#
# Convention : Reuss Voigt Hill
#
# Bulk Modulus (GPa) = 14.19544 28.60810 21.40177
# Shear Modulus (GPa) = 37.59744 20.56455 29.08100
#
# Velocity S-wave (km/s) = 4.13168 3.05568 3.63373
# Velocity P-wave (km/s) = 5.40430 5.04369 5.22710
#
# Compressibility (1/GPa) = 0.07044514
#
# Stress axis : x y z
#
# Youngs Moduli (GPa) = 74.13557 39.78253 48.65958
#
# Poissons Ratio (x) = -0.10741 -0.09781
# Poissons Ratio (y) = -0.20016 -0.04498
# Poissons Ratio (z) = -0.14902 -0.03678
#
# Static dielectric constant tensor:
#      x y z
#    x 1.927130 0.000000 -0.097730 
#    y 0.000000 1.835750 0.000000 
#    z -0.097730 0.000000 1.879060 
# 
# From -- ./inp_files/313790.got.cif
#   From: 2010.05.17/outbox.cif.g08.bks.cpg/sg12_157_cif.got.tgz:313790.got - 2010.06.03 13:09:07.
