data_PCOD9171717
_publ_section_title
;
Structure prediction by ZEFSAII (Michael W. Deem and Ramdas Pophale) SiO2 
 PCOD9171717
Probable space group: C 2/M
;
_chemical_formula_sum "Si O2"
_cell_formula_units_Z 44
_cell_length_a 14.527767
_cell_length_b 18.164743
_cell_length_c 11.477693
_cell_angle_alpha 90.000000
_cell_angle_beta 41.397934
_cell_angle_gamma 90.000000
_cell_volume 2002.955402
_symmetry_space_group_name_H-M "C 2/M"
_symmetry_group_IT_number 12
_symmetry_cell_setting 'monoclinic'
loop_
_space_group_symop_operation_xyz
x,y,z
-x,y,-z
-x,-y,-z
x,-y,z
1/2+x,1/2+y,z
1/2-x,1/2+y,-z
1/2-x,1/2-y,-z
1/2+x,1/2-y,z
loop_
_atom_site_type_symbol
_atom_site_label
_atom_site_fract_x
_atom_site_fract_y
_atom_site_fract_z
Si Si1 0.014137 0.237254 0.202327
Si Si2 0.930938 0.614851 0.377402
Si Si3 0.219700 0.207449 0.188417
Si Si4 0.652185 0.919841 0.797571
Si Si5 0.500000 0.639595 0.000000
Si Si6 0.200783 0.380351 0.253061
O O1 0.092626 0.188016 0.223557
O O2 0.923122 0.297641 0.354441
O O3 0.139798 0.283531 0.021824
O O4 0.952810 0.190737 0.154243
O O5 0.873067 0.579724 0.316109
O O6 0.850140 0.596129 0.571652
O O7 0.091189 0.595629 0.258609
O O8 0.250874 0.147085 0.255001
O O9 0.191546 0.290648 0.257842
O O10 0.704281 0.000000 0.786727
O O11 0.500000 0.908592 0.000000
O O12 0.637979 0.599295 0.913097
#
# Coordination Sequence:
#
# PCOD9171717 Si02
#       6
#     8   8   8   8   4   8
#     4   9  16  27  50  74 109 140 170 224 279 315
#     4  10  18  35  52  82 115 141 182 231 273 337
#     4   9  17  31  47  76 109 143 176 221 272 331
#     4  11  22  33  52  82 114 153 184 220 273 334
#     4  10  18  28  46  82 106 140 172 212 284 342
#     4   9  20  31  54  83 112 141 177 231 292 315
#
# _framework density 21.96754
#
# number of rings (size 3 to 8) (size 9 to 14) (size 15 to 20)
#    0.000    2.364    1.818    3.273    1.273    2.909 
#    0.000    1.818    0.000    0.000    0.000   27.364 
#    0.000    0.000    0.000    0.000    0.000    0.000 
#
# Total GULP energy -122773.018507 kJ/mol
# GULP energy per Si atom -5580.591750 kJ/mol
# Density = 2.191754 g / cm^3
# Si number density = 21.967540 Si / 1000 Ang^3
#
#
#
# Elastic Constant Matrix: (Units=GPa)
#
#
# Indices 1 2 3 4 5 6 
#
# 1 126.7549 32.8839 6.3860 0.0002 17.2587 -0.0001
# 2 32.8839 67.5762 -2.6765 0.0001 3.8136 -0.0001
# 3 6.3860 -2.6765 29.9455 0.0001 12.7205 -0.0001
# 4 0.0002 0.0001 0.0001 -23.9031 -0.0001 0.7478
# 5 17.2587 3.8136 12.7205 -0.0001 36.2887 0.0000
# 6 -0.0001 -0.0001 -0.0001 0.7478 0.0000 0.2563
#
#
#
# Elastic Compliance Matrix: (Units=1/GPa)
#
#
# Indices 1 2 3 4 5 6 
#
# 1 0.009617 -0.004498 -0.000835 0.000000 -0.003808 0.000002
# 2 -0.004498 0.017131 0.002757 0.000000 -0.000628 0.000003
# 3 -0.000835 0.002757 0.039682 0.000001 -0.013802 0.000014
# 4 0.000000 0.000000 0.000001 -0.038336 -0.000001 0.111850
# 5 -0.003808 -0.000628 -0.013802 -0.000001 0.034272 -0.000011
# 6 0.000002 0.000003 0.000014 0.111850 -0.000011 3.575020
#
#
# Mechanical properties :
#
#
# Convention : Reuss Voigt Hill
#
# Bulk Modulus (GPa) = 16.31913 33.05149 24.68531
# Shear Modulus (GPa) = 1.36501 15.04059 8.20280
#
# Velocity S-wave (km/s) = 0.78913 2.61946 1.93447
# Velocity P-wave (km/s) = 2.87666 4.92210 4.03127
#
# Compressibility (1/GPa) = 0.06127779
#
# Stress axis : x y z
#
# Youngs Moduli (GPa) = 103.98573 58.37217 25.20058
#
# Poissons Ratio (x) = 0.26255 0.02105
# Poissons Ratio (y) = 0.46771 -0.06948
# Poissons Ratio (z) = 0.08684 -0.16093
#
# Static dielectric constant tensor:
#      x y z
#    x 1.828320 0.000000 -0.011960 
#    y 0.000000 1.832000 0.000000 
#    z -0.011960 0.000000 1.825380 
# 
# From -- ./inp_files/145336.got.cif
#   From: 2010.05.17/outbox.cif.g08.bks.cpg/sg12_73_cif.got.tgz:145336.got - 2010.06.03 13:09:07.
