data_PCOD9171089
_publ_section_title
;
Structure prediction by ZEFSAII (Michael W. Deem and Ramdas Pophale) SiO2 
 PCOD9171089
Probable space group: C 2/M
;
_chemical_formula_sum "Si O2"
_cell_formula_units_Z 64
_cell_length_a 24.891751
_cell_length_b 9.147645
_cell_length_c 24.643672
_cell_angle_alpha 90.000000
_cell_angle_beta 49.736823
_cell_angle_gamma 90.000000
_cell_volume 4281.958302
_symmetry_space_group_name_H-M "C 2/M"
_symmetry_group_IT_number 12
_symmetry_cell_setting 'monoclinic'
loop_
_space_group_symop_operation_xyz
x,y,z
-x,y,-z
-x,-y,-z
x,-y,z
1/2+x,1/2+y,z
1/2-x,1/2+y,-z
1/2-x,1/2-y,-z
1/2+x,1/2-y,z
loop_
_atom_site_type_symbol
_atom_site_label
_atom_site_fract_x
_atom_site_fract_y
_atom_site_fract_z
Si Si1 0.177409 0.173669 0.485235
Si Si2 0.327307 0.331901 0.830688
Si Si3 0.703042 0.175916 0.983580
Si Si4 0.919031 0.170131 0.882593
Si Si5 0.177488 0.826787 0.614736
Si Si6 0.475789 0.323986 0.455657
Si Si7 0.054525 0.327480 0.305995
Si Si8 0.038233 0.325927 0.741920
O O1 0.167610 0.197824 0.556293
O O2 0.245840 0.262220 0.422164
O O3 0.105342 0.216746 0.502843
O O4 0.189451 0.000000 0.469727
O O5 0.329388 0.500000 0.810713
O O6 0.247487 0.293628 0.899874
O O7 0.371769 0.325751 0.858132
O O8 0.369076 0.230944 0.761953
O O9 0.701258 0.000000 0.992034
O O10 0.750000 0.250000 0.000000
O O11 0.626467 0.245579 0.042316
O O12 0.990813 0.250207 0.819018
O O13 0.929236 0.000000 0.889544
O O14 0.114854 0.744563 0.686229
O O15 0.174235 0.000000 0.626513
O O16 0.500000 0.282247 0.500000
O O17 0.480223 0.500000 0.447803
O O18 0.524051 0.253371 0.378051
O O19 0.056363 0.500000 0.313783
O O20 0.002463 0.299057 0.288767
O O21 0.041579 0.500000 0.747702
#
# Coordination Sequence:
#
# PCOD9171089 Si02
#       8
#     8   8   8   8   8   8   8   8
#     4   9  18  31  45  63  84 107 137 175 214 258
#     4   8  15  25  37  51  72 103 137 172 207 245
#     4   9  15  23  34  50  72 102 137 172 207 245
#     4   9  16  24  35  52  76 106 138 172 207 247
#     4  10  18  28  45  64  84 110 138 176 216 254
#     4  10  20  34  50  64  82 111 143 176 217 262
#     4  10  19  28  41  60  81 105 138 178 216 253
#     4  10  18  27  40  59  83 111 141 175 212 252
#
# _framework density 14.946432
#
# number of rings (size 3 to 8) (size 9 to 14) (size 15 to 20)
#    0.000    2.625    1.250    2.625    0.000    5.750 
#    0.000    0.000    0.000    0.000    0.000    0.000 
#    0.000    0.000    0.000    1.125    0.000   22.625 
#
# Total GULP energy -178233.661503 kJ/mol
# GULP energy per Si atom -5569.801922 kJ/mol
# Density = 1.491241 g / cm^3
# Si number density = 14.946432 Si / 1000 Ang^3
#
#
#
# Elastic Constant Matrix: (Units=GPa)
#
#
# Indices 1 2 3 4 5 6 
#
# 1 51.5092 31.3623 47.4511 0.0000 -10.9379 0.0001
# 2 31.3623 65.5078 70.3436 0.0002 -17.8696 0.0003
# 3 47.4511 70.3436 130.7531 -0.0001 -37.6915 0.0000
# 4 0.0000 0.0002 -0.0001 30.2067 0.0000 -7.1540
# 5 -10.9379 -17.8696 -37.6915 0.0000 19.4893 0.0000
# 6 0.0001 0.0003 0.0000 -7.1540 0.0000 12.5388
#
#
#
# Elastic Compliance Matrix: (Units=1/GPa)
#
#
# Indices 1 2 3 4 5 6 
#
# 1 0.030801 -0.005785 -0.010422 0.000000 -0.008173 0.000000
# 2 -0.005785 0.038135 -0.020957 0.000000 -0.008810 -0.000001
# 3 -0.010422 -0.020957 0.034981 0.000000 0.042589 0.000001
# 4 0.000000 0.000000 0.000000 0.038278 0.000000 0.021839
# 5 -0.008173 -0.008810 0.042589 0.000000 0.121011 0.000000
# 6 0.000000 -0.000001 0.000001 0.021839 0.000000 0.092213
#
#
# Mechanical properties :
#
#
# Convention : Reuss Voigt Hill
#
# Bulk Modulus (GPa) = 33.79309 60.67600 47.23454
# Shear Modulus (GPa) = 11.37373 19.02116 15.19745
#
# Velocity S-wave (km/s) = 2.76155 3.57125 3.19218
# Velocity P-wave (km/s) = 5.72947 7.59532 6.72740
#
# Compressibility (1/GPa) = 0.02959185
#
# Stress axis : x y z
#
# Youngs Moduli (GPa) = 32.46604 26.22250 28.58663
#
# Poissons Ratio (x) = 0.15168 0.29793
# Poissons Ratio (y) = 0.18780 0.59908
# Poissons Ratio (z) = 0.33836 0.54953
#
# Static dielectric constant tensor:
#      x y z
#    x 1.469770 0.000000 -0.021490 
#    y 0.000000 1.494370 0.000000 
#    z -0.021490 0.000000 1.502640 
# 
# From -- ./inp_files/326627.got.cif
#   From: 2010.05.17/outbox.cif.g08.bks.cpg/sg12_164_cif.got.tgz:326627.got - 2010.06.03 13:09:07.
