data_PCOD9171051
_publ_section_title
;
Structure prediction by ZEFSAII (Michael W. Deem and Ramdas Pophale) SiO2 
 PCOD9171051
Probable space group: C 2/M
;
_chemical_formula_sum "Si O2"
_cell_formula_units_Z 32
_cell_length_a 5.415567
_cell_length_b 35.685925
_cell_length_c 6.557353
_cell_angle_alpha 90.000000
_cell_angle_beta 102.946198
_cell_angle_gamma 90.000000
_cell_volume 1235.057955
_symmetry_space_group_name_H-M "C 2/M"
_symmetry_group_IT_number 12
_symmetry_cell_setting 'monoclinic'
loop_
_space_group_symop_operation_xyz
x,y,z
-x,y,-z
-x,-y,-z
x,-y,z
1/2+x,1/2+y,z
1/2-x,1/2+y,-z
1/2-x,1/2-y,-z
1/2+x,1/2-y,z
loop_
_atom_site_type_symbol
_atom_site_label
_atom_site_fract_x
_atom_site_fract_y
_atom_site_fract_z
Si Si1 0.292826 0.350930 0.261442
Si Si2 0.711519 0.541617 0.361543
Si Si3 0.584894 0.768093 0.252315
Si Si4 0.720253 0.120047 0.785847
O O1 0.202535 0.309226 0.292567
O O2 0.593276 0.357752 0.332623
O O3 0.078639 0.378298 0.310405
O O4 0.256573 0.360020 0.010802
O O5 0.500000 0.546548 0.500000
O O6 0.669314 0.500000 0.264586
O O7 0.695282 0.577019 0.209648
O O8 0.000000 0.541731 0.500000
O O9 0.320146 0.760746 0.319750
O O10 0.500000 0.764499 0.000000
#
# Coordination Sequence:
#
# PCOD9171051 Si02
#       4
#     8   8   8   8
#     4  10  19  32  47  77 112 133 159 201 251 308
#     4  10  21  38  57  75  96 127 172 217 249 288
#     4  10  18  26  43  68 106 140 165 195 234 294
#     4  10  19  32  50  72 104 135 158 203 258 297
#
# _framework density 25.909714000000001
#
# number of rings (size 3 to 8) (size 9 to 14) (size 15 to 20)
#    0.000    2.000    2.500    3.000    7.000    0.000 
#    0.000    5.000    0.000    0.000    0.000    0.000 
#    0.000  116.000    0.000    0.000    0.000    0.000 
#
# Total GULP energy -89518.584972 kJ/mol
# GULP energy per Si atom -5594.911561 kJ/mol
# Density = 2.585074 g / cm^3
# Si number density = 25.909714 Si / 1000 Ang^3
#
#
#
# Elastic Constant Matrix: (Units=GPa)
#
#
# Indices 1 2 3 4 5 6 
#
# 1 242.0667 71.0710 42.2581 0.0000 -24.0355 0.0000
# 2 71.0710 226.5488 22.0403 0.0000 -13.8889 0.0000
# 3 42.2581 22.0403 49.6682 0.0000 -14.3587 0.0000
# 4 0.0000 0.0000 0.0000 58.7087 0.0000 -1.3100
# 5 -24.0355 -13.8889 -14.3587 0.0000 68.1738 0.0000
# 6 0.0000 0.0000 0.0000 -1.3100 0.0000 52.3327
#
#
#
# Elastic Compliance Matrix: (Units=1/GPa)
#
#
# Indices 1 2 3 4 5 6 
#
# 1 0.005211 -0.001229 -0.003651 0.000000 0.000818 0.000000
# 2 -0.001229 0.004922 -0.001037 0.000000 0.000351 0.000000
# 3 -0.003651 -0.001037 0.024776 0.000000 0.003720 0.000000
# 4 0.000000 0.000000 0.000000 0.017043 0.000000 0.000427
# 5 0.000818 0.000351 0.003720 0.000000 0.015812 0.000000
# 6 0.000000 0.000000 0.000000 0.000427 0.000000 0.019119
#
#
# Mechanical properties :
#
#
# Convention : Reuss Voigt Hill
#
# Bulk Modulus (GPa) = 43.34000 87.66918 65.50459
# Shear Modulus (GPa) = 46.98892 61.37066 54.17979
#
# Velocity S-wave (km/s) = 4.26322 4.87214 4.57781
# Velocity P-wave (km/s) = 6.40289 8.09693 7.29922
#
# Compressibility (1/GPa) = 0.02307337
#
# Stress axis : x y z
#
# Youngs Moduli (GPa) = 191.91568 203.16591 40.36215
#
# Poissons Ratio (x) = 0.24975 0.14738
# Poissons Ratio (y) = 0.23592 0.04185
# Poissons Ratio (z) = 0.70076 0.21065
#
# Static dielectric constant tensor:
#      x y z
#    x 1.901280 0.000000 -0.190210 
#    y 0.000000 1.942990 0.000000 
#    z -0.190210 0.000000 1.810810 
# 
# From -- ./inp_files/34326.got.cif
#   From: 2010.05.17/outbox.cif.g08.bks.cpg/sg12_18_cif.got.tgz:34326.got - 2010.06.03 13:09:07.
