data_PCOD9171248
_publ_section_title
;
Structure prediction by ZEFSAII (Michael W. Deem and Ramdas Pophale) SiO2 
 PCOD9171248
Probable space group: C 2/M
;
_chemical_formula_sum "Si O2"
_cell_formula_units_Z 56
_cell_length_a 15.794486
_cell_length_b 11.194482
_cell_length_c 18.066876
_cell_angle_alpha 90.000000
_cell_angle_beta 134.220916
_cell_angle_gamma 90.000000
_cell_volume 2289.303328
_symmetry_space_group_name_H-M "C 2/M"
_symmetry_group_IT_number 12
_symmetry_cell_setting 'monoclinic'
loop_
_space_group_symop_operation_xyz
x,y,z
-x,y,-z
-x,-y,-z
x,-y,z
1/2+x,1/2+y,z
1/2-x,1/2+y,-z
1/2-x,1/2-y,-z
1/2+x,1/2-y,z
loop_
_atom_site_type_symbol
_atom_site_label
_atom_site_fract_x
_atom_site_fract_y
_atom_site_fract_z
Si Si1 0.745048 0.368719 0.565935
Si Si2 0.347284 0.871663 0.129644
Si Si3 0.569122 0.627551 0.826550
Si Si4 0.014491 0.371607 0.376979
Si Si5 0.026681 0.125839 0.630301
Si Si6 0.873056 0.861363 0.901438
Si Si7 0.292978 0.639957 0.694412
O O1 0.766950 0.500000 0.615879
O O2 0.850985 0.358710 0.570788
O O3 0.616125 0.379731 0.450553
O O4 0.744963 0.253177 0.618811
O O5 0.377859 0.748322 0.108660
O O6 0.439018 0.874745 0.254896
O O7 0.219355 0.861537 0.088706
O O8 0.361210 0.000000 0.099343
O O9 0.613073 0.500000 0.882467
O O10 0.584552 0.626600 0.746878
O O11 0.429706 0.631435 0.753413
O O12 0.001719 0.500000 0.405913
O O13 0.963212 0.260952 0.392374
O O14 0.062911 0.000000 0.615141
O O15 0.804246 0.818714 0.786747
O O16 0.898193 0.000000 0.896812
O O17 0.000000 0.806916 0.000000
O O18 0.247421 0.500000 0.659812
#
# Coordination Sequence:
#
# PCOD9171248 Si02
#       7
#     8   8   8   8   8   8   8
#     4  10  18  27  43  71 104 131 162 202 243 283
#     4   9  16  30  52  73  95 126 162 197 243 296
#     4   9  17  29  48  74 103 130 162 201 238 280
#     4   9  16  24  41  68  96 126 160 198 236 274
#     4   9  16  25  40  68 102 134 164 196 235 280
#     4   9  19  36  56  75  95 124 163 203 246 301
#     4  10  19  31  50  74  98 126 164 206 245 287
#
# _framework density 24.461590999999999
#
# number of rings (size 3 to 8) (size 9 to 14) (size 15 to 20)
#    0.000    2.714    2.857    0.429    0.000    0.571 
#    0.000    1.429    0.000    5.143    0.000   22.000 
#    0.000    0.000    0.000    0.000    0.000    0.000 
#
# Total GULP energy -156093.931405 kJ/mol
# GULP energy per Si atom -5574.783264 kJ/mol
# Density = 2.440591 g / cm^3
# Si number density = 24.461591 Si / 1000 Ang^3
#
#
#
# Elastic Constant Matrix: (Units=GPa)
#
#
# Indices 1 2 3 4 5 6 
#
# 1 50.4419 19.1944 11.4669 0.0000 -2.4189 0.0000
# 2 19.1944 261.5710 20.9280 0.0000 -17.0157 0.0000
# 3 11.4669 20.9280 103.7427 0.0000 -1.9076 0.0000
# 4 0.0000 0.0000 0.0000 -9.0724 0.0000 -19.7042
# 5 -2.4189 -17.0157 -1.9076 0.0000 33.7643 0.0000
# 6 0.0000 0.0000 0.0000 -19.7042 0.0000 -26.4977
#
#
#
# Elastic Compliance Matrix: (Units=1/GPa)
#
#
# Indices 1 2 3 4 5 6 
#
# 1 0.020821 -0.001320 -0.002022 0.000000 0.000712 0.000000
# 2 -0.001320 0.004097 -0.000645 0.000000 0.001934 0.000000
# 3 -0.002022 -0.000645 0.009995 0.000000 0.000095 0.000000
# 4 0.000000 0.000000 0.000000 0.179211 0.000000 -0.133265
# 5 0.000712 0.001934 0.000095 0.000000 0.030648 0.000000
# 6 0.000000 0.000000 0.000000 -0.133265 0.000000 0.061359
#
#
# Mechanical properties :
#
#
# Convention : Reuss Voigt Hill
#
# Bulk Modulus (GPa) = 37.12100 57.65937 47.39018
# Shear Modulus (GPa) = 15.47584 23.91661 19.69622
#
# Velocity S-wave (km/s) = 2.51800 3.13024 2.84067
# Velocity P-wave (km/s) = 4.86435 6.05699 5.49314
#
# Compressibility (1/GPa) = 0.02693893
#
# Stress axis : x y z
#
# Youngs Moduli (GPa) = 48.02891 244.06226 100.05389
#
# Poissons Ratio (x) = 0.32210 0.20231
# Poissons Ratio (y) = 0.06339 0.06455
# Poissons Ratio (z) = 0.09712 0.15745
#
# Static dielectric constant tensor:
#      x y z
#    x 1.906160 0.000000 -0.006320 
#    y 0.000000 2.092100 0.000000 
#    z -0.006320 0.000000 1.978640 
# 
# From -- ./inp_files/343109.got.cif
#   From: 2010.05.17/outbox.cif.g08.bks.cpg/sg12_172_cif.got.tgz:343109.got - 2010.06.03 13:09:07.
