data_PCOD9171138
_publ_section_title
;
Structure prediction by ZEFSAII (Michael W. Deem and Ramdas Pophale) SiO2 
 PCOD9171138
Probable space group: C 2/M
;
_chemical_formula_sum "Si O2"
_cell_formula_units_Z 56
_cell_length_a 29.369222
_cell_length_b 7.348528
_cell_length_c 15.728841
_cell_angle_alpha 90.000000
_cell_angle_beta 47.611277
_cell_angle_gamma 90.000000
_cell_volume 2507.216229
_symmetry_space_group_name_H-M "C 2/M"
_symmetry_group_IT_number 12
_symmetry_cell_setting 'monoclinic'
loop_
_space_group_symop_operation_xyz
x,y,z
-x,y,-z
-x,-y,-z
x,-y,z
1/2+x,1/2+y,z
1/2-x,1/2+y,-z
1/2-x,1/2-y,-z
1/2+x,1/2-y,z
loop_
_atom_site_type_symbol
_atom_site_label
_atom_site_fract_x
_atom_site_fract_y
_atom_site_fract_z
Si Si1 0.960750 0.722447 0.465312
Si Si2 0.988903 0.720539 0.238870
Si Si3 0.689482 0.216208 0.131145
Si Si4 0.875179 0.721225 0.946482
Si Si5 0.679785 0.782609 0.332483
Si Si6 0.185608 0.716905 0.809487
Si Si7 0.937844 0.277505 0.130137
O O1 0.963278 0.500000 0.463846
O O2 0.983818 0.781210 0.342848
O O3 0.888812 0.779712 0.557521
O O4 0.000000 0.779665 0.500000
O O5 0.985710 0.500000 0.246851
O O6 0.942323 0.777973 0.223535
O O7 0.055714 0.768874 0.117665
O O8 0.637235 0.284933 0.133341
O O9 0.691087 0.291661 0.223103
O O10 0.681192 0.000000 0.151023
O O11 0.750000 0.250000 0.000000
O O12 0.870972 0.500000 0.949854
O O13 0.827779 0.786211 0.077564
O O14 0.743161 0.749487 0.303951
O O15 0.674835 0.000000 0.336701
O O16 0.179293 0.500000 0.819697
O O17 0.127366 0.782643 0.827732
O O18 0.938450 0.500000 0.126663
O O19 0.000000 0.222574 0.000000
#
# Coordination Sequence:
#
# PCOD9171138 Si02
#       7
#     8   8   8   8   8   8   8
#     4   9  17  30  47  67  93 127 164 197 233 281
#     4   9  15  25  44  68  93 120 155 202 244 273
#     4  10  18  27  41  64  93 120 149 185 230 282
#     4   9  15  24  41  67  94 118 146 189 240 280
#     4  10  20  32  46  68  99 129 158 195 235 283
#     4  10  18  29  47  71  98 124 154 194 240 287
#     4   9  15  25  43  71  98 118 152 203 246 276
#
# _framework density 22.335529999999999
#
# number of rings (size 3 to 8) (size 9 to 14) (size 15 to 20)
#    0.000    2.571    2.857    0.857    0.000    3.429 
#    0.000    0.714    0.000    0.857    0.000    2.000 
#    0.000    0.000    0.000    0.000    0.000    0.000 
#
# Total GULP energy -156074.737121 kJ/mol
# GULP energy per Si atom -5574.097754 kJ/mol
# Density = 2.228469 g / cm^3
# Si number density = 22.335530 Si / 1000 Ang^3
#
#
#
# Elastic Constant Matrix: (Units=GPa)
#
#
# Indices 1 2 3 4 5 6 
#
# 1 165.6693 2.8951 56.6742 0.0000 -16.5236 0.0001
# 2 2.8951 83.9000 -3.6252 -0.0001 0.9478 0.0000
# 3 56.6742 -3.6252 101.2047 -0.0001 -13.1816 -0.0002
# 4 0.0000 -0.0001 -0.0001 6.8952 0.0000 -3.2128
# 5 -16.5236 0.9478 -13.1816 0.0000 36.9103 0.0000
# 6 0.0001 0.0000 -0.0002 -3.2128 0.0000 14.5639
#
#
#
# Elastic Compliance Matrix: (Units=1/GPa)
#
#
# Indices 1 2 3 4 5 6 
#
# 1 0.007619 -0.000459 -0.004024 0.000000 0.001985 0.000000
# 2 -0.000459 0.011966 0.000649 0.000000 -0.000281 0.000000
# 3 -0.004024 0.000649 0.012503 0.000000 0.002647 0.000000
# 4 0.000000 0.000000 0.000000 0.161645 0.000000 0.035659
# 5 0.001985 -0.000281 0.002647 0.000000 0.028934 0.000000
# 6 0.000000 0.000000 0.000000 0.035659 0.000000 0.076529
#
#
# Mechanical properties :
#
#
# Convention : Reuss Voigt Hill
#
# Bulk Modulus (GPa) = 40.95237 51.40692 46.17964
# Shear Modulus (GPa) = 15.87282 31.32919 23.60101
#
# Velocity S-wave (km/s) = 2.66870 3.74928 3.25415
# Velocity P-wave (km/s) = 5.27928 6.46595 5.90251
#
# Compressibility (1/GPa) = 0.02441861
#
# Stress axis : x y z
#
# Youngs Moduli (GPa) = 131.25292 83.56997 79.98334
#
# Poissons Ratio (x) = 0.03838 0.32189
# Poissons Ratio (y) = 0.06027 -0.05192
# Poissons Ratio (z) = 0.52822 -0.05425
#
# Static dielectric constant tensor:
#      x y z
#    x 1.882350 0.000000 -0.027130 
#    y 0.000000 1.890890 0.000000 
#    z -0.027130 0.000000 1.804730 
# 
# From -- ./inp_files/295090.got.cif
#   From: 2010.05.17/outbox.cif.g08.bks.cpg/sg12_148_cif.got.tgz:295090.got - 2010.06.03 13:09:07.
