data_PCOD9171484
_publ_section_title
;
Structure prediction by ZEFSAII (Michael W. Deem and Ramdas Pophale) SiO2 
 PCOD9171484
Probable space group: C 2/M
;
_chemical_formula_sum "Si O2"
_cell_formula_units_Z 40
_cell_length_a 16.756449
_cell_length_b 17.992334
_cell_length_c 10.058116
_cell_angle_alpha 90.000000
_cell_angle_beta 143.617680
_cell_angle_gamma 90.000000
_cell_volume 1798.728723
_symmetry_space_group_name_H-M "C 2/M"
_symmetry_group_IT_number 12
_symmetry_cell_setting 'monoclinic'
loop_
_space_group_symop_operation_xyz
x,y,z
-x,y,-z
-x,-y,-z
x,-y,z
1/2+x,1/2+y,z
1/2-x,1/2+y,-z
1/2-x,1/2-y,-z
1/2+x,1/2-y,z
loop_
_atom_site_type_symbol
_atom_site_label
_atom_site_fract_x
_atom_site_fract_y
_atom_site_fract_z
Si Si1 0.863643 0.084935 0.655094
Si Si2 0.636823 0.085433 0.124026
Si Si3 0.979955 0.195607 0.623362
Si Si4 0.377483 0.157471 0.160413
Si Si5 0.320658 0.159521 0.382682
O O1 0.745752 0.084669 0.385770
O O2 0.973026 0.134337 0.726556
O O3 0.800601 0.126394 0.696769
O O4 0.901696 0.000000 0.734151
O O5 0.607028 0.000000 0.046686
O O6 0.500000 0.119952 0.000000
O O7 0.685439 0.125895 0.056580
O O8 0.849664 0.252057 0.445895
O O9 0.000000 0.167474 0.500000
O O10 0.097583 0.254291 0.811889
O O11 0.313194 0.142068 0.216622
O O12 0.533180 0.126994 0.374825
#
# Coordination Sequence:
#
# PCOD9171484 Si02
#       5
#     8   8   8   8   8
#     4  11  20  29  49  77 102 126 154 196 249 293
#     4  10  18  28  43  73 107 127 148 192 252 299
#     4   8  17  34  50  66  95 129 170 201 225 277
#     4   8  16  31  50  65  97 129 160 195 234 280
#     4   8  16  30  49  68  93 123 165 196 227 280
#
# _framework density 22.237926999999999
#
# number of rings (size 3 to 8) (size 9 to 14) (size 15 to 20)
#    1.200    1.800    2.000    0.600    0.000    1.200 
#    0.000    6.000    0.000    0.000    0.000    0.000 
#    0.000   13.600    0.000    0.000    0.000    0.000 
#
# Total GULP energy -111573.878359 kJ/mol
# GULP energy per Si atom -5578.693918 kJ/mol
# Density = 2.218731 g / cm^3
# Si number density = 22.237927 Si / 1000 Ang^3
#
#
#
# Elastic Constant Matrix: (Units=GPa)
#
#
# Indices 1 2 3 4 5 6 
#
# 1 137.2467 77.0800 31.6609 0.0000 -38.8980 0.0000
# 2 77.0800 81.0081 19.2768 0.0000 -23.8594 0.0000
# 3 31.6609 19.2768 58.7637 0.0000 -19.2624 0.0000
# 4 0.0000 0.0000 0.0000 16.9144 0.0000 -8.1535
# 5 -38.8980 -23.8594 -19.2624 0.0000 32.0953 0.0000
# 6 0.0000 0.0000 0.0000 -8.1535 0.0000 -26.1669
#
#
#
# Elastic Compliance Matrix: (Units=1/GPa)
#
#
# Indices 1 2 3 4 5 6 
#
# 1 0.018868 -0.014219 -0.001831 0.000000 0.011198 0.000000
# 2 -0.014219 0.026652 -0.000294 0.000000 0.002403 0.000000
# 3 -0.001831 -0.000294 0.021538 0.000000 0.010489 0.000000
# 4 0.000000 0.000000 0.000000 0.051401 0.000000 -0.016016
# 5 0.011198 0.002403 0.010489 0.000000 0.052811 0.000000
# 6 0.000000 0.000000 0.000000 -0.016016 0.000000 -0.033226
#
#
# Mechanical properties :
#
#
# Convention : Reuss Voigt Hill
#
# Bulk Modulus (GPa) = 29.09461 59.22819 44.16140
# Shear Modulus (GPa) = 27.44414 14.50196 20.97305
#
# Velocity S-wave (km/s) = 3.51681 2.55645 3.07436
# Velocity P-wave (km/s) = 5.44080 5.95026 5.70122
#
# Compressibility (1/GPa) = 0.03437063
#
# Stress axis : x y z
#
# Youngs Moduli (GPa) = 53.00030 37.52065 46.42861
#
# Poissons Ratio (x) = 0.53351 0.08499
# Poissons Ratio (y) = 0.75362 0.01365
# Poissons Ratio (z) = 0.09702 0.01103
#
# Static dielectric constant tensor:
#      x y z
#    x 1.842200 0.000000 0.072010 
#    y 0.000000 1.818220 0.000000 
#    z 0.072010 0.000000 1.866440 
# 
# From -- ./inp_files/62935.got.cif
#   From: 2010.05.17/outbox.cif.g08.bks.cpg/sg12_32_cif.got.tgz:62935.got - 2010.06.03 13:09:07.
