data_PCOD9171756
_publ_section_title
;
Structure prediction by ZEFSAII (Michael W. Deem and Ramdas Pophale) SiO2 
 PCOD9171756
Probable space group: C 2/M
;
_chemical_formula_sum "Si O2"
_cell_formula_units_Z 64
_cell_length_a 28.555878
_cell_length_b 12.711878
_cell_length_c 11.237298
_cell_angle_alpha 90.000000
_cell_angle_beta 112.645643
_cell_angle_gamma 90.000000
_cell_volume 3764.640932
_symmetry_space_group_name_H-M "C 2/M"
_symmetry_group_IT_number 12
_symmetry_cell_setting 'monoclinic'
loop_
_space_group_symop_operation_xyz
x,y,z
-x,y,-z
-x,-y,-z
x,-y,z
1/2+x,1/2+y,z
1/2-x,1/2+y,-z
1/2-x,1/2-y,-z
1/2+x,1/2-y,z
loop_
_atom_site_type_symbol
_atom_site_label
_atom_site_fract_x
_atom_site_fract_y
_atom_site_fract_z
Si Si1 0.640824 0.124764 0.716939
Si Si2 0.894624 0.377128 0.052023
Si Si3 0.123942 0.124738 0.410787
Si Si4 0.514916 0.120188 0.202431
Si Si5 0.712941 0.240233 0.617139
Si Si6 0.450358 0.776551 0.525031
Si Si7 0.892051 0.725511 0.808904
Si Si8 0.202545 0.619530 0.371742
O O1 0.633051 0.140335 0.849833
O O2 0.687573 0.189233 0.707224
O O3 0.590965 0.167280 0.599349
O O4 0.646100 0.000000 0.699807
O O5 0.886106 0.500000 0.007183
O O6 0.954906 0.364682 0.132610
O O7 0.879624 0.296855 0.933407
O O8 0.173910 0.175452 0.520235
O O9 0.077570 0.179713 0.436508
O O10 0.119901 0.166109 0.270544
O O11 0.123871 0.000000 0.418552
O O12 0.531719 0.144483 0.353663
O O13 0.549547 0.194816 0.155463
O O14 0.526182 0.000000 0.180511
O O15 0.765968 0.300301 0.679991
O O16 0.717597 0.150225 0.520895
O O17 0.500000 0.744796 0.500000
O O18 0.856905 0.643092 0.701471
O O19 0.214313 0.500000 0.356079
#
# Coordination Sequence:
#
# PCOD9171756 Si02
#       8
#     8   8   8   8   8   8   8   8
#     4  10  19  31  49  75 109 137 158 192 241 297
#     4  10  19  30  48  73 104 139 162 189 240 296
#     4   9  19  34  51  68  91 126 164 208 253 287
#     4  10  18  28  47  74 104 133 160 195 244 295
#     4   9  19  32  50  76  98 125 161 204 251 298
#     4  10  18  29  47  74 100 127 160 200 243 293
#     4  10  20  32  49  72  98 127 170 208 240 284
#     4  10  18  31  52  74  98 126 160 206 253 292
#
# _framework density 17.000294
#
# number of rings (size 3 to 8) (size 9 to 14) (size 15 to 20)
#    0.000    2.250    1.250    3.375    0.000    1.750 
#    0.000    1.250    0.000    9.750    0.000    0.000 
#    0.000    0.000    0.000    0.000    0.000    0.000 
#
# Total GULP energy -178413.955877 kJ/mol
# GULP energy per Si atom -5575.436121 kJ/mol
# Density = 1.696160 g / cm^3
# Si number density = 17.000294 Si / 1000 Ang^3
#
#
#
# Elastic Constant Matrix: (Units=GPa)
#
#
# Indices 1 2 3 4 5 6 
#
# 1 76.2114 22.5210 6.9239 0.0000 -13.8441 0.0000
# 2 22.5210 85.5217 26.0034 0.0000 -12.5977 0.0000
# 3 6.9239 26.0034 49.6803 0.0000 -19.7690 0.0000
# 4 0.0000 0.0000 0.0000 13.7257 0.0000 -1.9245
# 5 -13.8441 -12.5977 -19.7690 0.0000 22.6780 0.0000
# 6 0.0000 0.0000 0.0000 -1.9245 0.0000 19.1821
#
#
#
# Elastic Compliance Matrix: (Units=1/GPa)
#
#
# Indices 1 2 3 4 5 6 
#
# 1 0.015922 -0.003829 0.004297 0.000000 0.011339 0.000000
# 2 -0.003829 0.014893 -0.007502 0.000000 -0.000604 0.000000
# 3 0.004297 -0.007502 0.034974 0.000000 0.028944 0.000000
# 4 0.000000 0.000000 0.000000 0.073895 0.000000 0.007414
# 5 0.011339 -0.000604 0.028944 0.000000 0.075913 0.000000
# 6 0.000000 0.000000 0.000000 0.007414 0.000000 0.052876
#
#
# Mechanical properties :
#
#
# Convention : Reuss Voigt Hill
#
# Bulk Modulus (GPa) = 19.33441 35.81221 27.57331
# Shear Modulus (GPa) = 16.67876 21.51484 19.09680
#
# Velocity S-wave (km/s) = 3.13563 3.56133 3.35523
# Velocity P-wave (km/s) = 4.95048 6.16621 5.59148
#
# Compressibility (1/GPa) = 0.05172127
#
# Stress axis : x y z
#
# Youngs Moduli (GPa) = 62.80499 67.14385 28.59275
#
# Poissons Ratio (x) = 0.25711 -0.12287
# Poissons Ratio (y) = 0.24050 0.21451
# Poissons Ratio (z) = -0.26989 0.50372
#
# Static dielectric constant tensor:
#      x y z
#    x 1.596910 0.000000 -0.008780 
#    y 0.000000 1.545700 0.000000 
#    z -0.008780 0.000000 1.587850 
# 
# From -- ./inp_files/188361.got.cif
#   From: 2010.05.17/outbox.cif.g08.bks.cpg/sg12_95_cif.got.tgz:188361.got - 2010.06.03 13:09:07.
