data_PCOD9171364
_publ_section_title
;
Structure prediction by ZEFSAII (Michael W. Deem and Ramdas Pophale) SiO2 
 PCOD9171364
Probable space group: C 2/M
;
_chemical_formula_sum "Si O2"
_cell_formula_units_Z 56
_cell_length_a 28.079991
_cell_length_b 7.575366
_cell_length_c 15.114917
_cell_angle_alpha 90.000000
_cell_angle_beta 102.309121
_cell_angle_gamma 90.000000
_cell_volume 3141.275980
_symmetry_space_group_name_H-M "C 2/M"
_symmetry_group_IT_number 12
_symmetry_cell_setting 'monoclinic'
loop_
_space_group_symop_operation_xyz
x,y,z
-x,y,-z
-x,-y,-z
x,-y,z
1/2+x,1/2+y,z
1/2-x,1/2+y,-z
1/2-x,1/2-y,-z
1/2+x,1/2-y,z
loop_
_atom_site_type_symbol
_atom_site_label
_atom_site_fract_x
_atom_site_fract_y
_atom_site_fract_z
Si Si1 0.865346 0.290382 0.563911
Si Si2 0.285753 0.792845 0.400422
Si Si3 0.947067 0.793473 0.458590
Si Si4 0.815473 0.212477 0.714039
Si Si5 0.631870 0.285154 0.708481
Si Si6 0.794311 0.787487 0.899653
Si Si7 0.682355 0.288595 0.899242
O O1 0.866398 0.500000 0.550597
O O2 0.816870 0.217643 0.494529
O O3 0.911931 0.218710 0.530127
O O4 0.859341 0.254125 0.665020
O O5 0.233915 0.716032 0.351914
O O6 0.322164 0.773272 0.332240
O O7 0.277997 0.000000 0.415521
O O8 0.915819 0.721088 0.363332
O O9 0.000000 0.715056 0.500000
O O10 0.954586 0.000000 0.441094
O O11 0.816079 0.277021 0.815389
O O12 0.811447 0.000000 0.717095
O O13 0.631285 0.500000 0.707269
O O14 0.642792 0.224571 0.812487
O O15 0.736649 0.747280 0.883222
O O16 0.798722 0.000000 0.902334
O O17 0.817979 0.719428 0.000356
O O18 0.677067 0.500000 0.901914
#
# Coordination Sequence:
#
# PCOD9171364 Si02
#       7
#     8   8   8   8   8   8   8
#     4  10  20  30  43  63  86 111 142 179 215 250
#     4   9  17  28  40  58  85 117 147 173 203 246
#     4   9  18  33  50  66  85 110 139 173 217 266
#     4  10  18  28  41  58  85 120 150 172 201 246
#     4   9  16  26  43  65  87 111 141 177 213 250
#     4   9  17  27  40  58  85 119 149 175 204 242
#     4   9  16  26  40  61  86 113 145 179 211 241
#
# _framework density 17.827151000000001
#
# number of rings (size 3 to 8) (size 9 to 14) (size 15 to 20)
#    0.000    2.714    1.429    0.857    0.000    2.000 
#    0.000    0.000    0.000    0.000    0.000    1.000 
#    0.000    8.000    0.000    0.000    0.000    0.000 
#
# Total GULP energy -156021.104527 kJ/mol
# GULP energy per Si atom -5572.182305 kJ/mol
# Density = 1.778658 g / cm^3
# Si number density = 17.827151 Si / 1000 Ang^3
#
#
#
# Elastic Constant Matrix: (Units=GPa)
#
#
# Indices 1 2 3 4 5 6 
#
# 1 72.0804 -2.4695 71.6528 0.0000 14.1718 0.0000
# 2 -2.4695 40.5063 -4.3342 0.0000 2.6830 0.0000
# 3 71.6528 -4.3342 147.0444 0.0000 -1.1771 0.0000
# 4 0.0000 0.0000 0.0000 1.3936 0.0000 -6.2779
# 5 14.1718 2.6830 -1.1771 0.0000 17.9168 0.0000
# 6 0.0000 0.0000 0.0000 -6.2779 0.0000 11.0855
#
#
#
# Elastic Compliance Matrix: (Units=1/GPa)
#
#
# Indices 1 2 3 4 5 6 
#
# 1 0.040222 0.002553 -0.019793 0.000000 -0.033497 0.000000
# 2 0.002553 0.025170 -0.000549 0.000000 -0.005825 0.000000
# 3 -0.019793 -0.000549 0.016564 0.000000 0.016826 0.000000
# 4 0.000000 0.000000 0.000000 -0.462606 0.000000 -0.261981
# 5 -0.033497 -0.005825 0.016826 0.000000 0.084287 0.000000
# 6 0.000000 0.000000 0.000000 -0.261981 0.000000 -0.058155
#
#
# Mechanical properties :
#
#
# Convention : Reuss Voigt Hill
#
# Bulk Modulus (GPa) = 21.56122 43.25879 32.41001
# Shear Modulus (GPa) = -16.47540 19.06465 1.29462
#
# Velocity S-wave (km/s) = -3.04332 3.27374 0.85310
# Velocity P-wave (km/s) = 0.47773 6.21355 4.38064
#
# Compressibility (1/GPa) = 0.04637955
#
# Stress axis : x y z
#
# Youngs Moduli (GPa) = 24.86204 39.72944 60.37258
#
# Poissons Ratio (x) = -0.10143 1.19493
# Poissons Ratio (y) = -0.06348 0.03313
# Poissons Ratio (z) = 0.49208 0.02180
#
# Static dielectric constant tensor:
#      x y z
#    x 1.582680 0.000000 0.015000 
#    y 0.000000 1.646880 0.000000 
#    z 0.015000 0.000000 1.678060 
# 
# From -- ./inp_files/243027.got.cif
#   From: 2010.05.17/outbox.cif.g08.bks.cpg/sg12_122_cif.got.tgz:243027.got - 2010.06.03 13:09:07.
