data_PCOD9171014
_publ_section_title
;
Structure prediction by ZEFSAII (Michael W. Deem and Ramdas Pophale) SiO2 
 PCOD9171014
Probable space group: C 2/M
;
_chemical_formula_sum "Si O2"
_cell_formula_units_Z 56
_cell_length_a 24.753154
_cell_length_b 9.424682
_cell_length_c 26.058433
_cell_angle_alpha 90.000000
_cell_angle_beta 142.155810
_cell_angle_gamma 90.000000
_cell_volume 3729.680604
_symmetry_space_group_name_H-M "C 2/M"
_symmetry_group_IT_number 12
_symmetry_cell_setting 'monoclinic'
loop_
_space_group_symop_operation_xyz
x,y,z
-x,y,-z
-x,-y,-z
x,-y,z
1/2+x,1/2+y,z
1/2-x,1/2+y,-z
1/2-x,1/2-y,-z
1/2+x,1/2-y,z
loop_
_atom_site_type_symbol
_atom_site_label
_atom_site_fract_x
_atom_site_fract_y
_atom_site_fract_z
Si Si1 0.574417 0.667027 0.220338
Si Si2 0.138337 0.667281 0.366314
Si Si3 0.355710 0.835652 0.882338
Si Si4 0.849505 0.166657 0.522067
Si Si5 0.472125 0.164606 0.062440
Si Si6 0.097553 0.830937 0.552653
Si Si7 0.254423 0.666686 0.724990
O O1 0.560827 0.500000 0.218639
O O2 0.589199 0.750884 0.284053
O O3 0.496706 0.735814 0.128161
O O4 0.664079 0.683381 0.253887
O O5 0.118857 0.500000 0.351067
O O6 0.120244 0.737523 0.407888
O O7 0.243849 0.684057 0.436803
O O8 0.442291 0.832188 0.910731
O O9 0.285461 0.737402 0.801535
O O10 0.326620 0.000000 0.862307
O O11 0.390494 0.793229 0.964773
O O12 0.893250 0.203728 0.500714
O O13 0.865423 0.000000 0.545258
O O14 0.460860 0.000000 0.069647
O O15 0.170683 0.745882 0.638873
O O16 0.000000 0.802300 0.500000
O O17 0.115111 0.000000 0.570806
O O18 0.238230 0.500000 0.718990
#
# Coordination Sequence:
#
# PCOD9171014 Si02
#       7
#     8   8   8   8   8   8   8
#     4  10  18  26  39  61  89 118 146 178 215 260
#     4  10  18  28  45  64  85 115 146 180 218 262
#     4   8  14  25  40  56  79 112 147 179 212 255
#     4   9  18  31  45  63  85 110 143 184 223 260
#     4   8  14  24  38  57  81 112 146 178 212 253
#     4  10  20  34  50  65  84 114 151 187 223 262
#     4  10  19  28  41  61  86 115 147 182 221 261
#
# _framework density 15.01469
#
# number of rings (size 3 to 8) (size 9 to 14) (size 15 to 20)
#    0.000    2.714    1.429    2.143    0.000    3.143 
#    0.000    2.857    0.000    0.000    0.000    0.000 
#    0.000    1.143    0.000    3.429    0.000    4.571 
#
# Total GULP energy -155984.037567 kJ/mol
# GULP energy per Si atom -5570.858485 kJ/mol
# Density = 1.498052 g / cm^3
# Si number density = 15.014690 Si / 1000 Ang^3
#
#
#
# Elastic Constant Matrix: (Units=GPa)
#
#
# Indices 1 2 3 4 5 6 
#
# 1 59.1549 46.2111 50.5459 0.0000 -13.1675 0.0000
# 2 46.2111 101.6110 98.3068 0.0000 -24.7291 0.0000
# 3 50.5459 98.3068 135.1751 0.0000 -36.2082 0.0000
# 4 0.0000 0.0000 0.0000 27.1279 0.0000 -6.6546
# 5 -13.1675 -24.7291 -36.2082 0.0000 18.8586 0.0000
# 6 0.0000 0.0000 0.0000 -6.6546 0.0000 13.8502
#
#
#
# Elastic Compliance Matrix: (Units=1/GPa)
#
#
# Indices 1 2 3 4 5 6 
#
# 1 0.026819 -0.008437 -0.003788 0.000000 0.000388 0.000000
# 2 -0.008437 0.036171 -0.024755 0.000000 -0.005990 0.000000
# 3 -0.003788 -0.024755 0.035853 0.000000 0.033730 0.000000
# 4 0.000000 0.000000 0.000000 0.041788 0.000000 0.020078
# 5 0.000388 -0.005990 0.033730 0.000000 0.110205 0.000000
# 6 0.000000 0.000000 0.000000 0.020078 0.000000 0.081848
#
#
# Mechanical properties :
#
#
# Convention : Reuss Voigt Hill
#
# Bulk Modulus (GPa) = 40.19023 76.22985 58.21004
# Shear Modulus (GPa) = 12.04998 18.69249 15.37124
#
# Velocity S-wave (km/s) = 2.83600 3.53221 3.20308
# Velocity P-wave (km/s) = 6.12774 8.21680 7.24793
#
# Compressibility (1/GPa) = 0.02488167
#
# Stress axis : x y z
#
# Youngs Moduli (GPa) = 37.28634 27.64665 27.89197
#
# Poissons Ratio (x) = 0.23326 0.10567
# Poissons Ratio (y) = 0.31460 0.69046
# Poissons Ratio (z) = 0.14126 0.68439
#
# Static dielectric constant tensor:
#      x y z
#    x 1.472190 0.000000 -0.012720 
#    y 0.000000 1.497040 0.000000 
#    z -0.012720 0.000000 1.492050 
# 
# From -- ./inp_files/242978.got.cif
#   From: 2010.05.17/outbox.cif.g08.bks.cpg/sg12_122_cif.got.tgz:242978.got - 2010.06.03 13:09:07.
