data_PCOD9171704
_publ_section_title
;
Structure prediction by ZEFSAII (Michael W. Deem and Ramdas Pophale) SiO2 
 PCOD9171704
Probable space group: C 2/M
;
_chemical_formula_sum "Si O2"
_cell_formula_units_Z 40
_cell_length_a 20.997248
_cell_length_b 8.714382
_cell_length_c 14.675891
_cell_angle_alpha 90.000000
_cell_angle_beta 120.118281
_cell_angle_gamma 90.000000
_cell_volume 2322.818197
_symmetry_space_group_name_H-M "C 2/M"
_symmetry_group_IT_number 12
_symmetry_cell_setting 'monoclinic'
loop_
_space_group_symop_operation_xyz
x,y,z
-x,y,-z
-x,-y,-z
x,-y,z
1/2+x,1/2+y,z
1/2-x,1/2+y,-z
1/2-x,1/2-y,-z
1/2+x,1/2-y,z
loop_
_atom_site_type_symbol
_atom_site_label
_atom_site_fract_x
_atom_site_fract_y
_atom_site_fract_z
Si Si1 0.819214 0.816620 0.492209
Si Si2 0.462060 0.815413 0.068182
Si Si3 0.734389 0.315561 0.275144
Si Si4 0.799034 0.183221 0.954629
Si Si5 0.596957 0.815831 0.290992
O O1 0.750000 0.750000 0.500000
O O2 0.803356 0.753011 0.380237
O O3 0.888414 0.754344 0.598830
O O4 0.817431 0.000000 0.491919
O O5 0.518735 0.777907 0.189899
O O6 0.453506 0.000000 0.059324
O O7 0.500000 0.768367 0.000000
O O8 0.382642 0.741295 0.021292
O O9 0.734134 0.500000 0.284173
O O10 0.731835 0.272739 0.167387
O O11 0.660524 0.249950 0.269949
O O12 0.798213 0.000000 0.958803
O O13 0.750000 0.250000 0.000000
O O14 0.605037 0.000000 0.300454
#
# Coordination Sequence:
#
# PCOD9171704 Si02
#       5
#     8   8   8   8   8
#     4  10  18  28  46  73 105 139 173 217 265 314
#     4  10  20  35  56  81 110 143 179 221 270 321
#     4  10  19  32  50  75 105 139 178 220 264 315
#     4  11  24  38  56  79 109 146 183 224 268 322
#     4  10  18  30  51  78 108 140 172 217 267 315
#
# _framework density 17.220459999999999
#
# number of rings (size 3 to 8) (size 9 to 14) (size 15 to 20)
#    0.000    1.800    2.000    6.000    0.000    4.400 
#    0.000    0.000    0.000    1.200    0.000    8.400 
#    0.000    0.000    0.000    0.000    0.000    0.000 
#
# Total GULP energy -111603.125314 kJ/mol
# GULP energy per Si atom -5580.156266 kJ/mol
# Density = 1.718127 g / cm^3
# Si number density = 17.220460 Si / 1000 Ang^3
#
#
#
# Elastic Constant Matrix: (Units=GPa)
#
#
# Indices 1 2 3 4 5 6 
#
# 1 87.3731 32.1046 72.9468 0.0000 -2.8053 0.0000
# 2 32.1046 80.6449 76.6385 0.0000 0.7029 0.0000
# 3 72.9468 76.6385 209.2027 0.0000 4.4577 0.0000
# 4 0.0000 0.0000 0.0000 29.8093 0.0000 3.1781
# 5 -2.8053 0.7029 4.4577 0.0000 16.1450 0.0000
# 6 0.0000 0.0000 0.0000 3.1781 0.0000 23.6551
#
#
#
# Elastic Compliance Matrix: (Units=1/GPa)
#
#
# Indices 1 2 3 4 5 6 
#
# 1 0.016597 -0.001621 -0.005287 0.000000 0.004414 0.000000
# 2 -0.001621 0.019200 -0.006483 0.000000 0.000672 0.000000
# 3 -0.005287 -0.006483 0.009066 0.000000 -0.003140 0.000000
# 4 0.000000 0.000000 0.000000 0.034034 0.000000 -0.004572
# 5 0.004414 0.000672 -0.003140 0.000000 0.063543 0.000000
# 6 0.000000 0.000000 0.000000 -0.004572 0.000000 0.042888
#
#
# Mechanical properties :
#
#
# Convention : Reuss Voigt Hill
#
# Bulk Modulus (GPa) = 55.30896 82.28896 68.79896
# Shear Modulus (GPa) = 22.92129 26.95727 24.93928
#
# Velocity S-wave (km/s) = 3.65231 3.96083 3.80970
# Velocity P-wave (km/s) = 7.06921 8.29499 7.70651
#
# Compressibility (1/GPa) = 0.01808025
#
# Stress axis : x y z
#
# Youngs Moduli (GPa) = 60.25223 52.08252 110.30788
#
# Poissons Ratio (x) = 0.08442 0.58324
# Poissons Ratio (y) = 0.09766 0.71511
# Poissons Ratio (z) = 0.31858 0.33765
#
# Static dielectric constant tensor:
#      x y z
#    x 1.540420 0.000000 0.000400 
#    y 0.000000 1.577170 0.000000 
#    z 0.000400 0.000000 1.640320 
# 
# From -- ./inp_files/229486.got.cif
#   From: 2010.05.17/outbox.cif.g08.bks.cpg/sg12_115_cif.got.tgz:229486.got - 2010.06.03 13:09:07.
