data_PCOD9171583
_publ_section_title
;
Structure prediction by ZEFSAII (Michael W. Deem and Ramdas Pophale) SiO2 
 PCOD9171583
Probable space group: C 2/M
;
_chemical_formula_sum "Si O2"
_cell_formula_units_Z 56
_cell_length_a 30.491875
_cell_length_b 8.854232
_cell_length_c 19.512254
_cell_angle_alpha 90.000000
_cell_angle_beta 38.272847
_cell_angle_gamma 90.000000
_cell_volume 3263.011561
_symmetry_space_group_name_H-M "C 2/M"
_symmetry_group_IT_number 12
_symmetry_cell_setting 'monoclinic'
loop_
_space_group_symop_operation_xyz
x,y,z
-x,y,-z
-x,-y,-z
x,-y,z
1/2+x,1/2+y,z
1/2-x,1/2+y,-z
1/2-x,1/2-y,-z
1/2+x,1/2-y,z
loop_
_atom_site_type_symbol
_atom_site_label
_atom_site_fract_x
_atom_site_fract_y
_atom_site_fract_z
Si Si1 0.203572 0.183733 0.908429
Si Si2 0.403687 0.826026 0.566261
Si Si3 0.855662 0.818541 0.760074
Si Si4 0.912295 0.816696 0.840238
Si Si5 0.062840 0.817820 0.614700
Si Si6 0.760621 0.173852 0.282212
Si Si7 0.281093 0.679843 0.530495
O O1 0.276584 0.255025 0.845796
O O2 0.195390 0.224616 0.838277
O O3 0.210528 0.000000 0.902274
O O4 0.138987 0.232728 0.035810
O O5 0.404187 0.746436 0.639296
O O6 0.442395 0.743408 0.456375
O O7 0.320692 0.822647 0.645152
O O8 0.425378 0.000000 0.544873
O O9 0.881823 0.772957 0.803299
O O10 0.855122 0.000000 0.756165
O O11 0.994067 0.768614 0.741509
O O12 0.911765 0.000000 0.842780
O O13 0.137625 0.769130 0.555341
O O14 0.063627 0.000000 0.610044
O O15 0.762343 0.270232 0.348826
O O16 0.777996 0.000000 0.277174
O O17 0.281038 0.500000 0.525114
O O18 0.250000 0.750000 0.500000
#
# Coordination Sequence:
#
# PCOD9171583 Si02
#       7
#     8   8   8   8   8   8   8
#     4   9  17  31  49  68  94 128 162 198 232 266
#     4   9  17  30  46  65  93 126 158 198 240 278
#     4  10  18  28  45  68  93 125 165 205 235 267
#     4   9  18  31  47  67  94 128 163 197 234 271
#     4   9  18  33  50  69  93 123 157 191 232 285
#     4   8  15  28  47  69  92 118 150 186 226 269
#     4  10  19  31  52  76  95 114 142 184 232 283
#
# _framework density 17.16206
#
# number of rings (size 3 to 8) (size 9 to 14) (size 15 to 20)
#    0.000    2.857    0.000    2.571    0.000    4.571 
#    0.000    5.714    0.000    0.857    0.000    6.000 
#    0.000    0.000    0.000    0.000    0.000    0.000 
#
# Total GULP energy -156066.579497 kJ/mol
# GULP energy per Si atom -5573.806411 kJ/mol
# Density = 1.712300 g / cm^3
# Si number density = 17.162060 Si / 1000 Ang^3
#
#
#
# Elastic Constant Matrix: (Units=GPa)
#
#
# Indices 1 2 3 4 5 6 
#
# 1 92.9403 32.2337 70.1619 0.0064 21.8099 -0.0012
# 2 32.2337 31.5954 21.6746 0.0094 7.6392 -0.0036
# 3 70.1619 21.6746 106.5713 -0.0028 7.9782 -0.0023
# 4 0.0064 0.0094 -0.0028 21.1408 -0.0094 6.3519
# 5 21.8099 7.6392 7.9782 -0.0094 20.6626 0.0013
# 6 -0.0012 -0.0036 -0.0023 6.3519 0.0013 18.9983
#
#
#
# Elastic Compliance Matrix: (Units=1/GPa)
#
#
# Indices 1 2 3 4 5 6 
#
# 1 0.037838 -0.019378 -0.019067 -0.000018 -0.025412 0.000004
# 2 -0.019378 0.049320 0.002637 -0.000020 0.001201 0.000015
# 3 -0.019067 0.002637 0.020561 0.000013 0.011212 -0.000003
# 4 -0.000018 -0.000020 0.000013 0.052584 0.000046 -0.017581
# 5 -0.025412 0.001201 0.011212 0.000046 0.070446 -0.000020
# 6 0.000004 0.000015 -0.000003 -0.017581 -0.000020 0.058514
#
#
# Mechanical properties :
#
#
# Convention : Reuss Voigt Hill
#
# Bulk Modulus (GPa) = 27.69917 53.24971 40.47444
# Shear Modulus (GPa) = 13.40793 19.29612 16.35202
#
# Velocity S-wave (km/s) = 2.79812 3.35677 3.09010
# Velocity P-wave (km/s) = 5.15889 6.79108 6.03046
#
# Compressibility (1/GPa) = 0.03610216
#
# Stress axis : x y z
#
# Youngs Moduli (GPa) = 26.42872 20.27575 48.63632
#
# Poissons Ratio (x) = 0.39290 0.92736
# Poissons Ratio (y) = 0.51213 -0.12824
# Poissons Ratio (z) = 0.50392 -0.05346
#
# Static dielectric constant tensor:
#      x y z
#    x 1.566980 0.000000 -0.007440 
#    y 0.000000 1.581280 0.000000 
#    z -0.007440 0.000000 1.606870 
# 
# From -- ./inp_files/287319.got.cif
#   From: 2010.05.17/outbox.cif.g08.bks.cpg/sg12_144_cif.got.tgz:287319.got - 2010.06.03 13:09:07.
