data_PCOD9171757
_publ_section_title
;
Structure prediction by ZEFSAII (Michael W. Deem and Ramdas Pophale) SiO2 
 PCOD9171757
Probable space group: C 2/M
;
_chemical_formula_sum "Si O2"
_cell_formula_units_Z 52
_cell_length_a 14.835037
_cell_length_b 17.867492
_cell_length_c 9.930349
_cell_angle_alpha 90.000000
_cell_angle_beta 54.724436
_cell_angle_gamma 90.000000
_cell_volume 2148.875272
_symmetry_space_group_name_H-M "C 2/M"
_symmetry_group_IT_number 12
_symmetry_cell_setting 'monoclinic'
loop_
_space_group_symop_operation_xyz
x,y,z
-x,y,-z
-x,-y,-z
x,-y,z
1/2+x,1/2+y,z
1/2-x,1/2+y,-z
1/2-x,1/2-y,-z
1/2+x,1/2-y,z
loop_
_atom_site_type_symbol
_atom_site_label
_atom_site_fract_x
_atom_site_fract_y
_atom_site_fract_z
Si Si1 0.707387 0.090911 0.594630
Si Si2 0.711387 0.913608 0.903100
Si Si3 0.130379 0.815366 0.043343
Si Si4 0.000000 0.165372 0.500000
Si Si5 0.031146 0.412792 0.275457
Si Si6 0.558723 0.588670 0.720166
Si Si7 0.342179 0.215570 0.730330
O O1 0.715958 0.112669 0.744908
O O2 0.591702 0.118102 0.636265
O O3 0.812813 0.109192 0.411559
O O4 0.702398 0.000000 0.601505
O O5 0.791084 0.869944 0.935531
O O6 0.746664 0.000000 0.872431
O O7 0.591792 0.910429 0.076899
O O8 0.116853 0.746226 0.157174
O O9 0.016917 0.858983 0.121839
O O10 0.209925 0.790143 0.853405
O O11 0.007413 0.110376 0.619299
O O12 0.102548 0.223438 0.413216
O O13 0.028886 0.500000 0.315935
O O14 0.103777 0.365897 0.317797
O O15 0.549446 0.500000 0.757811
#
# Coordination Sequence:
#
# PCOD9171757 Si02
#       7
#     8   8   8   4   8   8   8
#     4   9  16  25  40  66  95 118 145 183 227 275
#     4   9  15  24  42  66  92 121 149 182 228 280
#     4   9  17  29  44  66  95 123 148 181 228 280
#     4  10  19  32  47  68  96 124 154 190 227 266
#     4   9  17  29  43  60  86 122 160 192 222 262
#     4  10  18  28  47  74  98 119 144 180 232 287
#     4   9  18  31  46  63  89 124 158 190 226 263
#
# _framework density 24.198706000000001
#
# number of rings (size 3 to 8) (size 9 to 14) (size 15 to 20)
#    0.000    2.769    0.000    3.000    0.000    3.692 
#    0.000    3.462    0.000    0.000    0.000    3.231 
#    0.000    3.692    0.000    0.000    0.000   36.769 
#
# Total GULP energy -145208.780035 kJ/mol
# GULP energy per Si atom -5584.953078 kJ/mol
# Density = 2.414363 g / cm^3
# Si number density = 24.198706 Si / 1000 Ang^3
#
#
#
# Elastic Constant Matrix: (Units=GPa)
#
#
# Indices 1 2 3 4 5 6 
#
# 1 40.5947 10.6563 47.5026 0.0000 -1.1151 0.0000
# 2 10.6563 87.8819 29.5247 0.0000 -8.4031 0.0000
# 3 47.5026 29.5247 144.6638 0.0000 -32.7099 0.0000
# 4 0.0000 0.0000 0.0000 33.5260 0.0000 -27.5122
# 5 -1.1151 -8.4031 -32.7099 0.0000 45.5471 0.0000
# 6 0.0000 0.0000 0.0000 -27.5122 0.0000 -18.4312
#
#
#
# Elastic Compliance Matrix: (Units=1/GPa)
#
#
# Indices 1 2 3 4 5 6 
#
# 1 0.044358 -0.000758 -0.016949 0.000000 -0.011226 0.000000
# 2 -0.000758 0.012241 -0.002081 0.000000 0.000745 0.000000
# 3 -0.016949 -0.002081 0.015189 0.000000 0.010109 0.000000
# 4 0.000000 0.000000 0.000000 0.013406 0.000000 -0.020011
# 5 -0.011226 0.000745 0.010109 0.000000 0.029078 0.000000
# 6 0.000000 0.000000 0.000000 -0.020011 0.000000 -0.024385
#
#
# Mechanical properties :
#
#
# Convention : Reuss Voigt Hill
#
# Bulk Modulus (GPa) = 31.04482 49.83417 40.43949
# Shear Modulus (GPa) = 35.66356 24.49215 30.07786
#
# Velocity S-wave (km/s) = 3.84315 3.18485 3.52938
# Velocity P-wave (km/s) = 5.70526 5.84489 5.77550
#
# Compressibility (1/GPa) = 0.03221150
#
# Stress axis : x y z
#
# Youngs Moduli (GPa) = 22.54396 81.69139 65.83915
#
# Poissons Ratio (x) = 0.06191 1.11592
# Poissons Ratio (y) = 0.01709 0.13701
# Poissons Ratio (z) = 0.38210 0.16999
#
# Static dielectric constant tensor:
#      x y z
#    x 1.902340 0.000000 -0.031540 
#    y 0.000000 1.928670 0.000000 
#    z -0.031540 0.000000 2.044910 
# 
# From -- ./inp_files/234054.got.cif
#   From: 2010.05.17/outbox.cif.g08.bks.cpg/sg12_118_cif.got.tgz:234054.got - 2010.06.03 13:09:07.
