data_PCOD9171728
_publ_section_title
;
Structure prediction by ZEFSAII (Michael W. Deem and Ramdas Pophale) SiO2 
 PCOD9171728
Probable space group: C 2/M
;
_chemical_formula_sum "Si O2"
_cell_formula_units_Z 56
_cell_length_a 28.007960
_cell_length_b 9.313397
_cell_length_c 14.582065
_cell_angle_alpha 90.000000
_cell_angle_beta 104.659920
_cell_angle_gamma 90.000000
_cell_volume 3679.890702
_symmetry_space_group_name_H-M "C 2/M"
_symmetry_group_IT_number 12
_symmetry_cell_setting 'monoclinic'
loop_
_space_group_symop_operation_xyz
x,y,z
-x,y,-z
-x,-y,-z
x,-y,z
1/2+x,1/2+y,z
1/2-x,1/2+y,-z
1/2-x,1/2-y,-z
1/2+x,1/2-y,z
loop_
_atom_site_type_symbol
_atom_site_label
_atom_site_fract_x
_atom_site_fract_y
_atom_site_fract_z
Si Si1 0.679831 0.829845 0.399082
Si Si2 0.371576 0.832895 0.081961
Si Si3 0.442565 0.328235 0.977906
Si Si4 0.634913 0.670420 0.214658
Si Si5 0.705638 0.329315 0.593421
Si Si6 0.181195 0.170103 0.789934
Si Si7 0.706212 0.834253 0.116067
O O1 0.641431 0.753540 0.312824
O O2 0.680782 0.759951 0.500066
O O3 0.735263 0.804794 0.385510
O O4 0.671955 0.000000 0.399155
O O5 0.414056 0.753410 0.045017
O O6 0.358089 0.757942 0.170684
O O7 0.383446 0.000000 0.099460
O O8 0.322793 0.823586 0.993482
O O9 0.438318 0.500000 0.990963
O O10 0.500000 0.290418 0.000000
O O11 0.413906 0.296611 0.868764
O O12 0.638062 0.500000 0.230287
O O13 0.679330 0.726349 0.171782
O O14 0.698124 0.500000 0.575398
O O15 0.686322 0.291881 0.685154
O O16 0.235795 0.193589 0.858949
O O17 0.170778 0.000000 0.791449
O O18 0.700088 0.000000 0.146978
#
# Coordination Sequence:
#
# PCOD9171728 Si02
#       7
#     8   8   8   8   8   8   8
#     4  10  18  30  45  64  93 126 159 196 234 272
#     4  10  20  30  45  69  95 121 154 193 233 279
#     4   9  19  36  54  71  92 120 155 194 236 282
#     4  10  18  28  47  71  93 120 156 195 233 278
#     4   9  18  30  44  63  90 127 166 198 225 261
#     4  10  18  30  45  62  92 130 162 190 224 267
#     4   9  17  30  43  61  92 127 159 191 225 266
#
# _framework density 15.217843999999999
#
# number of rings (size 3 to 8) (size 9 to 14) (size 15 to 20)
#    0.000    2.429    1.429    1.714    0.000    3.143 
#    0.000    0.000    0.000    0.000    0.000    1.000 
#    0.000    8.000    0.000    0.000    0.000    0.000 
#
# Total GULP energy -156102.539620 kJ/mol
# GULP energy per Si atom -5575.090701 kJ/mol
# Density = 1.518321 g / cm^3
# Si number density = 15.217844 Si / 1000 Ang^3
#
#
#
# Elastic Constant Matrix: (Units=GPa)
#
#
# Indices 1 2 3 4 5 6 
#
# 1 85.4866 57.6641 66.6762 0.0000 -7.3301 0.0000
# 2 57.6641 67.7936 65.5044 0.0000 -6.0444 0.0000
# 3 66.6762 65.5044 92.8264 0.0000 -13.3347 0.0000
# 4 0.0000 0.0000 0.0000 25.7012 0.0000 -4.1477
# 5 -7.3301 -6.0444 -13.3347 0.0000 18.9105 0.0000
# 6 0.0000 0.0000 0.0000 -4.1477 0.0000 19.1841
#
#
#
# Elastic Compliance Matrix: (Units=1/GPa)
#
#
# Indices 1 2 3 4 5 6 
#
# 1 0.030911 -0.015036 -0.011752 0.000000 -0.001111 0.000000
# 2 -0.015036 0.055154 -0.029403 0.000000 -0.008933 0.000000
# 3 -0.011752 -0.029403 0.042237 0.000000 0.015830 0.000000
# 4 0.000000 0.000000 0.000000 0.040315 0.000000 0.008716
# 5 -0.001111 -0.008933 0.015830 0.000000 0.060757 0.000000
# 6 0.000000 0.000000 0.000000 0.008716 0.000000 0.054011
#
#
# Mechanical properties :
#
#
# Convention : Reuss Voigt Hill
#
# Bulk Modulus (GPa) = 62.81799 69.53289 66.17544
# Shear Modulus (GPa) = 12.46646 16.50994 14.48820
#
# Velocity S-wave (km/s) = 2.86527 3.29737 3.08888
# Velocity P-wave (km/s) = 7.23292 7.76452 7.50343
#
# Compressibility (1/GPa) = 0.01591901
#
# Stress axis : x y z
#
# Youngs Moduli (GPa) = 32.35051 18.13106 23.67580
#
# Poissons Ratio (x) = 0.27262 0.27825
# Poissons Ratio (y) = 0.48643 0.69614
# Poissons Ratio (z) = 0.38020 0.53311
#
# Static dielectric constant tensor:
#      x y z
#    x 1.472350 0.000000 -0.000980 
#    y 0.000000 1.507010 0.000000 
#    z -0.000980 0.000000 1.516580 
# 
# From -- ./inp_files/243226.got.cif
#   From: 2010.05.17/outbox.cif.g08.bks.cpg/sg12_122_cif.got.tgz:243226.got - 2010.06.03 13:09:07.
