data_PCOD9171329
_publ_section_title
;
Structure prediction by ZEFSAII (Michael W. Deem and Ramdas Pophale) SiO2 
 PCOD9171329
Probable space group: C 2/M
;
_chemical_formula_sum "Si O2"
_cell_formula_units_Z 64
_cell_length_a 26.018078
_cell_length_b 7.837906
_cell_length_c 18.301979
_cell_angle_alpha 90.000000
_cell_angle_beta 102.678798
_cell_angle_gamma 90.000000
_cell_volume 3641.263880
_symmetry_space_group_name_H-M "C 2/M"
_symmetry_group_IT_number 12
_symmetry_cell_setting 'monoclinic'
loop_
_space_group_symop_operation_xyz
x,y,z
-x,y,-z
-x,-y,-z
x,-y,z
1/2+x,1/2+y,z
1/2-x,1/2+y,-z
1/2-x,1/2-y,-z
1/2+x,1/2-y,z
loop_
_atom_site_type_symbol
_atom_site_label
_atom_site_fract_x
_atom_site_fract_y
_atom_site_fract_z
Si Si1 0.702701 0.799093 0.817129
Si Si2 0.189949 0.204865 0.502015
Si Si3 0.726668 0.299335 0.662570
Si Si4 0.489006 0.208411 0.080595
Si Si5 0.903294 0.701033 0.819860
Si Si6 0.871250 0.291087 0.078215
Si Si7 0.655604 0.699041 0.339854
Si Si8 0.817205 0.707280 0.909899
O O1 0.705259 0.723607 0.736953
O O2 0.658048 0.731588 0.857911
O O3 0.759271 0.770975 0.872723
O O4 0.694359 0.000000 0.805502
O O5 0.250000 0.250000 0.500000
O O6 0.187538 0.262258 0.585607
O O7 0.156064 0.271421 0.422886
O O8 0.183473 0.000000 0.498715
O O9 0.736061 0.500000 0.653194
O O10 0.784234 0.215770 0.670934
O O11 0.538609 0.268567 0.144008
O O12 0.431513 0.266146 0.088351
O O13 0.487256 0.000000 0.081816
O O14 0.500000 0.256200 0.000000
O O15 0.905916 0.500000 0.836947
O O16 0.882952 0.721361 0.731475
O O17 0.858889 0.769128 0.861738
O O18 0.871129 0.500000 0.078904
O O19 0.838267 0.241249 0.995954
O O20 0.642608 0.500000 0.339017
O O21 0.815366 0.500000 0.906804
#
# Coordination Sequence:
#
# PCOD9171329 Si02
#       8
#     8   8   8   8   8   8   8   8
#     4  11  21  30  43  67  97 126 154 186 229 273
#     4   8  16  28  43  63  87 119 150 180 219 269
#     4  10  18  30  46  64  90 122 157 187 217 265
#     4   9  15  28  49  69  87 114 156 200 231 259
#     4  10  18  27  47  73  92 117 154 190 226 268
#     4   9  18  31  46  66  91 121 160 199 228 263
#     4  10  18  29  45  67  96 121 145 181 231 278
#     4  10  18  30  47  66  91 122 156 190 224 269
#
# _framework density 17.576314
#
# number of rings (size 3 to 8) (size 9 to 14) (size 15 to 20)
#    0.000    2.375    2.500    1.500    0.000    1.000 
#    0.000    0.625    0.000    2.625    0.000    0.875 
#    0.000    7.000    0.000    0.000    0.000    0.000 
#
# Total GULP energy -178360.156314 kJ/mol
# GULP energy per Si atom -5573.754885 kJ/mol
# Density = 1.753631 g / cm^3
# Si number density = 17.576314 Si / 1000 Ang^3
#
#
#
# Elastic Constant Matrix: (Units=GPa)
#
#
# Indices 1 2 3 4 5 6 
#
# 1 98.8217 -5.7335 64.2855 0.0000 -5.9351 0.0000
# 2 -5.7335 15.9811 -9.7641 0.0000 -1.8788 0.0000
# 3 64.2855 -9.7641 137.6752 0.0000 6.8263 0.0000
# 4 0.0000 0.0000 0.0000 4.5707 0.0000 -1.8745
# 5 -5.9351 -1.8788 6.8263 0.0000 13.9690 0.0000
# 6 0.0000 0.0000 0.0000 -1.8745 0.0000 9.5744
#
#
#
# Elastic Compliance Matrix: (Units=1/GPa)
#
#
# Indices 1 2 3 4 5 6 
#
# 1 0.016024 0.002230 -0.007867 0.000000 0.010953 0.000000
# 2 0.002230 0.066335 0.003253 0.000000 0.008280 0.000000
# 3 -0.007867 0.003253 0.011593 0.000000 -0.008570 0.000000
# 4 0.000000 0.000000 0.000000 0.237885 0.000000 0.046573
# 5 0.010953 0.008280 -0.008570 0.000000 0.081542 0.000000
# 6 0.000000 0.000000 0.000000 0.046573 0.000000 0.113564
#
#
# Mechanical properties :
#
#
# Convention : Reuss Voigt Hill
#
# Bulk Modulus (GPa) = 11.21294 38.89485 25.05389
# Shear Modulus (GPa) = 8.90568 19.20215 14.05392
#
# Velocity S-wave (km/s) = 2.25341 3.30889 2.83078
# Velocity P-wave (km/s) = 3.62821 6.06428 4.99697
#
# Compressibility (1/GPa) = 0.08918266
#
# Stress axis : x y z
#
# Youngs Moduli (GPa) = 62.40570 15.07504 86.26229
#
# Poissons Ratio (x) = -0.03362 0.67864
# Poissons Ratio (y) = -0.13916 -0.28059
# Poissons Ratio (z) = 0.49096 -0.04904
#
# Static dielectric constant tensor:
#      x y z
#    x 1.570530 0.000000 -0.000950 
#    y 0.000000 1.670110 0.000000 
#    z -0.000950 0.000000 1.636820 
# 
# From -- ./inp_files/287518.got.cif
#   From: 2010.05.17/outbox.cif.g08.bks.cpg/sg12_144_cif.got.tgz:287518.got - 2010.06.03 13:09:07.
