data_PCOD9171730
_publ_section_title
;
Structure prediction by ZEFSAII (Michael W. Deem and Ramdas Pophale) SiO2 
 PCOD9171730
Probable space group: C 2/M
;
_chemical_formula_sum "Si O2"
_cell_formula_units_Z 64
_cell_length_a 30.273207
_cell_length_b 13.413096
_cell_length_c 9.467357
_cell_angle_alpha 90.000000
_cell_angle_beta 82.938872
_cell_angle_gamma 90.000000
_cell_volume 3815.133901
_symmetry_space_group_name_H-M "C 2/M"
_symmetry_group_IT_number 12
_symmetry_cell_setting 'monoclinic'
loop_
_space_group_symop_operation_xyz
x,y,z
-x,y,-z
-x,-y,-z
x,-y,z
1/2+x,1/2+y,z
1/2-x,1/2+y,-z
1/2-x,1/2-y,-z
1/2+x,1/2-y,z
loop_
_atom_site_type_symbol
_atom_site_label
_atom_site_fract_x
_atom_site_fract_y
_atom_site_fract_z
Si Si1 0.216396 0.113010 0.604295
Si Si2 0.350238 0.816392 0.065019
Si Si3 0.188285 0.110338 0.940683
Si Si4 0.561599 0.118801 0.858559
Si Si5 0.876577 0.616936 0.745478
Si Si6 0.697107 0.234329 0.397206
Si Si7 0.030107 0.380858 0.196040
Si Si8 0.247965 0.384018 0.825931
O O1 0.204719 0.114226 0.773689
O O2 0.267297 0.150406 0.569916
O O3 0.187093 0.193866 0.532841
O O4 0.210788 0.000000 0.555313
O O5 0.345213 0.700874 0.025151
O O6 0.389974 0.832781 0.160104
O O7 0.303243 0.852308 0.145028
O O8 0.360233 0.874711 0.915235
O O9 0.169652 0.000000 0.976712
O O10 0.230316 0.124020 0.027075
O O11 0.520859 0.156239 0.776756
O O12 0.566717 0.000000 0.834580
O O13 0.545243 0.132909 0.027216
O O14 0.874747 0.500000 0.706078
O O15 0.844202 0.682841 0.662542
O O16 0.928136 0.653304 0.726734
O O17 0.723933 0.308554 0.281338
O O18 0.027732 0.500000 0.218732
O O19 0.251590 0.500000 0.780979
#
# Coordination Sequence:
#
# PCOD9171730 Si02
#       8
#     8   8   8   8   8   8   8   8
#     4  10  21  35  47  61  91 130 162 194 230 269
#     4  11  17  28  44  70  93 125 159 186 226 278
#     4  10  20  33  47  64  93 129 160 194 231 268
#     4   8  13  22  39  64  96 123 145 180 228 281
#     4  10  18  28  47  71  96 124 155 191 231 280
#     4  11  20  32  48  68  92 124 161 194 228 276
#     4   7  12  23  38  63  94 121 147 180 227 281
#     4  11  20  30  45  69  98 124 156 195 229 267
#
# _framework density 16.775296000000001
#
# number of rings (size 3 to 8) (size 9 to 14) (size 15 to 20)
#    0.000    2.250    2.500    4.500    0.000    1.000 
#    0.000    0.000    0.000    0.000    0.000    9.625 
#    0.000    5.000    0.000    0.000    0.000    0.000 
#
# Total GULP energy -178279.727807 kJ/mol
# GULP energy per Si atom -5571.241494 kJ/mol
# Density = 1.673711 g / cm^3
# Si number density = 16.775296 Si / 1000 Ang^3
#
#
#
# Elastic Constant Matrix: (Units=GPa)
#
#
# Indices 1 2 3 4 5 6 
#
# 1 146.1177 49.6800 17.0895 0.0000 25.7967 0.0000
# 2 49.6800 84.5971 7.8166 0.0000 9.6154 0.0000
# 3 17.0895 7.8166 35.1092 0.0000 9.6830 0.0000
# 4 0.0000 0.0000 0.0000 18.5946 0.0000 6.6213
# 5 25.7967 9.6154 9.6830 0.0000 15.0690 0.0000
# 6 0.0000 0.0000 0.0000 6.6213 0.0000 19.8197
#
#
#
# Elastic Compliance Matrix: (Units=1/GPa)
#
#
# Indices 1 2 3 4 5 6 
#
# 1 0.011378 -0.004819 0.000071 0.000000 -0.016449 0.000000
# 2 -0.004819 0.014801 -0.000754 0.000000 -0.000711 0.000000
# 3 0.000071 -0.000754 0.034659 0.000000 -0.021912 0.000000
# 4 0.000000 0.000000 0.000000 0.061041 0.000000 -0.020392
# 5 -0.016449 -0.000711 -0.021912 0.000000 0.109053 0.000000
# 6 0.000000 0.000000 0.000000 -0.020392 0.000000 0.057267
#
#
# Mechanical properties :
#
#
# Convention : Reuss Voigt Hill
#
# Bulk Modulus (GPa) = 20.06612 46.11069 33.08840
# Shear Modulus (GPa) = 15.83217 23.44585 19.63901
#
# Velocity S-wave (km/s) = 3.07543 3.74256 3.42528
# Velocity P-wave (km/s) = 4.95971 6.79872 5.95069
#
# Compressibility (1/GPa) = 0.04983526
#
# Stress axis : x y z
#
# Youngs Moduli (GPa) = 87.89067 67.56322 28.85260
#
# Poissons Ratio (x) = 0.32556 -0.00205
# Poissons Ratio (y) = 0.42351 0.02174
# Poissons Ratio (z) = -0.00625 0.05092
#
# Static dielectric constant tensor:
#      x y z
#    x 1.607360 0.000000 -0.001800 
#    y 0.000000 1.581930 0.000000 
#    z -0.001800 0.000000 1.603680 
# 
# From -- ./inp_files/111188.got.cif
#   From: 2010.05.17/outbox.cif.g08.bks.cpg/sg12_56_cif.got.tgz:111188.got - 2010.06.03 13:09:07.
