data_PCOD9171531
_publ_section_title
;
Structure prediction by ZEFSAII (Michael W. Deem and Ramdas Pophale) SiO2 
 PCOD9171531
Probable space group: C 2/M
;
_chemical_formula_sum "Si O2"
_cell_formula_units_Z 48
_cell_length_a 28.716715
_cell_length_b 8.942044
_cell_length_c 16.414253
_cell_angle_alpha 90.000000
_cell_angle_beta 135.881502
_cell_angle_gamma 90.000000
_cell_volume 2934.216449
_symmetry_space_group_name_H-M "C 2/M"
_symmetry_group_IT_number 12
_symmetry_cell_setting 'monoclinic'
loop_
_space_group_symop_operation_xyz
x,y,z
-x,y,-z
-x,-y,-z
x,-y,z
1/2+x,1/2+y,z
1/2-x,1/2+y,-z
1/2-x,1/2-y,-z
1/2+x,1/2-y,z
loop_
_atom_site_type_symbol
_atom_site_label
_atom_site_fract_x
_atom_site_fract_y
_atom_site_fract_z
Si Si1 0.524684 0.319144 0.400340
Si Si2 0.123698 0.320336 0.035220
Si Si3 0.021049 0.678688 0.220542
Si Si4 0.925009 0.172386 0.867733
Si Si5 0.253245 0.681217 0.093638
Si Si6 0.395734 0.318659 0.341366
O O1 0.525767 0.500000 0.394871
O O2 0.535720 0.247473 0.326774
O O3 0.452290 0.274768 0.346666
O O4 0.578319 0.273374 0.536762
O O5 0.123888 0.500000 0.044560
O O6 0.120411 0.247723 0.120318
O O7 0.188427 0.275411 0.064909
O O8 0.055243 0.280127 0.901525
O O9 0.025223 0.500000 0.228048
O O10 0.068899 0.741826 0.209831
O O11 0.906949 0.000000 0.832294
O O12 0.000000 0.177507 0.000000
O O13 0.253677 0.500000 0.088218
O O14 0.322098 0.730191 0.223425
O O15 0.250000 0.750000 0.000000
O O16 0.395885 0.500000 0.342123
#
# Coordination Sequence:
#
# PCOD9171531 Si02
#       6
#     8   8   8   8   8   8
#     4   9  16  29  48  67  88 118 156 191 220 256
#     4   9  18  30  44  65  95 124 146 178 227 273
#     4  10  18  28  44  68  95 119 145 182 229 272
#     4   9  17  29  46  67  89 116 151 187 222 264
#     4  10  19  31  47  68  94 123 152 181 219 267
#     4   8  16  30  47  66  90 121 154 187 222 259
#
# _framework density 16.358712000000001
#
# number of rings (size 3 to 8) (size 9 to 14) (size 15 to 20)
#    0.000    2.833    0.000    3.000    0.000    3.333 
#    0.000    2.500    0.000    1.000    0.000    0.000 
#    0.000    0.000    0.000    0.000    0.000    0.000 
#
# Total GULP energy -133755.842210 kJ/mol
# GULP energy per Si atom -5573.160092 kJ/mol
# Density = 1.632148 g / cm^3
# Si number density = 16.358712 Si / 1000 Ang^3
#
#
#
# Elastic Constant Matrix: (Units=GPa)
#
#
# Indices 1 2 3 4 5 6 
#
# 1 154.7326 43.3373 81.3738 0.0000 -24.6519 0.0000
# 2 43.3373 28.6120 31.3552 0.0000 -12.2525 0.0000
# 3 81.3738 31.3552 96.9576 0.0000 -19.2608 0.0000
# 4 0.0000 0.0000 0.0000 19.5736 0.0000 -10.8069
# 5 -24.6519 -12.2525 -19.2608 0.0000 33.1011 0.0000
# 6 0.0000 0.0000 0.0000 -10.8069 0.0000 25.0446
#
#
#
# Elastic Compliance Matrix: (Units=1/GPa)
#
#
# Indices 1 2 3 4 5 6 
#
# 1 0.014197 -0.012585 -0.007542 0.000000 0.001526 0.000000
# 2 -0.012585 0.069185 -0.009709 0.000000 0.010587 0.000000
# 3 -0.007542 -0.009709 0.020300 0.000000 0.002602 0.000000
# 4 0.000000 0.000000 0.000000 0.067067 0.000000 0.028940
# 5 0.001526 0.010587 0.002602 0.000000 0.036780 0.000000
# 6 0.000000 0.000000 0.000000 0.028940 0.000000 0.052416
#
#
# Mechanical properties :
#
#
# Convention : Reuss Voigt Hill
#
# Bulk Modulus (GPa) = 22.72141 65.82608 44.27375
# Shear Modulus (GPa) = 14.95716 23.82627 19.39171
#
# Velocity S-wave (km/s) = 3.02706 3.82054 3.44671
# Velocity P-wave (km/s) = 5.11244 7.73230 6.55460
#
# Compressibility (1/GPa) = 0.04401135
#
# Stress axis : x y z
#
# Youngs Moduli (GPa) = 70.43693 14.45396 49.26044
#
# Poissons Ratio (x) = 0.18190 0.37153
# Poissons Ratio (y) = 0.88643 0.47825
# Poissons Ratio (z) = 0.53125 0.14033
#
# Static dielectric constant tensor:
#      x y z
#    x 1.535320 0.000000 0.009720 
#    y 0.000000 1.547100 0.000000 
#    z 0.009720 0.000000 1.539380 
# 
# From -- ./inp_files/230415.got.cif
#   From: 2010.05.17/outbox.cif.g08.bks.cpg/sg12_116_cif.got.tgz:230415.got - 2010.06.03 13:09:07.
