data_PCOD9171374
_publ_section_title
;
Structure prediction by ZEFSAII (Michael W. Deem and Ramdas Pophale) SiO2 
 PCOD9171374
Probable space group: C 2/M
;
_chemical_formula_sum "Si O2"
_cell_formula_units_Z 64
_cell_length_a 14.366334
_cell_length_b 16.929491
_cell_length_c 15.752790
_cell_angle_alpha 90.000000
_cell_angle_beta 99.783163
_cell_angle_gamma 90.000000
_cell_volume 3775.595043
_symmetry_space_group_name_H-M "C 2/M"
_symmetry_group_IT_number 12
_symmetry_cell_setting 'monoclinic'
loop_
_space_group_symop_operation_xyz
x,y,z
-x,y,-z
-x,-y,-z
x,-y,z
1/2+x,1/2+y,z
1/2-x,1/2+y,-z
1/2-x,1/2-y,-z
1/2+x,1/2-y,z
loop_
_atom_site_type_symbol
_atom_site_label
_atom_site_fract_x
_atom_site_fract_y
_atom_site_fract_z
Si Si1 0.418117 0.096154 0.102703
Si Si2 0.734525 0.596669 0.740320
Si Si3 0.160598 0.671435 0.552495
Si Si4 0.451286 0.590593 0.371688
Si Si5 0.905724 0.407174 0.286654
Si Si6 0.367820 0.096081 0.911337
Si Si7 0.882001 0.591608 0.624957
Si Si8 0.870383 0.156070 0.521078
O O1 0.379808 0.121507 0.188288
O O2 0.528089 0.118996 0.106581
O O3 0.417913 0.000000 0.104981
O O4 0.363080 0.120814 0.009088
O O5 0.737156 0.500000 0.738551
O O6 0.625684 0.618339 0.708936
O O7 0.785848 0.622207 0.834682
O O8 0.799008 0.625815 0.671300
O O9 0.133364 0.641534 0.640564
O O10 0.108964 0.628681 0.466032
O O11 0.135036 0.762271 0.531759
O O12 0.270844 0.652452 0.552617
O O13 0.480352 0.500000 0.358935
O O14 0.393290 0.592180 0.451904
O O15 0.541898 0.645772 0.401136
O O16 0.879733 0.500000 0.292646
O O17 0.019485 0.403224 0.310733
O O18 0.366679 0.000000 0.910506
O O19 0.859955 0.500000 0.608282
#
# Coordination Sequence:
#
# PCOD9171374 Si02
#       8
#     8   8   8   8   8   8   8   8
#     4   8  13  22  37  63  96 127 156 185 228 280
#     4   9  15  26  45  68  92 121 155 194 239 277
#     4  11  22  33  45  62  95 127 159 194 232 282
#     4  10  20  34  52  68  88 118 160 208 242 274
#     4  10  19  28  42  67  97 132 162 184 223 284
#     4   8  12  21  39  62  95 126 148 190 237 274
#     4  10  18  28  41  65  98 128 157 182 219 276
#     4  10  22  35  46  65  87 118 162 199 241 277
#
# _framework density 16.950970000000002
#
# number of rings (size 3 to 8) (size 9 to 14) (size 15 to 20)
#    0.000    2.500    2.500    2.250    3.500    2.500 
#    0.000    0.000    0.000    0.000    0.000    1.750 
#    0.000    5.000    0.000    0.000    0.000    0.000 
#
# Total GULP energy -178210.274618 kJ/mol
# GULP energy per Si atom -5569.071082 kJ/mol
# Density = 1.691239 g / cm^3
# Si number density = 16.950970 Si / 1000 Ang^3
#
#
#
# Elastic Constant Matrix: (Units=GPa)
#
#
# Indices 1 2 3 4 5 6 
#
# 1 45.2888 13.0635 22.5374 0.0000 13.0317 0.0000
# 2 13.0635 20.6680 12.9108 0.0000 -4.3874 0.0000
# 3 22.5374 12.9108 132.0584 0.0000 5.5656 0.0000
# 4 0.0000 0.0000 0.0000 2.8749 0.0000 -1.8661
# 5 13.0317 -4.3874 5.5656 0.0000 27.6206 0.0000
# 6 0.0000 0.0000 0.0000 -1.8661 0.0000 14.3018
#
#
#
# Elastic Compliance Matrix: (Units=1/GPa)
#
#
# Indices 1 2 3 4 5 6 
#
# 1 0.037125 -0.026135 -0.002892 0.000000 -0.021085 0.000000
# 2 -0.026135 0.072400 -0.003653 0.000000 0.024567 0.000000
# 3 -0.002892 -0.003653 0.008462 0.000000 -0.000921 0.000000
# 4 0.000000 0.000000 0.000000 0.380024 0.000000 0.049585
# 5 -0.021085 0.024567 -0.000921 0.000000 0.050241 0.000000
# 6 0.000000 0.000000 0.000000 0.049585 0.000000 0.076391
#
#
# Mechanical properties :
#
#
# Convention : Reuss Voigt Hill
#
# Bulk Modulus (GPa) = 19.00178 32.78207 25.89193
# Shear Modulus (GPa) = 7.06667 18.92636 12.99652
#
# Velocity S-wave (km/s) = 2.04400 3.34509 2.77196
# Velocity P-wave (km/s) = 4.09936 5.85669 5.05498
#
# Compressibility (1/GPa) = 0.05262664
#
# Stress axis : x y z
#
# Youngs Moduli (GPa) = 26.93571 13.81213 118.17555
#
# Poissons Ratio (x) = 0.36098 0.34179
# Poissons Ratio (y) = 0.70396 0.43174
# Poissons Ratio (z) = 0.07790 0.05046
#
# Static dielectric constant tensor:
#      x y z
#    x 1.596650 0.000000 0.020840 
#    y 0.000000 1.587080 0.000000 
#    z 0.020840 0.000000 1.605980 
# 
# From -- ./inp_files/215947.got.cif
#   From: 2010.05.17/outbox.cif.g08.bks.cpg/sg12_108_cif.got.tgz:215947.got - 2010.06.03 13:09:07.
