data_PCOD9171967
_publ_section_title
;
Structure prediction by ZEFSAII (Michael W. Deem and Ramdas Pophale) SiO2 
 PCOD9171967
Probable space group: C 2/M
;
_chemical_formula_sum "Si O2"
_cell_formula_units_Z 48
_cell_length_a 21.416612
_cell_length_b 7.646180
_cell_length_c 29.607544
_cell_angle_alpha 90.000000
_cell_angle_beta 31.912039
_cell_angle_gamma 90.000000
_cell_volume 2562.940692
_symmetry_space_group_name_H-M "C 2/M"
_symmetry_group_IT_number 12
_symmetry_cell_setting 'monoclinic'
loop_
_space_group_symop_operation_xyz
x,y,z
-x,y,-z
-x,-y,-z
x,-y,z
1/2+x,1/2+y,z
1/2-x,1/2+y,-z
1/2-x,1/2-y,-z
1/2+x,1/2-y,z
loop_
_atom_site_type_symbol
_atom_site_label
_atom_site_fract_x
_atom_site_fract_y
_atom_site_fract_z
Si Si1 0.621650 0.710313 0.058327
Si Si2 0.420240 0.791153 0.403392
Si Si3 0.603277 0.706513 0.967904
Si Si4 0.258181 0.299823 0.418577
Si Si5 0.971535 0.214837 0.233826
Si Si6 0.863994 0.791599 0.783477
O O1 0.612678 0.500000 0.062280
O O2 0.522569 0.771986 0.154554
O O3 0.750000 0.750000 0.000000
O O4 0.609727 0.780034 0.014830
O O5 0.346848 0.704439 0.407473
O O6 0.362353 0.726346 0.485820
O O7 0.556348 0.758439 0.308457
O O8 0.399374 0.000000 0.413662
O O9 0.579037 0.500000 0.987903
O O10 0.731351 0.724675 0.866628
O O11 0.500000 0.781485 0.000000
O O12 0.233206 0.500000 0.420980
O O13 0.340981 0.222511 0.328600
O O14 0.064117 0.270544 0.216062
O O15 0.968970 0.000000 0.236349
O O16 0.859462 0.000000 0.788684
#
# Coordination Sequence:
#
# PCOD9171967 Si02
#       6
#     8   8   8   8   8   8
#     4  10  18  30  48  68  92 121 154 189 228 274
#     4   9  15  23  38  60  88 119 147 181 227 276
#     4  10  21  34  47  67  95 124 155 193 234 274
#     4   8  14  24  37  58  89 119 147 181 224 274
#     4   8  14  25  42  64  88 115 147 183 223 265
#     4  10  18  29  45  64  88 119 155 192 228 273
#
# _framework density 18.728486
#
# number of rings (size 3 to 8) (size 9 to 14) (size 15 to 20)
#    0.000    2.833    1.667    2.000    0.000    1.000 
#    0.000    0.000    0.000    0.000    0.000    1.167 
#    0.000    9.333    0.000    0.000    0.000    0.000 
#
# Total GULP energy -133639.714963 kJ/mol
# GULP energy per Si atom -5568.321457 kJ/mol
# Density = 1.868586 g / cm^3
# Si number density = 18.728486 Si / 1000 Ang^3
#
#
#
# Elastic Constant Matrix: (Units=GPa)
#
#
# Indices 1 2 3 4 5 6 
#
# 1 77.3202 6.5684 74.1833 -0.0040 2.6854 0.0144
# 2 6.5684 41.6432 -11.3328 0.0081 2.5098 0.0137
# 3 74.1833 -11.3328 191.0573 0.0033 26.6793 0.0001
# 4 -0.0040 0.0081 0.0033 16.0422 0.0027 -2.7353
# 5 2.6854 2.5098 26.6793 0.0027 16.6080 -0.0118
# 6 0.0144 0.0137 0.0001 -2.7353 -0.0118 6.5870
#
#
#
# Elastic Compliance Matrix: (Units=1/GPa)
#
#
# Indices 1 2 3 4 5 6 
#
# 1 0.025371 -0.008574 -0.012850 0.000010 0.017836 -0.000002
# 2 -0.008574 0.028105 0.006956 -0.000028 -0.014035 -0.000077
# 3 -0.012850 0.006956 0.013527 -0.000011 -0.020704 -0.000028
# 4 0.000010 -0.000028 -0.000011 0.067086 0.000029 0.027858
# 5 0.017836 -0.014035 -0.020704 0.000029 0.092708 0.000168
# 6 -0.000002 -0.000077 -0.000028 0.027858 0.000168 0.163383
#
#
# Mechanical properties :
#
#
# Convention : Reuss Voigt Hill
#
# Bulk Modulus (GPa) = 26.26964 49.87318 38.07141
# Shear Modulus (GPa) = 11.57933 23.88755 17.73344
#
# Velocity S-wave (km/s) = 2.48921 3.57524 3.08046
# Velocity P-wave (km/s) = 4.72425 6.61291 5.74670
#
# Compressibility (1/GPa) = 0.03806675
#
# Stress axis : x y z
#
# Youngs Moduli (GPa) = 39.41523 35.58121 73.92569
#
# Poissons Ratio (x) = 0.30506 0.94996
# Poissons Ratio (y) = 0.33794 -0.51422
# Poissons Ratio (z) = 0.50649 -0.24750
#
# Static dielectric constant tensor:
#      x y z
#    x 1.615610 0.000000 0.031690 
#    y 0.000000 1.696230 0.000000 
#    z 0.031690 0.000000 1.718160 
# 
# From -- ./inp_files/313576.got.cif
#   From: 2010.05.17/outbox.cif.g08.bks.cpg/sg12_157_cif.got.tgz:313576.got - 2010.06.03 13:09:07.
