data_PCOD9171643
_publ_section_title
;
Structure prediction by ZEFSAII (Michael W. Deem and Ramdas Pophale) SiO2 
 PCOD9171643
Probable space group: C 2/M
;
_chemical_formula_sum "Si O2"
_cell_formula_units_Z 48
_cell_length_a 15.624843
_cell_length_b 18.334557
_cell_length_c 9.992499
_cell_angle_alpha 90.000000
_cell_angle_beta 98.980779
_cell_angle_gamma 90.000000
_cell_volume 2827.503649
_symmetry_space_group_name_H-M "C 2/M"
_symmetry_group_IT_number 12
_symmetry_cell_setting 'monoclinic'
loop_
_space_group_symop_operation_xyz
x,y,z
-x,y,-z
-x,-y,-z
x,-y,z
1/2+x,1/2+y,z
1/2-x,1/2+y,-z
1/2-x,1/2-y,-z
1/2+x,1/2-y,z
loop_
_atom_site_type_symbol
_atom_site_label
_atom_site_fract_x
_atom_site_fract_y
_atom_site_fract_z
Si Si1 0.956238 0.085417 0.845101
Si Si2 0.264491 0.586514 0.727568
Si Si3 0.941661 0.825022 0.352506
Si Si4 0.586800 0.154330 0.679094
Si Si5 0.086606 0.412994 0.379870
Si Si6 0.779321 0.086143 0.411998
O O1 0.854333 0.104428 0.822172
O O2 0.006388 0.134914 0.751875
O O3 0.961158 0.000000 0.804002
O O4 0.000000 0.092022 0.000000
O O5 0.247323 0.500000 0.735173
O O6 0.179327 0.628312 0.756509
O O7 0.279913 0.600731 0.572497
O O8 0.924515 0.740509 0.317662
O O9 0.851641 0.865981 0.359343
O O10 0.000000 0.829224 0.500000
O O11 0.499603 0.116027 0.713083
O O12 0.589743 0.126964 0.524740
O O13 0.079861 0.500000 0.400608
O O14 0.180889 0.399208 0.339637
O O15 0.797504 0.000000 0.398692
#
# Coordination Sequence:
#
# PCOD9171643 Si02
#       6
#     8   8   8   8   8   8
#     4  10  22  39  56  73  98 137 180 215 252 305
#     4   9  17  31  52  74 100 135 174 210 247 298
#     4  12  21  31  50  80 111 133 161 212 265 309
#     4  10  18  28  45  77 106 137 166 201 257 305
#     4   9  16  29  46  70 110 141 167 204 249 301
#     4   9  18  29  46  72 100 134 167 204 253 299
#
# _framework density 16.976106000000001
#
# number of rings (size 3 to 8) (size 9 to 14) (size 15 to 20)
#    0.000    2.167    3.333    3.500    0.000    4.667 
#    0.000    0.833    0.000    0.000    0.000    0.000 
#    0.000   11.333    0.000    0.000    0.000    0.000 
#
# Total GULP energy -133763.464716 kJ/mol
# GULP energy per Si atom -5573.477696 kJ/mol
# Density = 1.693747 g / cm^3
# Si number density = 16.976106 Si / 1000 Ang^3
#
#
#
# Elastic Constant Matrix: (Units=GPa)
#
#
# Indices 1 2 3 4 5 6 
#
# 1 184.9994 85.6488 35.0610 0.0000 17.6723 0.0000
# 2 85.6488 102.0913 29.6321 0.0000 2.8978 0.0000
# 3 35.0610 29.6321 28.6721 0.0000 9.5318 0.0000
# 4 0.0000 0.0000 0.0000 -0.8087 0.0000 -24.9703
# 5 17.6723 2.8978 9.5318 0.0000 11.6459 0.0000
# 6 0.0000 0.0000 0.0000 -24.9703 0.0000 28.1353
#
#
#
# Elastic Compliance Matrix: (Units=1/GPa)
#
#
# Indices 1 2 3 4 5 6 
#
# 1 0.010760 -0.008892 0.000996 0.000000 -0.014930 0.000000
# 2 -0.008892 0.022554 -0.020684 0.000000 0.024811 0.000000
# 3 0.000996 -0.020684 0.073948 0.000000 -0.056889 0.000000
# 4 0.000000 0.000000 0.000000 -0.043535 0.000000 -0.038638
# 5 -0.014930 0.024811 -0.056889 0.000000 0.148911 0.000000
# 6 0.000000 0.000000 0.000000 -0.038638 0.000000 0.001251
#
#
# Mechanical properties :
#
#
# Convention : Reuss Voigt Hill
#
# Bulk Modulus (GPa) = 19.95945 68.49407 44.22676
# Shear Modulus (GPa) = 17.37614 18.82255 18.09934
#
# Velocity S-wave (km/s) = 3.20279 3.33343 3.26876
# Velocity P-wave (km/s) = 5.04580 7.43307 6.35258
#
# Compressibility (1/GPa) = 0.05010158
#
# Stress axis : x y z
#
# Youngs Moduli (GPa) = 92.94040 44.33719 13.52294
#
# Poissons Ratio (x) = 0.39424 -0.01347
# Poissons Ratio (y) = 0.82642 0.27971
# Poissons Ratio (z) = -0.09256 0.91709
#
# Static dielectric constant tensor:
#      x y z
#    x 1.625540 0.000000 0.023900 
#    y 0.000000 1.559800 0.000000 
#    z 0.023900 0.000000 1.550040 
# 
# From -- ./inp_files/61690.got.cif
#   From: 2010.05.17/outbox.cif.g08.bks.cpg/sg12_31_cif.got.tgz:61690.got - 2010.06.03 13:09:07.
