data_PCOD9171424
_publ_section_title
;
Structure prediction by ZEFSAII (Michael W. Deem and Ramdas Pophale) SiO2 
 PCOD9171424
Probable space group: C 2/M
;
_chemical_formula_sum "Si O2"
_cell_formula_units_Z 58
_cell_length_a 18.068360
_cell_length_b 9.936194
_cell_length_c 27.626417
_cell_angle_alpha 90.000000
_cell_angle_beta 150.475760
_cell_angle_gamma 90.000000
_cell_volume 2444.143925
_symmetry_space_group_name_H-M "C 2/M"
_symmetry_group_IT_number 12
_symmetry_cell_setting 'monoclinic'
loop_
_space_group_symop_operation_xyz
x,y,z
-x,y,-z
-x,-y,-z
x,-y,z
1/2+x,1/2+y,z
1/2-x,1/2+y,-z
1/2-x,1/2-y,-z
1/2+x,1/2-y,z
loop_
_atom_site_type_symbol
_atom_site_label
_atom_site_fract_x
_atom_site_fract_y
_atom_site_fract_z
Si Si1 0.000000 0.000000 0.000000
Si Si2 0.688581 0.154917 0.679680
Si Si3 0.182171 0.854507 0.594474
Si Si4 0.519539 0.345580 0.723126
Si Si5 0.571230 0.653291 0.431692
Si Si6 0.890528 0.351145 0.031333
Si Si7 0.831303 0.241670 0.857567
Si Si8 0.889433 0.342844 0.142121
O O1 0.122568 0.118779 0.082496
O O2 0.734359 0.233804 0.657559
O O3 0.541189 0.229958 0.616037
O O4 0.801495 0.173666 0.788215
O O5 0.661246 0.000000 0.653643
O O6 0.000000 0.858580 0.500000
O O7 0.196160 0.844111 0.544658
O O8 0.244246 0.000000 0.645634
O O9 0.508748 0.500000 0.734407
O O10 0.406392 0.331462 0.612892
O O11 0.684582 0.318559 0.793084
O O12 0.514832 0.237386 0.763493
O O13 0.505181 0.500000 0.398574
O O14 0.820196 0.500000 0.987149
O O15 0.944125 0.337195 0.117513
O O16 0.028678 0.337679 0.073640
O O17 0.769662 0.235802 0.951816
O O18 0.872889 0.500000 0.145220
#
# Coordination Sequence:
#
# PCOD9171424 Si02
#       8
#     2   8   8   8   8   8   8   8
#     4  12  24  36  46  76 102 140 170 210 280 304
#     4  10  18  28  42  70 102 130 169 214 261 310
#     4   8  14  26  44  65  95 136 173 204 250 310
#     4  10  20  34  54  80 108 139 176 220 263 310
#     4   8  16  29  45  68 101 138 173 207 252 311
#     4  10  22  40  57  75  99 138 184 222 261 313
#     4  11  23  35  54  74 106 140 179 217 261 318
#     4  10  22  37  56  77 104 136 173 221 271 318
#
# _framework density 23.73019
#
# number of rings (size 3 to 8) (size 9 to 14) (size 15 to 20)
#    0.000    2.345    0.690    2.897    3.862    5.241 
#    0.000    2.069    0.000    0.000    0.000    0.966 
#    0.000    0.000    0.000    0.000    0.000    0.000 
#
# Total GULP energy -161733.180638 kJ/mol
# GULP energy per Si atom -5577.006229 kJ/mol
# Density = 2.367618 g / cm^3
# Si number density = 23.730190 Si / 1000 Ang^3
#
#
#
# Elastic Constant Matrix: (Units=GPa)
#
#
# Indices 1 2 3 4 5 6 
#
# 1 87.3701 55.2531 17.8351 0.0000 -15.5509 0.0000
# 2 55.2531 222.5814 55.4511 -0.0001 -32.0545 0.0000
# 3 17.8351 55.4511 84.0908 0.0001 -41.1594 0.0001
# 4 0.0000 -0.0001 0.0001 22.6885 0.0001 -9.9540
# 5 -15.5509 -32.0545 -41.1594 0.0001 43.8738 0.0000
# 6 0.0000 0.0000 0.0001 -9.9540 0.0000 20.7271
#
#
#
# Elastic Compliance Matrix: (Units=1/GPa)
#
#
# Indices 1 2 3 4 5 6 
#
# 1 0.013878 -0.003157 0.000771 0.000000 0.003336 0.000000
# 2 -0.003157 0.006123 -0.003192 0.000000 0.000360 0.000000
# 3 0.000771 -0.003192 0.023715 0.000000 0.020189 0.000000
# 4 0.000000 0.000000 0.000000 0.055840 0.000000 0.026817
# 5 0.003336 0.000360 0.020189 0.000000 0.043178 0.000000
# 6 0.000000 0.000000 0.000000 0.026817 0.000000 0.061125
#
#
# Mechanical properties :
#
#
# Convention : Reuss Voigt Hill
#
# Bulk Modulus (GPa) = 30.71125 72.34675 51.52900
# Shear Modulus (GPa) = 22.13668 35.15807 28.64737
#
# Velocity S-wave (km/s) = 3.05757 3.85330 3.47827
# Velocity P-wave (km/s) = 5.04331 7.09582 6.15571
#
# Compressibility (1/GPa) = 0.03256136
#
# Stress axis : x y z
#
# Youngs Moduli (GPa) = 72.05493 163.30558 42.16739
#
# Poissons Ratio (x) = 0.51552 -0.03251
# Poissons Ratio (y) = 0.22746 0.13460
# Poissons Ratio (z) = -0.05556 0.52127
#
# Static dielectric constant tensor:
#      x y z
#    x 1.938670 0.000000 -0.007400 
#    y 0.000000 1.837600 0.000000 
#    z -0.007400 0.000000 1.969770 
# 
# From -- ./inp_files/382078.got.cif
#   From: 2010.05.17/outbox.cif.g08.bks.cpg/sg12_192_cif.got.tgz:382078.got - 2010.06.03 13:09:07.
