data_PCOD9171458
_publ_section_title
;
Structure prediction by ZEFSAII (Michael W. Deem and Ramdas Pophale) SiO2 
 PCOD9171458
Probable space group: C 2/M
;
_chemical_formula_sum "Si O2"
_cell_formula_units_Z 64
_cell_length_a 28.067280
_cell_length_b 8.988173
_cell_length_c 16.717163
_cell_angle_alpha 90.000000
_cell_angle_beta 86.092755
_cell_angle_gamma 90.000000
_cell_volume 4207.495970
_symmetry_space_group_name_H-M "C 2/M"
_symmetry_group_IT_number 12
_symmetry_cell_setting 'monoclinic'
loop_
_space_group_symop_operation_xyz
x,y,z
-x,y,-z
-x,-y,-z
x,-y,z
1/2+x,1/2+y,z
1/2-x,1/2+y,-z
1/2-x,1/2-y,-z
1/2+x,1/2-y,z
loop_
_atom_site_type_symbol
_atom_site_label
_atom_site_fract_x
_atom_site_fract_y
_atom_site_fract_z
Si Si1 0.291763 0.329213 0.600503
Si Si2 0.478575 0.830059 0.912226
Si Si3 0.418847 0.821050 0.146684
Si Si4 0.740722 0.177326 0.240028
Si Si5 0.789387 0.678909 0.937557
Si Si6 0.888084 0.177259 0.981613
Si Si7 0.680340 0.828882 0.558105
Si Si8 0.651312 0.677717 0.720177
O O1 0.307163 0.500000 0.601119
O O2 0.289999 0.257787 0.688276
O O3 0.320874 0.239404 0.530316
O O4 0.236316 0.326389 0.577677
O O5 0.524475 0.786740 0.854513
O O6 0.433094 0.724161 0.921404
O O7 0.463910 0.000000 0.895316
O O8 0.500000 0.831831 0.000000
O O9 0.388853 0.760349 0.224207
O O10 0.414585 0.000000 0.139195
O O11 0.398802 0.744098 0.068491
O O12 0.724589 0.213325 0.152451
O O13 0.796649 0.214530 0.247413
O O14 0.736516 0.000000 0.252531
O O15 0.790190 0.500000 0.946790
O O16 0.840265 0.748257 0.953943
O O17 0.750000 0.750000 0.000000
O O18 0.883432 0.000000 0.987138
O O19 0.653648 0.733657 0.628604
O O20 0.664640 0.000000 0.560986
O O21 0.645177 0.500000 0.724584
#
# Coordination Sequence:
#
# PCOD9171458 Si02
#       8
#     8   8   8   8   8   8   8   8
#     4   9  16  26  42  61  81 109 145 184 220 255
#     4   8  16  31  48  65  85 111 144 182 224 269
#     4  10  19  31  47  66  89 117 148 182 225 272
#     4   9  19  32  44  60  84 117 152 185 220 260
#     4  11  22  35  49  65  89 120 155 191 226 263
#     4  11  21  32  47  66  88 116 151 188 226 265
#     4   9  16  26  40  59  85 116 146 175 214 263
#     4  10  18  28  43  65  92 117 147 184 221 264
#
# _framework density 15.210947000000001
#
# number of rings (size 3 to 8) (size 9 to 14) (size 15 to 20)
#    0.000    2.375    0.000    4.500    0.000    8.250 
#    0.000    0.000    0.000    0.000    0.000    0.000 
#    0.000    1.000    0.000   10.500    0.000    5.500 
#
# Total GULP energy -178408.123605 kJ/mol
# GULP energy per Si atom -5575.253863 kJ/mol
# Density = 1.517633 g / cm^3
# Si number density = 15.210947 Si / 1000 Ang^3
#
#
#
# Elastic Constant Matrix: (Units=GPa)
#
#
# Indices 1 2 3 4 5 6 
#
# 1 73.4610 47.1309 49.5335 0.0000 -15.4568 0.0000
# 2 47.1309 87.4733 61.5112 0.0000 -9.3206 0.0000
# 3 49.5335 61.5112 110.1038 0.0000 -16.4317 0.0000
# 4 0.0000 0.0000 0.0000 28.9417 0.0000 -6.3087
# 5 -15.4568 -9.3206 -16.4317 0.0000 18.1848 0.0000
# 6 0.0000 0.0000 0.0000 -6.3087 0.0000 19.2832
#
#
#
# Elastic Compliance Matrix: (Units=1/GPa)
#
#
# Indices 1 2 3 4 5 6 
#
# 1 0.025021 -0.009133 -0.004252 0.000000 0.012744 0.000000
# 2 -0.009133 0.022164 -0.008942 0.000000 -0.004483 0.000000
# 3 -0.004252 -0.008942 0.017069 0.000000 0.007226 0.000000
# 4 0.000000 0.000000 0.000000 0.037206 0.000000 0.012172
# 5 0.012744 -0.004483 0.007226 0.000000 0.070055 0.000000
# 6 0.000000 0.000000 0.000000 0.012172 0.000000 0.055841
#
#
# Mechanical properties :
#
#
# Convention : Reuss Voigt Hill
#
# Bulk Modulus (GPa) = 51.02384 65.26546 58.14465
# Shear Modulus (GPa) = 17.95051 20.80610 19.37831
#
# Velocity S-wave (km/s) = 3.43899 3.70244 3.57315
# Velocity P-wave (km/s) = 7.02751 7.82799 7.43853
#
# Compressibility (1/GPa) = 0.01959868
#
# Stress axis : x y z
#
# Youngs Moduli (GPa) = 39.96647 45.11901 58.58455
#
# Poissons Ratio (x) = 0.41209 0.24910
# Poissons Ratio (y) = 0.36503 0.52387
# Poissons Ratio (z) = 0.16994 0.40346
#
# Static dielectric constant tensor:
#      x y z
#    x 1.492580 0.000000 -0.014400 
#    y 0.000000 1.508030 0.000000 
#    z -0.014400 0.000000 1.498470 
# 
# From -- ./inp_files/244005.got.cif
#   From: 2010.05.17/outbox.cif.g08.bks.cpg/sg12_123_cif.got.tgz:244005.got - 2010.06.03 13:09:07.
