data_PCOD9171680
_publ_section_title
;
Structure prediction by ZEFSAII (Michael W. Deem and Ramdas Pophale) SiO2 
 PCOD9171680
Probable space group: C 2/M
;
_chemical_formula_sum "Si O2"
_cell_formula_units_Z 48
_cell_length_a 28.682135
_cell_length_b 9.029470
_cell_length_c 11.744740
_cell_angle_alpha 90.000000
_cell_angle_beta 77.473253
_cell_angle_gamma 90.000000
_cell_volume 2969.297136
_symmetry_space_group_name_H-M "C 2/M"
_symmetry_group_IT_number 12
_symmetry_cell_setting 'monoclinic'
loop_
_space_group_symop_operation_xyz
x,y,z
-x,y,-z
-x,-y,-z
x,-y,z
1/2+x,1/2+y,z
1/2-x,1/2+y,-z
1/2-x,1/2-y,-z
1/2+x,1/2-y,z
loop_
_atom_site_type_symbol
_atom_site_label
_atom_site_fract_x
_atom_site_fract_y
_atom_site_fract_z
Si Si1 0.277948 0.821999 0.150934
Si Si2 0.891488 0.321026 0.471106
Si Si3 0.707981 0.178643 0.595708
Si Si4 0.408762 0.677238 0.707145
Si Si5 0.677960 0.322124 0.087124
Si Si6 0.994391 0.329675 0.365174
O O1 0.287788 0.775154 0.274799
O O2 0.224016 0.782492 0.140523
O O3 0.282018 0.000000 0.143161
O O4 0.312998 0.751221 0.039553
O O5 0.893630 0.500000 0.484400
O O6 0.843275 0.282454 0.430794
O O7 0.893429 0.247037 0.594181
O O8 0.939860 0.278850 0.377430
O O9 0.750000 0.250000 0.500000
O O10 0.712592 0.000000 0.589305
O O11 0.408287 0.500000 0.697278
O O12 0.370292 0.722001 0.822767
O O13 0.462218 0.733378 0.704586
O O14 0.677904 0.500000 0.074759
O O15 0.999627 0.500000 0.324862
O O16 0.000000 0.328224 0.500000
#
# Coordination Sequence:
#
# PCOD9171680 Si02
#       6
#     8   8   8   8   8   8
#     4   9  18  32  48  66  89 118 152 186 220 264
#     4   9  18  31  46  66  95 126 151 182 226 273
#     4  10  20  33  49  70  95 122 152 185 224 271
#     4  10  18  28  46  71  95 118 150 191 230 269
#     4   9  18  31  46  66  92 118 146 186 230 267
#     4   8  15  28  44  64  91 121 152 186 225 268
#
# _framework density 16.165441000000001
#
# number of rings (size 3 to 8) (size 9 to 14) (size 15 to 20)
#    0.000    2.833    0.000    2.500    0.000    7.000 
#    0.000    3.333    0.000    1.000    0.000    7.000 
#    0.000    0.000    0.000    0.000    0.000    0.000 
#
# Total GULP energy -133732.610120 kJ/mol
# GULP energy per Si atom -5572.192088 kJ/mol
# Density = 1.612865 g / cm^3
# Si number density = 16.165441 Si / 1000 Ang^3
#
#
#
# Elastic Constant Matrix: (Units=GPa)
#
#
# Indices 1 2 3 4 5 6 
#
# 1 140.3553 38.1848 87.9693 0.0000 -20.6719 0.0000
# 2 38.1848 21.9228 39.3826 0.0000 -10.0477 0.0000
# 3 87.9693 39.3826 129.5155 0.0000 -20.2087 0.0000
# 4 0.0000 0.0000 0.0000 26.6336 0.0000 -6.8717
# 5 -20.6719 -10.0477 -20.2087 0.0000 29.9884 0.0000
# 6 0.0000 0.0000 0.0000 -6.8717 0.0000 22.8379
#
#
#
# Elastic Compliance Matrix: (Units=1/GPa)
#
#
# Indices 1 2 3 4 5 6 
#
# 1 0.014877 -0.016535 -0.004851 0.000000 0.001446 0.000000
# 2 -0.016535 0.124988 -0.024607 0.000000 0.013898 0.000000
# 3 -0.004851 -0.024607 0.018651 0.000000 0.000980 0.000000
# 4 0.000000 0.000000 0.000000 0.040707 0.000000 0.012248
# 5 0.001446 0.013898 0.000980 0.000000 0.039660 0.000000
# 6 0.000000 0.000000 0.000000 0.012248 0.000000 0.047472
#
#
# Mechanical properties :
#
#
# Convention : Reuss Voigt Hill
#
# Bulk Modulus (GPa) = 15.03056 69.20746 42.11901
# Shear Modulus (GPa) = 12.48386 24.30912 18.39649
#
# Velocity S-wave (km/s) = 2.78196 3.88206 3.37711
# Velocity P-wave (km/s) = 4.43139 7.93717 6.42791
#
# Compressibility (1/GPa) = 0.06653111
#
# Stress axis : x y z
#
# Youngs Moduli (GPa) = 67.21996 8.00075 53.61534
#
# Poissons Ratio (x) = 0.13229 0.26009
# Poissons Ratio (y) = 1.11145 1.31931
# Poissons Ratio (z) = 0.32609 0.19687
#
# Static dielectric constant tensor:
#      x y z
#    x 1.560760 0.000000 -0.008900 
#    y 0.000000 1.542480 0.000000 
#    z -0.008900 0.000000 1.512490 
# 
# From -- ./inp_files/179154.got.cif
#   From: 2010.05.17/outbox.cif.g08.bks.cpg/sg12_90_cif.got.tgz:179154.got - 2010.06.03 13:09:07.
