data_PCOD9171188
_publ_section_title
;
Structure prediction by ZEFSAII (Michael W. Deem and Ramdas Pophale) SiO2 
 PCOD9171188
Probable space group: C 2/M
;
_chemical_formula_sum "Si O2"
_cell_formula_units_Z 56
_cell_length_a 19.738946
_cell_length_b 7.400230
_cell_length_c 23.977689
_cell_angle_alpha 90.000000
_cell_angle_beta 44.964595
_cell_angle_gamma 90.000000
_cell_volume 2475.101257
_symmetry_space_group_name_H-M "C 2/M"
_symmetry_group_IT_number 12
_symmetry_cell_setting 'monoclinic'
loop_
_space_group_symop_operation_xyz
x,y,z
-x,y,-z
-x,-y,-z
x,-y,z
1/2+x,1/2+y,z
1/2-x,1/2+y,-z
1/2-x,1/2-y,-z
1/2+x,1/2-y,z
loop_
_atom_site_type_symbol
_atom_site_label
_atom_site_fract_x
_atom_site_fract_y
_atom_site_fract_z
Si Si1 0.270241 0.719278 0.078817
Si Si2 0.052436 0.779035 0.091399
Si Si3 0.548246 0.705501 0.214108
Si Si4 0.530213 0.711587 0.347422
Si Si5 0.785791 0.292561 0.685516
Si Si6 0.907428 0.718084 0.518102
Si Si7 0.632554 0.279310 0.861828
O O1 0.262206 0.500000 0.082587
O O2 0.163792 0.795142 0.142108
O O3 0.323736 0.773645 0.104693
O O4 0.340979 0.777672 0.988033
O O5 0.018996 0.714241 0.171633
O O6 0.975438 0.726857 0.089645
O O7 0.054157 0.000000 0.092245
O O8 0.510734 0.500000 0.237002
O O9 0.523674 0.786748 0.288635
O O10 0.553978 0.500000 0.328871
O O11 0.618503 0.793438 0.331258
O O12 0.433614 0.729726 0.440068
O O13 0.757959 0.500000 0.691203
O O14 0.817690 0.215657 0.606957
O O15 0.701761 0.213583 0.771855
O O16 0.905266 0.500000 0.520813
O O17 0.000000 0.778588 0.500000
O O18 0.634674 0.500000 0.860950
#
# Coordination Sequence:
#
# PCOD9171188 Si02
#       7
#     8   8   8   8   8   8   8
#     4  10  18  30  52  74  90 116 158 202 235 265
#     4   9  18  31  47  70  96 122 155 194 232 273
#     4  10  20  32  46  67  98 129 154 185 230 281
#     4  10  18  27  42  65  92 123 154 182 221 273
#     4   9  16  28  46  69  92 115 147 190 235 269
#     4   8  15  26  42  65  92 116 144 188 233 268
#     4   9  16  28  49  73  94 117 153 197 234 269
#
# _framework density 22.625336000000001
#
# number of rings (size 3 to 8) (size 9 to 14) (size 15 to 20)
#    0.000    2.714    1.429    2.143    0.000    4.857 
#    0.000    0.000    0.000    5.143    0.000    0.000 
#    0.000    0.000    0.000    0.000    0.000    1.429 
#
# Total GULP energy -156203.099760 kJ/mol
# GULP energy per Si atom -5578.682134 kJ/mol
# Density = 2.257384 g / cm^3
# Si number density = 22.625336 Si / 1000 Ang^3
#
#
#
# Elastic Constant Matrix: (Units=GPa)
#
#
# Indices 1 2 3 4 5 6 
#
# 1 51.3736 -9.1154 -5.3163 0.0002 15.9861 -0.0008
# 2 -9.1154 78.9781 -3.1006 0.0016 0.4833 -0.0012
# 3 -5.3163 -3.1006 109.9834 -0.0001 29.0957 -0.0004
# 4 0.0002 0.0016 -0.0001 18.9837 0.0000 1.8630
# 5 15.9861 0.4833 29.0957 0.0000 29.3857 -0.0001
# 6 -0.0008 -0.0012 -0.0004 1.8630 -0.0001 2.6070
#
#
#
# Elastic Compliance Matrix: (Units=1/GPa)
#
#
# Indices 1 2 3 4 5 6 
#
# 1 0.027917 0.003652 0.007433 -0.000002 -0.022607 0.000012
# 2 0.003652 0.013166 0.001532 -0.000002 -0.003720 0.000009
# 3 0.007433 0.001532 0.014323 -0.000001 -0.018250 0.000005
# 4 -0.000002 -0.000002 -0.000001 0.056650 0.000001 -0.040482
# 5 -0.022607 -0.003720 -0.018250 0.000001 0.064460 -0.000010
# 6 0.000012 0.000009 0.000005 -0.040482 -0.000010 0.412507
#
#
# Mechanical properties :
#
#
# Convention : Reuss Voigt Hill
#
# Bulk Modulus (GPa) = 12.40076 22.80782 17.60429
# Shear Modulus (GPa) = 8.46498 27.38644 17.92571
#
# Velocity S-wave (km/s) = 1.93636 3.48290 2.81781
# Velocity P-wave (km/s) = 3.23916 5.12608 4.28770
#
# Compressibility (1/GPa) = 0.08064023
#
# Stress axis : x y z
#
# Youngs Moduli (GPa) = 35.82035 75.95212 69.81894
#
# Poissons Ratio (x) = -0.27740 -0.51896
# Poissons Ratio (y) = -0.13083 -0.10695
# Poissons Ratio (z) = -0.26625 -0.11635
#
# Static dielectric constant tensor:
#      x y z
#    x 1.798230 0.000000 0.039990 
#    y 0.000000 1.862000 0.000000 
#    z 0.039990 0.000000 1.870850 
# 
# From -- ./inp_files/280144.got.cif
#   From: 2010.05.17/outbox.cif.g08.bks.cpg/sg12_141_cif.got.tgz:280144.got - 2010.06.03 13:09:07.
