data_PCOD9171956
_publ_section_title
;
Structure prediction by ZEFSAII (Michael W. Deem and Ramdas Pophale) SiO2 
 PCOD9171956
Probable space group: C 2/M
;
_chemical_formula_sum "Si O2"
_cell_formula_units_Z 56
_cell_length_a 24.893441
_cell_length_b 8.961358
_cell_length_c 22.656698
_cell_angle_alpha 90.000000
_cell_angle_beta 134.464166
_cell_angle_gamma 90.000000
_cell_volume 3607.149817
_symmetry_space_group_name_H-M "C 2/M"
_symmetry_group_IT_number 12
_symmetry_cell_setting 'monoclinic'
loop_
_space_group_symop_operation_xyz
x,y,z
-x,y,-z
-x,-y,-z
x,-y,z
1/2+x,1/2+y,z
1/2-x,1/2+y,-z
1/2-x,1/2-y,-z
1/2+x,1/2-y,z
loop_
_atom_site_type_symbol
_atom_site_label
_atom_site_fract_x
_atom_site_fract_y
_atom_site_fract_z
Si Si1 0.224810 0.678221 0.542049
Si Si2 0.580600 0.319431 0.488202
Si Si3 0.588280 0.319105 0.632926
Si Si4 0.748221 0.677756 0.790545
Si Si5 0.823551 0.323054 0.720137
Si Si6 0.886645 0.174834 0.950124
Si Si7 0.963638 0.823739 0.879699
O O1 0.224988 0.500000 0.538751
O O2 0.250000 0.750000 0.500000
O O3 0.142740 0.739246 0.497130
O O4 0.281447 0.734575 0.636570
O O5 0.587574 0.500000 0.488018
O O6 0.594050 0.282159 0.567759
O O7 0.494330 0.274659 0.408488
O O8 0.589305 0.500000 0.635696
O O9 0.662349 0.265305 0.723979
O O10 0.747737 0.500000 0.798472
O O11 0.780526 0.704882 0.749242
O O12 0.806709 0.746489 0.881761
O O13 0.820219 0.500000 0.706220
O O14 0.909013 0.267772 0.795194
O O15 0.925573 0.187586 0.915417
O O16 0.875422 0.000000 0.952739
O O17 0.950332 0.229301 0.045035
O O18 0.963759 0.000000 0.864514
#
# Coordination Sequence:
#
# PCOD9171956 Si02
#       7
#     8   8   8   8   8   8   8
#     4  12  24  36  49  65  88 117 152 193 232 269
#     4   9  16  31  50  66  87 117 152 185 224 268
#     4   8  14  26  47  68  90 120 149 181 221 270
#     4   9  15  24  40  63  89 117 150 181 213 261
#     4  10  18  29  45  63  85 113 150 187 223 267
#     4   8  14  23  35  54  83 118 148 178 216 257
#     4   8  14  25  38  54  81 115 149 180 217 262
#
# _framework density 15.524723
#
# number of rings (size 3 to 8) (size 9 to 14) (size 15 to 20)
#    0.000    2.857    1.429    3.429    0.000    1.143 
#    0.000    5.000    0.000    0.000    0.000    0.000 
#    0.000    1.143    0.000    3.429    0.000    5.286 
#
# Total GULP energy -155869.053979 kJ/mol
# GULP energy per Si atom -5566.751928 kJ/mol
# Density = 1.548939 g / cm^3
# Si number density = 15.524723 Si / 1000 Ang^3
#
#
#
# Elastic Constant Matrix: (Units=GPa)
#
#
# Indices 1 2 3 4 5 6 
#
# 1 80.9837 40.0967 59.3935 0.0000 24.2180 0.0000
# 2 40.0967 53.9237 45.8815 0.0000 10.5281 0.0000
# 3 59.3935 45.8815 100.7530 0.0000 46.7680 0.0000
# 4 0.0000 0.0000 0.0000 26.5251 0.0000 6.0134
# 5 24.2180 10.5281 46.7680 0.0000 30.6137 0.0000
# 6 0.0000 0.0000 0.0000 6.0134 0.0000 16.3103
#
#
#
# Elastic Compliance Matrix: (Units=1/GPa)
#
#
# Indices 1 2 3 4 5 6 
#
# 1 0.024592 -0.011059 -0.007549 0.000000 -0.004119 0.000000
# 2 -0.011059 0.054960 -0.047431 0.000000 0.062307 0.000000
# 3 -0.007549 -0.047431 0.088118 0.000000 -0.112333 0.000000
# 4 0.000000 0.000000 0.000000 0.041139 0.000000 -0.015167
# 5 -0.004119 0.062307 -0.112333 0.000000 0.186105 0.000000
# 6 0.000000 0.000000 0.000000 -0.015167 0.000000 0.066903
#
#
# Mechanical properties :
#
#
# Convention : Reuss Voigt Hill
#
# Bulk Modulus (GPa) = 28.09570 58.48931 43.29251
# Shear Modulus (GPa) = 8.25412 20.70905 14.48158
#
# Velocity S-wave (km/s) = 2.30831 3.65628 3.05750
# Velocity P-wave (km/s) = 5.02405 7.45528 6.35698
#
# Compressibility (1/GPa) = 0.03559263
#
# Stress axis : x y z
#
# Youngs Moduli (GPa) = 40.66439 18.19502 11.34840
#
# Poissons Ratio (x) = 0.20121 0.08567
# Poissons Ratio (y) = 0.44970 0.53827
# Poissons Ratio (z) = 0.30697 0.86301
#
# Static dielectric constant tensor:
#      x y z
#    x 1.506730 0.000000 0.038490 
#    y 0.000000 1.517810 0.000000 
#    z 0.038490 0.000000 1.541380 
# 
# From -- ./inp_files/323816.got.cif
#   From: 2010.05.17/outbox.cif.g08.bks.cpg/sg12_162_cif.got.tgz:323816.got - 2010.06.03 13:09:07.
