data_PCOD9171798
_publ_section_title
;
Structure prediction by ZEFSAII (Michael W. Deem and Ramdas Pophale) SiO2 
 PCOD9171798
Probable space group: C 2/M
;
_chemical_formula_sum "Si O2"
_cell_formula_units_Z 56
_cell_length_a 19.034543
_cell_length_b 8.909504
_cell_length_c 23.800332
_cell_angle_alpha 90.000000
_cell_angle_beta 52.339552
_cell_angle_gamma 90.000000
_cell_volume 3195.286012
_symmetry_space_group_name_H-M "C 2/M"
_symmetry_group_IT_number 12
_symmetry_cell_setting 'monoclinic'
loop_
_space_group_symop_operation_xyz
x,y,z
-x,y,-z
-x,-y,-z
x,-y,z
1/2+x,1/2+y,z
1/2-x,1/2+y,-z
1/2-x,1/2-y,-z
1/2+x,1/2-y,z
loop_
_atom_site_type_symbol
_atom_site_label
_atom_site_fract_x
_atom_site_fract_y
_atom_site_fract_z
Si Si1 0.445470 0.673203 0.291738
Si Si2 0.374393 0.672729 0.720814
Si Si3 0.069117 0.818059 0.135354
Si Si4 0.656987 0.178210 0.562607
Si Si5 0.499532 0.681131 0.434529
Si Si6 0.079882 0.182886 0.000619
Si Si7 0.724923 0.179402 0.134068
O O1 0.415688 0.500000 0.303348
O O2 0.535390 0.675482 0.285654
O O3 0.481099 0.724730 0.213712
O O4 0.374250 0.769880 0.360047
O O5 0.344348 0.500000 0.732818
O O6 0.409659 0.722786 0.642677
O O7 0.304134 0.769610 0.789431
O O8 0.154308 0.750694 0.125371
O O9 0.074955 0.000000 0.135821
O O10 0.067587 0.771689 0.071364
O O11 0.750000 0.250000 0.500000
O O12 0.581766 0.239719 0.557018
O O13 0.661669 0.000000 0.557658
O O14 0.500000 0.715889 0.500000
O O15 0.489996 0.500000 0.432395
O O16 0.176041 0.228676 0.930493
O O17 0.078765 0.000000 0.000726
O O18 0.000000 0.234842 0.000000
O O19 0.719631 0.000000 0.132602
#
# Coordination Sequence:
#
# PCOD9171798 Si02
#       7
#     8   8   8   8   8   8   8
#     4   8  15  29  48  70  94 123 161 200 242 288
#     4   8  15  29  49  71  97 127 157 194 241 291
#     4   9  17  31  52  72  92 122 159 199 240 285
#     4  11  21  33  51  74 102 133 166 205 246 291
#     4   9  18  34  54  74  99 132 166 201 247 299
#     4   9  18  32  48  68  96 129 160 191 235 287
#     4  10  18  28  48  74  96 121 159 204 238 275
#
# _framework density 17.525815999999999
#
# number of rings (size 3 to 8) (size 9 to 14) (size 15 to 20)
#    0.000    2.857    0.000    3.857    0.000    5.429 
#    0.000    2.143    0.000    5.571    0.000    0.000 
#    0.000    0.000    0.000    0.000    0.000    0.000 
#
# Total GULP energy -156022.736936 kJ/mol
# GULP energy per Si atom -5572.240605 kJ/mol
# Density = 1.748593 g / cm^3
# Si number density = 17.525816 Si / 1000 Ang^3
#
#
#
# Elastic Constant Matrix: (Units=GPa)
#
#
# Indices 1 2 3 4 5 6 
#
# 1 65.1110 31.8921 79.1703 0.0000 3.0064 0.0003
# 2 31.8921 48.0845 59.0043 0.0000 -3.6774 0.0005
# 3 79.1703 59.0043 206.9207 0.0000 8.7702 0.0000
# 4 0.0000 0.0000 0.0000 26.9548 0.0000 -2.8064
# 5 3.0064 -3.6774 8.7702 0.0000 24.6287 0.0000
# 6 0.0003 0.0005 0.0000 -2.8064 0.0000 15.1113
#
#
#
# Elastic Compliance Matrix: (Units=1/GPa)
#
#
# Indices 1 2 3 4 5 6 
#
# 1 0.031303 -0.009730 -0.009116 0.000000 -0.002028 0.000000
# 2 -0.009730 0.036711 -0.007136 0.000000 0.009210 -0.000001
# 3 -0.009116 -0.007136 0.010512 0.000000 -0.003696 0.000000
# 4 0.000000 0.000000 0.000000 0.037831 0.000000 0.007026
# 5 -0.002028 0.009210 -0.003696 0.000000 0.043542 0.000000
# 6 0.000000 -0.000001 0.000000 0.007026 0.000000 0.067481
#
#
# Mechanical properties :
#
#
# Convention : Reuss Voigt Hill
#
# Bulk Modulus (GPa) = 37.64846 73.36105 55.50476
# Shear Modulus (GPa) = 17.34926 23.34225 20.34575
#
# Velocity S-wave (km/s) = 3.14972 3.65345 3.41090
# Velocity P-wave (km/s) = 5.89542 7.72960 6.87396
#
# Compressibility (1/GPa) = 0.02656151
#
# Stress axis : x y z
#
# Youngs Moduli (GPa) = 31.94632 27.23987 95.12765
#
# Poissons Ratio (x) = 0.26505 0.86720
# Poissons Ratio (y) = 0.31084 0.67881
# Poissons Ratio (z) = 0.29123 0.19438
#
# Static dielectric constant tensor:
#      x y z
#    x 1.573990 0.000000 0.019850 
#    y 0.000000 1.589440 0.000000 
#    z 0.019850 0.000000 1.632980 
# 
# From -- ./inp_files/342350.got.cif
#   From: 2010.05.17/outbox.cif.g08.bks.cpg/sg12_172_cif.got.tgz:342350.got - 2010.06.03 13:09:07.
