data_PCOD9171543
_publ_section_title
;
Structure prediction by ZEFSAII (Michael W. Deem and Ramdas Pophale) SiO2 
 PCOD9171543
Probable space group: C 2/M
;
_chemical_formula_sum "Si O2"
_cell_formula_units_Z 40
_cell_length_a 30.157327
_cell_length_b 13.694436
_cell_length_c 9.880756
_cell_angle_alpha 90.000000
_cell_angle_beta 27.829389
_cell_angle_gamma 90.000000
_cell_volume 1905.002371
_symmetry_space_group_name_H-M "C 2/M"
_symmetry_group_IT_number 12
_symmetry_cell_setting 'monoclinic'
loop_
_space_group_symop_operation_xyz
x,y,z
-x,y,-z
-x,-y,-z
x,-y,z
1/2+x,1/2+y,z
1/2-x,1/2+y,-z
1/2-x,1/2-y,-z
1/2+x,1/2-y,z
loop_
_atom_site_type_symbol
_atom_site_label
_atom_site_fract_x
_atom_site_fract_y
_atom_site_fract_z
Si Si1 0.226664 0.886428 0.637466
Si Si2 0.556617 0.000000 0.707500
Si Si3 0.938788 0.707450 0.305046
Si Si4 0.416963 0.000000 0.831249
Si Si5 0.126377 0.301667 0.955315
Si Si6 0.112546 0.896197 0.663062
O O1 0.176704 0.800238 0.858011
O O2 0.324590 0.841549 0.316149
O O3 0.163985 0.888431 0.668316
O O4 0.234561 0.000000 0.661343
O O5 0.610330 0.102247 0.548487
O O6 0.472650 0.000000 0.823695
O O7 0.500000 0.000000 0.000000
O O8 0.873284 0.801400 0.466289
O O9 0.000000 0.703864 0.000000
O O10 0.016464 0.717741 0.214890
O O11 0.500000 0.000000 0.500000
O O12 0.363560 0.895920 0.974161
O O13 0.139373 0.000000 0.527622
O O14 0.000000 0.899500 0.000000
#
# Coordination Sequence:
#
# PCOD9171543 Si02
#       6
#     8   4   8   4   8   8
#     4  10  18  28  44  69 105 131 160 213 263 301
#     4   8  16  26  46  68  96 121 150 215 253 284
#     4   9  14  25  37  61  94 121 152 193 244 300
#     4  10  20  34  50  72 105 139 173 207 250 318
#     4  10  18  29  45  68 100 135 167 205 260 301
#     4   9  15  24  38  61  96 127 152 191 253 307
#
# _framework density 20.997349
#
# number of rings (size 3 to 8) (size 9 to 14) (size 15 to 20)
#    0.000    2.600    5.000    0.000    0.000    0.000 
#    0.000    0.000    0.000    0.600    0.000    5.600 
#    0.000    0.000    0.000    0.000    0.000    0.000 
#
# Total GULP energy -111369.092080 kJ/mol
# GULP energy per Si atom -5568.454604 kJ/mol
# Density = 2.094956 g / cm^3
# Si number density = 20.997349 Si / 1000 Ang^3
#
#
#
# Elastic Constant Matrix: (Units=GPa)
#
#
# Indices 1 2 3 4 5 6 
#
# 1 44.4520 5.4561 5.5157 0.0000 -19.6824 0.0000
# 2 5.4561 274.7023 21.1182 0.0000 -9.4210 0.0000
# 3 5.5157 21.1182 29.6017 0.0000 -1.8340 0.0000
# 4 0.0000 0.0000 0.0000 15.4354 0.0000 -11.1728
# 5 -19.6824 -9.4210 -1.8340 0.0000 13.1025 0.0000
# 6 0.0000 0.0000 0.0000 -11.1728 0.0000 18.8222
#
#
#
# Elastic Compliance Matrix: (Units=1/GPa)
#
#
# Indices 1 2 3 4 5 6 
#
# 1 0.070484 0.002923 -0.008603 0.000000 0.106778 0.000000
# 2 0.002923 0.004049 -0.003007 0.000000 0.006882 0.000000
# 3 -0.008603 -0.003007 0.036916 0.000000 -0.009919 0.000000
# 4 0.000000 0.000000 0.000000 0.113594 0.000000 0.067429
# 5 0.106778 0.006882 -0.009919 0.000000 0.240282 0.000000
# 6 0.000000 0.000000 0.000000 0.067429 0.000000 0.093155
#
#
# Mechanical properties :
#
#
# Convention : Reuss Voigt Hill
#
# Bulk Modulus (GPa) = 10.62989 45.88181 28.25585
# Shear Modulus (GPa) = 8.23435 30.58309 19.40872
#
# Velocity S-wave (km/s) = 1.98245 3.82058 3.04360
# Velocity P-wave (km/s) = 3.21149 6.43126 5.08305
#
# Compressibility (1/GPa) = 0.09407432
#
# Stress axis : x y z
#
# Youngs Moduli (GPa) = 14.18767 246.94673 27.08868
#
# Poissons Ratio (x) = -0.72193 0.23306
# Poissons Ratio (y) = -0.04148 0.08146
# Poissons Ratio (z) = 0.12206 0.74263
#
# Static dielectric constant tensor:
#      x y z
#    x 1.784560 0.000000 -0.060300 
#    y 0.000000 1.939770 0.000000 
#    z -0.060300 0.000000 1.729080 
# 
# From -- ./inp_files/111873.got.cif
#   From: 2010.05.17/outbox.cif.g08.bks.cpg/sg12_56_cif.got.tgz:111873.got - 2010.06.03 13:09:07.
