data_PCOD9171018
_publ_section_title
;
Structure prediction by ZEFSAII (Michael W. Deem and Ramdas Pophale) SiO2 
 PCOD9171018
Probable space group: C 2/M
;
_chemical_formula_sum "Si O2"
_cell_formula_units_Z 52
_cell_length_a 17.175014
_cell_length_b 11.580285
_cell_length_c 21.360666
_cell_angle_alpha 90.000000
_cell_angle_beta 149.616470
_cell_angle_gamma 90.000000
_cell_volume 2148.808814
_symmetry_space_group_name_H-M "C 2/M"
_symmetry_group_IT_number 12
_symmetry_cell_setting 'monoclinic'
loop_
_space_group_symop_operation_xyz
x,y,z
-x,y,-z
-x,-y,-z
x,-y,z
1/2+x,1/2+y,z
1/2-x,1/2+y,-z
1/2-x,1/2-y,-z
1/2+x,1/2-y,z
loop_
_atom_site_type_symbol
_atom_site_label
_atom_site_fract_x
_atom_site_fract_y
_atom_site_fract_z
Si Si1 0.937726 0.870185 0.161853
Si Si2 0.315289 0.707326 0.953285
Si Si3 0.416565 0.866002 0.853377
Si Si4 0.148740 0.707970 0.722359
Si Si5 0.117621 0.136325 0.400474
Si Si6 0.500000 0.204616 0.500000
Si Si7 0.234739 0.364405 0.375181
O O1 0.919072 0.863494 0.074178
O O2 0.099369 0.855026 0.311862
O O3 0.882887 0.000000 0.140615
O O4 0.824470 0.772504 0.109346
O O5 0.428694 0.810926 0.013447
O O6 0.241049 0.645307 0.842006
O O7 0.271730 0.796420 0.778520
O O8 0.409727 0.851306 0.772131
O O9 0.405060 0.000000 0.859552
O O10 0.016931 0.786017 0.663224
O O11 0.075563 0.642198 0.612310
O O12 0.265672 0.154939 0.549361
O O13 0.083789 0.000000 0.387491
O O14 0.370462 0.286722 0.441011
O O15 0.274942 0.500000 0.394687
#
# Coordination Sequence:
#
# PCOD9171018 Si02
#       7
#     8   8   8   8   8   4   8
#     4   9  18  32  47  60  79 111 146 177 204 234
#     4  10  19  29  43  65  87 107 138 173 206 252
#     4  10  18  26  39  63  94 117 131 162 216 262
#     4   9  16  25  40  62  88 111 135 167 205 251
#     4   8  13  24  42  61  81 109 144 170 193 237
#     4   8  13  22  36  56  81 112 140 162 193 244
#     4   8  13  21  35  57  85 113 137 162 196 243
#
# _framework density 24.199453999999999
#
# number of rings (size 3 to 8) (size 9 to 14) (size 15 to 20)
#    0.000    3.077    0.000    1.615    0.000    6.154 
#    0.000    0.769    0.000    1.846    0.000    0.538 
#    0.000    0.000    0.000    0.923    0.000    1.154 
#
# Total GULP energy -144828.647246 kJ/mol
# GULP energy per Si atom -5570.332586 kJ/mol
# Density = 2.414437 g / cm^3
# Si number density = 24.199454 Si / 1000 Ang^3
#
#
#
# Elastic Constant Matrix: (Units=GPa)
#
#
# Indices 1 2 3 4 5 6 
#
# 1 65.1670 13.4884 27.8850 -0.0001 -7.2392 0.0001
# 2 13.4884 53.7755 26.2446 0.0004 -5.2915 0.0009
# 3 27.8850 26.2446 227.6089 0.0005 -63.5260 0.0013
# 4 -0.0001 0.0004 0.0005 8.9683 0.0002 -8.0211
# 5 -7.2392 -5.2915 -63.5260 0.0002 56.2069 0.0005
# 6 0.0001 0.0009 0.0013 -8.0211 0.0005 -4.2369
#
#
#
# Elastic Compliance Matrix: (Units=1/GPa)
#
#
# Indices 1 2 3 4 5 6 
#
# 1 0.016759 -0.003390 -0.001678 0.000000 -0.000058 -0.000001
# 2 -0.003390 0.020432 -0.002229 0.000001 -0.001032 0.000002
# 3 -0.001678 -0.002229 0.006920 0.000001 0.007395 0.000001
# 4 0.000000 0.000001 0.000001 0.041402 0.000001 -0.078380
# 5 -0.000058 -0.001032 0.007395 0.000001 0.026045 0.000003
# 6 -0.000001 0.000002 0.000001 -0.078380 0.000003 -0.087636
#
#
# Mechanical properties :
#
#
# Convention : Reuss Voigt Hill
#
# Bulk Modulus (GPa) = 33.87890 53.53194 43.70542
# Shear Modulus (GPa) = 103.40123 30.78321 67.09222
#
# Velocity S-wave (km/s) = 6.54381 3.57047 5.27114
# Velocity P-wave (km/s) = 8.43360 6.25834 7.42605
#
# Compressibility (1/GPa) = 0.02951689
#
# Stress axis : x y z
#
# Youngs Moduli (GPa) = 59.67074 48.94213 144.50604
#
# Poissons Ratio (x) = 0.16592 0.24253
# Poissons Ratio (y) = 0.20229 0.32205
# Poissons Ratio (z) = 0.10015 0.10907
#
# Static dielectric constant tensor:
#      x y z
#    x 1.946610 0.000000 -0.105920 
#    y 0.000000 1.950470 0.000000 
#    z -0.105920 0.000000 2.064230 
# 
# From -- ./inp_files/155391.got.cif
#   From: 2010.05.17/outbox.cif.g08.bks.cpg/sg12_78_cif.got.tgz:155391.got - 2010.06.03 13:09:07.
