data_PCOD9171498
_publ_section_title
;
Structure prediction by ZEFSAII (Michael W. Deem and Ramdas Pophale) SiO2 
 PCOD9171498
Probable space group: C 2/M
;
_chemical_formula_sum "Si O2"
_cell_formula_units_Z 56
_cell_length_a 29.261008
_cell_length_b 8.896557
_cell_length_c 18.053609
_cell_angle_alpha 90.000000
_cell_angle_beta 130.129251
_cell_angle_gamma 90.000000
_cell_volume 3593.397749
_symmetry_space_group_name_H-M "C 2/M"
_symmetry_group_IT_number 12
_symmetry_cell_setting 'monoclinic'
loop_
_space_group_symop_operation_xyz
x,y,z
-x,y,-z
-x,-y,-z
x,-y,z
1/2+x,1/2+y,z
1/2-x,1/2+y,-z
1/2-x,1/2-y,-z
1/2+x,1/2-y,z
loop_
_atom_site_type_symbol
_atom_site_label
_atom_site_fract_x
_atom_site_fract_y
_atom_site_fract_z
Si Si1 0.068239 0.327116 0.102057
Si Si2 0.315105 0.679493 0.057674
Si Si3 0.929645 0.826519 0.449030
Si Si4 0.973324 0.178281 0.799134
Si Si5 0.100910 0.676735 0.732271
Si Si6 0.398669 0.181276 0.023150
Si Si7 0.538666 0.177148 0.368317
O O1 0.081855 0.500000 0.136193
O O2 0.067701 0.225618 0.174107
O O3 0.105913 0.281890 0.069138
O O4 0.000000 0.325369 0.000000
O O5 0.312254 0.500000 0.049912
O O6 0.356375 0.729858 0.169644
O O7 0.346946 0.748110 0.018438
O O8 0.250000 0.750000 0.000000
O O9 0.897202 0.736369 0.349752
O O10 0.927049 0.749405 0.526396
O O11 0.000000 0.825053 0.500000
O O12 0.910462 0.000000 0.431403
O O13 0.949426 0.241266 0.696633
O O14 0.038037 0.254781 0.881365
O O15 0.980808 0.000000 0.803892
O O16 0.115476 0.500000 0.751479
O O17 0.032397 0.694548 0.688635
O O18 0.399914 0.000000 0.031555
O O19 0.550791 0.000000 0.375762
#
# Coordination Sequence:
#
# PCOD9171498 Si02
#       7
#     8   8   8   8   8   8   8
#     4   8  16  29  44  61  86 119 152 185 226 276
#     4  12  24  36  51  69  91 120 159 201 238 275
#     4   9  17  28  43  64  90 117 152 190 227 273
#     4  11  19  26  42  67  94 122 155 190 227 273
#     4  10  19  32  48  64  88 121 156 191 232 277
#     4  10  19  33  48  63  87 120 155 192 234 277
#     4  10  18  28  44  64  92 125 157 188 226 276
#
# _framework density 15.584136000000001
#
# number of rings (size 3 to 8) (size 9 to 14) (size 15 to 20)
#    0.000    2.000    1.429    5.143    0.000    6.000 
#    0.000    0.000    0.000    0.000    0.000    0.000 
#    0.000    1.143    0.000    4.286    0.000    6.571 
#
# Total GULP energy -156178.632144 kJ/mol
# GULP energy per Si atom -5577.808291 kJ/mol
# Density = 1.554867 g / cm^3
# Si number density = 15.584136 Si / 1000 Ang^3
#
#
#
# Elastic Constant Matrix: (Units=GPa)
#
#
# Indices 1 2 3 4 5 6 
#
# 1 96.5238 57.1386 52.2475 0.0000 -29.0442 0.0000
# 2 57.1386 120.3581 49.0528 0.0000 -26.3639 0.0000
# 3 52.2475 49.0528 53.3883 0.0000 -30.5703 0.0000
# 4 0.0000 0.0000 0.0000 24.7994 0.0000 -4.5599
# 5 -29.0442 -26.3639 -30.5703 0.0000 30.5986 0.0000
# 6 0.0000 0.0000 0.0000 -4.5599 0.0000 16.6502
#
#
#
# Elastic Compliance Matrix: (Units=1/GPa)
#
#
# Indices 1 2 3 4 5 6 
#
# 1 0.022598 -0.002715 -0.020279 0.000000 -0.001149 0.000000
# 2 -0.002715 0.013649 -0.010808 0.000000 -0.001616 0.000000
# 3 -0.020279 -0.010808 0.075136 0.000000 0.046505 0.000000
# 4 0.000000 0.000000 0.000000 0.042462 0.000000 0.011629
# 5 -0.001149 -0.001616 0.046505 0.000000 0.076661 0.000000
# 6 0.000000 0.000000 0.000000 0.011629 0.000000 0.063244
#
#
# Mechanical properties :
#
#
# Convention : Reuss Voigt Hill
#
# Bulk Modulus (GPa) = 22.84235 65.23867 44.04051
# Shear Modulus (GPa) = 13.29976 21.86506 17.58241
#
# Velocity S-wave (km/s) = 2.92450 3.74977 3.36255
# Velocity P-wave (km/s) = 5.10812 7.79107 6.58763
#
# Compressibility (1/GPa) = 0.04377834
#
# Stress axis : x y z
#
# Youngs Moduli (GPa) = 44.25081 73.26756 13.30923
#
# Poissons Ratio (x) = 0.19894 0.26989
# Poissons Ratio (y) = 0.12015 0.14385
# Poissons Ratio (z) = 0.89735 0.79189
#
# Static dielectric constant tensor:
#      x y z
#    x 1.522570 0.000000 -0.026420 
#    y 0.000000 1.515970 0.000000 
#    z -0.026420 0.000000 1.504390 
# 
# From -- ./inp_files/291979.got.cif
#   From: 2010.05.17/outbox.cif.g08.bks.cpg/sg12_146_cif.got.tgz:291979.got - 2010.06.03 13:09:07.
