data_PCOD9171720
_publ_section_title
;
Structure prediction by ZEFSAII (Michael W. Deem and Ramdas Pophale) SiO2 
 PCOD9171720
Probable space group: C 2/M
;
_chemical_formula_sum "Si O2"
_cell_formula_units_Z 64
_cell_length_a 18.269933
_cell_length_b 23.365159
_cell_length_c 18.332634
_cell_angle_alpha 90.000000
_cell_angle_beta 149.117326
_cell_angle_gamma 90.000000
_cell_volume 4016.857169
_symmetry_space_group_name_H-M "C 2/M"
_symmetry_group_IT_number 12
_symmetry_cell_setting 'monoclinic'
loop_
_space_group_symop_operation_xyz
x,y,z
-x,y,-z
-x,-y,-z
x,-y,z
1/2+x,1/2+y,z
1/2-x,1/2+y,-z
1/2-x,1/2-y,-z
1/2+x,1/2-y,z
loop_
_atom_site_type_symbol
_atom_site_label
_atom_site_fract_x
_atom_site_fract_y
_atom_site_fract_z
Si Si1 0.814709 0.844990 0.146169
Si Si2 0.654782 0.065687 0.110411
Si Si3 0.919798 0.185985 0.698743
Si Si4 0.637184 0.434837 0.575386
Si Si5 0.224435 0.660170 0.396508
Si Si6 0.784499 0.727748 0.363918
Si Si7 0.393714 0.768813 0.299506
Si Si8 0.924470 0.690739 0.172639
O O1 0.742447 0.896654 0.127983
O O2 0.862470 0.795863 0.244801
O O3 0.956355 0.857894 0.219332
O O4 0.696931 0.819629 0.990213
O O5 0.741959 0.063649 0.259944
O O6 0.636411 0.000000 0.068388
O O7 0.500000 0.089742 0.000000
O O8 0.804378 0.185804 0.535110
O O9 0.826895 0.184909 0.692706
O O10 0.004552 0.246258 0.774113
O O11 0.500000 0.410327 0.500000
O O12 0.603082 0.500000 0.523134
O O13 0.691033 0.395272 0.557052
O O14 0.234327 0.707803 0.341226
O O15 0.059461 0.649618 0.274292
O O16 0.801363 0.719730 0.292328
O O17 0.941507 0.723960 0.534960
O O18 0.368221 0.808932 0.207463
#
# Coordination Sequence:
#
# PCOD9171720 Si02
#       8
#     8   8   8   8   8   8   8   8
#     4  11  20  31  49  69  94 129 158 197 244 277
#     4  10  21  37  50  68  98 131 167 201 239 281
#     4  10  18  32  45  67  94 125 161 195 234 282
#     4  10  21  32  46  71  97 122 161 210 238 266
#     4  11  17  30  49  63  91 129 164 185 235 291
#     4  10  18  28  47  68  92 126 164 186 226 289
#     4  10  18  29  45  69  95 124 158 194 228 282
#     4  10  19  32  43  68  94 121 160 199 234 281
#
# _framework density 15.932854000000001
#
# number of rings (size 3 to 8) (size 9 to 14) (size 15 to 20)
#    0.000    1.750    3.750    4.500    1.750    1.000 
#    0.000    3.125    0.000    0.000    0.000    0.000 
#    0.000    6.000    0.000    0.000    0.000    0.000 
#
# Total GULP energy -178313.847482 kJ/mol
# GULP energy per Si atom -5572.307734 kJ/mol
# Density = 1.589659 g / cm^3
# Si number density = 15.932854 Si / 1000 Ang^3
#
#
#
# Elastic Constant Matrix: (Units=GPa)
#
#
# Indices 1 2 3 4 5 6 
#
# 1 137.6503 35.2569 22.8996 0.0001 12.6496 -0.0003
# 2 35.2569 39.8554 2.3345 0.0000 4.3450 0.0000
# 3 22.8996 2.3345 66.6516 0.0001 8.6543 -0.0004
# 4 0.0001 0.0000 0.0001 -84.2834 0.0000 175.2255
# 5 12.6496 4.3450 8.6543 0.0000 28.8154 -0.0002
# 6 -0.0003 0.0000 -0.0004 175.2255 -0.0002 -268.1379
#
#
#
# Elastic Compliance Matrix: (Units=1/GPa)
#
#
# Indices 1 2 3 4 5 6 
#
# 1 0.010148 -0.008558 -0.002889 0.000000 -0.002297 0.000000
# 2 -0.008558 0.032737 0.002026 0.000000 -0.001788 0.000000
# 3 -0.002889 0.002026 0.016441 0.000000 -0.003975 0.000000
# 4 0.000000 0.000000 0.000000 0.033085 0.000000 0.021621
# 5 -0.002297 -0.001788 -0.003975 0.000000 0.037176 0.000000
# 6 0.000000 0.000000 0.000000 0.021621 0.000000 0.010400
#
#
# Mechanical properties :
#
#
# Convention : Reuss Voigt Hill
#
# Bulk Modulus (GPa) = 24.70034 40.57103 32.63569
# Shear Modulus (GPa) = 29.01508 -52.47675 -11.73083
#
# Velocity S-wave (km/s) = 4.27205 -5.74523 -2.71637
# Velocity P-wave (km/s) = 6.31429 4.30014 3.26948
#
# Compressibility (1/GPa) = 0.04048527
#
# Stress axis : x y z
#
# Youngs Moduli (GPa) = 98.53764 30.54610 60.82331
#
# Poissons Ratio (x) = 0.26141 0.17570
# Poissons Ratio (y) = 0.84327 -0.12321
# Poissons Ratio (z) = 0.28465 -0.06188
#
# Static dielectric constant tensor:
#      x y z
#    x 1.572990 0.000000 -0.027650 
#    y 0.000000 1.544060 0.000000 
#    z -0.027650 0.000000 2.469230 
# 
# From -- ./inp_files/279395.got.cif
#   From: 2010.05.17/outbox.cif.g08.bks.cpg/sg12_140_cif.got.tgz:279395.got - 2010.06.03 13:09:07.
