data_PCOD9171189
_publ_section_title
;
Structure prediction by ZEFSAII (Michael W. Deem and Ramdas Pophale) SiO2 
 PCOD9171189
Probable space group: C 2/M
;
_chemical_formula_sum "Si O2"
_cell_formula_units_Z 56
_cell_length_a 21.153489
_cell_length_b 9.974193
_cell_length_c 14.141789
_cell_angle_alpha 90.000000
_cell_angle_beta 52.189932
_cell_angle_gamma 90.000000
_cell_volume 2357.312847
_symmetry_space_group_name_H-M "C 2/M"
_symmetry_group_IT_number 12
_symmetry_cell_setting 'monoclinic'
loop_
_space_group_symop_operation_xyz
x,y,z
-x,y,-z
-x,-y,-z
x,-y,z
1/2+x,1/2+y,z
1/2-x,1/2+y,-z
1/2-x,1/2-y,-z
1/2+x,1/2-y,z
loop_
_atom_site_type_symbol
_atom_site_label
_atom_site_fract_x
_atom_site_fract_y
_atom_site_fract_z
Si Si1 0.124620 0.150697 0.293662
Si Si2 0.101459 0.343312 0.475231
Si Si3 0.942023 0.847010 0.305428
Si Si4 0.264172 0.361998 0.413640
Si Si5 0.672582 0.339813 0.043293
Si Si6 0.316874 0.849898 0.132251
Si Si7 0.453875 0.850511 0.141568
O O1 0.085097 0.266782 0.391992
O O2 0.116975 0.170846 0.187804
O O3 0.220739 0.152122 0.223558
O O4 0.097486 0.000000 0.345002
O O5 0.075172 0.500000 0.505463
O O6 0.074100 0.245477 0.586892
O O7 0.199596 0.348274 0.390560
O O8 0.858826 0.867046 0.322901
O O9 0.984898 0.756327 0.187903
O O10 0.968144 0.000000 0.303030
O O11 0.237886 0.500000 0.486590
O O12 0.250000 0.250000 0.500000
O O13 0.688432 0.500000 0.017799
O O14 0.750000 0.250000 0.000000
O O15 0.652330 0.269625 0.962753
O O16 0.361114 0.840420 0.192140
O O17 0.337885 0.000000 0.074788
O O18 0.464499 0.000000 0.171638
O O19 0.500000 0.841360 0.000000
#
# Coordination Sequence:
#
# PCOD9171189 Si02
#       7
#     8   8   8   8   8   8   8
#     4   9  17  28  43  68 100 129 157 189 228 278
#     4  10  18  27  42  65  93 125 157 187 226 280
#     4  10  19  31  46  64  90 122 156 196 238 281
#     4   8  15  25  37  57  84 115 149 181 216 262
#     4   9  17  29  46  69  98 130 162 197 236 282
#     4   9  18  32  49  69  96 130 164 201 243 283
#     4  10  21  36  52  70  93 123 162 206 247 286
#
# _framework density 23.755863999999999
#
# number of rings (size 3 to 8) (size 9 to 14) (size 15 to 20)
#    0.000    2.714    0.000    3.000    0.000    4.857 
#    0.000    4.286    0.000    0.000    0.000    1.000 
#    0.000    8.000    0.000    0.000    0.000    0.000 
#
# Total GULP energy -155996.491267 kJ/mol
# GULP energy per Si atom -5571.303260 kJ/mol
# Density = 2.370179 g / cm^3
# Si number density = 23.755864 Si / 1000 Ang^3
#
#
#
# Elastic Constant Matrix: (Units=GPa)
#
#
# Indices 1 2 3 4 5 6 
#
# 1 94.8724 34.6539 11.2913 0.0000 -2.4253 0.0000
# 2 34.6539 257.1483 95.0173 0.0000 40.4227 0.0001
# 3 11.2913 95.0173 76.3682 0.0000 15.3342 0.0000
# 4 0.0000 0.0000 0.0000 37.3750 0.0000 11.5021
# 5 -2.4253 40.4227 15.3342 0.0000 25.6067 0.0000
# 6 0.0000 0.0001 0.0000 11.5021 0.0000 8.3063
#
#
#
# Elastic Compliance Matrix: (Units=1/GPa)
#
#
# Indices 1 2 3 4 5 6 
#
# 1 0.011502 -0.002427 0.000377 0.000000 0.004696 0.000000
# 2 -0.002427 0.008936 -0.008958 0.000000 -0.008972 0.000000
# 3 0.000377 -0.008958 0.024254 0.000000 -0.000347 0.000000
# 4 0.000000 0.000000 0.000000 0.046626 0.000000 -0.064565
# 5 0.004696 -0.008972 -0.000347 0.000000 0.053869 0.000000
# 6 0.000000 0.000000 0.000000 -0.064565 0.000000 0.209796
#
#
# Mechanical properties :
#
#
# Convention : Reuss Voigt Hill
#
# Bulk Modulus (GPa) = 44.10122 78.92377 61.51249
# Shear Modulus (GPa) = 13.00187 33.41937 23.21062
#
# Velocity S-wave (km/s) = 2.34201 3.75478 3.12917
# Velocity P-wave (km/s) = 5.09097 7.21754 6.24543
#
# Compressibility (1/GPa) = 0.02267511
#
# Stress axis : x y z
#
# Youngs Moduli (GPa) = 86.93878 111.90104 41.22978
#
# Poissons Ratio (x) = 0.27163 -0.01553
# Poissons Ratio (y) = 0.21104 0.36935
# Poissons Ratio (z) = -0.03274 1.00244
#
# Static dielectric constant tensor:
#      x y z
#    x 2.081030 0.000000 -0.097930 
#    y 0.000000 1.914910 0.000000 
#    z -0.097930 0.000000 1.910230 
# 
# From -- ./inp_files/248911.got.cif
#   From: 2010.05.17/outbox.cif.g08.bks.cpg/sg12_125_cif.got.tgz:248911.got - 2010.06.03 13:09:07.
