data_PCOD9171452
_publ_section_title
;
Structure prediction by ZEFSAII (Michael W. Deem and Ramdas Pophale) SiO2 
 PCOD9171452
Probable space group: C 2/M
;
_chemical_formula_sum "Si O2"
_cell_formula_units_Z 40
_cell_length_a 26.420243
_cell_length_b 7.675622
_cell_length_c 12.582487
_cell_angle_alpha 90.000000
_cell_angle_beta 122.072097
_cell_angle_gamma 90.000000
_cell_volume 2162.197695
_symmetry_space_group_name_H-M "C 2/M"
_symmetry_group_IT_number 12
_symmetry_cell_setting 'monoclinic'
loop_
_space_group_symop_operation_xyz
x,y,z
-x,y,-z
-x,-y,-z
x,-y,z
1/2+x,1/2+y,z
1/2-x,1/2+y,-z
1/2-x,1/2-y,-z
1/2+x,1/2-y,z
loop_
_atom_site_type_symbol
_atom_site_label
_atom_site_fract_x
_atom_site_fract_y
_atom_site_fract_z
Si Si1 0.667844 0.212502 0.334342
Si Si2 0.032468 0.286604 0.143702
Si Si3 0.593116 0.703232 0.582023
Si Si4 0.015554 0.299242 0.686985
Si Si5 0.289138 0.296682 0.381514
O O1 0.601809 0.265890 0.226424
O O2 0.682704 0.278452 0.469144
O O3 0.722085 0.274612 0.319289
O O4 0.669620 0.000000 0.340826
O O5 0.032069 0.500000 0.146047
O O6 0.998884 0.226124 0.213058
O O7 0.000000 0.231522 0.000000
O O8 0.593590 0.500000 0.551827
O O9 0.565978 0.715433 0.669352
O O10 0.545665 0.790962 0.449817
O O11 0.659728 0.775357 0.639162
O O12 0.032728 0.500000 0.718422
O O13 0.281803 0.500000 0.346286
#
# Coordination Sequence:
#
# PCOD9171452 Si02
#       5
#     8   8   8   8   8
#     4   9  16  28  45  65  88 115 147 182 219 259
#     4   9  17  29  46  67  90 115 148 188 221 254
#     4  10  18  28  43  64  93 119 140 177 225 268
#     4  10  18  28  44  66  88 114 150 182 217 261
#     4   9  17  27  43  66  91 116 142 177 224 269
#
# _framework density 18.499697000000001
#
# number of rings (size 3 to 8) (size 9 to 14) (size 15 to 20)
#    0.000    2.600    2.000    2.400    0.000    0.800 
#    0.000    0.000    0.000    6.600    0.000    0.000 
#    0.000    0.000    0.000    0.000    0.000    1.600 
#
# Total GULP energy -111447.987036 kJ/mol
# GULP energy per Si atom -5572.399352 kJ/mol
# Density = 1.845759 g / cm^3
# Si number density = 18.499697 Si / 1000 Ang^3
#
#
#
# Elastic Constant Matrix: (Units=GPa)
#
#
# Indices 1 2 3 4 5 6 
#
# 1 181.4074 -4.7132 55.2326 0.0000 -15.6277 0.0000
# 2 -4.7132 33.2557 -9.8122 0.0000 -2.1085 0.0000
# 3 55.2326 -9.8122 80.5959 0.0000 -10.7697 0.0000
# 4 0.0000 0.0000 0.0000 -144.4905 0.0000 109.4878
# 5 -15.6277 -2.1085 -10.7697 0.0000 21.4372 0.0000
# 6 0.0000 0.0000 0.0000 109.4878 0.0000 -66.6723
#
#
#
# Elastic Compliance Matrix: (Units=1/GPa)
#
#
# Indices 1 2 3 4 5 6 
#
# 1 0.007136 -0.000136 -0.004516 0.000000 0.002919 0.000000
# 2 -0.000136 0.031772 0.004680 0.000000 0.005377 0.000000
# 3 -0.004516 0.004680 0.016823 0.000000 0.005620 0.000000
# 4 0.000000 0.000000 0.000000 0.028322 0.000000 0.046510
# 5 0.002919 0.005377 0.005620 0.000000 0.052128 0.000000
# 6 0.000000 0.000000 0.000000 0.046510 0.000000 0.061379
#
#
# Mechanical properties :
#
#
# Convention : Reuss Voigt Hill
#
# Bulk Modulus (GPa) = 17.92564 41.85260 29.88912
# Shear Modulus (GPa) = 23.13727 -20.97499 1.08114
#
# Velocity S-wave (km/s) = 3.54034 -3.37085 0.76530
# Velocity P-wave (km/s) = 5.14030 2.74269 4.11977
#
# Compressibility (1/GPa) = 0.05578603
#
# Stress axis : x y z
#
# Youngs Moduli (GPa) = 140.14375 31.47380 59.44097
#
# Poissons Ratio (x) = 0.00429 0.26846
# Poissons Ratio (y) = 0.01909 -0.27818
# Poissons Ratio (z) = 0.63295 -0.14730
#
# Static dielectric constant tensor:
#      x y z
#    x 1.703410 0.000000 -0.005030 
#    y 0.000000 1.669080 0.000000 
#    z -0.005030 0.000000 1.581250 
# 
# From -- ./inp_files/162755.got.cif
#   From: 2010.05.17/outbox.cif.g08.bks.cpg/sg12_82_cif.got.tgz:162755.got - 2010.06.03 13:09:07.
