data_PCOD9171525
_publ_section_title
;
Structure prediction by ZEFSAII (Michael W. Deem and Ramdas Pophale) SiO2 
 PCOD9171525
Probable space group: C 2/M
;
_chemical_formula_sum "Si O2"
_cell_formula_units_Z 64
_cell_length_a 19.746075
_cell_length_b 9.201069
_cell_length_c 20.773594
_cell_angle_alpha 90.000000
_cell_angle_beta 94.409985
_cell_angle_gamma 90.000000
_cell_volume 3763.076226
_symmetry_space_group_name_H-M "C 2/M"
_symmetry_group_IT_number 12
_symmetry_cell_setting 'monoclinic'
loop_
_space_group_symop_operation_xyz
x,y,z
-x,y,-z
-x,-y,-z
x,-y,z
1/2+x,1/2+y,z
1/2-x,1/2+y,-z
1/2-x,1/2-y,-z
1/2+x,1/2-y,z
loop_
_atom_site_type_symbol
_atom_site_label
_atom_site_fract_x
_atom_site_fract_y
_atom_site_fract_z
Si Si1 0.971524 0.174451 0.785267
Si Si2 0.075606 0.166736 0.473632
Si Si3 0.369003 0.828582 0.404048
Si Si4 0.794667 0.673803 0.274877
Si Si5 0.481624 0.171047 0.648898
Si Si6 0.759671 0.174119 0.068971
Si Si7 0.379853 0.673333 0.170415
Si Si8 0.825871 0.174022 0.826654
O O1 0.903236 0.213734 0.817903
O O2 0.974215 0.251130 0.716486
O O3 0.040982 0.210666 0.827718
O O4 0.969910 0.000000 0.775205
O O5 0.124429 0.239041 0.529962
O O6 0.000000 0.168264 0.500000
O O7 0.067305 0.257127 0.407779
O O8 0.093826 0.000000 0.462039
O O9 0.311551 0.781038 0.348942
O O10 0.441055 0.811573 0.371701
O O11 0.361400 0.000000 0.418057
O O12 0.805551 0.500000 0.273525
O O13 0.846888 0.747729 0.229312
O O14 0.720538 0.703422 0.239943
O O15 0.468624 0.000000 0.653510
O O16 0.833608 0.207991 0.105388
O O17 0.706675 0.238696 0.116826
O O18 0.752951 0.000000 0.063317
O O19 0.750000 0.250000 0.000000
O O20 0.374361 0.500000 0.180406
O O21 0.821418 0.000000 0.839032
#
# Coordination Sequence:
#
# PCOD9171525 Si02
#       8
#     8   8   8   8   8   8   8   8
#     4  10  19  32  50  74 103 132 162 200 245 292
#     4   9  17  27  40  62  92 126 163 206 252 297
#     4   9  16  26  42  66  94 123 160 205 250 294
#     4   9  16  29  48  71  97 127 164 203 246 292
#     4  10  18  28  44  67  96 130 163 201 250 297
#     4  10  20  36  57  79 102 132 165 200 238 282
#     4   9  18  31  50  75 101 128 163 201 239 284
#     4   9  19  34  53  76 103 133 163 198 241 290
#
# _framework density 17.007362000000001
#
# number of rings (size 3 to 8) (size 9 to 14) (size 15 to 20)
#    0.000    2.625    1.250    1.125    0.000    3.500 
#    0.000    0.625    0.000    4.500    0.000    0.000 
#    0.000    0.000    0.000    0.000    0.000    0.000 
#
# Total GULP energy -178375.469110 kJ/mol
# GULP energy per Si atom -5574.233410 kJ/mol
# Density = 1.696865 g / cm^3
# Si number density = 17.007362 Si / 1000 Ang^3
#
#
#
# Elastic Constant Matrix: (Units=GPa)
#
#
# Indices 1 2 3 4 5 6 
#
# 1 106.9313 41.8004 55.1153 0.0000 14.4797 0.0000
# 2 41.8004 48.7782 52.3944 0.0000 8.6845 0.0000
# 3 55.1153 52.3944 116.6384 0.0000 26.5343 0.0000
# 4 0.0000 0.0000 0.0000 31.9151 0.0000 1.9059
# 5 14.4797 8.6845 26.5343 0.0000 18.9641 0.0000
# 6 0.0000 0.0000 0.0000 1.9059 0.0000 15.7405
#
#
#
# Elastic Compliance Matrix: (Units=1/GPa)
#
#
# Indices 1 2 3 4 5 6 
#
# 1 0.014701 -0.010547 -0.001107 0.000000 -0.004847 0.000000
# 2 -0.010547 0.048494 -0.019921 0.000000 0.013718 0.000000
# 3 -0.001107 -0.019921 0.023144 0.000000 -0.022415 0.000000
# 4 0.000000 0.000000 0.000000 0.031561 0.000000 -0.003822
# 5 -0.004847 0.013718 -0.022415 0.000000 0.081513 0.000000
# 6 0.000000 0.000000 0.000000 -0.003822 0.000000 0.063993
#
#
# Mechanical properties :
#
#
# Convention : Reuss Voigt Hill
#
# Bulk Modulus (GPa) = 43.11928 63.44089 53.28008
# Shear Modulus (GPa) = 14.95725 21.52648 18.24186
#
# Velocity S-wave (km/s) = 2.96878 3.56155 3.27859
# Velocity P-wave (km/s) = 6.09589 7.36857 6.76224
#
# Compressibility (1/GPa) = 0.02319148
#
# Stress axis : x y z
#
# Youngs Moduli (GPa) = 68.02148 20.62097 43.20708
#
# Poissons Ratio (x) = 0.21748 0.04781
# Poissons Ratio (y) = 0.71740 0.86073
# Poissons Ratio (z) = 0.07528 0.41079
#
# Static dielectric constant tensor:
#      x y z
#    x 1.585040 0.000000 0.029500 
#    y 0.000000 1.565860 0.000000 
#    z 0.029500 0.000000 1.547090 
# 
# From -- ./inp_files/281284.got.cif
#   From: 2010.05.17/outbox.cif.g08.bks.cpg/sg12_141_cif.got.tgz:281284.got - 2010.06.03 13:09:07.
