data_PCOD9171438
_publ_section_title
;
Structure prediction by ZEFSAII (Michael W. Deem and Ramdas Pophale) SiO2 
 PCOD9171438
Probable space group: C 2/M
;
_chemical_formula_sum "Si O2"
_cell_formula_units_Z 56
_cell_length_a 29.257350
_cell_length_b 8.910897
_cell_length_c 18.173452
_cell_angle_alpha 90.000000
_cell_angle_beta 50.626185
_cell_angle_gamma 90.000000
_cell_volume 3662.575427
_symmetry_space_group_name_H-M "C 2/M"
_symmetry_group_IT_number 12
_symmetry_cell_setting 'monoclinic'
loop_
_space_group_symop_operation_xyz
x,y,z
-x,y,-z
-x,-y,-z
x,-y,z
1/2+x,1/2+y,z
1/2-x,1/2+y,-z
1/2-x,1/2-y,-z
1/2+x,1/2-y,z
loop_
_atom_site_type_symbol
_atom_site_label
_atom_site_fract_x
_atom_site_fract_y
_atom_site_fract_z
Si Si1 0.567838 0.172508 0.901298
Si Si2 0.098184 0.319084 0.029496
Si Si3 0.028843 0.178185 0.798803
Si Si4 0.570254 0.826586 0.447278
Si Si5 0.966860 0.680335 0.358353
Si Si6 0.090998 0.177181 0.279128
Si Si7 0.314264 0.679285 0.943342
O O1 0.568025 0.273838 0.828943
O O2 0.581630 0.000000 0.867617
O O3 0.500000 0.174067 0.000000
O O4 0.604262 0.218188 0.936455
O O5 0.094367 0.500000 0.039289
O O6 0.150389 0.254050 0.025402
O O7 0.036330 0.249072 0.120854
O O8 0.051946 0.246370 0.698914
O O9 0.023371 0.000000 0.799524
O O10 0.500000 0.823065 0.500000
O O11 0.572206 0.777184 0.530247
O O12 0.600617 0.729425 0.353173
O O13 0.589214 0.000000 0.422099
O O14 0.967226 0.500000 0.353071
O O15 0.033585 0.736134 0.306974
O O16 0.146089 0.207526 0.169861
O O17 0.078086 0.000000 0.290237
O O18 0.310682 0.500000 0.957360
O O19 0.250000 0.750000 0.000000
#
# Coordination Sequence:
#
# PCOD9171438 Si02
#       7
#     8   8   8   8   8   8   8
#     4   8  16  29  43  61  84 115 150 179 218 269
#     4  10  19  32  48  62  84 118 151 187 228 267
#     4  11  19  26  41  66  92 119 150 183 221 264
#     4   8  16  28  42  61  83 114 150 178 215 268
#     4  10  18  28  43  62  88 121 152 180 216 266
#     4  10  19  30  44  63  86 113 147 188 229 265
#     4  11  23  35  48  67  89 117 156 194 229 267
#
# _framework density 15.289789000000001
#
# number of rings (size 3 to 8) (size 9 to 14) (size 15 to 20)
#    0.000    2.286    1.429    4.714    0.000    8.000 
#    0.000    0.000    0.000    0.000    0.000    0.000 
#    0.000    1.143    0.000    3.714    0.000    4.571 
#
# Total GULP energy -156053.230438 kJ/mol
# GULP energy per Si atom -5573.329659 kJ/mol
# Density = 1.525499 g / cm^3
# Si number density = 15.289789 Si / 1000 Ang^3
#
#
#
# Elastic Constant Matrix: (Units=GPa)
#
#
# Indices 1 2 3 4 5 6 
#
# 1 81.0509 44.8661 56.5290 0.0000 24.6071 0.0000
# 2 44.8661 80.4406 56.6011 0.0000 19.4531 -0.0001
# 3 56.5290 56.6011 86.9613 -0.0002 34.0711 0.0000
# 4 0.0000 0.0000 -0.0002 23.1315 0.0000 3.3313
# 5 24.6071 19.4531 34.0711 0.0000 28.6968 0.0000
# 6 0.0000 -0.0001 0.0000 3.3313 0.0000 14.6753
#
#
#
# Elastic Compliance Matrix: (Units=1/GPa)
#
#
# Indices 1 2 3 4 5 6 
#
# 1 0.023679 -0.004673 -0.010540 0.000000 -0.004623 0.000000
# 2 -0.004673 0.024115 -0.014628 0.000000 0.005027 0.000000
# 3 -0.010540 -0.014628 0.038228 0.000000 -0.026434 0.000000
# 4 0.000000 0.000000 0.000000 0.044692 0.000000 -0.010145
# 5 -0.004623 0.005027 -0.026434 0.000000 0.066788 0.000000
# 6 0.000000 0.000000 0.000000 -0.010145 0.000000 0.070444
#
#
# Mechanical properties :
#
#
# Convention : Reuss Voigt Hill
#
# Bulk Modulus (GPa) = 37.96289 62.71614 50.33951
# Shear Modulus (GPa) = 14.86288 19.33116 17.09702
#
# Velocity S-wave (km/s) = 3.12120 3.55958 3.34758
# Velocity P-wave (km/s) = 6.15402 7.61587 6.92364
#
# Compressibility (1/GPa) = 0.02634152
#
# Stress axis : x y z
#
# Youngs Moduli (GPa) = 42.23110 41.46832 26.15869
#
# Poissons Ratio (x) = 0.19378 0.27570
# Poissons Ratio (y) = 0.19735 0.38264
# Poissons Ratio (z) = 0.44510 0.60658
#
# Static dielectric constant tensor:
#      x y z
#    x 1.502480 0.000000 0.044540 
#    y 0.000000 1.508980 0.000000 
#    z 0.044540 0.000000 1.519650 
# 
# From -- ./inp_files/291435.got.cif
#   From: 2010.05.17/outbox.cif.g08.bks.cpg/sg12_146_cif.got.tgz:291435.got - 2010.06.03 13:09:07.
