data_PCOD9171032
_publ_section_title
;
Structure prediction by ZEFSAII (Michael W. Deem and Ramdas Pophale) SiO2 
 PCOD9171032
Probable space group: C 2/M
;
_chemical_formula_sum "Si O2"
_cell_formula_units_Z 56
_cell_length_a 28.499223
_cell_length_b 9.109478
_cell_length_c 14.564138
_cell_angle_alpha 90.000000
_cell_angle_beta 102.030600
_cell_angle_gamma 90.000000
_cell_volume 3697.995040
_symmetry_space_group_name_H-M "C 2/M"
_symmetry_group_IT_number 12
_symmetry_cell_setting 'monoclinic'
loop_
_space_group_symop_operation_xyz
x,y,z
-x,y,-z
-x,-y,-z
x,-y,z
1/2+x,1/2+y,z
1/2-x,1/2+y,-z
1/2-x,1/2-y,-z
1/2+x,1/2-y,z
loop_
_atom_site_type_symbol
_atom_site_label
_atom_site_fract_x
_atom_site_fract_y
_atom_site_fract_z
Si Si1 0.024581 0.169105 0.408808
Si Si2 0.258760 0.674767 0.218181
Si Si3 0.208094 0.175285 0.043001
Si Si4 0.064824 0.326862 0.705198
Si Si5 0.216815 0.175952 0.562575
Si Si6 0.356366 0.324991 0.145968
Si Si7 0.386365 0.826219 0.474993
O O1 0.073340 0.259820 0.441295
O O2 0.000000 0.169966 0.500000
O O3 0.985653 0.244212 0.327089
O O4 0.033681 0.000000 0.387798
O O5 0.252028 0.500000 0.202936
O O6 0.216955 0.759620 0.147160
O O7 0.262893 0.707775 0.327139
O O8 0.310036 0.711263 0.191134
O O9 0.214438 0.000000 0.045987
O O10 0.250000 0.250000 0.000000
O O11 0.160044 0.206845 0.965207
O O12 0.057178 0.500000 0.713371
O O13 0.098142 0.261328 0.798159
O O14 0.093577 0.305357 0.620634
O O15 0.250000 0.250000 0.500000
O O16 0.163518 0.242128 0.535485
O O17 0.215304 0.000000 0.551099
O O18 0.364359 0.500000 0.158231
O O19 0.380394 0.000000 0.487534
#
# Coordination Sequence:
#
# PCOD9171032 Si02
#       7
#     8   8   8   8   8   8   8
#     4   9  17  28  43  61  84 117 149 179 220 268
#     4   9  18  31  45  60  84 116 149 187 227 267
#     4   9  17  27  41  61  85 114 148 182 219 266
#     4  10  18  26  41  65  90 117 149 184 218 262
#     4  11  22  35  49  66  88 117 156 195 232 270
#     4   9  16  27  41  61  88 118 148 179 218 266
#     4  10  19  31  45  63  87 115 150 189 227 265
#
# _framework density 15.14334
#
# number of rings (size 3 to 8) (size 9 to 14) (size 15 to 20)
#    0.000    2.429    1.429    3.000    0.000    6.857 
#    0.000    0.000    0.000    0.000    0.000    0.000 
#    0.000    1.143    0.000   12.000    0.000    6.571 
#
# Total GULP energy -156034.309342 kJ/mol
# GULP energy per Si atom -5572.653905 kJ/mol
# Density = 1.510887 g / cm^3
# Si number density = 15.143340 Si / 1000 Ang^3
#
#
#
# Elastic Constant Matrix: (Units=GPa)
#
#
# Indices 1 2 3 4 5 6 
#
# 1 51.4636 49.5832 57.9253 0.0000 18.1668 0.0000
# 2 49.5832 82.7612 68.6160 0.0000 22.6762 0.0000
# 3 57.9253 68.6160 115.9954 0.0000 34.7032 0.0000
# 4 0.0000 0.0000 0.0000 27.4098 0.0000 8.1053
# 5 18.1668 22.6762 34.7032 0.0000 28.3512 0.0000
# 6 0.0000 0.0000 0.0000 8.1053 0.0000 23.3448
#
#
#
# Elastic Compliance Matrix: (Units=1/GPa)
#
#
# Indices 1 2 3 4 5 6 
#
# 1 0.058917 -0.021391 -0.016712 0.000000 -0.000187 0.000000
# 2 -0.021391 0.031624 -0.007192 0.000000 -0.002784 0.000000
# 3 -0.016712 -0.007192 0.025712 0.000000 -0.015012 0.000000
# 4 0.000000 0.000000 0.000000 0.040658 0.000000 -0.014116
# 5 -0.000187 -0.002784 -0.015012 0.000000 0.055993 0.000000
# 6 0.000000 0.000000 0.000000 -0.014116 0.000000 0.047737
#
#
# Mechanical properties :
#
#
# Convention : Reuss Voigt Hill
#
# Bulk Modulus (GPa) = 38.96621 66.94103 52.95362
# Shear Modulus (GPa) = 13.89715 20.76089 17.32902
#
# Velocity S-wave (km/s) = 3.03265 3.70666 3.38647
# Velocity P-wave (km/s) = 6.16848 7.91328 7.09472
#
# Compressibility (1/GPa) = 0.02566326
#
# Stress axis : x y z
#
# Youngs Moduli (GPa) = 16.97298 31.62168 38.89194
#
# Poissons Ratio (x) = 0.67641 0.64997
# Poissons Ratio (y) = 0.36307 0.27971
# Poissons Ratio (z) = 0.28366 0.22742
#
# Static dielectric constant tensor:
#      x y z
#    x 1.473170 0.000000 0.014400 
#    y 0.000000 1.502280 0.000000 
#    z 0.014400 0.000000 1.517900 
# 
# From -- ./inp_files/243232.got.cif
#   From: 2010.05.17/outbox.cif.g08.bks.cpg/sg12_122_cif.got.tgz:243232.got - 2010.06.03 13:09:07.
