data_PCOD9171186
_publ_section_title
;
Structure prediction by ZEFSAII (Michael W. Deem and Ramdas Pophale) SiO2 
 PCOD9171186
Probable space group: C 2/M
;
_chemical_formula_sum "Si O2"
_cell_formula_units_Z 56
_cell_length_a 27.787047
_cell_length_b 8.806120
_cell_length_c 25.692885
_cell_angle_alpha 90.000000
_cell_angle_beta 143.987490
_cell_angle_gamma 90.000000
_cell_volume 3696.485760
_symmetry_space_group_name_H-M "C 2/M"
_symmetry_group_IT_number 12
_symmetry_cell_setting 'monoclinic'
loop_
_space_group_symop_operation_xyz
x,y,z
-x,y,-z
-x,-y,-z
x,-y,z
1/2+x,1/2+y,z
1/2-x,1/2+y,-z
1/2-x,1/2-y,-z
1/2+x,1/2-y,z
loop_
_atom_site_type_symbol
_atom_site_label
_atom_site_fract_x
_atom_site_fract_y
_atom_site_fract_z
Si Si1 0.853268 0.180896 0.536595
Si Si2 0.459030 0.818636 0.540164
Si Si3 0.882581 0.182808 0.369700
Si Si4 0.086660 0.180898 0.187183
Si Si5 0.194865 0.683493 0.189360
Si Si6 0.175691 0.182361 0.369794
Si Si7 0.944491 0.675501 0.003985
O O1 0.919463 0.265064 0.559320
O O2 0.858787 0.216697 0.602931
O O3 0.762718 0.234921 0.440435
O O4 0.860690 0.000000 0.536108
O O5 0.403988 0.750758 0.445049
O O6 0.549028 0.750617 0.608757
O O7 0.460871 0.000000 0.537742
O O8 0.790203 0.222631 0.273009
O O9 0.890233 0.000000 0.378451
O O10 0.149962 0.250790 0.200845
O O11 0.115789 0.224619 0.270362
O O12 0.090254 0.000000 0.185965
O O13 0.996294 0.235537 0.091989
O O14 0.187585 0.500000 0.185232
O O15 0.143085 0.733209 0.093231
O O16 0.189881 0.000000 0.380066
O O17 0.937376 0.500000 0.013815
O O18 0.000000 0.679499 0.000000
#
# Coordination Sequence:
#
# PCOD9171186 Si02
#       7
#     8   8   8   8   8   8   8
#     4  10  19  32  48  64  86 118 152 182 215 258
#     4  11  21  32  45  65  93 118 143 181 223 256
#     4  10  19  32  49  67  86 115 153 181 212 261
#     4  10  18  27  42  65  91 117 144 176 216 258
#     4   9  18  30  44  63  88 117 147 179 212 252
#     4   9  19  32  45  65  91 116 146 184 221 256
#     4   8  15  28  42  59  86 116 144 175 212 254
#
# _framework density 15.149524
#
# number of rings (size 3 to 8) (size 9 to 14) (size 15 to 20)
#    0.000    2.429    0.000    5.143    0.000    7.714 
#    0.000    0.000    0.000    0.000    0.000    1.000 
#    0.000    0.000    0.000    0.000    0.000    0.000 
#
# Total GULP energy -156096.102321 kJ/mol
# GULP energy per Si atom -5574.860797 kJ/mol
# Density = 1.511504 g / cm^3
# Si number density = 15.149524 Si / 1000 Ang^3
#
#
#
# Elastic Constant Matrix: (Units=GPa)
#
#
# Indices 1 2 3 4 5 6 
#
# 1 76.5660 36.5773 59.5796 0.0000 4.1640 0.0000
# 2 36.5773 52.6492 46.2987 0.0000 2.2620 0.0000
# 3 59.5796 46.2987 154.7002 0.0000 4.1702 0.0000
# 4 0.0000 0.0000 0.0000 18.9309 0.0000 -0.6158
# 5 4.1640 2.2620 4.1702 0.0000 21.3455 0.0000
# 6 0.0000 0.0000 0.0000 -0.6158 0.0000 19.5594
#
#
#
# Elastic Compliance Matrix: (Units=1/GPa)
#
#
# Indices 1 2 3 4 5 6 
#
# 1 0.022543 -0.010836 -0.005380 0.000000 -0.002198 0.000000
# 2 -0.010836 0.031019 -0.005105 0.000000 -0.000176 0.000000
# 3 -0.005380 -0.005105 0.010074 0.000000 -0.000378 0.000000
# 4 0.000000 0.000000 0.000000 0.052878 0.000000 0.001665
# 5 -0.002198 -0.000176 -0.000378 0.000000 0.047370 0.000000
# 6 0.000000 0.000000 0.000000 0.001665 0.000000 0.051179
#
#
# Mechanical properties :
#
#
# Convention : Reuss Voigt Hill
#
# Bulk Modulus (GPa) = 47.63318 63.20295 55.41806
# Shear Modulus (GPa) = 18.88913 21.39783 20.14348
#
# Velocity S-wave (km/s) = 3.53490 3.76232 3.65038
# Velocity P-wave (km/s) = 6.94053 7.78996 7.37748
#
# Compressibility (1/GPa) = 0.02099377
#
# Stress axis : x y z
#
# Youngs Moduli (GPa) = 44.35957 32.23827 99.26480
#
# Poissons Ratio (x) = 0.34934 0.53401
# Poissons Ratio (y) = 0.48069 0.50677
# Poissons Ratio (z) = 0.23864 0.16459
#
# Static dielectric constant tensor:
#      x y z
#    x 1.480810 0.000000 -0.001230 
#    y 0.000000 1.508380 0.000000 
#    z -0.001230 0.000000 1.519070 
# 
# From -- ./inp_files/348633.got.cif
#   From: 2010.05.17/outbox.cif.g08.bks.cpg/sg12_175_cif.got.tgz:348633.got - 2010.06.03 13:09:07.
