data_PCOD9171184
_publ_section_title
;
Structure prediction by ZEFSAII (Michael W. Deem and Ramdas Pophale) SiO2 
 PCOD9171184
Probable space group: C 2/M
;
_chemical_formula_sum "Si O2"
_cell_formula_units_Z 48
_cell_length_a 14.851717
_cell_length_b 11.814544
_cell_length_c 19.713394
_cell_angle_alpha 90.000000
_cell_angle_beta 149.866297
_cell_angle_gamma 90.000000
_cell_volume 1736.503517
_symmetry_space_group_name_H-M "C 2/M"
_symmetry_group_IT_number 12
_symmetry_cell_setting 'monoclinic'
loop_
_space_group_symop_operation_xyz
x,y,z
-x,y,-z
-x,-y,-z
x,-y,z
1/2+x,1/2+y,z
1/2-x,1/2+y,-z
1/2-x,1/2-y,-z
1/2+x,1/2-y,z
loop_
_atom_site_type_symbol
_atom_site_label
_atom_site_fract_x
_atom_site_fract_y
_atom_site_fract_z
Si Si1 0.043483 0.877298 0.674971
Si Si2 0.218405 0.622029 0.295930
Si Si3 0.292319 0.873129 0.341445
Si Si4 0.799923 0.116859 0.969929
Si Si5 0.356113 0.149687 0.985913
Si Si6 0.025913 0.626481 0.678647
O O1 0.107360 0.876145 0.638826
O O2 0.949465 0.755216 0.624958
O O3 0.955783 0.000000 0.631689
O O4 0.226024 0.879309 0.839580
O O5 0.225927 0.500000 0.340102
O O6 0.208793 0.754318 0.314983
O O7 0.046852 0.607058 0.134691
O O8 0.500000 0.872033 0.500000
O O9 0.315569 0.868365 0.274835
O O10 0.220920 0.000000 0.314023
O O11 0.768164 0.130316 0.028896
O O12 0.608675 0.120919 0.807890
O O13 0.888828 0.000000 0.012036
O O14 0.902598 0.220220 0.007898
O O15 0.943708 0.500000 0.612780
#
# Coordination Sequence:
#
# PCOD9171184 Si02
#       6
#     8   8   8   8   8   8
#     4   9  16  26  41  62  89 118 144 170 204 249
#     4  10  19  29  44  67  92 116 143 178 217 255
#     4   9  18  33  51  67  83 107 141 183 229 269
#     4   9  17  28  42  62  90 122 151 177 205 244
#     4  10  18  27  42  64  91 123 152 174 203 248
#     4   8  15  28  44  63  85 109 141 178 215 254
#
# _framework density 27.641753999999999
#
# number of rings (size 3 to 8) (size 9 to 14) (size 15 to 20)
#    0.000    2.833    0.000    2.000    0.000    2.333 
#    0.000    0.000    0.000   11.000    0.000    0.000 
#    0.000    0.000    0.000    0.000    0.000    0.000 
#
# Total GULP energy -133617.783480 kJ/mol
# GULP energy per Si atom -5567.407645 kJ/mol
# Density = 2.757884 g / cm^3
# Si number density = 27.641754 Si / 1000 Ang^3
#
#
#
# Elastic Constant Matrix: (Units=GPa)
#
#
# Indices 1 2 3 4 5 6 
#
# 1 51.7310 13.2593 31.6489 0.0000 -18.0351 0.0002
# 2 13.2593 405.8818 24.3001 -0.0003 19.8418 0.0001
# 3 31.6489 24.3001 98.5841 -0.0027 1.5446 -0.0009
# 4 0.0000 -0.0003 -0.0027 -4.4788 -0.0007 -1.6323
# 5 -18.0351 19.8418 1.5446 -0.0007 42.7621 -0.0001
# 6 0.0002 0.0001 -0.0009 -1.6323 -0.0001 14.2423
#
#
#
# Elastic Compliance Matrix: (Units=1/GPa)
#
#
# Indices 1 2 3 4 5 6 
#
# 1 0.030265 -0.001076 -0.009664 0.000004 0.013612 -0.000001
# 2 -0.001076 0.002596 -0.000269 0.000000 -0.001648 0.000000
# 3 -0.009664 -0.000269 0.013382 -0.000008 -0.004435 0.000000
# 4 0.000004 0.000000 -0.000008 -0.214320 -0.000002 -0.024563
# 5 0.013612 -0.001648 -0.004435 -0.000002 0.030051 0.000000
# 6 -0.000001 0.000000 0.000000 -0.024563 0.000000 0.067398
#
#
# Mechanical properties :
#
#
# Convention : Reuss Voigt Hill
#
# Bulk Modulus (GPa) = 41.27911 77.17931 59.22921
# Shear Modulus (GPa) = -123.34544 42.97103 -40.18721
#
# Velocity S-wave (km/s) = -6.68728 3.94708 -3.81709
# Velocity P-wave (km/s) = 6.68284 6.98244 1.43077
#
# Compressibility (1/GPa) = 0.02422533
#
# Stress axis : x y z
#
# Youngs Moduli (GPa) = 33.04177 385.27196 74.72794
#
# Poissons Ratio (x) = 0.41438 0.72219
# Poissons Ratio (y) = 0.03554 0.02008
# Poissons Ratio (z) = 0.31932 0.10351
#
# Static dielectric constant tensor:
#      x y z
#    x 2.076550 0.000000 -0.022950 
#    y 0.000000 2.265850 0.000000 
#    z -0.022950 0.000000 2.147200 
# 
# From -- ./inp_files/153563.got.cif
#   From: 2010.05.17/outbox.cif.g08.bks.cpg/sg12_77_cif.got.tgz:153563.got - 2010.06.03 13:09:07.
