data_PCOD9171667
_publ_section_title
;
Structure prediction by ZEFSAII (Michael W. Deem and Ramdas Pophale) SiO2 
 PCOD9171667
Probable space group: C 2/M
;
_chemical_formula_sum "Si O2"
_cell_formula_units_Z 64
_cell_length_a 29.752637
_cell_length_b 13.557989
_cell_length_c 17.411999
_cell_angle_alpha 90.000000
_cell_angle_beta 147.717625
_cell_angle_gamma 90.000000
_cell_volume 3751.333703
_symmetry_space_group_name_H-M "C 2/M"
_symmetry_group_IT_number 12
_symmetry_cell_setting 'monoclinic'
loop_
_space_group_symop_operation_xyz
x,y,z
-x,y,-z
-x,-y,-z
x,-y,z
1/2+x,1/2+y,z
1/2-x,1/2+y,-z
1/2-x,1/2-y,-z
1/2+x,1/2-y,z
loop_
_atom_site_type_symbol
_atom_site_label
_atom_site_fract_x
_atom_site_fract_y
_atom_site_fract_z
Si Si1 0.911370 0.809360 0.463739
Si Si2 0.954757 0.119214 0.082704
Si Si3 0.099097 0.881120 0.722763
Si Si4 0.768944 0.114347 0.369956
Si Si5 0.682005 0.115302 0.685373
Si Si6 0.353028 0.617650 0.652583
Si Si7 0.314246 0.380703 0.002131
Si Si8 0.675520 0.693064 0.220671
O O1 0.885668 0.848190 0.342167
O O2 0.851881 0.861903 0.439687
O O3 0.892075 0.692617 0.437125
O O4 0.008446 0.836880 0.615176
O O5 0.894529 0.149729 0.066199
O O6 0.051563 0.148512 0.230365
O O7 0.951104 0.000000 0.072801
O O8 0.911887 0.162910 0.944757
O O9 0.168527 0.849868 0.885751
O O10 0.091836 0.000000 0.713703
O O11 0.793583 0.134497 0.493932
O O12 0.698871 0.192535 0.243541
O O13 0.746075 0.000000 0.328113
O O14 0.752357 0.132219 0.720830
O O15 0.658906 0.000000 0.655216
O O16 0.730435 0.145976 0.834153
O O17 0.355082 0.500000 0.669136
O O18 0.325172 0.667486 0.690991
O O19 0.313914 0.500000 0.001421
#
# Coordination Sequence:
#
# PCOD9171667 Si02
#       8
#     8   8   8   8   8   8   8   8
#     4  10  19  30  47  69  89 118 148 180 225 263
#     4   9  16  27  46  71  93 112 142 186 230 262
#     4  10  18  30  48  69  92 114 147 187 221 263
#     4  10  20  32  45  65  93 120 148 181 219 263
#     4   9  18  32  47  66  92 118 147 180 220 268
#     4  10  18  28  46  70  93 115 145 188 227 259
#     4   8  15  28  46  67  91 117 142 180 227 262
#     4  10  18  29  46  68  91 119 149 179 221 266
#
# _framework density 17.060599
#
# number of rings (size 3 to 8) (size 9 to 14) (size 15 to 20)
#    0.000    2.500    0.000    4.875    0.000    3.500 
#    0.000    1.250    0.000    1.500    0.000   20.125 
#    0.000    0.000    0.000    0.000    0.000    0.000 
#
# Total GULP energy -178373.052930 kJ/mol
# GULP energy per Si atom -5574.157904 kJ/mol
# Density = 1.702177 g / cm^3
# Si number density = 17.060599 Si / 1000 Ang^3
#
#
#
# Elastic Constant Matrix: (Units=GPa)
#
#
# Indices 1 2 3 4 5 6 
#
# 1 26.3422 -7.5303 1.0304 0.0000 -17.8268 0.0000
# 2 -7.5303 61.0946 21.1415 0.0000 -0.1715 0.0000
# 3 1.0304 21.1415 20.7740 0.0000 -4.6745 0.0000
# 4 0.0000 0.0000 0.0000 18.1818 0.0000 0.7413
# 5 -17.8268 -0.1715 -4.6745 0.0000 17.0385 0.0000
# 6 0.0000 0.0000 0.0000 0.7413 0.0000 16.2875
#
#
#
# Elastic Compliance Matrix: (Units=1/GPa)
#
#
# Indices 1 2 3 4 5 6 
#
# 1 0.151516 0.013986 0.014872 0.000000 0.162748 0.000000
# 2 0.013986 0.027425 -0.026911 0.000000 0.007526 0.000000
# 3 0.014872 -0.026911 0.083373 0.000000 0.038162 0.000000
# 4 0.000000 0.000000 0.000000 0.055102 0.000000 -0.002508
# 5 0.162748 0.007526 0.038162 0.000000 0.239515 0.000000
# 6 0.000000 0.000000 0.000000 -0.002508 0.000000 0.061511
#
#
# Mechanical properties :
#
#
# Convention : Reuss Voigt Hill
#
# Bulk Modulus (GPa) = 3.75644 15.27710 9.51677
# Shear Modulus (GPa) = 7.10949 16.53949 11.82449
#
# Velocity S-wave (km/s) = 2.04359 3.11699 2.63551
# Velocity P-wave (km/s) = 2.78836 4.68275 3.85377
#
# Compressibility (1/GPa) = 0.26620924
#
# Stress axis : x y z
#
# Youngs Moduli (GPa) = 6.59995 36.46263 11.99428
#
# Poissons Ratio (x) = -0.50996 -0.17838
# Poissons Ratio (y) = -0.09231 0.32277
# Poissons Ratio (z) = -0.09815 0.98123
#
# Static dielectric constant tensor:
#      x y z
#    x 1.585690 0.000000 -0.015010 
#    y 0.000000 1.562060 0.000000 
#    z -0.015010 0.000000 1.584860 
# 
# From -- ./inp_files/296511.got.cif
#   From: 2010.05.17/outbox.cif.g08.bks.cpg/sg12_149_cif.got.tgz:296511.got - 2010.06.03 13:09:07.
