data_PCOD9171239
_publ_section_title
;
Structure prediction by ZEFSAII (Michael W. Deem and Ramdas Pophale) SiO2 
 PCOD9171239
Probable space group: C 2/M
;
_chemical_formula_sum "Si O2"
_cell_formula_units_Z 48
_cell_length_a 20.018980
_cell_length_b 7.335840
_cell_length_c 16.519235
_cell_angle_alpha 90.000000
_cell_angle_beta 119.281070
_cell_angle_gamma 90.000000
_cell_volume 2115.988007
_symmetry_space_group_name_H-M "C 2/M"
_symmetry_group_IT_number 12
_symmetry_cell_setting 'monoclinic'
loop_
_space_group_symop_operation_xyz
x,y,z
-x,y,-z
-x,-y,-z
x,-y,z
1/2+x,1/2+y,z
1/2-x,1/2+y,-z
1/2-x,1/2-y,-z
1/2+x,1/2-y,z
loop_
_atom_site_type_symbol
_atom_site_label
_atom_site_fract_x
_atom_site_fract_y
_atom_site_fract_z
Si Si1 0.401595 0.721039 0.287045
Si Si2 0.231677 0.723330 0.229677
Si Si3 0.440970 0.279849 0.564721
Si Si4 0.220674 0.217271 0.572471
Si Si5 0.475988 0.282604 0.761576
Si Si6 0.071640 0.706106 0.088641
O O1 0.399867 0.500000 0.292163
O O2 0.315392 0.781953 0.248681
O O3 0.470190 0.779656 0.389609
O O4 0.439359 0.766629 0.222362
O O5 0.228961 0.500000 0.225050
O O6 0.229511 0.782548 0.322514
O O7 0.156708 0.787986 0.137870
O O8 0.442816 0.500000 0.555768
O O9 0.366810 0.212415 0.474263
O O10 0.426067 0.240186 0.651847
O O11 0.250000 0.250000 0.500000
O O12 0.216301 0.000000 0.579800
O O13 0.473940 0.500000 0.771322
O O14 0.450416 0.198285 0.829692
O O15 0.078347 0.500000 0.059679
O O16 0.000000 0.793376 0.000000
#
# Coordination Sequence:
#
# PCOD9171239 Si02
#       6
#     8   8   8   8   8   8
#     4   7  13  27  47  69  91 115 147 188 226 259
#     4   9  17  29  46  68  92 119 154 189 221 264
#     4   7  13  25  43  67  91 112 140 180 223 256
#     4  10  18  27  43  69  95 120 149 180 219 266
#     4   8  15  30  50  68  88 117 147 183 228 269
#     4  10  20  32  46  66  92 121 151 186 227 268
#
# _framework density 22.684439000000001
#
# number of rings (size 3 to 8) (size 9 to 14) (size 15 to 20)
#    1.000    2.500    0.000    1.000    0.000    1.000 
#    0.000    4.167    0.000    2.000    0.000    1.167 
#    0.000    0.000    0.000    0.000    0.000    0.000 
#
# Total GULP energy -133622.451197 kJ/mol
# GULP energy per Si atom -5567.602133 kJ/mol
# Density = 2.263281 g / cm^3
# Si number density = 22.684439 Si / 1000 Ang^3
#
#
#
# Elastic Constant Matrix: (Units=GPa)
#
#
# Indices 1 2 3 4 5 6 
#
# 1 105.4037 -5.9255 39.8655 0.0000 39.7615 0.0000
# 2 -5.9255 84.0735 6.7793 0.0000 5.7826 0.0000
# 3 39.8655 6.7793 103.1599 0.0000 55.2993 0.0000
# 4 0.0000 0.0000 0.0000 -31.2361 0.0000 -43.2911
# 5 39.7615 5.7826 55.2993 0.0000 46.8802 0.0000
# 6 0.0000 0.0000 0.0000 -43.2911 0.0000 -39.3329
#
#
#
# Elastic Compliance Matrix: (Units=1/GPa)
#
#
# Indices 1 2 3 4 5 6 
#
# 1 0.014500 0.001885 0.002692 0.000000 -0.015706 0.000000
# 2 0.001885 0.012241 0.000363 0.000000 -0.003537 0.000000
# 3 0.002692 0.000363 0.026864 0.000000 -0.034017 0.000000
# 4 0.000000 0.000000 0.000000 0.060932 0.000000 -0.067064
# 5 -0.015706 -0.003537 -0.034017 0.000000 0.075215 0.000000
# 6 0.000000 0.000000 0.000000 -0.067064 0.000000 0.048389
#
#
# Mechanical properties :
#
#
# Convention : Reuss Voigt Hill
#
# Bulk Modulus (GPa) = 15.75137 41.56396 28.65766
# Shear Modulus (GPa) = 20.04628 12.05678 16.05153
#
# Velocity S-wave (km/s) = 2.97594 2.30793 2.66296
# Velocity P-wave (km/s) = 4.33209 5.04624 4.70274
#
# Compressibility (1/GPa) = 0.06348656
#
# Stress axis : x y z
#
# Youngs Moduli (GPa) = 68.96561 81.69113 37.22390
#
# Poissons Ratio (x) = -0.15400 -0.10021
# Poissons Ratio (y) = -0.13001 -0.01352
# Poissons Ratio (z) = -0.18566 -0.02967
#
# Static dielectric constant tensor:
#      x y z
#    x 1.912020 0.000000 -0.001680 
#    y 0.000000 1.898560 0.000000 
#    z -0.001680 0.000000 1.868990 
# 
# From -- ./inp_files/276142.got.cif
#   From: 2010.05.17/outbox.cif.g08.bks.cpg/sg12_139_cif.got.tgz:276142.got - 2010.06.03 13:09:07.
