data_PCOD9171898
_publ_section_title
;
Structure prediction by ZEFSAII (Michael W. Deem and Ramdas Pophale) SiO2 
 PCOD9171898
Probable space group: C 2/M
;
_chemical_formula_sum "Si O2"
_cell_formula_units_Z 64
_cell_length_a 22.700549
_cell_length_b 30.106563
_cell_length_c 19.529799
_cell_angle_alpha 90.000000
_cell_angle_beta 162.611047
_cell_angle_gamma 90.000000
_cell_volume 3988.948773
_symmetry_space_group_name_H-M "C 2/M"
_symmetry_group_IT_number 12
_symmetry_cell_setting 'monoclinic'
loop_
_space_group_symop_operation_xyz
x,y,z
-x,y,-z
-x,-y,-z
x,-y,z
1/2+x,1/2+y,z
1/2-x,1/2+y,-z
1/2-x,1/2-y,-z
1/2+x,1/2-y,z
loop_
_atom_site_type_symbol
_atom_site_label
_atom_site_fract_x
_atom_site_fract_y
_atom_site_fract_z
Si Si1 0.169146 0.948641 0.106591
Si Si2 0.380557 0.698693 0.581269
Si Si3 0.957685 0.229503 0.374909
Si Si4 0.723350 0.642473 0.998711
Si Si5 0.371506 0.050095 0.184445
Si Si6 0.246958 0.912275 0.341060
Si Si7 0.944148 0.714583 0.148076
Si Si8 0.007504 0.333168 0.428240
O O1 0.975253 0.918918 0.882045
O O2 0.106922 0.000000 0.045659
O O3 0.303256 0.947136 0.188412
O O4 0.261367 0.933132 0.280551
O O5 0.421047 0.701028 0.545407
O O6 0.495027 0.741972 0.739933
O O7 0.151449 0.700141 0.345173
O O8 0.498301 0.657017 0.742193
O O9 0.000000 0.216711 0.500000
O O10 0.027009 0.280529 0.443344
O O11 0.727992 0.226609 0.097146
O O12 0.763256 0.590932 0.027480
O O13 0.850932 0.675759 0.091816
O O14 0.809830 0.652101 0.170020
O O15 0.602269 0.061860 0.443006
O O16 0.334085 0.000000 0.118911
O O17 0.319948 0.861729 0.415355
O O18 0.000000 0.343995 0.500000
#
# Coordination Sequence:
#
# PCOD9171898 Si02
#       8
#     8   8   8   8   8   8   8   8
#     4  10  19  31  43  58  82 119 168 213 249 286
#     4  10  19  34  53  72  94 131 165 194 236 291
#     4  10  19  34  51  71 102 126 153 206 245 276
#     4  10  18  33  50  66  95 128 166 203 240 284
#     4  10  20  31  46  66  89 119 157 202 250 288
#     4  10  18  29  43  59  84 122 164 207 249 287
#     4  10  19  34  53  72  95 128 168 193 235 294
#     4  10  18  29  44  65  96 125 162 208 248 280
#
# _framework density 16.044328
#
# number of rings (size 3 to 8) (size 9 to 14) (size 15 to 20)
#    0.000    2.000    2.500    4.125    0.000    3.500 
#    0.000    2.500    0.000    0.000    0.000    0.000 
#    0.000    8.000    0.000    9.000    0.000    0.000 
#
# Total GULP energy -178461.835824 kJ/mol
# GULP energy per Si atom -5576.932370 kJ/mol
# Density = 1.600781 g / cm^3
# Si number density = 16.044328 Si / 1000 Ang^3
#
#
#
# Elastic Constant Matrix: (Units=GPa)
#
#
# Indices 1 2 3 4 5 6 
#
# 1 44.8522 9.5794 38.1206 0.0001 -8.3517 0.0001
# 2 9.5794 78.9333 35.0256 0.0000 -4.0512 0.0004
# 3 38.1206 35.0256 89.9170 0.0005 5.6587 -0.0008
# 4 0.0001 0.0000 0.0005 19.2047 0.0003 0.9030
# 5 -8.3517 -4.0512 5.6587 0.0003 23.8840 -0.0003
# 6 0.0001 0.0004 -0.0008 0.9030 -0.0003 5.9327
#
#
#
# Elastic Compliance Matrix: (Units=1/GPa)
#
#
# Indices 1 2 3 4 5 6 
#
# 1 0.043975 0.005618 -0.022190 0.000000 0.021587 -0.000003
# 2 0.005618 0.016434 -0.009220 0.000000 0.006936 -0.000002
# 3 -0.022190 -0.009220 0.025081 0.000000 -0.015266 0.000004
# 4 0.000000 0.000000 0.000000 0.052446 -0.000001 -0.007983
# 5 0.021587 0.006936 -0.015266 -0.000001 0.054211 0.000000
# 6 -0.000003 -0.000002 0.000004 -0.007983 0.000000 0.169772
#
#
# Mechanical properties :
#
#
# Convention : Reuss Voigt Hill
#
# Bulk Modulus (GPa) = 29.49341 42.12819 35.81080
# Shear Modulus (GPa) = 11.77005 18.53609 15.15307
#
# Velocity S-wave (km/s) = 2.71144 3.40266 3.07653
# Velocity P-wave (km/s) = 5.31271 6.46157 5.91510
#
# Compressibility (1/GPa) = 0.03390588
#
# Stress axis : x y z
#
# Youngs Moduli (GPa) = 22.74009 60.84806 39.87051
#
# Poissons Ratio (x) = -0.34183 0.88474
# Poissons Ratio (y) = -0.12775 0.36760
# Poissons Ratio (z) = 0.50461 0.56102
#
# Static dielectric constant tensor:
#      x y z
#    x 1.545590 0.000000 0.010860 
#    y 0.000000 1.568720 0.000000 
#    z 0.010860 0.000000 1.542410 
# 
# From -- ./inp_files/286787.got.cif
#   From: 2010.05.17/outbox.cif.g08.bks.cpg/sg12_144_cif.got.tgz:286787.got - 2010.06.03 13:09:07.
