data_PCOD9171794
_publ_section_title
;
Structure prediction by ZEFSAII (Michael W. Deem and Ramdas Pophale) SiO2 
 PCOD9171794
Probable space group: C 2/M
;
_chemical_formula_sum "Si O2"
_cell_formula_units_Z 64
_cell_length_a 30.017562
_cell_length_b 14.011352
_cell_length_c 9.640091
_cell_angle_alpha 90.000000
_cell_angle_beta 97.207688
_cell_angle_gamma 90.000000
_cell_volume 4022.454248
_symmetry_space_group_name_H-M "C 2/M"
_symmetry_group_IT_number 12
_symmetry_cell_setting 'monoclinic'
loop_
_space_group_symop_operation_xyz
x,y,z
-x,y,-z
-x,-y,-z
x,-y,z
1/2+x,1/2+y,z
1/2-x,1/2+y,-z
1/2-x,1/2-y,-z
1/2+x,1/2-y,z
loop_
_atom_site_type_symbol
_atom_site_label
_atom_site_fract_x
_atom_site_fract_y
_atom_site_fract_z
Si Si1 0.155876 0.607969 0.649090
Si Si2 0.578836 0.887602 0.850779
Si Si3 0.111147 0.610565 0.329267
Si Si4 0.195850 0.110854 0.120876
Si Si5 0.857934 0.289188 0.921952
Si Si6 0.233816 0.611591 0.104607
Si Si7 0.990794 0.615836 0.653431
Si Si8 0.243668 0.731556 0.661029
O O1 0.174455 0.500000 0.676237
O O2 0.115966 0.620328 0.743655
O O3 0.133215 0.612654 0.489051
O O4 0.195240 0.684694 0.671654
O O5 0.530905 0.856225 0.771586
O O6 0.576142 0.000000 0.889101
O O7 0.598135 0.825187 0.982507
O O8 0.112968 0.500000 0.280810
O O9 0.137362 0.677382 0.234404
O O10 0.059223 0.640885 0.319624
O O11 0.153600 0.178283 0.071850
O O12 0.220057 0.156599 0.264146
O O13 0.185544 0.000000 0.134481
O O14 0.230999 0.121321 0.007177
O O15 0.814178 0.345978 0.961083
O O16 0.229054 0.500000 0.136924
O O17 0.249408 0.673917 0.242566
O O18 0.992106 0.500000 0.649017
O O19 0.000000 0.649387 0.500000
O O20 0.250000 0.750000 0.500000
#
# Coordination Sequence:
#
# PCOD9171794 Si02
#       8
#     8   8   8   8   8   8   8   8
#     4  10  18  29  46  66  90 128 168 193 225 278
#     4  10  18  28  48  72  96 126 158 192 227 282
#     4  10  19  30  46  68 101 133 154 188 239 289
#     4  10  21  37  53  66  93 136 170 203 246 288
#     4  11  20  31  47  73  97 118 160 206 238 277
#     4  10  20  35  51  67  97 136 168 200 240 286
#     4   9  16  30  46  67 100 133 158 182 227 292
#     4  11  21  31  47  73 101 127 161 208 246 286
#
# _framework density 15.910684
#
# number of rings (size 3 to 8) (size 9 to 14) (size 15 to 20)
#    0.000    1.875    1.250    6.000    0.000    4.500 
#    0.000    1.875    0.000    0.000    0.000    1.750 
#    0.000    1.000    0.000    0.000    0.000    0.000 
#
# Total GULP energy -178598.040589 kJ/mol
# GULP energy per Si atom -5581.188768 kJ/mol
# Density = 1.587447 g / cm^3
# Si number density = 15.910684 Si / 1000 Ang^3
#
#
#
# Elastic Constant Matrix: (Units=GPa)
#
#
# Indices 1 2 3 4 5 6 
#
# 1 55.2487 26.8434 -0.5823 0.0000 14.7721 0.0000
# 2 26.8434 93.1553 27.2900 0.0000 5.1054 0.0000
# 3 -0.5823 27.2900 58.7160 0.0000 7.2269 0.0000
# 4 0.0000 0.0000 0.0000 15.2447 0.0000 -0.6713
# 5 14.7721 5.1054 7.2269 0.0000 28.2890 0.0000
# 6 0.0000 0.0000 0.0000 -0.6713 0.0000 13.0959
#
#
#
# Elastic Compliance Matrix: (Units=1/GPa)
#
#
# Indices 1 2 3 4 5 6 
#
# 1 0.025853 -0.008419 0.005827 0.000000 -0.013469 0.000000
# 2 -0.008419 0.015185 -0.007584 0.000000 0.003593 0.000000
# 3 0.005827 -0.007584 0.021496 0.000000 -0.007166 0.000000
# 4 0.000000 0.000000 0.000000 0.065745 0.000000 0.003370
# 5 -0.013469 0.003593 -0.007166 0.000000 0.043565 0.000000
# 6 0.000000 0.000000 0.000000 0.003370 0.000000 0.076532
#
#
# Mechanical properties :
#
#
# Convention : Reuss Voigt Hill
#
# Bulk Modulus (GPa) = 23.70582 34.91356 29.30969
# Shear Modulus (GPa) = 17.68110 21.56385 19.62247
#
# Velocity S-wave (km/s) = 3.33719 3.68544 3.51563
# Velocity P-wave (km/s) = 5.45718 6.33254 5.91109
#
# Compressibility (1/GPa) = 0.04218373
#
# Stress axis : x y z
#
# Youngs Moduli (GPa) = 38.68015 65.85296 46.52126
#
# Poissons Ratio (x) = 0.55439 -0.27108
# Poissons Ratio (y) = 0.32563 0.35280
# Poissons Ratio (z) = -0.22539 0.49940
#
# Static dielectric constant tensor:
#      x y z
#    x 1.535890 0.000000 0.000490 
#    y 0.000000 1.516980 0.000000 
#    z 0.000490 0.000000 1.549010 
# 
# From -- ./inp_files/111165.got.cif
#   From: 2010.05.17/outbox.cif.g08.bks.cpg/sg12_56_cif.got.tgz:111165.got - 2010.06.03 13:09:07.
