data_PCOD9171739
_publ_section_title
;
Structure prediction by ZEFSAII (Michael W. Deem and Ramdas Pophale) SiO2 
 PCOD9171739
Probable space group: C 2/M
;
_chemical_formula_sum "Si O2"
_cell_formula_units_Z 48
_cell_length_a 20.912838
_cell_length_b 8.771810
_cell_length_c 20.764035
_cell_angle_alpha 90.000000
_cell_angle_beta 48.506475
_cell_angle_gamma 90.000000
_cell_volume 2853.077055
_symmetry_space_group_name_H-M "C 2/M"
_symmetry_group_IT_number 12
_symmetry_cell_setting 'monoclinic'
loop_
_space_group_symop_operation_xyz
x,y,z
-x,y,-z
-x,-y,-z
x,-y,z
1/2+x,1/2+y,z
1/2-x,1/2+y,-z
1/2-x,1/2-y,-z
1/2+x,1/2-y,z
loop_
_atom_site_type_symbol
_atom_site_label
_atom_site_fract_x
_atom_site_fract_y
_atom_site_fract_z
Si Si1 0.660638 0.817844 0.537314
Si Si2 0.731772 0.317222 0.912563
Si Si3 0.900829 0.183339 0.555920
Si Si4 0.383896 0.317475 0.899656
Si Si5 0.990019 0.317214 0.724431
Si Si6 0.338250 0.317275 0.737578
O O1 0.750000 0.750000 0.500000
O O2 0.635993 0.760190 0.482884
O O3 0.583198 0.773336 0.636820
O O4 0.665509 0.000000 0.534050
O O5 0.740814 0.500000 0.905202
O O6 0.806136 0.246874 0.908042
O O7 0.754119 0.249457 0.828149
O O8 0.643614 0.280749 0.008634
O O9 0.849901 0.222178 0.655040
O O10 0.000000 0.226494 0.500000
O O11 0.898200 0.000000 0.549547
O O12 0.386991 0.500000 0.891227
O O13 0.466205 0.244963 0.811098
O O14 0.981916 0.500000 0.729362
O O15 0.920057 0.248803 0.721583
O O16 0.339160 0.500000 0.743527
#
# Coordination Sequence:
#
# PCOD9171739 Si02
#       6
#     8   8   8   8   8   8
#     4  11  24  38  54  75 102 136 173 214 257 303
#     4   9  16  25  38  62  96 128 160 201 244 291
#     4  10  20  35  54  76 103 135 171 211 254 303
#     4   9  16  25  40  62  91 129 164 197 245 297
#     4  10  19  30  46  70  97 128 166 208 250 295
#     4  10  18  28  47  72  98 132 166 201 249 298
#
# _framework density 16.82394
#
# number of rings (size 3 to 8) (size 9 to 14) (size 15 to 20)
#    0.000    2.167    1.667    4.500    0.000    5.667 
#    0.000    0.000    0.000    0.000    0.000    1.167 
#    0.000    9.333    0.000    0.000    0.000    0.000 
#
# Total GULP energy -133756.684757 kJ/mol
# GULP energy per Si atom -5573.195198 kJ/mol
# Density = 1.678565 g / cm^3
# Si number density = 16.823940 Si / 1000 Ang^3
#
#
#
# Elastic Constant Matrix: (Units=GPa)
#
#
# Indices 1 2 3 4 5 6 
#
# 1 64.2513 25.4686 58.3356 0.0000 -2.1622 0.0000
# 2 25.4686 56.1429 62.2567 0.0000 -0.6929 0.0000
# 3 58.3356 62.2567 209.0582 0.0000 4.6196 0.0000
# 4 0.0000 0.0000 0.0000 31.8087 0.0000 0.9256
# 5 -2.1622 -0.6929 4.6196 0.0000 11.5176 0.0000
# 6 0.0000 0.0000 0.0000 0.9256 0.0000 17.6709
#
#
#
# Elastic Compliance Matrix: (Units=1/GPa)
#
#
# Indices 1 2 3 4 5 6 
#
# 1 0.022012 -0.004417 -0.004956 0.000000 0.005854 0.000000
# 2 -0.004417 0.027748 -0.007112 0.000000 0.003693 0.000000
# 3 -0.004956 -0.007112 0.008389 0.000000 -0.004723 0.000000
# 4 0.000000 0.000000 0.000000 0.031486 0.000000 -0.001649
# 5 0.005854 0.003693 -0.004723 0.000000 0.090039 0.000000
# 6 0.000000 0.000000 0.000000 -0.001649 0.000000 0.056677
#
#
# Mechanical properties :
#
#
# Convention : Reuss Voigt Hill
#
# Bulk Modulus (GPa) = 39.71883 69.06378 54.39131
# Shear Modulus (GPa) = 18.00417 24.42554 21.21486
#
# Velocity S-wave (km/s) = 3.27487 3.81443 3.55490
# Velocity P-wave (km/s) = 6.16112 7.78073 7.01781
#
# Compressibility (1/GPa) = 0.02517697
#
# Stress axis : x y z
#
# Youngs Moduli (GPa) = 45.43061 36.03886 119.20908
#
# Poissons Ratio (x) = 0.15920 0.59080
# Poissons Ratio (y) = 0.20068 0.84784
# Poissons Ratio (z) = 0.22515 0.25631
#
# Static dielectric constant tensor:
#      x y z
#    x 1.517000 0.000000 0.003900 
#    y 0.000000 1.562830 0.000000 
#    z 0.003900 0.000000 1.642330 
# 
# From -- ./inp_files/318986.got.cif
#   From: 2010.05.17/outbox.cif.g08.bks.cpg/sg12_160_cif.got.tgz:318986.got - 2010.06.03 13:09:07.
