data_PCOD9171650
_publ_section_title
;
Structure prediction by ZEFSAII (Michael W. Deem and Ramdas Pophale) SiO2 
 PCOD9171650
Probable space group: C 2/M
;
_chemical_formula_sum "Si O2"
_cell_formula_units_Z 64
_cell_length_a 20.035719
_cell_length_b 28.619979
_cell_length_c 16.143988
_cell_angle_alpha 90.000000
_cell_angle_beta 159.853602
_cell_angle_gamma 90.000000
_cell_volume 3188.405172
_symmetry_space_group_name_H-M "C 2/M"
_symmetry_group_IT_number 12
_symmetry_cell_setting 'monoclinic'
loop_
_space_group_symop_operation_xyz
x,y,z
-x,y,-z
-x,-y,-z
x,-y,z
1/2+x,1/2+y,z
1/2-x,1/2+y,-z
1/2-x,1/2-y,-z
1/2+x,1/2-y,z
loop_
_atom_site_type_symbol
_atom_site_label
_atom_site_fract_x
_atom_site_fract_y
_atom_site_fract_z
Si Si1 0.194407 0.708699 0.084573
Si Si2 0.390978 0.316589 0.004244
Si Si3 0.911996 0.131036 0.633984
Si Si4 0.133559 0.210488 0.541985
Si Si5 0.805227 0.054242 0.392741
Si Si6 0.695778 0.181045 0.609036
Si Si7 0.479702 0.129269 0.733623
Si Si8 0.615566 0.053936 0.004739
O O1 0.414248 0.699498 0.312783
O O2 0.212158 0.702602 0.204572
O O3 0.138513 0.762711 0.003481
O O4 0.058095 0.673441 0.877274
O O5 0.408827 0.351002 0.102884
O O6 0.597446 0.320515 0.197443
O O7 0.233189 0.327000 0.749736
O O8 0.829682 0.176645 0.491044
O O9 0.937668 0.090380 0.596737
O O10 0.738306 0.115990 0.491984
O O11 0.132340 0.265449 0.522933
O O12 0.765695 0.068642 0.251621
O O13 0.867639 0.000000 0.466902
O O14 0.594724 0.055984 0.193732
O O15 0.547734 0.146241 0.392083
O O16 0.607303 0.086459 0.915119
O O17 0.651770 0.000000 0.026755
#
# Coordination Sequence:
#
# PCOD9171650 Si02
#       8
#     8   8   8   8   8   8   8   8
#     4  10  20  31  43  63  91 118 143 175 216 259
#     4   9  18  31  44  60  86 118 149 180 213 250
#     4  10  18  28  46  67  85 112 149 182 212 251
#     4  10  20  31  43  63  91 118 143 175 216 259
#     4   8  14  25  42  65  89 109 134 173 217 258
#     4   9  18  31  44  60  86 118 149 180 213 250
#     4  10  18  28  46  67  85 112 149 182 212 251
#     4   8  14  25  42  65  89 109 134 173 217 258
#
# _framework density 20.072731999999998
#
# number of rings (size 3 to 8) (size 9 to 14) (size 15 to 20)
#    0.000    2.750    0.000    3.000    0.000    6.500 
#    0.000    0.000    0.000    1.500    0.000    8.750 
#    0.000    0.000    0.000    8.500    0.000    9.250 
#
# Total GULP energy -178575.174571 kJ/mol
# GULP energy per Si atom -5580.474205 kJ/mol
# Density = 2.002705 g / cm^3
# Si number density = 20.072732 Si / 1000 Ang^3
#
#
#
# Elastic Constant Matrix: (Units=GPa)
#
#
# Indices 1 2 3 4 5 6 
#
# 1 20.7549 23.9530 32.2311 -0.0001 -11.5101 -0.0002
# 2 23.9530 88.0594 51.2441 0.0000 -40.0650 -0.0001
# 3 32.2311 51.2441 78.9537 -0.0005 -11.5255 -0.0007
# 4 -0.0001 0.0000 -0.0005 -15.7862 -0.0002 -68.5120
# 5 -11.5101 -40.0650 -11.5255 -0.0002 41.0234 -0.0003
# 6 -0.0002 -0.0001 -0.0007 -68.5120 -0.0003 -51.5286
#
#
#
# Elastic Compliance Matrix: (Units=1/GPa)
#
#
# Indices 1 2 3 4 5 6 
#
# 1 0.161900 0.015151 -0.070006 0.000000 0.040554 0.000000
# 2 0.015151 0.037374 -0.025541 0.000000 0.033576 0.000000
# 3 -0.070006 -0.025541 0.053507 0.000000 -0.029553 0.000000
# 4 0.000000 0.000000 0.000000 0.013279 0.000000 -0.017656
# 5 0.040554 0.033576 -0.029553 0.000000 0.060243 0.000000
# 6 0.000000 0.000000 0.000000 -0.017656 0.000000 0.004068
#
#
# Mechanical properties :
#
#
# Convention : Reuss Voigt Hill
#
# Bulk Modulus (GPa) = 10.87081 44.73605 27.80343
# Shear Modulus (GPa) = 9.58174 0.09771 4.83972
#
# Velocity S-wave (km/s) = 2.18721 0.22087 1.55445
# Velocity P-wave (km/s) = 3.43598 4.73291 4.13560
#
# Compressibility (1/GPa) = 0.09198947
#
# Stress axis : x y z
#
# Youngs Moduli (GPa) = 6.17665 26.75648 18.68923
#
# Poissons Ratio (x) = -0.40538 1.30835
# Poissons Ratio (y) = -0.09358 0.47734
# Poissons Ratio (z) = 0.43240 0.68338
#
# Static dielectric constant tensor:
#      x y z
#    x 1.786830 0.000000 0.021800 
#    y 0.000000 1.649260 0.000000 
#    z 0.021800 0.000000 1.739220 
# 
# From -- ./inp_files/67868.got.cif
#   From: 2010.05.17/outbox.cif.g08.bks.cpg/sg12_34_cif.got.tgz:67868.got - 2010.06.03 13:09:07.
