data_PCOD9171882
_publ_section_title
;
Structure prediction by ZEFSAII (Michael W. Deem and Ramdas Pophale) SiO2 
 PCOD9171882
Probable space group: C 2/M
;
_chemical_formula_sum "Si O2"
_cell_formula_units_Z 52
_cell_length_a 18.555809
_cell_length_b 15.203564
_cell_length_c 15.827590
_cell_angle_alpha 90.000000
_cell_angle_beta 149.125607
_cell_angle_gamma 90.000000
_cell_volume 2291.347453
_symmetry_space_group_name_H-M "C 2/M"
_symmetry_group_IT_number 12
_symmetry_cell_setting 'monoclinic'
loop_
_space_group_symop_operation_xyz
x,y,z
-x,y,-z
-x,-y,-z
x,-y,z
1/2+x,1/2+y,z
1/2-x,1/2+y,-z
1/2-x,1/2-y,-z
1/2+x,1/2-y,z
loop_
_atom_site_type_symbol
_atom_site_label
_atom_site_fract_x
_atom_site_fract_y
_atom_site_fract_z
Si Si1 0.092258 0.897532 0.763602
Si Si2 0.648482 0.000000 0.605014
Si Si3 0.500000 0.314932 0.500000
Si Si4 0.163054 0.820847 0.064283
Si Si5 0.121085 0.396011 0.838997
Si Si6 0.728698 0.809516 0.644144
Si Si7 0.405331 0.500000 0.984846
Si Si8 0.450300 0.249226 0.735021
O O1 0.082158 0.871229 0.654200
O O2 0.995281 0.826304 0.715227
O O3 0.048798 0.000000 0.729529
O O4 0.249009 0.890986 0.962542
O O5 0.500000 0.000000 0.500000
O O6 0.679300 0.910428 0.586660
O O7 0.752461 0.000000 0.790065
O O8 0.393728 0.253021 0.444967
O O9 0.314421 0.839744 0.174971
O O10 0.169601 0.812888 0.170819
O O11 0.078322 0.909635 0.952279
O O12 0.074262 0.747414 0.930504
O O13 0.099785 0.500000 0.801083
O O14 0.979620 0.345224 0.722479
O O15 0.809308 0.771227 0.644410
O O16 0.500000 0.500000 0.000000
#
# Coordination Sequence:
#
# PCOD9171882 Si02
#       8
#     8   4   4   8   8   8   4   8
#     4  10  23  41  64  89 120 167 210 253 302 364
#     4  10  20  38  54  90 134 168 200 241 317 393
#     4  12  23  43  62  78 118 168 225 252 289 360
#     4  10  18  35  58  93 125 159 192 246 320 383
#     4  10  20  39  62  92 127 160 197 249 318 383
#     4  11  23  36  63  91 125 161 203 253 309 375
#     4  10  18  28  54  92 126 154 199 251 305 379
#     4  11  22  37  63  94 128 151 201 262 318 369
#
# _framework density 22.69407
#
# number of rings (size 3 to 8) (size 9 to 14) (size 15 to 20)
#    0.000    1.538    1.538    6.231    2.154    0.615 
#    0.000    1.538    0.000    3.692    0.000    0.000 
#    0.000    0.000    0.000    0.000    0.000    0.000 
#
# Total GULP energy -145267.126973 kJ/mol
# GULP energy per Si atom -5587.197191 kJ/mol
# Density = 2.264242 g / cm^3
# Si number density = 22.694070 Si / 1000 Ang^3
#
#
#
# Elastic Constant Matrix: (Units=GPa)
#
#
# Indices 1 2 3 4 5 6 
#
# 1 171.2920 75.9497 43.4498 0.0001 9.2291 0.0000
# 2 75.9497 119.2744 42.3521 0.0000 4.2652 0.0000
# 3 43.4498 42.3521 82.9958 0.0000 -20.6088 0.0000
# 4 0.0001 0.0000 0.0000 26.2149 0.0000 -0.9853
# 5 9.2291 4.2652 -20.6088 0.0000 46.3219 0.0000
# 6 0.0000 0.0000 0.0000 -0.9853 0.0000 44.5414
#
#
#
# Elastic Compliance Matrix: (Units=1/GPa)
#
#
# Indices 1 2 3 4 5 6 
#
# 1 0.008672 -0.004375 -0.002964 0.000000 -0.002644 0.000000
# 2 -0.004375 0.013035 -0.004994 0.000000 -0.002550 0.000000
# 3 -0.002964 -0.004994 0.018448 0.000000 0.009258 0.000000
# 4 0.000000 0.000000 0.000000 0.038178 0.000000 0.000845
# 5 -0.002644 -0.002550 0.009258 0.000000 0.026468 0.000000
# 6 0.000000 0.000000 0.000000 0.000845 0.000000 0.022470
#
#
# Mechanical properties :
#
#
# Convention : Reuss Voigt Hill
#
# Bulk Modulus (GPa) = 64.56635 77.45173 71.00904
# Shear Modulus (GPa) = 31.82688 37.53634 34.68161
#
# Velocity S-wave (km/s) = 3.74897 4.07137 3.91349
# Velocity P-wave (km/s) = 6.87402 7.50361 7.19570
#
# Compressibility (1/GPa) = 0.01548794
#
# Stress axis : x y z
#
# Youngs Moduli (GPa) = 115.31167 76.71913 54.20705
#
# Poissons Ratio (x) = 0.33566 0.16066
# Poissons Ratio (y) = 0.50451 0.27072
# Poissons Ratio (z) = 0.34176 0.38316
#
# Static dielectric constant tensor:
#      x y z
#    x 1.847890 0.000000 0.004760 
#    y 0.000000 1.875450 0.000000 
#    z 0.004760 0.000000 1.906800 
# 
# From -- ./inp_files/289793.got.cif
#   From: 2010.05.17/outbox.cif.g08.bks.cpg/sg12_145_cif.got.tgz:289793.got - 2010.06.03 13:09:07.
