data_PCOD9171463
_publ_section_title
;
Structure prediction by ZEFSAII (Michael W. Deem and Ramdas Pophale) SiO2 
 PCOD9171463
Probable space group: C 2/M
;
_chemical_formula_sum "Si O2"
_cell_formula_units_Z 48
_cell_length_a 20.938850
_cell_length_b 7.583390
_cell_length_c 17.161426
_cell_angle_alpha 90.000000
_cell_angle_beta 112.830840
_cell_angle_gamma 90.000000
_cell_volume 2511.526160
_symmetry_space_group_name_H-M "C 2/M"
_symmetry_group_IT_number 12
_symmetry_cell_setting 'monoclinic'
loop_
_space_group_symop_operation_xyz
x,y,z
-x,y,-z
-x,-y,-z
x,-y,z
1/2+x,1/2+y,z
1/2-x,1/2+y,-z
1/2-x,1/2-y,-z
1/2+x,1/2-y,z
loop_
_atom_site_type_symbol
_atom_site_label
_atom_site_fract_x
_atom_site_fract_y
_atom_site_fract_z
Si Si1 0.793423 0.796782 0.399882
Si Si2 0.934687 0.795951 0.762757
Si Si3 0.149672 0.216630 0.418583
Si Si4 0.792341 0.292915 0.776759
Si Si5 0.460865 0.283791 0.060793
Si Si6 0.694775 0.709246 0.040123
O O1 0.846738 0.724113 0.489694
O O2 0.719645 0.784891 0.410245
O O3 0.771662 0.721075 0.305603
O O4 0.813952 0.000000 0.397500
O O5 0.912181 0.724363 0.667585
O O6 0.864757 0.789980 0.782397
O O7 0.996082 0.718960 0.844016
O O8 0.952479 0.000000 0.757738
O O9 0.152719 0.000000 0.418659
O O10 0.798629 0.500000 0.760990
O O11 0.783807 0.275198 0.864525
O O12 0.461972 0.500000 0.063336
O O13 0.500000 0.232146 0.000000
O O14 0.381676 0.223956 0.018748
O O15 0.688744 0.500000 0.044822
O O16 0.750000 0.750000 0.000000
#
# Coordination Sequence:
#
# PCOD9171463 Si02
#       6
#     8   8   8   8   8   8
#     4   8  14  23  35  56  88 119 144 178 222 264
#     4   9  15  26  45  67  90 120 155 186 223 271
#     4   8  13  21  36  59  86 115 147 181 217 262
#     4  10  18  28  43  65  93 123 153 185 227 269
#     4   9  16  29  49  70  91 119 152 188 231 273
#     4  11  22  36  51  67  92 121 155 193 230 274
#
# _framework density 19.111885000000001
#
# number of rings (size 3 to 8) (size 9 to 14) (size 15 to 20)
#    0.000    2.833    1.667    1.000    0.000    0.667 
#    0.000    2.500    0.000    0.000    0.000    1.167 
#    0.000    9.333    0.000    0.000    0.000    0.000 
#
# Total GULP energy -133603.368148 kJ/mol
# GULP energy per Si atom -5566.807006 kJ/mol
# Density = 1.906839 g / cm^3
# Si number density = 19.111885 Si / 1000 Ang^3
#
#
#
# Elastic Constant Matrix: (Units=GPa)
#
#
# Indices 1 2 3 4 5 6 
#
# 1 63.5895 -4.5688 58.7977 0.0000 5.4663 0.0000
# 2 -4.5688 50.0024 0.0360 0.0000 3.3034 0.0000
# 3 58.7977 0.0360 247.5681 0.0000 12.2269 0.0000
# 4 0.0000 0.0000 0.0000 -7.2641 0.0000 10.9266
# 5 5.4663 3.3034 12.2269 0.0000 13.0487 0.0000
# 6 0.0000 0.0000 0.0000 10.9266 0.0000 2.3787
#
#
#
# Elastic Compliance Matrix: (Units=1/GPa)
#
#
# Indices 1 2 3 4 5 6 
#
# 1 0.020604 0.002205 -0.004655 0.000000 -0.004827 0.000000
# 2 0.002205 0.020592 -0.000234 0.000000 -0.005917 0.000000
# 3 -0.004655 -0.000234 0.005291 0.000000 -0.002948 0.000000
# 4 0.000000 0.000000 0.000000 -0.017405 0.000000 0.079949
# 5 -0.004827 -0.005917 -0.002948 0.000000 0.082918 0.000000
# 6 0.000000 0.000000 0.000000 0.079949 0.000000 0.053151
#
#
# Mechanical properties :
#
#
# Convention : Reuss Voigt Hill
#
# Bulk Modulus (GPa) = 24.32140 52.18777 38.25458
# Shear Modulus (GPa) = 27.14077 22.09235 24.61656
#
# Velocity S-wave (km/s) = 3.77251 3.40361 3.59280
# Velocity P-wave (km/s) = 5.63287 6.54308 6.10496
#
# Compressibility (1/GPa) = 0.04111606
#
# Stress axis : x y z
#
# Youngs Moduli (GPa) = 48.53481 48.56356 189.01581
#
# Poissons Ratio (x) = -0.10708 0.87993
# Poissons Ratio (y) = -0.10701 0.04431
# Poissons Ratio (z) = 0.22595 0.01138
#
# Static dielectric constant tensor:
#      x y z
#    x 1.585970 0.000000 0.031810 
#    y 0.000000 1.397590 0.000000 
#    z 0.031810 0.000000 1.758170 
# 
# From -- ./inp_files/236604.got.cif
#   From: 2010.05.17/outbox.cif.g08.bks.cpg/sg12_119_cif.got.tgz:236604.got - 2010.06.03 13:09:07.
