data_PCOD9171930
_publ_section_title
;
Structure prediction by ZEFSAII (Michael W. Deem and Ramdas Pophale) SiO2 
 PCOD9171930
Probable space group: C 2/M
;
_chemical_formula_sum "Si O2"
_cell_formula_units_Z 56
_cell_length_a 13.880386
_cell_length_b 29.173894
_cell_length_c 9.831644
_cell_angle_alpha 90.000000
_cell_angle_beta 108.539935
_cell_angle_gamma 90.000000
_cell_volume 3774.655078
_symmetry_space_group_name_H-M "C 2/M"
_symmetry_group_IT_number 12
_symmetry_cell_setting 'monoclinic'
loop_
_space_group_symop_operation_xyz
x,y,z
-x,y,-z
-x,-y,-z
x,-y,z
1/2+x,1/2+y,z
1/2-x,1/2+y,-z
1/2-x,1/2-y,-z
1/2+x,1/2-y,z
loop_
_atom_site_type_symbol
_atom_site_label
_atom_site_fract_x
_atom_site_fract_y
_atom_site_fract_z
Si Si1 0.190187 0.303448 0.623522
Si Si2 0.399753 0.000000 0.046108
Si Si3 0.104480 0.600839 0.959964
Si Si4 0.110754 0.249336 0.845696
Si Si5 0.379405 0.759214 0.673919
Si Si6 0.399695 0.000000 0.364086
Si Si7 0.104324 0.600983 0.634370
Si Si8 0.794622 0.309554 0.883087
O O1 0.153198 0.284261 0.751236
O O2 0.302634 0.283722 0.647752
O O3 0.121081 0.279720 0.477303
O O4 0.175783 0.357713 0.618850
O O5 0.349975 0.950404 0.999214
O O6 0.428992 0.000000 0.218222
O O7 0.500000 0.000000 0.000000
O O8 0.084712 0.606565 0.788639
O O9 0.175396 0.641068 0.047687
O O10 0.000000 0.603796 0.000000
O O11 0.177104 0.203640 0.852901
O O12 0.991055 0.246053 0.773086
O O13 0.141627 0.271953 0.001912
O O14 0.330039 0.798961 0.746145
O O15 0.500000 0.000000 0.500000
O O16 0.350331 0.049757 0.366349
O O17 0.000000 0.604099 0.500000
#
# Coordination Sequence:
#
# PCOD9171930 Si02
#       8
#     8   4   8   8   8   4   8   8
#     4  10  20  30  46  65  85 115 150 174 217 263
#     4   8  16  28  42  60  85 113 142 176 217 259
#     4  10  18  29  44  64  88 116 146 179 217 259
#     4  10  18  32  44  61  88 114 143 182 212 247
#     4  10  20  32  44  63  88 116 145 182 214 252
#     4   8  16  28  42  62  83 111 144 176 217 259
#     4  10  18  29  45  63  88 116 145 180 217 260
#     4  10  20  28  44  65  85 114 149 173 210 261
#
# _framework density 14.835793000000001
#
# number of rings (size 3 to 8) (size 9 to 14) (size 15 to 20)
#    0.000    2.286    1.429    2.571    2.000    0.000 
#    0.000    0.000    0.000    0.000    0.000    1.000 
#    0.000    3.429    0.000   10.429    0.000    0.000 
#
# Total GULP energy -155885.363233 kJ/mol
# GULP energy per Si atom -5567.334401 kJ/mol
# Density = 1.480203 g / cm^3
# Si number density = 14.835793 Si / 1000 Ang^3
#
#
#
# Elastic Constant Matrix: (Units=GPa)
#
#
# Indices 1 2 3 4 5 6 
#
# 1 54.8337 34.9767 5.7675 0.0000 10.1650 0.0000
# 2 34.9767 135.7951 13.3336 0.0000 5.1293 0.0000
# 3 5.7675 13.3336 32.7641 0.0000 2.4802 0.0000
# 4 0.0000 0.0000 0.0000 20.2161 0.0000 3.6892
# 5 10.1650 5.1293 2.4802 0.0000 15.8004 0.0000
# 6 0.0000 0.0000 0.0000 3.6892 0.0000 16.9707
#
#
#
# Elastic Compliance Matrix: (Units=1/GPa)
#
#
# Indices 1 2 3 4 5 6 
#
# 1 0.024530 -0.005704 -0.000954 0.000000 -0.013780 0.000000
# 2 -0.005704 0.009061 -0.002772 0.000000 0.001163 0.000000
# 3 -0.000954 -0.002772 0.032084 0.000000 -0.003523 0.000000
# 4 0.000000 0.000000 0.000000 0.051509 0.000000 -0.011197
# 5 -0.013780 0.001163 -0.003523 0.000000 0.072330 0.000000
# 6 0.000000 0.000000 0.000000 -0.011197 0.000000 0.061359
#
#
# Mechanical properties :
#
#
# Convention : Reuss Voigt Hill
#
# Bulk Modulus (GPa) = 21.35987 36.83873 29.09930
# Shear Modulus (GPa) = 17.52308 21.88512 19.70410
#
# Velocity S-wave (km/s) = 3.44049 3.84494 3.64833
# Velocity P-wave (km/s) = 5.49649 6.67805 6.11587
#
# Compressibility (1/GPa) = 0.04681676
#
# Stress axis : x y z
#
# Youngs Moduli (GPa) = 40.76598 110.35764 31.16850
#
# Poissons Ratio (x) = 0.62949 0.02972
# Poissons Ratio (y) = 0.23253 0.08639
# Poissons Ratio (z) = 0.03888 0.30586
#
# Static dielectric constant tensor:
#      x y z
#    x 1.467700 0.000000 -0.006680 
#    y 0.000000 1.521560 0.000000 
#    z -0.006680 0.000000 1.509150 
# 
# From -- ./inp_files/67658.got.cif
#   From: 2010.05.17/outbox.cif.g08.bks.cpg/sg12_34_cif.got.tgz:67658.got - 2010.06.03 13:09:07.
