data_PCOD9171244
_publ_section_title
;
Structure prediction by ZEFSAII (Michael W. Deem and Ramdas Pophale) SiO2 
 PCOD9171244
Probable space group: C 2/M
;
_chemical_formula_sum "Si O2"
_cell_formula_units_Z 48
_cell_length_a 20.308960
_cell_length_b 12.703145
_cell_length_c 23.698168
_cell_angle_alpha 90.000000
_cell_angle_beta 31.026070
_cell_angle_gamma 90.000000
_cell_volume 3151.241983
_symmetry_space_group_name_H-M "C 2/M"
_symmetry_group_IT_number 12
_symmetry_cell_setting 'monoclinic'
loop_
_space_group_symop_operation_xyz
x,y,z
-x,y,-z
-x,-y,-z
x,-y,z
1/2+x,1/2+y,z
1/2-x,1/2+y,-z
1/2-x,1/2-y,-z
1/2+x,1/2-y,z
loop_
_atom_site_type_symbol
_atom_site_label
_atom_site_fract_x
_atom_site_fract_y
_atom_site_fract_z
Si Si1 0.176464 0.124121 0.500009
Si Si2 0.874293 0.872097 0.125686
Si Si3 0.578643 0.809395 0.500018
Si Si4 0.063416 0.749995 0.686601
Si Si5 0.864037 0.877098 0.263432
Si Si6 0.890897 0.622905 0.736608
O O1 0.109406 0.192096 0.500012
O O2 0.112004 0.163466 0.605544
O O3 0.323065 0.163458 0.394465
O O4 0.167104 0.000000 0.500014
O O5 0.875339 0.840548 0.190407
O O6 0.743856 0.840542 0.190341
O O7 0.873312 0.000000 0.126665
O O8 0.000000 0.837103 0.000000
O O9 0.500000 0.811284 0.500000
O O10 0.715527 0.864178 0.390515
O O11 0.496509 0.864167 0.609534
O O12 0.055659 0.806458 0.752360
O O13 0.939653 0.693534 0.752373
O O14 0.899149 0.000000 0.241257
O O15 0.881674 0.500000 0.758769
#
# Coordination Sequence:
#
# PCOD9171244 Si02
#       6
#     8   8   8   8   8   8
#     4   9  17  28  40  59  96 129 146 177 219 263
#     4   9  18  31  47  67  89 115 146 186 234 268
#     4  10  18  27  43  70  94 116 152 181 215 272
#     4   9  18  28  43  66  90 120 157 181 210 272
#     4  10  18  29  47  68  94 120 145 185 225 263
#     4  10  18  29  47  68  94 120 145 185 225 263
#
# _framework density 15.232089999999999
#
# number of rings (size 3 to 8) (size 9 to 14) (size 15 to 20)
#    0.000    2.500    1.667    2.500    0.000    1.000 
#    0.000    0.833    0.000    0.000    0.000    0.000 
#    0.000   45.333    0.000    0.000    0.000    0.000 
#
# Total GULP energy -133768.573903 kJ/mol
# GULP energy per Si atom -5573.690579 kJ/mol
# Density = 1.519742 g / cm^3
# Si number density = 15.232090 Si / 1000 Ang^3
#
#
#
# Elastic Constant Matrix: (Units=GPa)
#
#
# Indices 1 2 3 4 5 6 
#
# 1 139.0876 40.0028 37.6174 -0.0001 0.7537 0.0000
# 2 40.0028 76.8409 9.2665 -0.0004 0.2519 0.0001
# 3 37.6174 9.2665 72.6449 -0.0005 -0.2842 0.0001
# 4 -0.0001 -0.0004 -0.0005 2.8323 0.0004 0.1826
# 5 0.7537 0.2519 -0.2842 0.0004 4.2735 -0.0001
# 6 0.0000 0.0001 0.0001 0.1826 -0.0001 24.2757
#
#
#
# Elastic Compliance Matrix: (Units=1/GPa)
#
#
# Indices 1 2 3 4 5 6 
#
# 1 0.009700 -0.004507 -0.004455 -0.000001 -0.001741 0.000000
# 2 -0.004507 0.015315 0.000380 0.000002 -0.000082 0.000000
# 3 -0.004455 0.000380 0.016031 0.000002 0.001829 0.000000
# 4 -0.000001 0.000002 0.000002 0.353237 -0.000030 -0.002656
# 5 -0.001741 -0.000082 0.001829 -0.000030 0.234436 0.000001
# 6 0.000000 0.000000 0.000000 -0.002656 0.000001 0.041213
#
#
# Mechanical properties :
#
#
# Convention : Reuss Voigt Hill
#
# Bulk Modulus (GPa) = 41.87216 51.37186 46.62201
# Shear Modulus (GPa) = 7.19366 19.72207 13.45787
#
# Velocity S-wave (km/s) = 2.17554 3.60220 2.97563
# Velocity P-wave (km/s) = 5.81891 7.14845 6.51767
#
# Compressibility (1/GPa) = 0.02388222
#
# Stress axis : x y z
#
# Youngs Moduli (GPa) = 103.08988 65.29698 62.37842
#
# Poissons Ratio (x) = 0.29429 0.27789
# Poissons Ratio (y) = 0.46462 -0.02370
# Poissons Ratio (z) = 0.45926 -0.02481
#
# Static dielectric constant tensor:
#      x y z
#    x 1.520190 0.000000 0.000190 
#    y 0.000000 1.488290 0.000000 
#    z 0.000190 0.000000 1.497150 
# 
# From -- ./inp_files/164099.got.cif
#   From: 2010.05.17/outbox.cif.g08.bks.cpg/sg12_83_cif.got.tgz:164099.got - 2010.06.03 13:09:07.
