data_PCOD9171068
_publ_section_title
;
Structure prediction by ZEFSAII (Michael W. Deem and Ramdas Pophale) SiO2 
 PCOD9171068
Probable space group: C 2/M
;
_chemical_formula_sum "Si O2"
_cell_formula_units_Z 48
_cell_length_a 33.013629
_cell_length_b 10.107921
_cell_length_c 5.671731
_cell_angle_alpha 90.000000
_cell_angle_beta 90.000044
_cell_angle_gamma 90.000000
_cell_volume 1892.651836
_symmetry_space_group_name_H-M "C 2/M"
_symmetry_group_IT_number 12
_symmetry_cell_setting 'monoclinic'
loop_
_space_group_symop_operation_xyz
x,y,z
-x,y,-z
-x,-y,-z
x,-y,z
1/2+x,1/2+y,z
1/2-x,1/2+y,-z
1/2-x,1/2-y,-z
1/2+x,1/2-y,z
loop_
_atom_site_type_symbol
_atom_site_label
_atom_site_fract_x
_atom_site_fract_y
_atom_site_fract_z
Si Si1 0.171929 0.707296 0.000001
Si Si2 0.399974 0.500000 0.499999
Si Si3 0.593062 0.500000 0.000001
Si Si4 0.452537 0.229409 0.499999
Si Si5 0.797896 0.714755 0.499999
Si Si6 0.210502 0.000000 0.000002
Si Si7 0.575170 0.207579 0.000001
Si Si8 0.792477 0.000000 0.499998
O O1 0.188380 0.654445 0.251305
O O2 0.187688 0.859491 0.000002
O O3 0.188381 0.654445 0.748698
O O4 0.123713 0.695130 0.000001
O O5 0.381377 0.500000 0.239584
O O6 0.426703 0.365775 0.499999
O O7 0.381377 0.500000 0.760414
O O8 0.566893 0.366718 0.000001
O O9 0.500000 0.257638 0.500000
O O10 0.441476 0.159231 0.251557
O O11 0.441476 0.159231 0.748442
O O12 0.750000 0.750000 0.500000
O O13 0.817281 0.863632 0.499998
O O14 0.231754 0.000000 0.254641
O O15 0.231754 0.000000 0.745364
#
# Coordination Sequence:
#
# PCOD9171068 Si02
#       8
#     8   4   4   8   8   4   8   4
#     4  10  18  29  43  60  80 103 133 171 210 249
#     4   8  15  24  33  45  64  90 122 160 204 244
#     4   8  15  24  35  49  66  90 122 160 204 244
#     4  10  18  27  36  48  67  93 125 163 202 241
#     4  10  19  31  46  64  85 109 136 171 210 249
#     4   8  15  26  40  57  77 100 130 168 212 246
#     4  10  18  27  38  52  69  93 125 163 202 241
#     4   8  16  28  43  61  82 106 133 168 207 246
#
# _framework density 25.361239999999999
#
# number of rings (size 3 to 8) (size 9 to 14) (size 15 to 20)
#    0.000    2.667    0.000    2.750    0.000    0.000 
#    0.000   15.000    0.000    0.000    0.000    0.000 
#    0.000    0.000    0.000    0.000    0.000    0.000 
#
# Total GULP energy -133815.071521 kJ/mol
# GULP energy per Si atom -5575.627980 kJ/mol
# Density = 2.530352 g / cm^3
# Si number density = 25.361240 Si / 1000 Ang^3
#
#
#
# Elastic Constant Matrix: (Units=GPa)
#
#
# Indices 1 2 3 4 5 6 
#
# 1 85.5257 0.3914 60.6992 0.0000 0.0020 0.0000
# 2 0.3914 90.9034 12.4700 0.0000 0.0002 0.0000
# 3 60.6992 12.4700 377.0891 0.0000 0.0016 0.0000
# 4 0.0000 0.0000 0.0000 -36.4090 0.0000 -0.0003
# 5 0.0020 0.0002 0.0016 0.0000 74.1688 0.0000
# 6 0.0000 0.0000 0.0000 -0.0003 0.0000 9.0398
#
#
#
# Elastic Compliance Matrix: (Units=1/GPa)
#
#
# Indices 1 2 3 4 5 6 
#
# 1 0.013205 0.000236 -0.002133 0.000000 0.000000 0.000000
# 2 0.000236 0.011055 -0.000404 0.000000 0.000000 0.000000
# 3 -0.002133 -0.000404 0.003009 0.000000 0.000000 0.000000
# 4 0.000000 0.000000 0.000000 -0.027466 0.000000 -0.000001
# 5 0.000000 0.000000 0.000000 0.000000 0.013483 0.000000
# 6 0.000000 0.000000 0.000000 -0.000001 0.000000 0.110622
#
#
# Mechanical properties :
#
#
# Convention : Reuss Voigt Hill
#
# Bulk Modulus (GPa) = 44.11740 77.84882 60.98311
# Shear Modulus (GPa) = 36.74690 41.35709 39.05200
#
# Velocity S-wave (km/s) = 3.81062 4.04260 3.92832
# Velocity P-wave (km/s) = 6.06585 7.24933 6.68383
#
# Compressibility (1/GPa) = 0.02266680
#
# Stress axis : x y z
#
# Youngs Moduli (GPa) = 75.72619 90.45654 332.37439
#
# Poissons Ratio (x) = -0.02133 0.70911
# Poissons Ratio (y) = -0.01786 0.13413
# Poissons Ratio (z) = 0.16156 0.03650
#
# Static dielectric constant tensor:
#      x y z
#    x 1.926590 0.000000 0.000000 
#    y 0.000000 2.047820 0.000000 
#    z 0.000000 0.000000 2.093210 
# 
# From -- ./inp_files/31287.got.cif
#   From: 2010.05.17/outbox.cif.g08.bks.cpg/sg12_16_cif.got.tgz:31287.got - 2010.06.03 13:09:07.
