data_PCOD9171911
_publ_section_title
;
Structure prediction by ZEFSAII (Michael W. Deem and Ramdas Pophale) SiO2 
 PCOD9171911
Probable space group: C 2/M
;
_chemical_formula_sum "Si O2"
_cell_formula_units_Z 64
_cell_length_a 24.386249
_cell_length_b 7.619007
_cell_length_c 17.472866
_cell_angle_alpha 90.000000
_cell_angle_beta 82.115110
_cell_angle_gamma 90.000000
_cell_volume 3215.748155
_symmetry_space_group_name_H-M "C 2/M"
_symmetry_group_IT_number 12
_symmetry_cell_setting 'monoclinic'
loop_
_space_group_symop_operation_xyz
x,y,z
-x,y,-z
-x,-y,-z
x,-y,z
1/2+x,1/2+y,z
1/2-x,1/2+y,-z
1/2-x,1/2-y,-z
1/2+x,1/2-y,z
loop_
_atom_site_type_symbol
_atom_site_label
_atom_site_fract_x
_atom_site_fract_y
_atom_site_fract_z
Si Si1 0.977723 0.198993 0.164709
Si Si2 0.940424 0.214163 0.727393
Si Si3 0.477496 0.204827 0.425613
Si Si4 0.801638 0.792276 0.241524
Si Si5 0.119962 0.784374 0.913116
Si Si6 0.180347 0.789533 0.216946
Si Si7 0.811291 0.210819 0.957467
Si Si8 0.100913 0.706348 0.682852
O O1 0.940819 0.276479 0.103074
O O2 0.933036 0.198172 0.243114
O O3 0.031179 0.274582 0.197865
O O4 0.992385 0.000000 0.139266
O O5 0.876988 0.270849 0.735209
O O6 0.976056 0.279146 0.649052
O O7 0.943831 0.000000 0.726574
O O8 0.500000 0.285136 0.500000
O O9 0.422306 0.273410 0.393575
O O10 0.466141 0.000000 0.444022
O O11 0.834625 0.727214 0.159330
O O12 0.737336 0.750208 0.248425
O O13 0.835107 0.725176 0.308569
O O14 0.807414 0.000000 0.239986
O O15 0.118496 0.000000 0.912541
O O16 0.142813 0.726628 0.990688
O O17 0.183537 0.720357 0.129436
O O18 0.176538 0.000000 0.213131
O O19 0.816853 0.000000 0.953570
O O20 0.750000 0.250000 0.000000
O O21 0.086549 0.500000 0.691871
#
# Coordination Sequence:
#
# PCOD9171911 Si02
#       8
#     8   8   8   8   8   8   8   8
#     4   8  14  27  45  63  89 123 157 194 233 279
#     4   9  18  32  48  70  99 129 160 194 236 284
#     4   9  18  33  54  79 102 124 152 188 231 281
#     4  10  18  29  46  67  93 125 163 202 238 282
#     4   8  14  25  42  63  86 114 155 201 239 273
#     4  10  20  31  45  67  97 130 164 203 242 282
#     4  10  18  29  43  63  92 124 163 206 245 282
#     4   9  16  27  46  72  98 120 149 191 234 276
#
# _framework density 19.902056000000002
#
# number of rings (size 3 to 8) (size 9 to 14) (size 15 to 20)
#    0.000    2.875    1.250    1.500    0.000    1.250 
#    0.000    0.625    0.000    4.500    0.000    0.000 
#    0.000    9.750    0.000    0.000    0.000    0.000 
#
# Total GULP energy -178277.877029 kJ/mol
# GULP energy per Si atom -5571.183657 kJ/mol
# Density = 1.985676 g / cm^3
# Si number density = 19.902056 Si / 1000 Ang^3
#
#
#
# Elastic Constant Matrix: (Units=GPa)
#
#
# Indices 1 2 3 4 5 6 
#
# 1 146.2919 -3.2991 53.0173 0.0000 37.8873 0.0000
# 2 -3.2991 44.7781 -2.7159 0.0000 3.4139 0.0000
# 3 53.0173 -2.7159 67.5870 0.0000 37.3433 0.0000
# 4 0.0000 0.0000 0.0000 0.1047 0.0000 -9.0798
# 5 37.8873 3.4139 37.3433 0.0000 36.6450 0.0000
# 6 0.0000 0.0000 0.0000 -9.0798 0.0000 6.2239
#
#
#
# Elastic Compliance Matrix: (Units=1/GPa)
#
#
# Indices 1 2 3 4 5 6 
#
# 1 0.010025 0.000884 -0.004705 0.000000 -0.005652 0.000000
# 2 0.000884 0.023247 0.004445 0.000000 -0.007610 0.000000
# 3 -0.004705 0.004445 0.037089 0.000000 -0.033346 0.000000
# 4 0.000000 0.000000 0.000000 -0.076095 0.000000 -0.111012
# 5 -0.005652 -0.007610 -0.033346 0.000000 0.067822 0.000000
# 6 0.000000 0.000000 0.000000 -0.111012 0.000000 -0.001280
#
#
# Mechanical properties :
#
#
# Convention : Reuss Voigt Hill
#
# Bulk Modulus (GPa) = 13.96467 39.18461 26.57464
# Shear Modulus (GPa) = 59.92982 22.70501 41.31742
#
# Velocity S-wave (km/s) = 5.49343 3.38129 4.56130
# Velocity P-wave (km/s) = 6.87524 5.91402 6.41267
#
# Compressibility (1/GPa) = 0.07160926
#
# Stress axis : x y z
#
# Youngs Moduli (GPa) = 99.75515 43.01581 26.96182
#
# Poissons Ratio (x) = -0.03803 0.12686
# Poissons Ratio (y) = -0.08819 -0.11985
# Poissons Ratio (z) = 0.46937 -0.19121
#
# Static dielectric constant tensor:
#      x y z
#    x 1.748340 0.000000 0.053140 
#    y 0.000000 1.750520 0.000000 
#    z 0.053140 0.000000 1.695750 
# 
# From -- ./inp_files/287510.got.cif
#   From: 2010.05.17/outbox.cif.g08.bks.cpg/sg12_144_cif.got.tgz:287510.got - 2010.06.03 13:09:07.
