data_PCOD9171821
_publ_section_title
;
Structure prediction by ZEFSAII (Michael W. Deem and Ramdas Pophale) SiO2 
 PCOD9171821
Probable space group: C 2/M
;
_chemical_formula_sum "Si O2"
_cell_formula_units_Z 64
_cell_length_a 22.635260
_cell_length_b 9.739839
_cell_length_c 23.297336
_cell_angle_alpha 90.000000
_cell_angle_beta 45.105588
_cell_angle_gamma 90.000000
_cell_volume 3638.542071
_symmetry_space_group_name_H-M "C 2/M"
_symmetry_group_IT_number 12
_symmetry_cell_setting 'monoclinic'
loop_
_space_group_symop_operation_xyz
x,y,z
-x,y,-z
-x,-y,-z
x,-y,z
1/2+x,1/2+y,z
1/2-x,1/2+y,-z
1/2-x,1/2-y,-z
1/2+x,1/2-y,z
loop_
_atom_site_type_symbol
_atom_site_label
_atom_site_fract_x
_atom_site_fract_y
_atom_site_fract_z
Si Si1 0.930145 0.845401 0.692274
Si Si2 0.205594 0.661273 0.580500
Si Si3 0.272670 0.336751 0.662531
Si Si4 0.288537 0.338103 0.061545
Si Si5 0.229294 0.344660 0.817132
Si Si6 0.074335 0.652514 0.405140
Si Si7 0.870437 0.343479 0.910126
Si Si8 0.992781 0.342631 0.269466
O O1 0.830082 0.847190 0.755399
O O2 0.960140 0.740472 0.623679
O O3 0.960871 0.777988 0.729108
O O4 0.960663 0.000000 0.663332
O O5 0.222310 0.500000 0.557278
O O6 0.250000 0.750000 0.500000
O O7 0.237260 0.690840 0.623598
O O8 0.105450 0.677704 0.653909
O O9 0.294333 0.500000 0.650632
O O10 0.215895 0.312506 0.758609
O O11 0.351655 0.239833 0.617948
O O12 0.303864 0.500000 0.055927
O O13 0.298619 0.262783 0.115677
O O14 0.195185 0.321928 0.097832
O O15 0.347558 0.264416 0.974600
O O16 0.198825 0.500000 0.849591
O O17 0.103026 0.500000 0.367609
O O18 0.000000 0.639195 0.500000
O O19 0.854518 0.500000 0.941423
O O20 0.964937 0.335973 0.822299
O O21 0.012375 0.500000 0.276141
#
# Coordination Sequence:
#
# PCOD9171821 Si02
#       8
#     8   8   8   8   8   8   8   8
#     4  10  20  32  50  77 106 139 175 216 267 321
#     4  10  23  41  60  80 106 141 185 231 274 320
#     4   9  20  38  55  76 104 138 180 224 268 320
#     4  10  18  28  48  79 112 142 173 213 262 319
#     4   9  17  31  51  74 105 140 173 212 262 317
#     4  10  21  34  51  75 103 134 169 218 272 327
#     4   9  18  31  48  74 110 146 177 214 261 317
#     4  10  20  36  56  77 107 144 182 226 270 318
#
# _framework density 17.589462999999999
#
# number of rings (size 3 to 8) (size 9 to 14) (size 15 to 20)
#    0.000    2.375    1.250    1.875    1.750    5.000 
#    0.000    0.000    0.000    0.750    0.000    5.250 
#    0.000    0.000    0.000    0.000    0.000    0.000 
#
# Total GULP energy -178157.577015 kJ/mol
# GULP energy per Si atom -5567.424282 kJ/mol
# Density = 1.754943 g / cm^3
# Si number density = 17.589463 Si / 1000 Ang^3
#
#
#
# Elastic Constant Matrix: (Units=GPa)
#
#
# Indices 1 2 3 4 5 6 
#
# 1 48.5456 42.2763 32.4932 0.0000 22.1828 0.0000
# 2 42.2763 114.7264 66.6209 0.0001 25.3691 -0.0001
# 3 32.4932 66.6209 100.0754 0.0000 17.7109 0.0000
# 4 0.0000 0.0001 0.0000 5.7230 0.0000 28.2151
# 5 22.1828 25.3691 17.7109 0.0000 25.7230 0.0000
# 6 0.0000 -0.0001 0.0000 28.2151 0.0000 0.9942
#
#
#
# Elastic Compliance Matrix: (Units=1/GPa)
#
#
# Indices 1 2 3 4 5 6 
#
# 1 0.041360 -0.007158 -0.004101 0.000000 -0.025785 0.000000
# 2 -0.007158 0.017313 -0.008281 0.000000 -0.005200 0.000000
# 3 -0.004101 -0.008281 0.016814 0.000000 0.000126 0.000000
# 4 0.000000 0.000000 0.000000 -0.001258 0.000000 0.035697
# 5 -0.025785 -0.005200 0.000126 0.000000 0.066153 0.000000
# 6 0.000000 0.000000 0.000000 0.035697 0.000000 -0.007241
#
#
# Mechanical properties :
#
#
# Convention : Reuss Voigt Hill
#
# Bulk Modulus (GPa) = 27.46673 60.68091 44.07382
# Shear Modulus (GPa) = 27.12150 14.61850 20.87000
#
# Velocity S-wave (km/s) = 3.93099 2.88600 3.44831
# Velocity P-wave (km/s) = 6.02104 6.75860 6.40045
#
# Compressibility (1/GPa) = 0.03640768
#
# Stress axis : x y z
#
# Youngs Moduli (GPa) = 24.17813 57.76173 59.47406
#
# Poissons Ratio (x) = 0.41346 0.24387
# Poissons Ratio (y) = 0.17307 0.49248
# Poissons Ratio (z) = 0.09914 0.47831
#
# Static dielectric constant tensor:
#      x y z
#    x 1.616540 0.000000 0.018680 
#    y 0.000000 1.607750 0.000000 
#    z 0.018680 0.000000 1.619120 
# 
# From -- ./inp_files/345933.got.cif
#   From: 2010.05.17/outbox.cif.g08.bks.cpg/sg12_173_cif.got.tgz:345933.got - 2010.06.03 13:09:07.
