data_PCOD9171496
_publ_section_title
;
Structure prediction by ZEFSAII (Michael W. Deem and Ramdas Pophale) SiO2 
 PCOD9171496
Probable space group: C 2/M
;
_chemical_formula_sum "Si O2"
_cell_formula_units_Z 64
_cell_length_a 25.175688
_cell_length_b 21.380666
_cell_length_c 8.285753
_cell_angle_alpha 90.000000
_cell_angle_beta 77.938278
_cell_angle_gamma 90.000000
_cell_volume 4361.533844
_symmetry_space_group_name_H-M "C 2/M"
_symmetry_group_IT_number 12
_symmetry_cell_setting 'monoclinic'
loop_
_space_group_symop_operation_xyz
x,y,z
-x,y,-z
-x,-y,-z
x,-y,z
1/2+x,1/2+y,z
1/2-x,1/2+y,-z
1/2-x,1/2-y,-z
1/2+x,1/2-y,z
loop_
_atom_site_type_symbol
_atom_site_label
_atom_site_fract_x
_atom_site_fract_y
_atom_site_fract_z
Si Si1 0.993885 0.427754 0.811763
Si Si2 0.388575 0.140431 0.762075
Si Si3 0.784861 0.823048 0.136626
Si Si4 0.390455 0.072333 0.427718
Si Si5 0.210500 0.810383 0.512094
Si Si6 0.784439 0.572708 0.957490
Si Si7 0.775801 0.428116 0.341319
Si Si8 0.824947 0.237489 0.794931
O O1 0.978296 0.500000 0.781901
O O2 0.947679 0.381212 0.780354
O O3 0.052035 0.415659 0.693237
O O4 0.000000 0.423667 0.000000
O O5 0.381406 0.117488 0.583314
O O6 0.373360 0.212988 0.781430
O O7 0.343102 0.103871 0.894155
O O8 0.813301 0.816753 0.292246
O O9 0.731667 0.777475 0.172028
O O10 0.758600 0.890830 0.124791
O O11 0.819787 0.804480 0.958197
O O12 0.339768 0.078291 0.339664
O O13 0.391060 0.000000 0.484674
O O14 0.250000 0.750000 0.500000
O O15 0.244310 0.873482 0.453809
O O16 0.173722 0.797822 0.377757
O O17 0.787585 0.500000 0.916011
O O18 0.768104 0.580334 0.154837
O O19 0.760494 0.500000 0.393898
#
# Coordination Sequence:
#
# PCOD9171496 Si02
#       8
#     8   8   8   8   8   8   8   8
#     4  10  20  34  47  62  86 115 150 196 243 276
#     4  11  20  30  45  62  84 115 151 197 230 272
#     4   9  17  29  44  59  84 115 141 187 226 263
#     4  10  19  30  44  62  84 112 151 193 235 274
#     4  10  18  29  47  63  88 119 152 191 229 274
#     4  10  18  28  44  64  89 117 151 190 231 272
#     4  10  19  30  44  67  93 120 156 199 231 269
#     4   9  18  31  41  63  86 108 151 188 222 271
#
# _framework density 14.673736999999999
#
# number of rings (size 3 to 8) (size 9 to 14) (size 15 to 20)
#    0.000    2.125    1.250    4.500    1.750    4.500 
#    2.250    0.000    0.000    0.000    0.000    0.000 
#    0.000    0.000    0.000    0.000    0.000   26.250 
#
# Total GULP energy -178359.516154 kJ/mol
# GULP energy per Si atom -5573.734880 kJ/mol
# Density = 1.464034 g / cm^3
# Si number density = 14.673737 Si / 1000 Ang^3
#
#
#
# Elastic Constant Matrix: (Units=GPa)
#
#
# Indices 1 2 3 4 5 6 
#
# 1 42.7919 29.3444 17.8559 0.0000 8.7472 0.0000
# 2 29.3444 68.3853 30.0565 0.0000 2.1523 0.0000
# 3 17.8559 30.0565 60.7079 0.0000 15.9388 0.0000
# 4 0.0000 0.0000 0.0000 21.1919 0.0000 3.4358
# 5 8.7472 2.1523 15.9388 0.0000 19.2934 0.0000
# 6 0.0000 0.0000 0.0000 3.4358 0.0000 16.2975
#
#
#
# Elastic Compliance Matrix: (Units=1/GPa)
#
#
# Indices 1 2 3 4 5 6 
#
# 1 0.037065 -0.015921 0.001183 0.000000 -0.016005 0.000000
# 2 -0.015921 0.026322 -0.012098 0.000000 0.014276 0.000000
# 3 0.001183 -0.012098 0.027966 0.000000 -0.022290 0.000000
# 4 0.000000 0.000000 0.000000 0.048858 0.000000 -0.010300
# 5 -0.016005 0.014276 -0.022290 0.000000 0.075910 0.000000
# 6 0.000000 0.000000 0.000000 -0.010300 0.000000 0.063531
#
#
# Mechanical properties :
#
#
# Convention : Reuss Voigt Hill
#
# Bulk Modulus (GPa) = 26.53771 36.26653 31.40212
# Shear Modulus (GPa) = 14.45577 17.66511 16.06044
#
# Velocity S-wave (km/s) = 3.14211 3.47343 3.31192
# Velocity P-wave (km/s) = 5.59359 6.39181 6.00597
#
# Compressibility (1/GPa) = 0.03768223
#
# Stress axis : x y z
#
# Youngs Moduli (GPa) = 26.97996 37.99051 35.75743
#
# Poissons Ratio (x) = 0.60483 -0.04229
# Poissons Ratio (y) = 0.42954 0.43258
# Poissons Ratio (z) = -0.03191 0.45959
#
# Static dielectric constant tensor:
#      x y z
#    x 1.460990 0.000000 0.028470 
#    y 0.000000 1.490570 0.000000 
#    z 0.028470 0.000000 1.512810 
# 
# From -- ./inp_files/98835.got.cif
#   From: 2010.05.17/outbox.cif.g08.bks.cpg/sg12_50_cif.got.tgz:98835.got - 2010.06.03 13:09:07.
