data_PCOD9171254
_publ_section_title
;
Structure prediction by ZEFSAII (Michael W. Deem and Ramdas Pophale) SiO2 
 PCOD9171254
Probable space group: C 2/M
;
_chemical_formula_sum "Si O2"
_cell_formula_units_Z 64
_cell_length_a 22.026751
_cell_length_b 16.318943
_cell_length_c 11.070729
_cell_angle_alpha 90.000000
_cell_angle_beta 110.251172
_cell_angle_gamma 90.000000
_cell_volume 3733.419816
_symmetry_space_group_name_H-M "C 2/M"
_symmetry_group_IT_number 12
_symmetry_cell_setting 'monoclinic'
loop_
_space_group_symop_operation_xyz
x,y,z
-x,y,-z
-x,-y,-z
x,-y,z
1/2+x,1/2+y,z
1/2-x,1/2+y,-z
1/2-x,1/2-y,-z
1/2+x,1/2-y,z
loop_
_atom_site_type_symbol
_atom_site_label
_atom_site_fract_x
_atom_site_fract_y
_atom_site_fract_z
Si Si1 0.996493 0.591404 0.295586
Si Si2 0.714859 0.092654 0.978770
Si Si3 0.831879 0.717029 0.868019
Si Si4 0.191502 0.282198 0.743102
Si Si5 0.109972 0.591828 0.568013
Si Si6 0.535142 0.765001 0.154224
Si Si7 0.495109 0.410410 0.142931
Si Si8 0.643732 0.344357 0.895431
O O1 0.994714 0.500000 0.238417
O O2 0.061168 0.596839 0.421912
O O3 0.998521 0.666870 0.206564
O O4 0.936376 0.597031 0.345975
O O5 0.678836 0.132716 0.067612
O O6 0.791471 0.101571 0.056568
O O7 0.695859 0.000000 0.943471
O O8 0.701154 0.149869 0.854776
O O9 0.762565 0.745141 0.768115
O O10 0.890339 0.712471 0.815642
O O11 0.850827 0.783204 0.985328
O O12 0.158539 0.332230 0.612645
O O13 0.148695 0.211583 0.778340
O O14 0.139715 0.500000 0.587637
O O15 0.531025 0.673178 0.204933
O O16 0.500000 0.762942 0.000000
O O17 0.517924 0.500000 0.201854
O O18 0.421296 0.395259 0.132929
O O19 0.500000 0.412670 0.000000
#
# Coordination Sequence:
#
# PCOD9171254 Si02
#       8
#     8   8   8   8   8   8   8   8
#     4   9  20  34  51  74  98 127 160 200 239 286
#     4   9  17  26  42  66  94 125 155 192 237 281
#     4   9  18  30  41  67  98 122 156 194 230 289
#     4   9  17  28  48  66  91 123 159 197 241 279
#     4   9  17  33  52  73  96 119 163 206 237 279
#     4  11  20  33  49  68 102 134 159 193 240 293
#     4  10  18  27  44  66  90 124 159 190 233 280
#     4   9  15  29  42  63  94 123 154 192 233 280
#
# _framework density 17.142461000000001
#
# number of rings (size 3 to 8) (size 9 to 14) (size 15 to 20)
#    0.000    2.625    2.500    3.750    1.750    0.750 
#    0.000    1.250    0.000    0.000    0.000   10.500 
#    0.000    0.000    0.000    0.000    0.000    0.000 
#
# Total GULP energy -178278.581522 kJ/mol
# GULP energy per Si atom -5571.205673 kJ/mol
# Density = 1.710344 g / cm^3
# Si number density = 17.142461 Si / 1000 Ang^3
#
#
#
# Elastic Constant Matrix: (Units=GPa)
#
#
# Indices 1 2 3 4 5 6 
#
# 1 60.4941 13.4358 -2.0012 0.0000 0.4616 0.0000
# 2 13.4358 98.2621 9.4133 0.0000 -10.9254 0.0000
# 3 -2.0012 9.4133 14.9248 0.0000 2.8145 0.0000
# 4 0.0000 0.0000 0.0000 -7.2774 0.0000 -23.2396
# 5 0.4616 -10.9254 2.8145 0.0000 12.1024 0.0000
# 6 0.0000 0.0000 0.0000 -23.2396 0.0000 -10.9199
#
#
#
# Elastic Compliance Matrix: (Units=1/GPa)
#
#
# Indices 1 2 3 4 5 6 
#
# 1 0.017528 -0.003493 0.005516 0.000000 -0.005104 0.000000
# 2 -0.003493 0.013453 -0.011786 0.000000 0.015019 0.000000
# 3 0.005516 -0.011786 0.080764 0.000000 -0.029632 0.000000
# 4 0.000000 0.000000 0.000000 0.023707 0.000000 -0.050454
# 5 -0.005104 0.015019 -0.029632 0.000000 0.103273 0.000000
# 6 0.000000 0.000000 0.000000 -0.050454 0.000000 0.015799
#
#
# Mechanical properties :
#
#
# Convention : Reuss Voigt Hill
#
# Bulk Modulus (GPa) = 10.84373 23.93076 17.38724
# Shear Modulus (GPa) = 16.40474 8.96989 12.68731
#
# Velocity S-wave (km/s) = 3.09684 2.28996 2.72345
# Velocity P-wave (km/s) = 4.37340 4.58062 4.47821
#
# Compressibility (1/GPa) = 0.09221921
#
# Stress axis : x y z
#
# Youngs Moduli (GPa) = 57.05277 74.33069 12.38177
#
# Poissons Ratio (x) = 0.25960 -0.06829
# Poissons Ratio (y) = 0.19926 0.14593
# Poissons Ratio (z) = -0.31468 0.87605
#
# Static dielectric constant tensor:
#      x y z
#    x 1.593240 0.000000 0.022040 
#    y 0.000000 1.603170 0.000000 
#    z 0.022040 0.000000 1.583200 
# 
# From -- ./inp_files/176145.got.cif
#   From: 2010.05.17/outbox.cif.g08.bks.cpg/sg12_89_cif.got.tgz:176145.got - 2010.06.03 13:09:07.
