data_PCOD9171177
_publ_section_title
;
Structure prediction by ZEFSAII (Michael W. Deem and Ramdas Pophale) SiO2 
 PCOD9171177
Probable space group: C 2/M
;
_chemical_formula_sum "Si O2"
_cell_formula_units_Z 48
_cell_length_a 23.388602
_cell_length_b 7.634351
_cell_length_c 30.113925
_cell_angle_alpha 90.000000
_cell_angle_beta 28.440872
_cell_angle_gamma 90.000000
_cell_volume 2560.826684
_symmetry_space_group_name_H-M "C 2/M"
_symmetry_group_IT_number 12
_symmetry_cell_setting 'monoclinic'
loop_
_space_group_symop_operation_xyz
x,y,z
-x,y,-z
-x,-y,-z
x,-y,z
1/2+x,1/2+y,z
1/2-x,1/2+y,-z
1/2-x,1/2-y,-z
1/2+x,1/2-y,z
loop_
_atom_site_type_symbol
_atom_site_label
_atom_site_fract_x
_atom_site_fract_y
_atom_site_fract_z
Si Si1 0.943845 0.707570 0.854125
Si Si2 0.291564 0.793218 0.311963
Si Si3 0.361976 0.285157 0.089733
Si Si4 0.309996 0.794543 0.715137
Si Si5 0.549205 0.211424 0.514702
Si Si6 0.720347 0.287767 0.951165
O O1 0.952927 0.500000 0.839329
O O2 0.846638 0.777468 0.885208
O O3 0.078765 0.778940 0.762548
O O4 0.883053 0.733458 0.943717
O O5 0.247781 0.717847 0.294563
O O6 0.187524 0.765774 0.419575
O O7 0.303435 0.000000 0.296285
O O8 0.363329 0.500000 0.089670
O O9 0.279005 0.221822 0.186944
O O10 0.308752 0.230750 0.078643
O O11 0.500000 0.228999 0.000000
O O12 0.446499 0.723576 0.618483
O O13 0.322448 0.000000 0.716946
O O14 0.500000 0.268135 0.500000
O O15 0.547846 0.000000 0.516573
O O16 0.722750 0.500000 0.949773
#
# Coordination Sequence:
#
# PCOD9171177 Si02
#       6
#     8   8   8   8   8   8
#     4   9  18  30  43  63  89 113 140 175 211 248
#     4  10  18  27  42  64  88 113 142 174 209 252
#     4   9  16  26  44  68  87 106 138 175 209 250
#     4   9  17  29  44  64  89 112 138 176 215 250
#     4   8  15  27  42  61  85 111 140 176 214 248
#     4   9  17  30  47  64  84 113 144 173 209 250
#
# _framework density 18.743946999999999
#
# number of rings (size 3 to 8) (size 9 to 14) (size 15 to 20)
#    0.000    3.000    0.000    2.500    0.000    5.667 
#    0.000    0.833    0.000    4.000    0.000    0.000 
#    0.000    0.000    0.000    0.000    0.000    1.667 
#
# Total GULP energy -133695.828635 kJ/mol
# GULP energy per Si atom -5570.659526 kJ/mol
# Density = 1.870129 g / cm^3
# Si number density = 18.743947 Si / 1000 Ang^3
#
#
#
# Elastic Constant Matrix: (Units=GPa)
#
#
# Indices 1 2 3 4 5 6 
#
# 1 83.9216 -3.8299 84.4302 -0.0128 -2.3589 0.0341
# 2 -3.8299 27.0017 -1.5926 -0.0146 -1.0860 0.0284
# 3 84.4302 -1.5926 210.4414 -0.0018 -18.9512 0.0102
# 4 -0.0128 -0.0146 -0.0018 12.8122 0.0047 1.3947
# 5 -2.3589 -1.0860 -18.9512 0.0047 27.0614 -0.0174
# 6 0.0341 0.0284 0.0102 1.3947 -0.0174 -1.9260
#
#
#
# Elastic Compliance Matrix: (Units=1/GPa)
#
#
# Indices 1 2 3 4 5 6 
#
# 1 0.020558 0.002241 -0.008604 -0.000018 -0.004143 0.000376
# 2 0.002241 0.037377 -0.000495 -0.000017 0.001349 0.000563
# 3 -0.008604 -0.000495 0.008678 0.000007 0.005307 -0.000157
# 4 -0.000018 -0.000017 0.000007 0.072348 0.000024 0.052389
# 5 -0.004143 0.001349 0.005307 0.000024 0.040362 -0.000373
# 6 0.000376 0.000563 -0.000157 0.052389 -0.000373 -0.481246
#
#
# Mechanical properties :
#
#
# Convention : Reuss Voigt Hill
#
# Bulk Modulus (GPa) = 18.90438 53.26446 36.08442
# Shear Modulus (GPa) = -18.47914 23.74665 2.63376
#
# Velocity S-wave (km/s) = -3.14327 3.56321 1.18666
# Velocity P-wave (km/s) = 1.75100 6.73849 4.60115
#
# Compressibility (1/GPa) = 0.05289780
#
# Stress axis : x y z
#
# Youngs Moduli (GPa) = 48.64346 26.75434 115.23237
#
# Poissons Ratio (x) = -0.05997 0.99146
# Poissons Ratio (y) = -0.10903 0.05703
# Poissons Ratio (z) = 0.41853 0.01324
#
# Static dielectric constant tensor:
#      x y z
#    x 1.621470 0.000000 -0.022270 
#    y 0.000000 1.682710 0.000000 
#    z -0.022270 0.000000 1.691460 
# 
# From -- ./inp_files/236603.got.cif
#   From: 2010.05.17/outbox.cif.g08.bks.cpg/sg12_119_cif.got.tgz:236603.got - 2010.06.03 13:09:07.
