data_PCOD9171677
_publ_section_title
;
Structure prediction by ZEFSAII (Michael W. Deem and Ramdas Pophale) SiO2 
 PCOD9171677
Probable space group: C 2/M
;
_chemical_formula_sum "Si O2"
_cell_formula_units_Z 64
_cell_length_a 17.966623
_cell_length_b 18.600539
_cell_length_c 8.918535
_cell_angle_alpha 90.000000
_cell_angle_beta 93.091348
_cell_angle_gamma 90.000000
_cell_volume 2976.138037
_symmetry_space_group_name_H-M "C 2/M"
_symmetry_group_IT_number 12
_symmetry_cell_setting 'monoclinic'
loop_
_space_group_symop_operation_xyz
x,y,z
-x,y,-z
-x,-y,-z
x,-y,z
1/2+x,1/2+y,z
1/2-x,1/2+y,-z
1/2-x,1/2-y,-z
1/2+x,1/2-y,z
loop_
_atom_site_type_symbol
_atom_site_label
_atom_site_fract_x
_atom_site_fract_y
_atom_site_fract_z
Si Si1 0.309130 0.209956 0.697545
Si Si2 0.801564 0.082608 0.008790
Si Si3 0.637780 0.082263 0.846591
Si Si4 0.790477 0.584545 0.467577
Si Si5 0.098817 0.283877 0.003873
Si Si6 0.057200 0.852968 0.130321
Si Si7 0.876083 0.854075 0.573926
Si Si8 0.348380 0.684867 0.260439
O O1 0.317226 0.137147 0.603055
O O2 0.353846 0.274808 0.629527
O O3 0.221624 0.228737 0.682663
O O4 0.332250 0.203804 0.874007
O O5 0.812067 0.116535 0.173215
O O6 0.824641 0.000000 0.010041
O O7 0.718395 0.086452 0.937108
O O8 0.859237 0.126477 0.912585
O O9 0.659935 0.098320 0.676260
O O10 0.584754 0.139398 0.924651
O O11 0.610962 0.000000 0.853218
O O12 0.797200 0.500000 0.504373
O O13 0.702071 0.601367 0.429668
O O14 0.115403 0.232793 0.863682
O O15 0.049339 0.233829 0.109631
O O16 0.060367 0.878373 0.302105
O O17 0.000000 0.884097 0.000000
O O18 0.896869 0.843171 0.402936
#
# Coordination Sequence:
#
# PCOD9171677 Si02
#       8
#     8   8   8   8   8   8   8   8
#     4  10  18  28  46  71 102 135 163 198 253 312
#     4  10  20  33  49  73 103 133 168 208 254 304
#     4  10  18  30  49  75 105 132 158 199 260 317
#     4  10  19  29  45  74 109 136 161 197 246 311
#     4  10  19  32  51  74 103 129 170 210 257 301
#     4  10  22  37  55  72  95 137 184 218 246 289
#     4  10  19  32  49  71 101 134 172 207 253 292
#     4  10  18  28  49  72  99 133 164 206 257 308
#
# _framework density 21.504379
#
# number of rings (size 3 to 8) (size 9 to 14) (size 15 to 20)
#    0.000    2.000    2.500    3.375    1.750    2.750 
#    0.000    2.500    0.000    1.125    0.000    0.000 
#    0.000    9.000    0.000    0.000    0.000    0.000 
#
# Total GULP energy -178277.959677 kJ/mol
# GULP energy per Si atom -5571.186240 kJ/mol
# Density = 2.145543 g / cm^3
# Si number density = 21.504379 Si / 1000 Ang^3
#
#
#
# Elastic Constant Matrix: (Units=GPa)
#
#
# Indices 1 2 3 4 5 6 
#
# 1 26.5016 -2.5166 7.2607 0.0000 2.8614 0.0000
# 2 -2.5166 95.7494 7.9363 0.0000 -9.8630 0.0000
# 3 7.2607 7.9363 137.4861 0.0000 15.5639 0.0000
# 4 0.0000 0.0000 0.0000 24.6072 0.0000 -5.1175
# 5 2.8614 -9.8630 15.5639 0.0000 24.0834 0.0000
# 6 0.0000 0.0000 0.0000 -5.1175 0.0000 2.2259
#
#
#
# Elastic Compliance Matrix: (Units=1/GPa)
#
#
# Indices 1 2 3 4 5 6 
#
# 1 0.038626 0.000837 -0.001734 0.000000 -0.003126 0.000000
# 2 0.000837 0.011117 -0.001284 0.000000 0.005283 0.000000
# 3 -0.001734 -0.001284 0.008065 0.000000 -0.005532 0.000000
# 4 0.000000 0.000000 0.000000 0.077871 0.000000 0.179029
# 5 -0.003126 0.005283 -0.005532 0.000000 0.047632 0.000000
# 6 0.000000 0.000000 0.000000 0.179029 0.000000 0.860847
#
#
# Mechanical properties :
#
#
# Convention : Reuss Voigt Hill
#
# Bulk Modulus (GPa) = 18.71081 31.67754 25.19417
# Shear Modulus (GPa) = 4.68896 26.65375 15.67136
#
# Velocity S-wave (km/s) = 1.47824 3.52441 2.70247
# Velocity P-wave (km/s) = 3.41078 5.59685 4.63455
#
# Compressibility (1/GPa) = 0.05344505
#
# Stress axis : x y z
#
# Youngs Moduli (GPa) = 25.88955 89.95602 123.98615
#
# Poissons Ratio (x) = -0.07529 0.21503
# Poissons Ratio (y) = -0.02167 0.15919
# Poissons Ratio (z) = 0.04490 0.11550
#
# Static dielectric constant tensor:
#      x y z
#    x 1.871090 0.000000 -0.000610 
#    y 0.000000 1.795440 0.000000 
#    z -0.000610 0.000000 1.880630 
# 
# From -- ./inp_files/97734.got.cif
#   From: 2010.05.17/outbox.cif.g08.bks.cpg/sg12_49_cif.got.tgz:97734.got - 2010.06.03 13:09:07.
