data_PCOD9171534
_publ_section_title
;
Structure prediction by ZEFSAII (Michael W. Deem and Ramdas Pophale) SiO2 
 PCOD9171534
Probable space group: C 2/M
;
_chemical_formula_sum "Si O2"
_cell_formula_units_Z 48
_cell_length_a 19.934731
_cell_length_b 7.466971
_cell_length_c 16.251831
_cell_angle_alpha 90.000000
_cell_angle_beta 77.824810
_cell_angle_gamma 90.000000
_cell_volume 2364.706012
_symmetry_space_group_name_H-M "C 2/M"
_symmetry_group_IT_number 12
_symmetry_cell_setting 'monoclinic'
loop_
_space_group_symop_operation_xyz
x,y,z
-x,y,-z
-x,-y,-z
x,-y,z
1/2+x,1/2+y,z
1/2-x,1/2+y,-z
1/2-x,1/2-y,-z
1/2+x,1/2-y,z
loop_
_atom_site_type_symbol
_atom_site_label
_atom_site_fract_x
_atom_site_fract_y
_atom_site_fract_z
Si Si1 0.067871 0.795352 0.626480
Si Si2 0.649377 0.788249 0.768207
Si Si3 0.557613 0.280314 0.237822
Si Si4 0.979880 0.784769 0.095072
Si Si5 0.803330 0.781372 0.719128
Si Si6 0.321838 0.714975 0.527219
O O1 0.116069 0.796792 0.695302
O O2 0.113931 0.713756 0.542283
O O3 0.996277 0.718172 0.678114
O O4 0.052524 0.000000 0.606065
O O5 0.597327 0.757554 0.856437
O O6 0.726674 0.724706 0.762874
O O7 0.348107 0.000000 0.249717
O O8 0.555201 0.500000 0.238886
O O9 0.528653 0.221451 0.157014
O O10 0.634339 0.224155 0.239162
O O11 0.985870 0.000000 0.091749
O O12 0.000000 0.716574 0.000000
O O13 0.817651 0.722118 0.621915
O O14 0.803738 0.000000 0.719458
O O15 0.329123 0.500000 0.527945
O O16 0.250000 0.750000 0.500000
#
# Coordination Sequence:
#
# PCOD9171534 Si02
#       6
#     8   8   8   8   8   8
#     4   9  17  29  47  68  91 126 166 200 227 264
#     4  10  18  29  48  71  96 124 153 189 233 283
#     4   8  15  29  47  68  94 121 154 195 235 273
#     4   9  18  34  55  74  91 117 154 193 232 279
#     4   9  17  28  44  69  98 126 155 193 236 271
#     4  10  18  28  44  68  95 125 164 199 228 266
#
# _framework density 20.298506
#
# number of rings (size 3 to 8) (size 9 to 14) (size 15 to 20)
#    0.000    2.833    1.667    1.500    0.000    1.000 
#    0.000    4.167    0.000   12.000    0.000    5.833 
#    0.000    0.000    0.000    0.000    0.000    0.000 
#
# Total GULP energy -133887.770199 kJ/mol
# GULP energy per Si atom -5578.657092 kJ/mol
# Density = 2.025231 g / cm^3
# Si number density = 20.298506 Si / 1000 Ang^3
#
#
#
# Elastic Constant Matrix: (Units=GPa)
#
#
# Indices 1 2 3 4 5 6 
#
# 1 156.4605 -6.9236 70.2318 0.0000 -14.8561 0.0000
# 2 -6.9236 61.1432 -0.2994 0.0000 1.8110 0.0000
# 3 70.2318 -0.2994 134.3713 0.0000 -20.8135 0.0000
# 4 0.0000 0.0000 0.0000 4.9981 0.0000 -1.5349
# 5 -14.8561 1.8110 -20.8135 0.0000 20.7730 0.0000
# 6 0.0000 0.0000 0.0000 -1.5349 0.0000 13.4019
#
#
#
# Elastic Compliance Matrix: (Units=1/GPa)
#
#
# Indices 1 2 3 4 5 6 
#
# 1 0.008461 0.000884 -0.004137 0.000000 0.001829 0.000000
# 2 0.000884 0.016495 -0.000651 0.000000 -0.001458 0.000000
# 3 -0.004137 -0.000651 0.010835 0.000000 0.007954 0.000000
# 4 0.000000 0.000000 0.000000 0.207368 0.000000 0.023749
# 5 0.001829 -0.001458 0.007954 0.000000 0.057544 0.000000
# 6 0.000000 0.000000 0.000000 0.023749 0.000000 0.077336
#
#
# Mechanical properties :
#
#
# Convention : Reuss Voigt Hill
#
# Bulk Modulus (GPa) = 35.73673 53.11029 44.42351
# Shear Modulus (GPa) = 12.65258 27.09902 19.87580
#
# Velocity S-wave (km/s) = 2.49936 3.65776 3.13257
# Velocity P-wave (km/s) = 5.09636 6.63780 5.91749
#
# Compressibility (1/GPa) = 0.02798241
#
# Stress axis : x y z
#
# Youngs Moduli (GPa) = 118.18596 60.62395 92.29291
#
# Poissons Ratio (x) = -0.05357 0.38183
# Poissons Ratio (y) = -0.10444 0.06009
# Poissons Ratio (z) = 0.48896 0.03947
#
# Static dielectric constant tensor:
#      x y z
#    x 1.705230 0.000000 -0.018610 
#    y 0.000000 1.793950 0.000000 
#    z -0.018610 0.000000 1.701120 
# 
# From -- ./inp_files/229947.got.cif
#   From: 2010.05.17/outbox.cif.g08.bks.cpg/sg12_115_cif.got.tgz:229947.got - 2010.06.03 13:09:07.
