data_PCOD9171754
_publ_section_title
;
Structure prediction by ZEFSAII (Michael W. Deem and Ramdas Pophale) SiO2 
 PCOD9171754
Probable space group: C 2/M
;
_chemical_formula_sum "Si O2"
_cell_formula_units_Z 64
_cell_length_a 25.079238
_cell_length_b 8.509869
_cell_length_c 22.100889
_cell_angle_alpha 90.000000
_cell_angle_beta 51.702553
_cell_angle_gamma 90.000000
_cell_volume 3701.759120
_symmetry_space_group_name_H-M "C 2/M"
_symmetry_group_IT_number 12
_symmetry_cell_setting 'monoclinic'
loop_
_space_group_symop_operation_xyz
x,y,z
-x,y,-z
-x,-y,-z
x,-y,z
1/2+x,1/2+y,z
1/2-x,1/2+y,-z
1/2-x,1/2-y,-z
1/2+x,1/2-y,z
loop_
_atom_site_type_symbol
_atom_site_label
_atom_site_fract_x
_atom_site_fract_y
_atom_site_fract_z
Si Si1 0.485517 0.188920 0.790243
Si Si2 0.243354 0.810590 0.100176
Si Si3 0.179850 0.189978 0.270738
Si Si4 0.144460 0.187330 0.060595
Si Si5 0.226281 0.808186 0.369364
Si Si6 0.636626 0.190314 0.661188
Si Si7 0.611380 0.688394 0.544863
Si Si8 0.464202 0.811873 0.665878
O O1 0.432105 0.257891 0.874777
O O2 0.564288 0.235700 0.741503
O O3 0.464541 0.237926 0.736597
O O4 0.481807 0.000000 0.795450
O O5 0.220248 0.755643 0.182512
O O6 0.188265 0.757313 0.088521
O O7 0.243283 0.000000 0.100229
O O8 0.315983 0.753036 0.025216
O O9 0.212730 0.243950 0.310447
O O10 0.102161 0.244295 0.319255
O O11 0.180461 0.000000 0.269906
O O12 0.147105 0.000000 0.057291
O O13 0.297880 0.757142 0.347417
O O14 0.164574 0.759643 0.456432
O O15 0.227074 0.000000 0.368571
O O16 0.636374 0.254372 0.593088
O O17 0.637384 0.000000 0.656834
O O18 0.608521 0.500000 0.546887
O O19 0.535583 0.753710 0.588883
O O20 0.462711 0.000000 0.665373
#
# Coordination Sequence:
#
# PCOD9171754 Si02
#       8
#     8   8   8   8   8   8   8   8
#     4   9  17  29  48  71  98 127 158 200 246 290
#     4   9  18  30  46  71 100 129 158 195 240 290
#     4  10  19  34  53  72  99 134 169 204 241 296
#     4  10  18  28  47  74 100 125 157 198 241 289
#     4   9  19  34  53  74  98 131 170 208 249 293
#     4   9  18  34  53  75 100 129 165 209 255 291
#     4  10  19  32  52  76  99 128 166 211 253 293
#     4  10  20  33  49  72 102 135 164 203 252 296
#
# _framework density 17.289076999999999
#
# number of rings (size 3 to 8) (size 9 to 14) (size 15 to 20)
#    0.000    2.500    1.250    2.250    0.000    3.500 
#    0.000    5.000    0.000    0.750    0.000    5.250 
#    0.000    0.000    0.000    0.000    0.000    0.000 
#
# Total GULP energy -178476.061995 kJ/mol
# GULP energy per Si atom -5577.376937 kJ/mol
# Density = 1.724973 g / cm^3
# Si number density = 17.289077 Si / 1000 Ang^3
#
#
#
# Elastic Constant Matrix: (Units=GPa)
#
#
# Indices 1 2 3 4 5 6 
#
# 1 78.1048 13.4518 83.9550 0.0001 8.1098 -0.0003
# 2 13.4518 8.2501 19.0490 -0.0003 1.3650 -0.0010
# 3 83.9550 19.0490 149.0131 0.0001 -10.6933 0.0000
# 4 0.0001 -0.0003 0.0001 21.7527 0.0000 -2.7458
# 5 8.1098 1.3650 -10.6933 0.0000 14.1809 0.0000
# 6 -0.0003 -0.0010 0.0000 -2.7458 0.0000 18.3841
#
#
#
# Elastic Compliance Matrix: (Units=1/GPa)
#
#
# Indices 1 2 3 4 5 6 
#
# 1 0.062873 0.001906 -0.040449 0.000000 -0.066641 0.000001
# 2 0.001906 0.190223 -0.028316 0.000004 -0.040753 0.000011
# 3 -0.040449 -0.028316 0.036976 -0.000001 0.053740 -0.000002
# 4 0.000000 0.000004 -0.000001 0.046855 -0.000001 0.006998
# 5 -0.066641 -0.040753 0.053740 -0.000001 0.153075 -0.000003
# 6 0.000001 0.000011 -0.000002 0.006998 -0.000003 0.055440
#
#
# Mechanical properties :
#
#
# Convention : Reuss Voigt Hill
#
# Bulk Modulus (GPa) = 6.39565 52.03106 29.21335
# Shear Modulus (GPa) = 6.83734 18.79103 12.81419
#
# Velocity S-wave (km/s) = 1.99081 3.30035 2.72540
# Velocity P-wave (km/s) = 2.99861 6.68455 5.18049
#
# Compressibility (1/GPa) = 0.15635618
#
# Stress axis : x y z
#
# Youngs Moduli (GPa) = 15.90499 5.25698 27.04438
#
# Poissons Ratio (x) = -0.01002 1.09392
# Poissons Ratio (y) = -0.03032 0.76578
# Poissons Ratio (z) = 0.64334 0.14885
#
# Static dielectric constant tensor:
#      x y z
#    x 1.572500 0.000000 -0.006550 
#    y 0.000000 1.588410 0.000000 
#    z -0.006550 0.000000 1.586610 
# 
# From -- ./inp_files/324074.got.cif
#   From: 2010.05.17/outbox.cif.g08.bks.cpg/sg12_163_cif.got.tgz:324074.got - 2010.06.03 13:09:07.
