data_PCOD9171844
_publ_section_title
;
Structure prediction by ZEFSAII (Michael W. Deem and Ramdas Pophale) SiO2 
 PCOD9171844
Probable space group: C 2/M
;
_chemical_formula_sum "Si O2"
_cell_formula_units_Z 56
_cell_length_a 16.923773
_cell_length_b 13.865266
_cell_length_c 11.051619
_cell_angle_alpha 90.000000
_cell_angle_beta 72.466772
_cell_angle_gamma 90.000000
_cell_volume 2472.813201
_symmetry_space_group_name_H-M "C 2/M"
_symmetry_group_IT_number 12
_symmetry_cell_setting 'monoclinic'
loop_
_space_group_symop_operation_xyz
x,y,z
-x,y,-z
-x,-y,-z
x,-y,z
1/2+x,1/2+y,z
1/2-x,1/2+y,-z
1/2-x,1/2-y,-z
1/2+x,1/2-y,z
loop_
_atom_site_type_symbol
_atom_site_label
_atom_site_fract_x
_atom_site_fract_y
_atom_site_fract_z
Si Si1 0.426998 0.103649 0.205215
Si Si2 0.236054 0.891507 0.320328
Si Si3 0.132210 0.110659 0.998269
Si Si4 0.972899 0.187105 0.167585
Si Si5 0.228380 0.696379 0.220535
Si Si6 0.946344 0.608839 0.633007
Si Si7 0.842271 0.116323 0.386516
O O1 0.334431 0.108110 0.300728
O O2 0.445979 0.206175 0.135797
O O3 0.492469 0.101795 0.282451
O O4 0.431845 0.000000 0.135833
O O5 0.225834 0.811731 0.222972
O O6 0.188187 0.863197 0.464137
O O7 0.211863 0.000000 0.296614
O O8 0.076353 0.116125 0.900644
O O9 0.219586 0.155711 0.916745
O O10 0.142258 0.000000 0.030279
O O11 0.070349 0.167997 0.115770
O O12 0.930891 0.163834 0.314939
O O13 0.136598 0.658183 0.283044
O O14 0.279375 0.661663 0.316969
O O15 0.922909 0.500000 0.602693
O O16 0.000000 0.654275 0.500000
O O17 0.844064 0.000000 0.371988
#
# Coordination Sequence:
#
# PCOD9171844 Si02
#       7
#     8   8   8   8   8   8   8
#     4  10  20  35  51  78 113 143 179 219 265 323
#     4  10  20  33  52  79 110 138 175 223 266 324
#     4  10  19  33  54  81 110 133 178 233 267 310
#     4  10  18  31  51  76 108 140 176 218 272 313
#     4  11  19  33  55  78 104 139 182 218 273 315
#     4  10  21  34  53  80 111 143 176 219 269 319
#     4  10  18  28  49  79 107 132 171 222 273 319
#
# _framework density 22.646273000000001
#
# number of rings (size 3 to 8) (size 9 to 14) (size 15 to 20)
#    0.000    1.857    2.857    5.143    2.000    2.286 
#    0.000    2.857    0.000    3.000    0.000    0.000 
#    0.000    0.000    0.000    0.000    0.000    0.000 
#
# Total GULP energy -156341.591109 kJ/mol
# GULP energy per Si atom -5583.628254 kJ/mol
# Density = 2.259473 g / cm^3
# Si number density = 22.646273 Si / 1000 Ang^3
#
#
#
# Elastic Constant Matrix: (Units=GPa)
#
#
# Indices 1 2 3 4 5 6 
#
# 1 94.9652 23.0420 51.4870 0.0000 -47.8146 0.0000
# 2 23.0420 136.5672 43.7335 0.0000 -32.0490 0.0000
# 3 51.4870 43.7335 100.8275 0.0000 -55.4363 0.0000
# 4 0.0000 0.0000 0.0000 15.7089 0.0000 -14.4062
# 5 -47.8146 -32.0490 -55.4363 0.0000 50.0652 0.0000
# 6 0.0000 0.0000 0.0000 -14.4062 0.0000 -0.2078
#
#
#
# Elastic Compliance Matrix: (Units=1/GPa)
#
#
# Indices 1 2 3 4 5 6 
#
# 1 0.020498 0.001302 0.000485 0.000000 0.020947 0.000000
# 2 0.001302 0.008830 -0.001798 0.000000 0.004905 0.000000
# 3 0.000485 -0.001798 0.025746 0.000000 0.027821 0.000000
# 4 0.000000 0.000000 0.000000 0.000986 0.000000 -0.068340
# 5 0.020947 0.004905 0.027821 0.000000 0.073925 0.000000
# 6 0.000000 0.000000 0.000000 -0.068340 0.000000 -0.074520
#
#
# Mechanical properties :
#
#
# Convention : Reuss Voigt Hill
#
# Bulk Modulus (GPa) = 18.16453 63.20944 40.68698
# Shear Modulus (GPa) = 67.71669 27.38642 47.55156
#
# Velocity S-wave (km/s) = 5.47420 3.48129 4.58728
# Velocity P-wave (km/s) = 6.92778 6.64315 6.78696
#
# Compressibility (1/GPa) = 0.05505236
#
# Stress axis : x y z
#
# Youngs Moduli (GPa) = 48.78496 113.25651 38.84061
#
# Poissons Ratio (x) = -0.14745 -0.01884
# Poissons Ratio (y) = -0.06352 0.06983
# Poissons Ratio (z) = -0.02367 0.20362
#
# Static dielectric constant tensor:
#      x y z
#    x 1.815950 0.000000 -0.008670 
#    y 0.000000 1.941960 0.000000 
#    z -0.008670 0.000000 1.868210 
# 
# From -- ./inp_files/155967.got.cif
#   From: 2010.05.17/outbox.cif.g08.bks.cpg/sg12_78_cif.got.tgz:155967.got - 2010.06.03 13:09:07.
