data_PCOD9171935
_publ_section_title
;
Structure prediction by ZEFSAII (Michael W. Deem and Ramdas Pophale) SiO2 
 PCOD9171935
Probable space group: C 2/M
;
_chemical_formula_sum "Si O2"
_cell_formula_units_Z 64
_cell_length_a 26.689962
_cell_length_b 7.765674
_cell_length_c 22.209473
_cell_angle_alpha 90.000000
_cell_angle_beta 127.363968
_cell_angle_gamma 90.000000
_cell_volume 3658.653416
_symmetry_space_group_name_H-M "C 2/M"
_symmetry_group_IT_number 12
_symmetry_cell_setting 'monoclinic'
loop_
_space_group_symop_operation_xyz
x,y,z
-x,y,-z
-x,-y,-z
x,-y,z
1/2+x,1/2+y,z
1/2-x,1/2+y,-z
1/2-x,1/2-y,-z
1/2+x,1/2-y,z
loop_
_atom_site_type_symbol
_atom_site_label
_atom_site_fract_x
_atom_site_fract_y
_atom_site_fract_z
Si Si1 0.454033 0.291317 0.912556
Si Si2 0.490298 0.297627 0.173325
Si Si3 0.227755 0.711319 0.338728
Si Si4 0.648871 0.294219 0.910710
Si Si5 0.192567 0.294676 0.182292
Si Si6 0.392001 0.201434 0.669231
Si Si7 0.310929 0.295136 0.503813
Si Si8 0.263582 0.790943 0.914791
O O1 0.453703 0.500000 0.911720
O O2 0.480232 0.227250 0.867337
O O3 0.382332 0.235349 0.870330
O O4 0.500000 0.235388 0.000000
O O5 0.480016 0.500000 0.154152
O O6 0.422064 0.223881 0.140566
O O7 0.542326 0.281492 0.263115
O O8 0.227058 0.500000 0.339061
O O9 0.222265 0.771639 0.266322
O O10 0.165003 0.768191 0.329564
O O11 0.289173 0.765406 0.421822
O O12 0.645773 0.500000 0.899230
O O13 0.698056 0.227998 0.896469
O O14 0.681437 0.261195 0.998844
O O15 0.202819 0.500000 0.189820
O O16 0.221673 0.226934 0.141416
O O17 0.369726 0.224693 0.584217
O O18 0.397381 0.000000 0.685491
O O19 0.250000 0.250000 0.500000
O O20 0.182045 0.000000 0.492901
O O21 0.262428 0.000000 0.912935
#
# Coordination Sequence:
#
# PCOD9171935 Si02
#       8
#     8   8   8   8   8   8   8   8
#     4  10  20  31  42  61  89 121 152 179 217 269
#     4  10  19  30  45  64  89 121 152 185 225 268
#     4   8  15  27  42  62  89 118 142 176 219 261
#     4   9  18  33  49  65  88 117 152 194 232 264
#     4  10  18  30  46  66  91 117 147 182 222 266
#     4  10  18  29  44  64  91 120 150 185 225 267
#     4   9  16  27  43  63  89 121 153 181 219 266
#     4   9  18  31  49  69  87 114 153 192 229 267
#
# _framework density 17.492775000000002
#
# number of rings (size 3 to 8) (size 9 to 14) (size 15 to 20)
#    0.000    2.625    1.250    2.250    0.000    2.250 
#    0.000    0.625    0.000    0.000    0.000    0.875 
#    0.000    7.000    0.000    0.000    0.000    0.000 
#
# Total GULP energy -178346.215825 kJ/mol
# GULP energy per Si atom -5573.319245 kJ/mol
# Density = 1.745296 g / cm^3
# Si number density = 17.492775 Si / 1000 Ang^3
#
#
#
# Elastic Constant Matrix: (Units=GPa)
#
#
# Indices 1 2 3 4 5 6 
#
# 1 103.9653 0.9191 78.1735 0.0000 -3.4123 0.0000
# 2 0.9191 17.6663 -12.3484 0.0000 1.7433 0.0001
# 3 78.1735 -12.3484 140.9898 0.0000 -8.6320 0.0000
# 4 0.0000 0.0000 0.0000 15.9816 0.0000 1.7727
# 5 -3.4123 1.7433 -8.6320 0.0000 17.2558 0.0000
# 6 0.0000 0.0001 0.0000 1.7727 0.0000 10.7293
#
#
#
# Elastic Compliance Matrix: (Units=1/GPa)
#
#
# Indices 1 2 3 4 5 6 
#
# 1 0.017564 -0.008167 -0.010513 0.000000 -0.000961 0.000000
# 2 -0.008167 0.064307 0.009969 0.000000 -0.003125 -0.000001
# 3 -0.010513 0.009969 0.014036 0.000000 0.003935 0.000000
# 4 0.000000 0.000000 0.000000 0.063740 0.000000 -0.010531
# 5 -0.000961 -0.003125 0.003935 0.000000 0.060046 0.000000
# 6 0.000000 -0.000001 0.000000 -0.010531 0.000000 0.094943
#
#
# Mechanical properties :
#
#
# Convention : Reuss Voigt Hill
#
# Bulk Modulus (GPa) = 12.74128 44.01219 28.37674
# Shear Modulus (GPa) = 13.95801 21.85182 17.90492
#
# Velocity S-wave (km/s) = 2.82783 3.53822 3.20278
# Velocity P-wave (km/s) = 4.23813 6.47355 5.47122
#
# Compressibility (1/GPa) = 0.07848506
#
# Stress axis : x y z
#
# Youngs Moduli (GPa) = 56.93489 15.55053 71.24717
#
# Poissons Ratio (x) = 0.12700 0.74900
# Poissons Ratio (y) = 0.46499 -0.71028
# Poissons Ratio (z) = 0.59854 -0.15503
#
# Static dielectric constant tensor:
#      x y z
#    x 1.591200 0.000000 -0.013170 
#    y 0.000000 1.641350 0.000000 
#    z -0.013170 0.000000 1.611210 
# 
# From -- ./inp_files/326892.got.cif
#   From: 2010.05.17/outbox.cif.g08.bks.cpg/sg12_164_cif.got.tgz:326892.got - 2010.06.03 13:09:07.
