data_PCOD9171790
_publ_section_title
;
Structure prediction by ZEFSAII (Michael W. Deem and Ramdas Pophale) SiO2 
 PCOD9171790
Probable space group: C 2/M
;
_chemical_formula_sum "Si O2"
_cell_formula_units_Z 56
_cell_length_a 13.279977
_cell_length_b 14.155061
_cell_length_c 15.141319
_cell_angle_alpha 90.000000
_cell_angle_beta 53.844326
_cell_angle_gamma 90.000000
_cell_volume 2298.109181
_symmetry_space_group_name_H-M "C 2/M"
_symmetry_group_IT_number 12
_symmetry_cell_setting 'monoclinic'
loop_
_space_group_symop_operation_xyz
x,y,z
-x,y,-z
-x,-y,-z
x,-y,z
1/2+x,1/2+y,z
1/2-x,1/2+y,-z
1/2-x,1/2-y,-z
1/2+x,1/2-y,z
loop_
_atom_site_type_symbol
_atom_site_label
_atom_site_fract_x
_atom_site_fract_y
_atom_site_fract_z
Si Si1 0.796199 0.106588 0.233724
Si Si2 0.945264 0.391987 0.717392
Si Si3 0.045715 0.615172 0.841294
Si Si4 0.474964 0.384030 0.782932
Si Si5 0.698758 0.114865 0.920459
Si Si6 0.169756 0.632454 0.485286
Si Si7 0.092945 0.848213 0.532371
O O1 0.689758 0.152793 0.228552
O O2 0.725805 0.098636 0.364492
O O3 0.927847 0.149676 0.192834
O O4 0.821826 0.000000 0.187160
O O5 0.917164 0.500000 0.758154
O O6 0.029662 0.349158 0.750669
O O7 0.034244 0.398484 0.587222
O O8 0.057011 0.500000 0.834159
O O9 0.160636 0.646719 0.841630
O O10 0.916593 0.639110 0.957296
O O11 0.482202 0.500000 0.777009
O O12 0.335273 0.353978 0.876631
O O13 0.513983 0.351598 0.664300
O O14 0.702558 0.000000 0.918355
O O15 0.143888 0.743820 0.485935
O O16 0.274756 0.605881 0.504916
O O17 0.000000 0.878955 0.500000
#
# Coordination Sequence:
#
# PCOD9171790 Si02
#       7
#     8   8   8   8   8   8   8
#     4   9  17  30  46  68  94 125 160 190 226 273
#     4  10  18  28  48  72  93 119 159 197 225 267
#     4   8  15  26  44  71  94 117 151 188 229 277
#     4   9  18  31  48  67  92 125 154 189 237 275
#     4   8  14  28  46  65  95 123 145 185 238 280
#     4  10  20  33  47  65  95 128 154 189 232 270
#     4  10  21  33  46  67  93 123 159 190 225 281
#
# _framework density 24.367858999999999
#
# number of rings (size 3 to 8) (size 9 to 14) (size 15 to 20)
#    0.000    2.857    0.000    2.571    2.000    2.000 
#    0.000    0.714    0.000    5.143    0.000    0.000 
#    0.000    0.000    0.000    0.000    0.000    0.000 
#
# Total GULP energy -156155.312839 kJ/mol
# GULP energy per Si atom -5576.975459 kJ/mol
# Density = 2.431240 g / cm^3
# Si number density = 24.367859 Si / 1000 Ang^3
#
#
#
# Elastic Constant Matrix: (Units=GPa)
#
#
# Indices 1 2 3 4 5 6 
#
# 1 153.8166 -13.5386 16.3719 0.0000 -28.9739 0.0000
# 2 -13.5386 68.3507 -10.7262 0.0000 -2.6133 0.0000
# 3 16.3719 -10.7262 11.4311 0.0000 -11.3610 0.0000
# 4 0.0000 0.0000 0.0000 18.8240 0.0000 -4.3958
# 5 -28.9739 -2.6133 -11.3610 0.0000 39.0085 0.0000
# 6 0.0000 0.0000 0.0000 -4.3958 0.0000 14.8013
#
#
#
# Elastic Compliance Matrix: (Units=1/GPa)
#
#
# Indices 1 2 3 4 5 6 
#
# 1 0.008052 0.000660 -0.006930 0.000000 0.004006 0.000000
# 2 0.000660 0.019311 0.026667 0.000000 0.009551 0.000000
# 3 -0.006930 0.026667 0.167603 0.000000 0.045452 0.000000
# 4 0.000000 0.000000 0.000000 0.057082 0.000000 0.016953
# 5 0.004006 0.009551 0.045452 0.000000 0.042489 0.000000
# 6 0.000000 0.000000 0.000000 0.016953 0.000000 0.072597
#
#
# Mechanical properties :
#
#
# Convention : Reuss Voigt Hill
#
# Bulk Modulus (GPa) = 4.24161 24.20138 14.22150
# Shear Modulus (GPa) = 12.34793 30.62620 21.48706
#
# Velocity S-wave (km/s) = 2.25351 3.54902 2.97270
# Velocity P-wave (km/s) = 2.91813 5.17178 4.19898
#
# Compressibility (1/GPa) = 0.23575954
#
# Stress axis : x y z
#
# Youngs Moduli (GPa) = 124.19782 51.78343 5.96648
#
# Poissons Ratio (x) = -0.03420 0.04135
# Poissons Ratio (y) = -0.08202 -0.15911
# Poissons Ratio (z) = 0.86074 -1.38090
#
# Static dielectric constant tensor:
#      x y z
#    x 2.000960 0.000000 0.037010 
#    y 0.000000 2.060780 0.000000 
#    z 0.037010 0.000000 1.882680 
# 
# From -- ./inp_files/177926.got.cif
#   From: 2010.05.17/outbox.cif.g08.bks.cpg/sg12_89_cif.got.tgz:177926.got - 2010.06.03 13:09:07.
