data_PCOD9171083
_publ_section_title
;
Structure prediction by ZEFSAII (Michael W. Deem and Ramdas Pophale) SiO2 
 PCOD9171083
Probable space group: C 2/M
;
_chemical_formula_sum "Si O2"
_cell_formula_units_Z 64
_cell_length_a 31.023013
_cell_length_b 7.362654
_cell_length_c 15.739592
_cell_angle_alpha 90.000000
_cell_angle_beta 100.391705
_cell_angle_gamma 90.000000
_cell_volume 3536.138733
_symmetry_space_group_name_H-M "C 2/M"
_symmetry_group_IT_number 12
_symmetry_cell_setting 'monoclinic'
loop_
_space_group_symop_operation_xyz
x,y,z
-x,y,-z
-x,-y,-z
x,-y,z
1/2+x,1/2+y,z
1/2-x,1/2+y,-z
1/2-x,1/2-y,-z
1/2+x,1/2-y,z
loop_
_atom_site_type_symbol
_atom_site_label
_atom_site_fract_x
_atom_site_fract_y
_atom_site_fract_z
Si Si1 0.875320 0.722452 0.748043
Si Si2 0.533257 0.221015 0.891189
Si Si3 0.804178 0.214294 0.451422
Si Si4 0.460254 0.778090 0.296611
Si Si5 0.058815 0.721302 0.379094
Si Si6 0.711636 0.792783 0.362983
Si Si7 0.900275 0.717927 0.428542
Si Si8 0.563598 0.220892 0.081813
O O1 0.874395 0.500000 0.746441
O O2 0.908271 0.777154 0.684070
O O3 0.826493 0.787341 0.708870
O O4 0.896608 0.779725 0.844549
O O5 0.547483 0.281006 0.803023
O O6 0.482747 0.273069 0.891608
O O7 0.533724 0.000000 0.891151
O O8 0.561232 0.279771 0.982976
O O9 0.760335 0.287001 0.390154
O O10 0.807136 0.294547 0.547201
O O11 0.848961 0.240290 0.417199
O O12 0.797265 0.000000 0.462434
O O13 0.509144 0.723282 0.342271
O O14 0.424942 0.716801 0.353225
O O15 0.459918 0.000000 0.296098
O O16 0.058946 0.500000 0.379520
O O17 0.076256 0.782978 0.476756
O O18 0.717729 0.000000 0.336140
O O19 0.904323 0.500000 0.430526
O O20 0.564055 0.000000 0.081739
#
# Coordination Sequence:
#
# PCOD9171083 Si02
#       8
#     8   8   8   8   8   8   8   8
#     4   9  13  20  36  56  76 100 128 157 191 234
#     4   8  12  18  27  47  79 107 126 150 193 239
#     4  10  19  29  41  58  80 104 131 166 203 235
#     4   9  15  22  34  54  78 106 139 167 189 222
#     4   9  14  21  34  54  77 101 135 167 185 217
#     4   9  17  29  44  60  78 101 132 166 198 235
#     4  10  18  27  40  57  79 109 141 166 189 224
#     4   8  12  17  29  49  77 106 124 149 196 243
#
# _framework density 18.098837
#
# number of rings (size 3 to 8) (size 9 to 14) (size 15 to 20)
#    0.000    3.000    2.500    1.500    0.000    2.000 
#    0.000    0.000    0.000    1.500    0.000    0.875 
#    0.000    1.000    0.000    4.500    0.000    3.750 
#
# Total GULP energy -178465.500957 kJ/mol
# GULP energy per Si atom -5577.046905 kJ/mol
# Density = 1.805764 g / cm^3
# Si number density = 18.098837 Si / 1000 Ang^3
#
#
#
# Elastic Constant Matrix: (Units=GPa)
#
#
# Indices 1 2 3 4 5 6 
#
# 1 123.1289 -1.3214 94.6289 0.0000 19.1261 0.0000
# 2 -1.3214 66.4532 4.5270 0.0000 1.4030 0.0000
# 3 94.6289 4.5270 156.2579 0.0000 21.1045 0.0000
# 4 0.0000 0.0000 0.0000 -7.2863 0.0000 -0.8358
# 5 19.1261 1.4030 21.1045 0.0000 32.1740 0.0000
# 6 0.0000 0.0000 0.0000 -0.8358 0.0000 2.8201
#
#
#
# Elastic Compliance Matrix: (Units=1/GPa)
#
#
# Indices 1 2 3 4 5 6 
#
# 1 0.015581 0.000995 -0.009006 0.000000 -0.003399 0.000000
# 2 0.000995 0.015146 -0.000957 0.000000 -0.000624 0.000000
# 3 -0.009006 -0.000957 0.012237 0.000000 -0.002631 0.000000
# 4 0.000000 0.000000 0.000000 -0.132732 0.000000 -0.039338
# 5 -0.003399 -0.000624 -0.002631 0.000000 0.034854 0.000000
# 6 0.000000 0.000000 0.000000 -0.039338 0.000000 0.342943
#
#
# Mechanical properties :
#
#
# Convention : Reuss Voigt Hill
#
# Bulk Modulus (GPa) = 39.95409 60.16767 50.06088
# Shear Modulus (GPa) = 15.90789 22.07526 18.99158
#
# Velocity S-wave (km/s) = 2.96792 3.49622 3.24284
# Velocity P-wave (km/s) = 5.81963 7.04373 6.46074
#
# Compressibility (1/GPa) = 0.02502872
#
# Stress axis : x y z
#
# Youngs Moduli (GPa) = 64.17868 66.02251 81.72143
#
# Poissons Ratio (x) = -0.06570 0.73597
# Poissons Ratio (y) = -0.06386 0.07822
# Poissons Ratio (z) = 0.57799 0.06319
#
# Static dielectric constant tensor:
#      x y z
#    x 1.607280 0.000000 0.025100 
#    y 0.000000 1.727020 0.000000 
#    z 0.025100 0.000000 1.613150 
# 
# From -- ./inp_files/248446.got.cif
#   From: 2010.05.17/outbox.cif.g08.bks.cpg/sg12_125_cif.got.tgz:248446.got - 2010.06.03 13:09:07.
