data_PCOD9171636
_publ_section_title
;
Structure prediction by ZEFSAII (Michael W. Deem and Ramdas Pophale) SiO2 
 PCOD9171636
Probable space group: C 2/M
;
_chemical_formula_sum "Si O2"
_cell_formula_units_Z 48
_cell_length_a 19.447244
_cell_length_b 14.100031
_cell_length_c 18.115703
_cell_angle_alpha 90.000000
_cell_angle_beta 149.348601
_cell_angle_gamma 90.000000
_cell_volume 2532.471349
_symmetry_space_group_name_H-M "C 2/M"
_symmetry_group_IT_number 12
_symmetry_cell_setting 'monoclinic'
loop_
_space_group_symop_operation_xyz
x,y,z
-x,y,-z
-x,-y,-z
x,-y,z
1/2+x,1/2+y,z
1/2-x,1/2+y,-z
1/2-x,1/2-y,-z
1/2+x,1/2-y,z
loop_
_atom_site_type_symbol
_atom_site_label
_atom_site_fract_x
_atom_site_fract_y
_atom_site_fract_z
Si Si1 0.400109 0.772943 0.110408
Si Si2 0.377934 0.113431 0.625800
Si Si3 0.184130 0.385257 0.108721
Si Si4 0.492932 0.609730 0.385000
Si Si5 0.771226 0.384999 0.690848
Si Si6 0.592802 0.608633 0.307293
O O1 0.484606 0.828058 0.252454
O O2 0.488547 0.679854 0.173893
O O3 0.250000 0.750000 0.000000
O O4 0.388532 0.837636 0.027055
O O5 0.332921 0.136444 0.668377
O O6 0.250545 0.138604 0.456320
O O7 0.397604 0.000000 0.638347
O O8 0.170767 0.500000 0.089181
O O9 0.341366 0.354597 0.246567
O O10 0.151545 0.358119 0.163309
O O11 0.478738 0.500000 0.395253
O O12 0.616441 0.651240 0.546071
O O13 0.545671 0.608442 0.349528
O O14 0.764286 0.500000 0.686616
O O15 0.585133 0.500000 0.273810
#
# Coordination Sequence:
#
# PCOD9171636 Si02
#       6
#     8   8   8   8   8   8
#     4  12  22  30  45  71 104 136 162 195 245 288
#     4   9  19  35  53  73  97 129 163 200 241 293
#     4  10  18  28  45  73 107 134 156 192 239 292
#     4   8  13  25  45  68  95 128 161 193 229 282
#     4   8  15  28  48  71  97 131 162 187 234 298
#     4   9  18  34  51  66  93 134 175 204 233 276
#
# _framework density 18.953817000000001
#
# number of rings (size 3 to 8) (size 9 to 14) (size 15 to 20)
#    0.000    2.667    1.667    3.500    0.000    3.333 
#    0.000    2.500    0.000    0.000    0.000    2.333 
#    0.000    5.333    0.000    2.000    0.000    0.000 
#
# Total GULP energy -133724.124436 kJ/mol
# GULP energy per Si atom -5571.838518 kJ/mol
# Density = 1.891068 g / cm^3
# Si number density = 18.953817 Si / 1000 Ang^3
#
#
#
# Elastic Constant Matrix: (Units=GPa)
#
#
# Indices 1 2 3 4 5 6 
#
# 1 27.8090 7.8583 14.3458 -0.0001 7.6966 0.0000
# 2 7.8583 72.6494 47.0337 -0.0001 6.4492 0.0000
# 3 14.3458 47.0337 121.2269 -0.0001 18.8981 0.0000
# 4 -0.0001 -0.0001 -0.0001 30.8652 -0.0001 10.9746
# 5 7.6966 6.4492 18.8981 -0.0001 32.3505 0.0000
# 6 0.0000 0.0000 0.0000 10.9746 0.0000 4.7489
#
#
#
# Elastic Compliance Matrix: (Units=1/GPa)
#
#
# Indices 1 2 3 4 5 6 
#
# 1 0.040022 -0.001808 -0.002868 0.000000 -0.007486 0.000000
# 2 -0.001808 0.018473 -0.007092 0.000000 0.000890 0.000000
# 3 -0.002868 -0.007092 0.012117 0.000000 -0.004982 0.000000
# 4 0.000000 0.000000 0.000000 0.181720 0.000000 -0.419951
# 5 -0.007486 0.000890 -0.004982 0.000000 0.035425 0.000000
# 6 0.000000 0.000000 0.000000 -0.419951 0.000000 1.181076
#
#
# Mechanical properties :
#
#
# Convention : Reuss Voigt Hill
#
# Bulk Modulus (GPa) = 21.24234 40.01789 30.63012
# Shear Modulus (GPa) = 3.31552 23.75607 13.53579
#
# Velocity S-wave (km/s) = 1.32403 3.54413 2.67525
# Velocity P-wave (km/s) = 3.68363 6.15687 5.07327
#
# Compressibility (1/GPa) = 0.04707579
#
# Stress axis : x y z
#
# Youngs Moduli (GPa) = 24.98647 54.13424 82.53206
#
# Poissons Ratio (x) = 0.09787 0.23667
# Poissons Ratio (y) = 0.04518 0.58531
# Poissons Ratio (z) = 0.07165 0.38391
#
# Static dielectric constant tensor:
#      x y z
#    x 1.712230 0.000000 0.044470 
#    y 0.000000 1.679900 0.000000 
#    z 0.044470 0.000000 1.741160 
# 
# From -- ./inp_files/284097.got.cif
#   From: 2010.05.17/outbox.cif.g08.bks.cpg/sg12_143_cif.got.tgz:284097.got - 2010.06.03 13:09:07.
