data_PCOD9171584
_publ_section_title
;
Structure prediction by ZEFSAII (Michael W. Deem and Ramdas Pophale) SiO2 
 PCOD9171584
Probable space group: C 2/M
;
_chemical_formula_sum "Si O2"
_cell_formula_units_Z 48
_cell_length_a 29.675462
_cell_length_b 8.494877
_cell_length_c 12.523082
_cell_angle_alpha 90.000000
_cell_angle_beta 109.794274
_cell_angle_gamma 90.000000
_cell_volume 2970.407436
_symmetry_space_group_name_H-M "C 2/M"
_symmetry_group_IT_number 12
_symmetry_cell_setting 'monoclinic'
loop_
_space_group_symop_operation_xyz
x,y,z
-x,y,-z
-x,-y,-z
x,-y,z
1/2+x,1/2+y,z
1/2-x,1/2+y,-z
1/2-x,1/2-y,-z
1/2+x,1/2-y,z
loop_
_atom_site_type_symbol
_atom_site_label
_atom_site_fract_x
_atom_site_fract_y
_atom_site_fract_z
Si Si1 0.015340 0.316909 0.887062
Si Si2 0.245360 0.310155 0.663406
Si Si3 0.115622 0.308934 0.034236
Si Si4 0.779409 0.811308 0.923058
Si Si5 0.585962 0.809573 0.250290
Si Si6 0.826347 0.187986 0.558242
O O1 0.019363 0.500000 0.857884
O O2 0.969023 0.249966 0.789355
O O3 0.069046 0.250655 0.930674
O O4 0.000000 0.316526 0.000000
O O5 0.244176 0.500000 0.660441
O O6 0.255543 0.257777 0.791951
O O7 0.197227 0.247368 0.570070
O O8 0.289413 0.258488 0.622308
O O9 0.115318 0.500000 0.031712
O O10 0.165993 0.247748 0.033480
O O11 0.107417 0.261449 0.151630
O O12 0.779403 0.000000 0.923371
O O13 0.750000 0.750000 0.000000
O O14 0.621668 0.751828 0.369724
O O15 0.584543 0.000000 0.249333
O O16 0.827278 0.000000 0.559367
#
# Coordination Sequence:
#
# PCOD9171584 Si02
#       6
#     8   8   8   8   8   8
#     4   7  12  23  40  64  91 120 153 184 217 268
#     4   9  19  33  45  62  90 122 155 190 228 273
#     4   9  16  28  46  66  91 123 157 191 226 265
#     4  11  22  35  49  67  92 122 159 196 231 272
#     4   9  15  25  44  68  95 125 153 182 224 275
#     4  10  18  28  45  68  94 121 152 189 230 275
#
# _framework density 16.159399000000001
#
# number of rings (size 3 to 8) (size 9 to 14) (size 15 to 20)
#    0.000    2.833    1.667    3.000    0.000    2.000 
#    0.000    0.833    0.000    3.000    0.000    1.167 
#    0.000    9.333    0.000    0.000    0.000    0.000 
#
# Total GULP energy -133635.260624 kJ/mol
# GULP energy per Si atom -5568.135859 kJ/mol
# Density = 1.612262 g / cm^3
# Si number density = 16.159399 Si / 1000 Ang^3
#
#
#
# Elastic Constant Matrix: (Units=GPa)
#
#
# Indices 1 2 3 4 5 6 
#
# 1 119.1516 21.4979 79.5250 0.0000 33.0128 0.0000
# 2 21.4979 12.7094 18.8616 0.0000 4.7221 0.0000
# 3 79.5250 18.8616 103.8841 0.0000 31.2910 0.0000
# 4 0.0000 0.0000 0.0000 17.8751 0.0000 3.4941
# 5 33.0128 4.7221 31.2910 0.0000 36.3992 0.0000
# 6 0.0000 0.0000 0.0000 3.4941 0.0000 19.2601
#
#
#
# Elastic Compliance Matrix: (Units=1/GPa)
#
#
# Indices 1 2 3 4 5 6 
#
# 1 0.020267 -0.016171 -0.010355 0.000000 -0.007382 0.000000
# 2 -0.016171 0.121003 -0.012523 0.000000 0.009734 0.000000
# 3 -0.010355 -0.012523 0.022277 0.000000 -0.008134 0.000000
# 4 0.000000 0.000000 0.000000 0.058001 0.000000 -0.010522
# 5 -0.007382 0.009734 -0.008134 0.000000 0.039898 0.000000
# 6 0.000000 0.000000 0.000000 -0.010522 0.000000 0.053830
#
#
# Mechanical properties :
#
#
# Convention : Reuss Voigt Hill
#
# Bulk Modulus (GPa) = 11.70286 52.83490 32.26888
# Shear Modulus (GPa) = 11.85240 22.43091 17.14165
#
# Velocity S-wave (km/s) = 2.71120 3.72977 3.26050
# Velocity P-wave (km/s) = 4.13021 7.16347 5.84696
#
# Compressibility (1/GPa) = 0.08544922
#
# Stress axis : x y z
#
# Youngs Moduli (GPa) = 49.34197 8.26426 44.88960
#
# Poissons Ratio (x) = 0.13364 0.46483
# Poissons Ratio (y) = 0.79791 0.56214
# Poissons Ratio (z) = 0.51094 0.10349
#
# Static dielectric constant tensor:
#      x y z
#    x 1.546990 0.000000 0.037540 
#    y 0.000000 1.556000 0.000000 
#    z 0.037540 0.000000 1.543540 
# 
# From -- ./inp_files/179339.got.cif
#   From: 2010.05.17/outbox.cif.g08.bks.cpg/sg12_90_cif.got.tgz:179339.got - 2010.06.03 13:09:07.
