data_PCOD9171455
_publ_section_title
;
Structure prediction by ZEFSAII (Michael W. Deem and Ramdas Pophale) SiO2 
 PCOD9171455
Probable space group: C 2/M
;
_chemical_formula_sum "Si O2"
_cell_formula_units_Z 56
_cell_length_a 24.372304
_cell_length_b 8.175268
_cell_length_c 10.639838
_cell_angle_alpha 90.000000
_cell_angle_beta 86.760420
_cell_angle_gamma 90.000000
_cell_volume 2116.601148
_symmetry_space_group_name_H-M "C 2/M"
_symmetry_group_IT_number 12
_symmetry_cell_setting 'monoclinic'
loop_
_space_group_symop_operation_xyz
x,y,z
-x,y,-z
-x,-y,-z
x,-y,z
1/2+x,1/2+y,z
1/2-x,1/2+y,-z
1/2-x,1/2-y,-z
1/2+x,1/2-y,z
loop_
_atom_site_type_symbol
_atom_site_label
_atom_site_fract_x
_atom_site_fract_y
_atom_site_fract_z
Si Si1 0.562233 0.815220 0.946420
Si Si2 0.176600 0.192143 0.750661
Si Si3 0.516310 0.694748 0.690282
Si Si4 0.717902 0.305567 0.377059
Si Si5 0.387545 0.812015 0.479745
Si Si6 0.312208 0.697242 0.974059
Si Si7 0.401785 0.687884 0.799285
O O1 0.552177 0.750811 0.806176
O O2 0.586727 0.000000 0.949033
O O3 0.500000 0.840362 0.000000
O O4 0.579254 0.690643 0.055840
O O5 0.241844 0.218973 0.727097
O O6 0.147390 0.291948 0.644726
O O7 0.160615 0.242203 0.893856
O O8 0.163953 0.000000 0.733205
O O9 0.511261 0.500000 0.695487
O O10 0.553469 0.738283 0.564859
O O11 0.453642 0.761900 0.716615
O O12 0.750000 0.250000 0.500000
O O13 0.653380 0.266512 0.411606
O O14 0.777182 0.000000 0.640243
O O15 0.394010 0.000000 0.510254
O O16 0.312391 0.500000 0.965281
O O17 0.250000 0.750000 0.000000
O O18 0.342457 0.763217 0.844968
O O19 0.395291 0.500000 0.759993
#
# Coordination Sequence:
#
# PCOD9171455 Si02
#       7
#     8   8   8   8   8   8   8
#     4   9  16  25  39  62  90 120 155 191 228 275
#     4  10  19  33  51  72 100 133 167 204 246 288
#     4  10  18  28  43  64  94 130 162 192 232 286
#     4  10  18  30  48  71 100 133 166 199 239 288
#     4  11  20  30  47  74 105 134 165 199 238 289
#     4  10  22  37  53  72  94 124 165 210 250 290
#     4   9  18  32  47  64  90 125 161 197 239 286
#
# _framework density 26.457512999999999
#
# number of rings (size 3 to 8) (size 9 to 14) (size 15 to 20)
#    0.000    2.143    0.000    6.429    0.000    5.143 
#    0.000    0.000    0.000    0.000    0.000    1.000 
#    0.000    8.000    0.000    0.000    0.000    0.000 
#
# Total GULP energy -156377.303578 kJ/mol
# GULP energy per Si atom -5584.903699 kJ/mol
# Density = 2.639729 g / cm^3
# Si number density = 26.457513 Si / 1000 Ang^3
#
#
#
# Elastic Constant Matrix: (Units=GPa)
#
#
# Indices 1 2 3 4 5 6 
#
# 1 120.3128 -1.6297 27.3756 0.0000 -30.5810 0.0000
# 2 -1.6297 111.9970 6.8701 0.0000 -3.1388 0.0000
# 3 27.3756 6.8701 190.7294 0.0000 -42.9568 0.0000
# 4 0.0000 0.0000 0.0000 10.8090 0.0000 -7.4308
# 5 -30.5810 -3.1388 -42.9568 0.0000 56.6233 0.0000
# 6 0.0000 0.0000 0.0000 -7.4308 0.0000 36.8211
#
#
#
# Elastic Compliance Matrix: (Units=1/GPa)
#
#
# Indices 1 2 3 4 5 6 
#
# 1 0.009654 0.000298 -0.000263 0.000000 0.005031 0.000000
# 2 0.000298 0.008962 -0.000262 0.000000 0.000459 0.000000
# 3 -0.000263 -0.000262 0.006338 0.000000 0.004651 0.000000
# 4 0.000000 0.000000 0.000000 0.107418 0.000000 0.021678
# 5 0.005031 0.000459 0.004651 0.000000 0.023932 0.000000
# 6 0.000000 0.000000 0.000000 0.021678 0.000000 0.031533
#
#
# Mechanical properties :
#
#
# Convention : Reuss Voigt Hill
#
# Bulk Modulus (GPa) = 40.81906 54.25233 47.53569
# Shear Modulus (GPa) = 25.45056 46.87890 36.16473
#
# Velocity S-wave (km/s) = 3.10488 4.21391 3.70117
# Velocity P-wave (km/s) = 5.32122 6.65026 6.02251
#
# Compressibility (1/GPa) = 0.02449836
#
# Stress axis : x y z
#
# Youngs Moduli (GPa) = 103.58022 111.58119 157.78142
#
# Poissons Ratio (x) = -0.03321 0.04155
# Poissons Ratio (y) = -0.03083 0.04138
# Poissons Ratio (z) = 0.02728 0.02926
#
# Static dielectric constant tensor:
#      x y z
#    x 2.416790 0.000000 -0.029480 
#    y 0.000000 1.798060 0.000000 
#    z -0.029480 0.000000 2.035490 
# 
# From -- ./inp_files/242991.got.cif
#   From: 2010.05.17/outbox.cif.g08.bks.cpg/sg12_122_cif.got.tgz:242991.got - 2010.06.03 13:09:07.
