data_PCOD9171449
_publ_section_title
;
Structure prediction by ZEFSAII (Michael W. Deem and Ramdas Pophale) SiO2 
 PCOD9171449
Probable space group: C 2/M
;
_chemical_formula_sum "Si O2"
_cell_formula_units_Z 56
_cell_length_a 13.683880
_cell_length_b 7.651568
_cell_length_c 19.894870
_cell_angle_alpha 90.000000
_cell_angle_beta 87.677467
_cell_angle_gamma 90.000000
_cell_volume 2081.344169
_symmetry_space_group_name_H-M "C 2/M"
_symmetry_group_IT_number 12
_symmetry_cell_setting 'monoclinic'
loop_
_space_group_symop_operation_xyz
x,y,z
-x,y,-z
-x,-y,-z
x,-y,z
1/2+x,1/2+y,z
1/2-x,1/2+y,-z
1/2-x,1/2-y,-z
1/2+x,1/2-y,z
loop_
_atom_site_type_symbol
_atom_site_label
_atom_site_fract_x
_atom_site_fract_y
_atom_site_fract_z
Si Si1 0.868499 0.290918 0.947368
Si Si2 0.656170 0.708749 0.194814
Si Si3 0.638788 0.294095 0.480004
Si Si4 0.805543 0.798210 0.659409
Si Si5 0.403119 0.213972 0.089948
Si Si6 0.579987 0.198801 0.624087
Si Si7 0.058492 0.700012 0.769228
O O1 0.865094 0.500000 0.950833
O O2 0.808955 0.236437 0.882600
O O3 0.982475 0.242695 0.929107
O O4 0.848974 0.222964 0.023537
O O5 0.644627 0.500000 0.199034
O O6 0.702548 0.770262 0.264327
O O7 0.552157 0.804114 0.202427
O O8 0.633431 0.500000 0.471631
O O9 0.750000 0.250000 0.500000
O O10 0.630000 0.218930 0.403705
O O11 0.572267 0.256367 0.547090
O O12 0.696492 0.795700 0.634167
O O13 0.836372 0.000000 0.664891
O O14 0.385237 0.276473 0.167452
O O15 0.396065 0.000000 0.093195
O O16 0.547066 0.285151 0.695527
O O17 0.546275 0.000000 0.626946
O O18 0.096632 0.500000 0.758850
#
# Coordination Sequence:
#
# PCOD9171449 Si02
#       7
#     8   8   8   8   8   8   8
#     4   8  13  24  41  60  83 111 146 181 210 247
#     4  10  18  28  43  64  91 117 142 175 216 261
#     4   9  16  29  48  67  87 112 147 184 214 251
#     4   8  16  30  46  64  86 115 146 173 209 261
#     4   7  11  22  41  61  81 109 144 178 210 249
#     4   9  17  31  50  68  86 111 147 185 216 252
#     4   9  17  30  47  66  88 114 145 181 218 255
#
# _framework density 26.90569
#
# number of rings (size 3 to 8) (size 9 to 14) (size 15 to 20)
#    0.000    3.429    0.000    3.429    0.000    0.571 
#    0.000   13.571    0.000    5.143    0.000    0.000 
#    0.000    0.000    0.000    0.000    0.000    0.857 
#
# Total GULP energy -156033.738003 kJ/mol
# GULP energy per Si atom -5572.633500 kJ/mol
# Density = 2.684445 g / cm^3
# Si number density = 26.905690 Si / 1000 Ang^3
#
#
#
# Elastic Constant Matrix: (Units=GPa)
#
#
# Indices 1 2 3 4 5 6 
#
# 1 55.7798 3.8654 56.5761 0.0000 4.4364 0.0000
# 2 3.8654 55.9033 31.3640 0.0000 1.3822 0.0000
# 3 56.5761 31.3640 391.7402 0.0000 5.8952 0.0000
# 4 0.0000 0.0000 0.0000 24.9698 0.0000 0.0582
# 5 4.4364 1.3822 5.8952 0.0000 66.8454 0.0000
# 6 0.0000 0.0000 0.0000 0.0582 0.0000 8.9874
#
#
#
# Elastic Compliance Matrix: (Units=1/GPa)
#
#
# Indices 1 2 3 4 5 6 
#
# 1 0.021094 0.000282 -0.003052 0.000000 -0.001137 0.000000
# 2 0.000282 0.018737 -0.001537 0.000000 -0.000271 0.000000
# 3 -0.003052 -0.001537 0.003117 0.000000 -0.000041 0.000000
# 4 0.000000 0.000000 0.000000 0.040049 0.000000 -0.000259
# 5 -0.001137 -0.000271 -0.000041 0.000000 0.015045 0.000000
# 6 0.000000 0.000000 0.000000 -0.000259 0.000000 0.111269
#
#
# Mechanical properties :
#
#
# Convention : Reuss Voigt Hill
#
# Bulk Modulus (GPa) = 29.12504 76.33715 52.73110
# Shear Modulus (GPa) = 21.79886 47.60169 34.70028
#
# Velocity S-wave (km/s) = 2.84948 4.21076 3.59514
# Velocity P-wave (km/s) = 4.65558 7.21625 6.07243
#
# Compressibility (1/GPa) = 0.03433472
#
# Stress axis : x y z
#
# Youngs Moduli (GPa) = 47.40691 53.36909 320.80822
#
# Poissons Ratio (x) = -0.01504 0.97907
# Poissons Ratio (y) = -0.01336 0.49302
# Poissons Ratio (z) = 0.14468 0.08202
#
# Static dielectric constant tensor:
#      x y z
#    x 2.201990 0.000000 -0.005140 
#    y 0.000000 2.002220 0.000000 
#    z -0.005140 0.000000 2.303500 
# 
# From -- ./inp_files/280311.got.cif
#   From: 2010.05.17/outbox.cif.g08.bks.cpg/sg12_141_cif.got.tgz:280311.got - 2010.06.03 13:09:07.
