data_PCOD9171580
_publ_section_title
;
Structure prediction by ZEFSAII (Michael W. Deem and Ramdas Pophale) SiO2 
 PCOD9171580
Probable space group: C 2/M
;
_chemical_formula_sum "Si O2"
_cell_formula_units_Z 56
_cell_length_a 28.674064
_cell_length_b 8.698469
_cell_length_c 18.980776
_cell_angle_alpha 90.000000
_cell_angle_beta 48.819205
_cell_angle_gamma 90.000000
_cell_volume 3563.123058
_symmetry_space_group_name_H-M "C 2/M"
_symmetry_group_IT_number 12
_symmetry_cell_setting 'monoclinic'
loop_
_space_group_symop_operation_xyz
x,y,z
-x,y,-z
-x,-y,-z
x,-y,z
1/2+x,1/2+y,z
1/2-x,1/2+y,-z
1/2-x,1/2-y,-z
1/2+x,1/2-y,z
loop_
_atom_site_type_symbol
_atom_site_label
_atom_site_fract_x
_atom_site_fract_y
_atom_site_fract_z
Si Si1 0.124416 0.683941 0.531477
Si Si2 0.312655 0.315773 0.403027
Si Si3 0.810466 0.184410 0.979514
Si Si4 0.375591 0.313402 0.778783
Si Si5 0.248471 0.184971 0.675703
Si Si6 0.252815 0.816102 0.167977
Si Si7 0.502360 0.313891 0.579891
O O1 0.123856 0.500000 0.534774
O O2 0.133750 0.748395 0.601202
O O3 0.185083 0.730034 0.424859
O O4 0.062945 0.746845 0.556483
O O5 0.312734 0.500000 0.408206
O O6 0.250000 0.250000 0.500000
O O7 0.304668 0.274943 0.328722
O O8 0.865396 0.228675 0.870970
O O9 0.807310 0.000000 0.985449
O O10 0.750000 0.250000 0.000000
O O11 0.804865 0.250647 0.063290
O O12 0.375755 0.500000 0.775699
O O13 0.314775 0.264020 0.794923
O O14 0.439463 0.260646 0.680958
O O15 0.240079 0.260424 0.759588
O O16 0.249013 0.000000 0.682689
O O17 0.254045 0.000000 0.163250
O O18 0.500000 0.271090 0.500000
O O19 0.505123 0.500000 0.580920
#
# Coordination Sequence:
#
# PCOD9171580 Si02
#       7
#     8   8   8   8   8   8   8
#     4  10  20  32  45  65  93 123 155 188 224 267
#     4   9  17  30  47  66  89 118 151 186 225 270
#     4   9  16  28  44  62  88 118 150 187 224 266
#     4   8  16  29  43  62  88 120 155 184 214 260
#     4   9  18  30  44  65  92 118 145 181 225 269
#     4  10  18  28  45  68  91 116 149 186 227 272
#     4  10  19  31  47  66  90 123 159 189 219 259
#
# _framework density 15.716549000000001
#
# number of rings (size 3 to 8) (size 9 to 14) (size 15 to 20)
#    0.000    2.714    0.000    4.286    0.000    4.857 
#    0.000    4.286    0.000    0.000    0.000    1.000 
#    0.000    8.000    0.000    0.000    0.000    0.000 
#
# Total GULP energy -155931.005416 kJ/mol
# GULP energy per Si atom -5568.964479 kJ/mol
# Density = 1.568078 g / cm^3
# Si number density = 15.716549 Si / 1000 Ang^3
#
#
#
# Elastic Constant Matrix: (Units=GPa)
#
#
# Indices 1 2 3 4 5 6 
#
# 1 124.8474 35.6113 68.5614 -0.0005 21.8403 0.0000
# 2 35.6113 34.3200 36.1266 0.0001 11.1034 0.0018
# 3 68.5614 36.1266 128.8229 -0.0019 23.2886 0.0010
# 4 -0.0005 0.0001 -0.0019 19.3729 0.0009 3.8764
# 5 21.8403 11.1034 23.2886 0.0009 25.5216 -0.0004
# 6 0.0000 0.0018 0.0010 3.8764 -0.0004 26.2012
#
#
#
# Elastic Compliance Matrix: (Units=1/GPa)
#
#
# Indices 1 2 3 4 5 6 
#
# 1 0.013282 -0.008217 -0.004019 0.000000 -0.004124 0.000001
# 2 -0.008217 0.048172 -0.007926 0.000000 -0.006693 -0.000003
# 3 -0.004019 -0.007926 0.013028 0.000002 -0.005001 0.000000
# 4 0.000000 0.000000 0.000002 0.053193 -0.000003 -0.007870
# 5 -0.004124 -0.006693 -0.005001 -0.000003 0.050187 0.000002
# 6 0.000001 -0.000003 0.000000 -0.007870 0.000002 0.039331
#
#
# Mechanical properties :
#
#
# Convention : Reuss Voigt Hill
#
# Bulk Modulus (GPa) = 29.27508 63.17655 46.22581
# Shear Modulus (GPa) = 18.59397 24.06519 21.32958
#
# Velocity S-wave (km/s) = 3.44333 3.91730 3.68794
# Velocity P-wave (km/s) = 5.87163 7.79391 6.90004
#
# Compressibility (1/GPa) = 0.03415875
#
# Stress axis : x y z
#
# Youngs Moduli (GPa) = 75.28900 20.75874 76.75543
#
# Poissons Ratio (x) = 0.17058 0.30848
# Poissons Ratio (y) = 0.61865 0.60837
# Poissons Ratio (z) = 0.30259 0.16453
#
# Static dielectric constant tensor:
#      x y z
#    x 1.517890 0.000000 0.022520 
#    y 0.000000 1.528250 0.000000 
#    z 0.022520 0.000000 1.539230 
# 
# From -- ./inp_files/288237.got.cif
#   From: 2010.05.17/outbox.cif.g08.bks.cpg/sg12_145_cif.got.tgz:288237.got - 2010.06.03 13:09:07.
