data_PCOD9171034
_publ_section_title
;
Structure prediction by ZEFSAII (Michael W. Deem and Ramdas Pophale) SiO2 
 PCOD9171034
Probable space group: C 2/M
;
_chemical_formula_sum "Si O2"
_cell_formula_units_Z 40
_cell_length_a 10.328761
_cell_length_b 18.810076
_cell_length_c 12.298750
_cell_angle_alpha 90.000000
_cell_angle_beta 39.396557
_cell_angle_gamma 90.000000
_cell_volume 1516.552171
_symmetry_space_group_name_H-M "C 2/M"
_symmetry_group_IT_number 12
_symmetry_cell_setting 'monoclinic'
loop_
_space_group_symop_operation_xyz
x,y,z
-x,y,-z
-x,-y,-z
x,-y,z
1/2+x,1/2+y,z
1/2-x,1/2+y,-z
1/2-x,1/2-y,-z
1/2+x,1/2-y,z
loop_
_atom_site_type_symbol
_atom_site_label
_atom_site_fract_x
_atom_site_fract_y
_atom_site_fract_z
Si Si1 0.732251 0.882629 0.854584
Si Si2 0.737423 0.580620 0.407910
Si Si3 0.222323 0.724217 0.206303
Si Si4 0.680260 0.175392 0.454851
Si Si5 0.766419 0.577441 0.915766
O O1 0.821823 0.894764 0.675840
O O2 0.717574 0.798040 0.884609
O O3 0.500000 0.910655 0.000000
O O4 0.818948 0.918020 0.906424
O O5 0.672288 0.500000 0.468465
O O6 0.698849 0.628372 0.539182
O O7 0.986456 0.580500 0.242436
O O8 0.292865 0.717620 0.286452
O O9 0.286620 0.651206 0.108294
O O10 0.974986 0.725280 0.377660
O O11 0.500000 0.133653 0.500000
O O12 0.713939 0.500000 0.901881
#
# Coordination Sequence:
#
# PCOD9171034 Si02
#       5
#     8   8   8   8   8
#     4  10  18  26  41  66  90 110 132 165 213 253
#     4   9  16  26  41  64  90 107 129 171 218 252
#     4   8  16  29  43  62  84 108 142 172 199 244
#     4   7  16  29  43  62  77 110 143 172 199 236
#     4   9  16  27  43  62  85 110 138 171 206 245
#
# _framework density 26.375616999999998
#
# number of rings (size 3 to 8) (size 9 to 14) (size 15 to 20)
#    1.200    2.000    0.000    1.200    0.000    4.400 
#    0.000    0.000    0.000    0.600    0.000   16.800 
#    0.000    0.000    0.000    0.000    0.000    0.000 
#
# Total GULP energy -111685.372659 kJ/mol
# GULP energy per Si atom -5584.268633 kJ/mol
# Density = 2.631558 g / cm^3
# Si number density = 26.375617 Si / 1000 Ang^3
#
#
#
# Elastic Constant Matrix: (Units=GPa)
#
#
# Indices 1 2 3 4 5 6 
#
# 1 88.9368 24.6554 7.2258 0.0012 13.7718 -0.0002
# 2 24.6554 180.0748 25.6310 0.0003 27.0158 0.0001
# 3 7.2258 25.6310 88.0000 0.0010 8.1674 -0.0009
# 4 0.0012 0.0003 0.0010 36.5384 -0.0011 7.9006
# 5 13.7718 27.0158 8.1674 -0.0011 42.3812 0.0006
# 6 -0.0002 0.0001 -0.0009 7.9006 0.0006 23.3196
#
#
#
# Elastic Compliance Matrix: (Units=1/GPa)
#
#
# Indices 1 2 3 4 5 6 
#
# 1 0.012072 -0.001130 -0.000371 -0.000001 -0.003131 0.000000
# 2 -0.001130 0.006434 -0.001461 0.000000 -0.003452 0.000000
# 3 -0.000371 -0.001461 0.011935 0.000000 -0.001248 0.000001
# 4 -0.000001 0.000000 0.000000 0.029532 0.000001 -0.010005
# 5 -0.003131 -0.003452 -0.001248 0.000001 0.027054 -0.000001
# 6 0.000000 0.000000 0.000001 -0.010005 -0.000001 0.046272
#
#
# Mechanical properties :
#
#
# Convention : Reuss Voigt Hill
#
# Bulk Modulus (GPa) = 40.78876 52.44846 46.61861
# Shear Modulus (GPa) = 33.92204 40.41447 37.16825
#
# Velocity S-wave (km/s) = 3.59013 3.91866 3.75799
# Velocity P-wave (km/s) = 5.71695 6.35633 6.04510
#
# Compressibility (1/GPa) = 0.02451656
#
# Stress axis : x y z
#
# Youngs Moduli (GPa) = 82.83444 155.42732 83.78415
#
# Poissons Ratio (x) = 0.17569 0.03112
# Poissons Ratio (y) = 0.09363 0.12238
# Poissons Ratio (z) = 0.03077 0.22703
#
# Static dielectric constant tensor:
#      x y z
#    x 2.228360 0.000000 -0.029800 
#    y 0.000000 1.997230 0.000000 
#    z -0.029800 0.000000 2.097440 
# 
# From -- ./inp_files/144404.got.cif
#   From: 2010.05.17/outbox.cif.g08.bks.cpg/sg12_73_cif.got.tgz:144404.got - 2010.06.03 13:09:07.
