data_PCOD9171104
_publ_section_title
;
Structure prediction by ZEFSAII (Michael W. Deem and Ramdas Pophale) SiO2 
 PCOD9171104
Probable space group: C 2/M
;
_chemical_formula_sum "Si O2"
_cell_formula_units_Z 56
_cell_length_a 28.532225
_cell_length_b 8.997786
_cell_length_c 14.770708
_cell_angle_alpha 90.000000
_cell_angle_beta 75.115899
_cell_angle_gamma 90.000000
_cell_volume 3664.804668
_symmetry_space_group_name_H-M "C 2/M"
_symmetry_group_IT_number 12
_symmetry_cell_setting 'monoclinic'
loop_
_space_group_symop_operation_xyz
x,y,z
-x,y,-z
-x,-y,-z
x,-y,z
1/2+x,1/2+y,z
1/2-x,1/2+y,-z
1/2-x,1/2-y,-z
1/2+x,1/2-y,z
loop_
_atom_site_type_symbol
_atom_site_label
_atom_site_fract_x
_atom_site_fract_y
_atom_site_fract_z
Si Si1 0.181967 0.823292 0.605509
Si Si2 0.808357 0.820860 0.797776
Si Si3 0.284253 0.677625 0.606337
Si Si4 0.867596 0.677664 0.213130
Si Si5 0.055571 0.679033 0.974325
Si Si6 0.707758 0.325451 0.884327
Si Si7 0.372522 0.325719 0.923254
O O1 0.233564 0.762144 0.616722
O O2 0.182896 0.790011 0.497793
O O3 0.139794 0.747617 0.684718
O O4 0.180175 0.000000 0.618740
O O5 0.807758 0.785560 0.691286
O O6 0.760871 0.743328 0.862568
O O7 0.855614 0.776698 0.831988
O O8 0.803462 0.000000 0.809696
O O9 0.274029 0.500000 0.610796
O O10 0.865807 0.500000 0.219445
O O11 0.822436 0.737312 0.176506
O O12 0.914737 0.722540 0.131179
O O13 0.056101 0.500000 0.977808
O O14 0.085412 0.739419 0.045358
O O15 0.000000 0.729871 0.000000
O O16 0.710335 0.500000 0.859974
O O17 0.675799 0.311157 0.990720
O O18 0.385427 0.500000 0.914820
#
# Coordination Sequence:
#
# PCOD9171104 Si02
#       7
#     8   8   8   8   8   8   8
#     4  10  18  28  42  63  89 118 155 192 219 254
#     4  10  18  29  43  61  89 124 154 178 214 261
#     4   9  18  29  42  60  88 125 157 185 218 253
#     4  10  18  29  46  65  88 118 148 182 227 272
#     4   9  19  35  52  69  88 112 145 185 229 276
#     4  10  18  27  40  62  90 119 152 184 212 251
#     4   9  19  31  44  65  91 117 146 181 221 267
#
# _framework density 15.280488
#
# number of rings (size 3 to 8) (size 9 to 14) (size 15 to 20)
#    0.000    2.429    1.429    1.714    0.000    2.571 
#    0.000    0.000    0.000    0.000    0.000    1.000 
#    0.000    8.000    0.000    0.000    0.000    0.000 
#
# Total GULP energy -156035.898384 kJ/mol
# GULP energy per Si atom -5572.710657 kJ/mol
# Density = 1.524571 g / cm^3
# Si number density = 15.280488 Si / 1000 Ang^3
#
#
#
# Elastic Constant Matrix: (Units=GPa)
#
#
# Indices 1 2 3 4 5 6 
#
# 1 94.0667 29.3664 57.3092 0.0000 -0.0250 0.0000
# 2 29.3664 30.3191 34.6350 0.0000 0.6608 0.0000
# 3 57.3092 34.6350 85.6690 0.0000 9.4137 0.0000
# 4 0.0000 0.0000 0.0000 20.6249 0.0000 -0.4048
# 5 -0.0250 0.6608 9.4137 0.0000 17.4802 0.0000
# 6 0.0000 0.0000 0.0000 -0.4048 0.0000 16.2573
#
#
#
# Elastic Compliance Matrix: (Units=1/GPa)
#
#
# Indices 1 2 3 4 5 6 
#
# 1 0.019337 -0.006137 -0.011142 0.000000 0.006260 0.000000
# 2 -0.006137 0.065581 -0.023527 0.000000 0.010182 0.000000
# 3 -0.011142 -0.023527 0.030337 0.000000 -0.015464 0.000000
# 4 0.000000 0.000000 0.000000 0.048509 0.000000 0.001208
# 5 0.006260 0.010182 -0.015464 0.000000 0.065160 0.000000
# 6 0.000000 0.000000 0.000000 0.001208 0.000000 0.061541
#
#
# Mechanical properties :
#
#
# Convention : Reuss Voigt Hill
#
# Bulk Modulus (GPa) = 29.72440 50.29733 40.01086
# Shear Modulus (GPa) = 13.04494 16.78877 14.91685
#
# Velocity S-wave (km/s) = 2.92498 3.31827 3.12781
# Velocity P-wave (km/s) = 5.55897 6.90425 6.26781
#
# Compressibility (1/GPa) = 0.03364240
#
# Stress axis : x y z
#
# Youngs Moduli (GPa) = 51.71536 15.24838 32.96275
#
# Poissons Ratio (x) = 0.09358 0.36727
# Poissons Ratio (y) = 0.31740 0.77550
# Poissons Ratio (z) = 0.57622 0.35874
#
# Static dielectric constant tensor:
#      x y z
#    x 1.477450 0.000000 0.008340 
#    y 0.000000 1.512330 0.000000 
#    z 0.008340 0.000000 1.554320 
# 
# From -- ./inp_files/242982.got.cif
#   From: 2010.05.17/outbox.cif.g08.bks.cpg/sg12_122_cif.got.tgz:242982.got - 2010.06.03 13:09:07.
