data_PCOD9171348
_publ_section_title
;
Structure prediction by ZEFSAII (Michael W. Deem and Ramdas Pophale) SiO2 
 PCOD9171348
Probable space group: C 2/M
;
_chemical_formula_sum "Si O2"
_cell_formula_units_Z 64
_cell_length_a 27.070249
_cell_length_b 17.912752
_cell_length_c 8.401953
_cell_angle_alpha 90.000000
_cell_angle_beta 131.842225
_cell_angle_gamma 90.000000
_cell_volume 3035.163554
_symmetry_space_group_name_H-M "C 2/M"
_symmetry_group_IT_number 12
_symmetry_cell_setting 'monoclinic'
loop_
_space_group_symop_operation_xyz
x,y,z
-x,y,-z
-x,-y,-z
x,-y,z
1/2+x,1/2+y,z
1/2-x,1/2+y,-z
1/2-x,1/2-y,-z
1/2+x,1/2-y,z
loop_
_atom_site_type_symbol
_atom_site_label
_atom_site_fract_x
_atom_site_fract_y
_atom_site_fract_z
Si Si1 0.703762 0.417044 0.097580
Si Si2 0.235522 0.330662 0.052717
Si Si3 0.098061 0.813824 0.034724
Si Si4 0.115683 0.638006 0.989936
Si Si5 0.163211 0.383913 0.436605
Si Si6 0.522911 0.874313 0.234395
Si Si7 0.531086 0.290966 0.392589
Si Si8 0.157335 0.793550 0.497390
O O1 0.675986 0.500000 0.035705
O O2 0.648500 0.358682 0.033509
O O3 0.767814 0.414356 0.351245
O O4 0.732051 0.391808 0.989277
O O5 0.160506 0.354723 0.929844
O O6 0.271674 0.324148 0.300553
O O7 0.250000 0.250000 0.000000
O O8 0.103406 0.725387 0.008304
O O9 0.123020 0.825204 0.266810
O O10 0.021622 0.832144 0.834902
O O11 0.151742 0.605132 0.223705
O O12 0.044079 0.597912 0.823477
O O13 0.095182 0.411459 0.376534
O O14 0.165551 0.294870 0.481846
O O15 0.534192 0.794386 0.339839
O O16 0.500000 0.864014 0.000000
O O17 0.500000 0.295456 0.500000
O O18 0.607126 0.313544 0.533365
#
# Coordination Sequence:
#
# PCOD9171348 Si02
#       8
#     8   8   8   8   8   8   8   8
#     4  12  25  38  54  79 119 157 187 236 293 350
#     4  12  21  34  55  83 114 147 192 243 286 334
#     4  10  19  36  56  82 114 147 193 236 285 339
#     4   9  17  31  58  86 111 141 185 246 288 325
#     4   9  17  34  55  83 111 145 190 234 287 338
#     4   8  16  29  50  82 116 142 180 237 289 332
#     4  10  18  27  51  86 120 144 175 232 297 340
#     4  10  19  33  58  87 111 144 189 248 287 326
#
# _framework density 21.086178
#
# number of rings (size 3 to 8) (size 9 to 14) (size 15 to 20)
#    0.000    2.000    2.500    4.125    1.750    2.000 
#    0.000    2.500    0.000    9.750    0.000    0.000 
#    0.000    0.000    0.000    0.000    0.000    0.000 
#
# Total GULP energy -178459.975976 kJ/mol
# GULP energy per Si atom -5576.874249 kJ/mol
# Density = 2.103818 g / cm^3
# Si number density = 21.086178 Si / 1000 Ang^3
#
#
#
# Elastic Constant Matrix: (Units=GPa)
#
#
# Indices 1 2 3 4 5 6 
#
# 1 95.3461 9.5199 -15.1666 0.0000 8.9333 0.0000
# 2 9.5199 31.7104 6.8458 0.0000 0.6245 0.0000
# 3 -15.1666 6.8458 43.9402 0.0000 9.9491 0.0000
# 4 0.0000 0.0000 0.0000 -5.3914 0.0000 -6.1500
# 5 8.9333 0.6245 9.9491 0.0000 25.0879 0.0000
# 6 0.0000 0.0000 0.0000 -6.1500 0.0000 -6.9213
#
#
#
# Elastic Compliance Matrix: (Units=1/GPa)
#
#
# Indices 1 2 3 4 5 6 
#
# 1 0.012755 -0.005161 0.006818 0.000000 -0.007117 0.000000
# 2 -0.005161 0.034761 -0.008149 0.000000 0.004204 0.000000
# 3 0.006818 -0.008149 0.029537 0.000000 -0.013938 0.000000
# 4 0.000000 0.000000 0.000000 13.640075 0.000000-12.120161
# 5 -0.007117 0.004204 -0.013938 0.000000 0.047817 0.000000
# 6 0.000000 0.000000 0.000000-12.120161 0.000000 10.625129
#
#
# Mechanical properties :
#
#
# Convention : Reuss Voigt Hill
#
# Bulk Modulus (GPa) = 15.60808 19.26610 17.43709
# Shear Modulus (GPa) = 0.20471 13.87489 7.03980
#
# Velocity S-wave (km/s) = 0.31192 2.56795 1.82916
# Velocity P-wave (km/s) = 2.74733 4.23665 3.57050
#
# Compressibility (1/GPa) = 0.06406937
#
# Stress axis : x y z
#
# Youngs Moduli (GPa) = 78.40228 28.76772 33.85573
#
# Poissons Ratio (x) = 0.14847 -0.23083
# Poissons Ratio (y) = 0.40462 0.27589
# Poissons Ratio (z) = -0.53455 0.23443
#
# Static dielectric constant tensor:
#      x y z
#    x 1.829400 0.000000 0.025750 
#    y 0.000000 1.785340 0.000000 
#    z 0.025750 0.000000 1.821070 
# 
# From -- ./inp_files/106406.got.cif
#   From: 2010.05.17/outbox.cif.g08.bks.cpg/sg12_54_cif.got.tgz:106406.got - 2010.06.03 13:09:07.
