data_PCOD9171013
_publ_section_title
;
Structure prediction by ZEFSAII (Michael W. Deem and Ramdas Pophale) SiO2 
 PCOD9171013
Probable space group: C 2/M
;
_chemical_formula_sum "Si O2"
_cell_formula_units_Z 56
_cell_length_a 27.571271
_cell_length_b 14.489227
_cell_length_c 9.408163
_cell_angle_alpha 90.000000
_cell_angle_beta 64.409086
_cell_angle_gamma 90.000000
_cell_volume 3389.734801
_symmetry_space_group_name_H-M "C 2/M"
_symmetry_group_IT_number 12
_symmetry_cell_setting 'monoclinic'
loop_
_space_group_symop_operation_xyz
x,y,z
-x,y,-z
-x,-y,-z
x,-y,z
1/2+x,1/2+y,z
1/2-x,1/2+y,-z
1/2-x,1/2-y,-z
1/2+x,1/2-y,z
loop_
_atom_site_type_symbol
_atom_site_label
_atom_site_fract_x
_atom_site_fract_y
_atom_site_fract_z
Si Si1 0.737364 0.894376 0.243224
Si Si2 0.170450 0.752417 0.870931
Si Si3 0.185377 0.394857 0.612036
Si Si4 0.052901 0.222942 0.002796
Si Si5 0.475540 0.816496 0.680459
Si Si6 0.860374 0.394440 0.848293
Si Si7 0.438657 0.896950 0.216102
O O1 0.783054 0.822256 0.143944
O O2 0.721877 0.882494 0.427898
O O3 0.683021 0.883093 0.221341
O O4 0.755646 0.000000 0.198807
O O5 0.191283 0.687490 0.716546
O O6 0.114823 0.807691 0.905868
O O7 0.154277 0.679287 0.012537
O O8 0.194535 0.500000 0.656645
O O9 0.122259 0.391089 0.650289
O O10 0.055799 0.322340 0.916742
O O11 0.040129 0.237802 0.184993
O O12 0.000000 0.176009 0.000000
O O13 0.500000 0.785294 0.500000
O O14 0.421150 0.873743 0.723385
O O15 0.519636 0.875160 0.711885
O O16 0.857337 0.500000 0.905145
O O17 0.446422 0.000000 0.150321
#
# Coordination Sequence:
#
# PCOD9171013 Si02
#       7
#     8   8   8   8   8   8   8
#     4  10  20  32  45  64  89 114 146 188 224 250
#     4  10  18  31  49  64  85 118 150 176 213 262
#     4   9  17  29  46  68  91 115 144 177 212 254
#     4   8  17  29  42  60  82 108 141 176 208 249
#     4  10  18  26  39  61  89 118 142 165 200 249
#     4  10  20  31  43  63  91 120 149 178 208 252
#     4   9  16  26  39  57  85 117 141 162 196 246
#
# _framework density 16.520468000000001
#
# number of rings (size 3 to 8) (size 9 to 14) (size 15 to 20)
#    0.000    2.571    0.000    2.571    0.000    8.286 
#    0.000    0.000    0.000    0.429    0.000    0.000 
#    0.000    9.143    0.000    0.000    0.000   11.286 
#
# Total GULP energy -155912.670210 kJ/mol
# GULP energy per Si atom -5568.309650 kJ/mol
# Density = 1.648287 g / cm^3
# Si number density = 16.520468 Si / 1000 Ang^3
#
#
#
# Elastic Constant Matrix: (Units=GPa)
#
#
# Indices 1 2 3 4 5 6 
#
# 1 72.4580 31.5286 16.6374 0.0000 -0.3013 0.0000
# 2 31.5286 32.8565 16.1565 0.0000 -3.2623 0.0000
# 3 16.6374 16.1565 69.3936 0.0000 2.3814 0.0000
# 4 0.0000 0.0000 0.0000 6.5969 0.0000 2.3446
# 5 -0.3013 -3.2623 2.3814 0.0000 19.8462 0.0000
# 6 0.0000 0.0000 0.0000 2.3446 0.0000 14.5370
#
#
#
# Elastic Compliance Matrix: (Units=1/GPa)
#
#
# Indices 1 2 3 4 5 6 
#
# 1 0.023930 -0.023195 -0.000220 0.000000 -0.003423 0.000000
# 2 -0.023195 0.057746 -0.008231 0.000000 0.010128 0.000000
# 3 -0.000220 -0.008231 0.016494 0.000000 -0.003336 0.000000
# 4 0.000000 0.000000 0.000000 0.160803 0.000000 -0.025935
# 5 -0.003423 0.010128 -0.003336 0.000000 0.052401 0.000000
# 6 0.000000 0.000000 0.000000 -0.025935 0.000000 0.072973
#
#
# Mechanical properties :
#
#
# Convention : Reuss Voigt Hill
#
# Bulk Modulus (GPa) = 28.67054 33.70588 31.18821
# Shear Modulus (GPa) = 10.88700 15.55507 13.22103
#
# Velocity S-wave (km/s) = 2.56989 3.07182 2.83199
# Velocity P-wave (km/s) = 5.11840 5.74702 5.44179
#
# Compressibility (1/GPa) = 0.03487900
#
# Stress axis : x y z
#
# Youngs Moduli (GPa) = 41.78845 17.31722 60.62791
#
# Poissons Ratio (x) = 0.40167 0.01331
# Poissons Ratio (y) = 0.96928 0.49904
# Poissons Ratio (z) = 0.00917 0.14254
#
# Static dielectric constant tensor:
#      x y z
#    x 1.594560 0.000000 -0.009190 
#    y 0.000000 1.540400 0.000000 
#    z -0.009190 0.000000 1.568960 
# 
# From -- ./inp_files/103969.got.cif
#   From: 2010.05.17/outbox.cif.g08.bks.cpg/sg12_52_cif.got.tgz:103969.got - 2010.06.03 13:09:07.
