data_PCOD9171396
_publ_section_title
;
Structure prediction by ZEFSAII (Michael W. Deem and Ramdas Pophale) SiO2 
 PCOD9171396
Probable space group: C 2/M
;
_chemical_formula_sum "Si O2"
_cell_formula_units_Z 42
_cell_length_a 14.056466
_cell_length_b 9.340215
_cell_length_c 16.255995
_cell_angle_alpha 90.000000
_cell_angle_beta 120.549035
_cell_angle_gamma 90.000000
_cell_volume 1838.009769
_symmetry_space_group_name_H-M "C 2/M"
_symmetry_group_IT_number 12
_symmetry_cell_setting 'monoclinic'
loop_
_space_group_symop_operation_xyz
x,y,z
-x,y,-z
-x,-y,-z
x,-y,z
1/2+x,1/2+y,z
1/2-x,1/2+y,-z
1/2-x,1/2-y,-z
1/2+x,1/2-y,z
loop_
_atom_site_type_symbol
_atom_site_label
_atom_site_fract_x
_atom_site_fract_y
_atom_site_fract_z
Si Si1 0.698027 0.667215 0.400017
Si Si2 0.500000 0.000000 0.500000
Si Si3 0.256953 0.837336 0.841170
Si Si4 0.901285 0.165437 0.024684
Si Si5 0.127300 0.653126 0.673635
Si Si6 0.451514 0.833470 0.788112
O O1 0.673271 0.500000 0.408709
O O2 0.750000 0.750000 0.500000
O O3 0.791987 0.663551 0.370014
O O4 0.597360 0.749622 0.311625
O O5 0.487244 0.877272 0.421809
O O6 0.151052 0.776030 0.747393
O O7 0.353349 0.832841 0.813590
O O8 0.243544 0.000000 0.860411
O O9 0.300207 0.742395 0.934956
O O10 0.948553 0.252036 0.123132
O O11 0.879769 0.000000 0.033831
O O12 0.000000 0.167932 0.000000
O O13 0.159740 0.500000 0.728356
O O14 0.475690 0.000000 0.780344
#
# Coordination Sequence:
#
# PCOD9171396 Si02
#       6
#     8   2   8   8   8   8
#     4  10  18  28  42  62  87 118 148 180 216 264
#     4   8  16  32  50  60  82 116 154 190 214 260
#     4   9  15  23  37  58  83 111 143 176 218 263
#     4   9  15  22  34  53  80 115 147 173 206 260
#     4   8  16  29  45  61  82 115 148 183 218 259
#     4   9  16  25  36  54  83 117 147 174 211 257
#
# _framework density 22.850804
#
# number of rings (size 3 to 8) (size 9 to 14) (size 15 to 20)
#    0.571    2.476    0.000    2.286    0.000    7.619 
#    0.000    0.476    0.000    0.000    0.000    0.000 
#    0.000    1.524    0.381    0.000    0.000    0.000 
#
# Total GULP energy -116976.582611 kJ/mol
# GULP energy per Si atom -5570.313458 kJ/mol
# Density = 2.279879 g / cm^3
# Si number density = 22.850804 Si / 1000 Ang^3
#
#
#
# Elastic Constant Matrix: (Units=GPa)
#
#
# Indices 1 2 3 4 5 6 
#
# 1 72.8101 15.0123 38.5409 0.0000 -15.2676 0.0000
# 2 15.0123 214.5009 133.6620 0.0000 18.8710 0.0000
# 3 38.5409 133.6620 211.6651 0.0000 18.2700 0.0000
# 4 0.0000 0.0000 0.0000 48.5548 0.0000 11.1949
# 5 -15.2676 18.8710 18.2700 0.0000 35.6768 0.0000
# 6 0.0000 0.0000 0.0000 11.1949 0.0000 -20.0279
#
#
#
# Elastic Compliance Matrix: (Units=1/GPa)
#
#
# Indices 1 2 3 4 5 6 
#
# 1 0.018040 0.000748 -0.004592 0.000000 0.009676 0.000000
# 2 0.000748 0.007812 -0.004959 0.000000 -0.001272 0.000000
# 3 -0.004592 -0.004959 0.009035 0.000000 -0.003969 0.000000
# 4 0.000000 0.000000 0.000000 0.018244 0.000000 0.010198
# 5 0.009676 -0.001272 -0.003969 0.000000 0.034876 0.000000
# 6 0.000000 0.000000 0.000000 0.010198 0.000000 -0.044230
#
#
# Mechanical properties :
#
#
# Convention : Reuss Voigt Hill
#
# Bulk Modulus (GPa) = 57.87332 97.04516 77.45924
# Shear Modulus (GPa) = 74.46694 33.62480 54.04587
#
# Velocity S-wave (km/s) = 5.71481 3.84017 4.86857
# Velocity P-wave (km/s) = 8.30223 7.88820 8.09786
#
# Compressibility (1/GPa) = 0.01727912
#
# Stress axis : x y z
#
# Youngs Moduli (GPa) = 55.43238 128.00911 110.68194
#
# Poissons Ratio (x) = -0.09571 0.50827
# Poissons Ratio (y) = -0.04144 0.54891
# Poissons Ratio (z) = 0.25455 0.63485
#
# Static dielectric constant tensor:
#      x y z
#    x 2.011950 0.000000 0.014300 
#    y 0.000000 1.807660 0.000000 
#    z 0.014300 0.000000 1.806160 
# 
# From -- ./inp_files/236255.got.cif
#   From: 2010.05.17/outbox.cif.g08.bks.cpg/sg12_119_cif.got.tgz:236255.got - 2010.06.03 13:09:07.
