data_PCOD9171223
_publ_section_title
;
Structure prediction by ZEFSAII (Michael W. Deem and Ramdas Pophale) SiO2 
 PCOD9171223
Probable space group: C 2/M
;
_chemical_formula_sum "Si O2"
_cell_formula_units_Z 48
_cell_length_a 24.588632
_cell_length_b 15.117044
_cell_length_c 11.240124
_cell_angle_alpha 90.000000
_cell_angle_beta 29.239857
_cell_angle_gamma 90.000000
_cell_volume 2040.832573
_symmetry_space_group_name_H-M "C 2/M"
_symmetry_group_IT_number 12
_symmetry_cell_setting 'monoclinic'
loop_
_space_group_symop_operation_xyz
x,y,z
-x,y,-z
-x,-y,-z
x,-y,z
1/2+x,1/2+y,z
1/2-x,1/2+y,-z
1/2-x,1/2-y,-z
1/2+x,1/2-y,z
loop_
_atom_site_type_symbol
_atom_site_label
_atom_site_fract_x
_atom_site_fract_y
_atom_site_fract_z
Si Si1 0.779687 0.897313 0.987812
Si Si2 0.408893 0.754146 0.279004
Si Si3 0.134344 0.096330 0.771854
Si Si4 0.340115 0.899243 0.032570
Si Si5 0.395494 0.899771 0.477873
Si Si6 0.893789 0.794327 0.949784
O O1 0.739224 0.893310 0.930253
O O2 0.673945 0.873848 0.273621
O O3 0.870015 0.827594 0.862802
O O4 0.812878 0.000000 0.946414
O O5 0.330571 0.677544 0.378650
O O6 0.368351 0.844485 0.411595
O O7 0.500000 0.772588 0.000000
O O8 0.477607 0.716660 0.261128
O O9 0.143134 0.127252 0.890933
O O10 0.180606 0.000000 0.658914
O O11 0.000000 0.091725 0.000000
O O12 0.472100 0.898266 0.748734
O O13 0.321751 0.000000 0.120419
O O14 0.334274 0.799022 0.097376
O O15 0.366581 0.000000 0.507449
#
# Coordination Sequence:
#
# PCOD9171223 Si02
#       6
#     8   8   8   8   8   8
#     4  10  18  27  43  67  91 115 145 182 219 252
#     4   8  16  29  44  64  86 114 149 179 216 259
#     4   8  14  26  43  62  84 109 140 177 213 252
#     4   9  17  29  44  63  89 120 149 175 210 259
#     4   9  17  29  44  63  90 120 146 175 214 261
#     4   9  16  27  44  65  86 109 144 185 217 249
#
# _framework density 23.519812999999999
#
# number of rings (size 3 to 8) (size 9 to 14) (size 15 to 20)
#    0.000    3.500    0.000    1.500    0.000    3.000 
#    0.000    5.833    0.000    1.500    0.000    0.000 
#    0.000   32.000    0.000    0.000    0.000    0.000 
#
# Total GULP energy -133682.479993 kJ/mol
# GULP energy per Si atom -5570.103333 kJ/mol
# Density = 2.346628 g / cm^3
# Si number density = 23.519813 Si / 1000 Ang^3
#
#
#
# Elastic Constant Matrix: (Units=GPa)
#
#
# Indices 1 2 3 4 5 6 
#
# 1 77.1782 29.0261 -3.2200 0.0000 -25.6325 0.0000
# 2 29.0261 117.7875 -16.9534 0.0000 3.9932 0.0000
# 3 -3.2200 -16.9534 16.3090 0.0000 -6.1331 0.0000
# 4 0.0000 0.0000 0.0000 9.2342 0.0000 -0.9313
# 5 -25.6325 3.9932 -6.1331 0.0000 23.7256 0.0000
# 6 0.0000 0.0000 0.0000 -0.9313 0.0000 42.4604
#
#
#
# Elastic Compliance Matrix: (Units=1/GPa)
#
#
# Indices 1 2 3 4 5 6 
#
# 1 0.026493 -0.006018 0.011209 0.000000 0.032533 0.000000
# 2 -0.006018 0.011377 0.008278 0.000000 -0.006277 0.000000
# 3 0.011209 0.008278 0.084365 0.000000 0.032525 0.000000
# 4 0.000000 0.000000 0.000000 0.108534 0.000000 0.002380
# 5 0.032533 -0.006277 0.032525 0.000000 0.086760 0.000000
# 6 0.000000 0.000000 0.000000 0.002380 0.000000 0.023604
#
#
# Mechanical properties :
#
#
# Convention : Reuss Voigt Hill
#
# Bulk Modulus (GPa) = 6.70366 25.44222 16.07294
# Shear Modulus (GPa) = 13.73931 28.57884 21.15908
#
# Velocity S-wave (km/s) = 2.41956 3.48960 3.00263
# Velocity P-wave (km/s) = 3.26529 5.20359 4.34393
#
# Compressibility (1/GPa) = 0.14917227
#
# Stress axis : x y z
#
# Youngs Moduli (GPa) = 37.74602 87.89524 11.85327
#
# Poissons Ratio (x) = 0.52897 -0.13286
# Poissons Ratio (y) = 0.22716 -0.09812
# Poissons Ratio (z) = -0.42309 -0.72760
#
# Static dielectric constant tensor:
#      x y z
#    x 1.889490 0.000000 -0.049800 
#    y 0.000000 1.968740 0.000000 
#    z -0.049800 0.000000 1.955140 
# 
# From -- ./inp_files/246284.got.cif
#   From: 2010.05.17/outbox.cif.g08.bks.cpg/sg12_124_cif.got.tgz:246284.got - 2010.06.03 13:09:07.
