data_PCOD9171713
_publ_section_title
;
Structure prediction by ZEFSAII (Michael W. Deem and Ramdas Pophale) SiO2 
 PCOD9171713
Probable space group: C 2/M
;
_chemical_formula_sum "Si O2"
_cell_formula_units_Z 56
_cell_length_a 25.311756
_cell_length_b 14.512847
_cell_length_c 10.392286
_cell_angle_alpha 90.000000
_cell_angle_beta 122.597454
_cell_angle_gamma 90.000000
_cell_volume 3216.204786
_symmetry_space_group_name_H-M "C 2/M"
_symmetry_group_IT_number 12
_symmetry_cell_setting 'monoclinic'
loop_
_space_group_symop_operation_xyz
x,y,z
-x,y,-z
-x,-y,-z
x,-y,z
1/2+x,1/2+y,z
1/2-x,1/2+y,-z
1/2-x,1/2-y,-z
1/2+x,1/2-y,z
loop_
_atom_site_type_symbol
_atom_site_label
_atom_site_fract_x
_atom_site_fract_y
_atom_site_fract_z
Si Si1 0.960721 0.108122 0.072145
Si Si2 0.000411 0.392213 0.214013
Si Si3 0.732973 0.218803 0.332447
Si Si4 0.604708 0.108141 0.128003
Si Si5 0.351341 0.393017 0.512219
Si Si6 0.323156 0.397284 0.782446
Si Si7 0.478015 0.287759 0.614555
O O1 0.979471 0.161757 0.223332
O O2 0.977535 0.000000 0.109625
O O3 0.887651 0.114436 0.943907
O O4 0.000000 0.143212 0.000000
O O5 0.998251 0.500000 0.248221
O O6 0.055816 0.381546 0.181241
O O7 0.015307 0.320348 0.344985
O O8 0.935687 0.369688 0.052948
O O9 0.750000 0.250000 0.500000
O O10 0.665860 0.168981 0.232672
O O11 0.788187 0.149176 0.368348
O O12 0.724794 0.315825 0.249338
O O13 0.622111 0.000000 0.144535
O O14 0.361552 0.500000 0.490333
O O15 0.342613 0.391301 0.656504
O O16 0.409002 0.328600 0.549133
O O17 0.297906 0.500000 0.770529
O O18 0.500000 0.307890 0.500000
#
# Coordination Sequence:
#
# PCOD9171713 Si02
#       7
#     8   8   8   8   8   8   8
#     4  10  19  33  56  80 105 140 178 224 274 314
#     4   9  19  34  54  79 107 138 178 226 269 313
#     4  10  18  28  46  76 111 144 167 211 272 319
#     4   9  17  31  54  82 104 133 179 227 267 309
#     4  10  20  34  50  74 108 141 175 215 264 325
#     4   9  17  30  51  79 105 135 176 217 264 316
#     4  12  24  35  53  80 109 144 178 220 273 324
#
# _framework density 17.411826999999999
#
# number of rings (size 3 to 8) (size 9 to 14) (size 15 to 20)
#    0.000    2.143    1.429    4.286    2.000    2.000 
#    0.000    0.714    0.000    3.429    0.000    4.000 
#    0.000    0.000    0.000    0.000    0.000    0.000 
#
# Total GULP energy -156148.437932 kJ/mol
# GULP energy per Si atom -5576.729926 kJ/mol
# Density = 1.737220 g / cm^3
# Si number density = 17.411827 Si / 1000 Ang^3
#
#
#
# Elastic Constant Matrix: (Units=GPa)
#
#
# Indices 1 2 3 4 5 6 
#
# 1 35.2944 41.5721 40.2429 0.0000 17.8774 0.0000
# 2 41.5721 106.2231 63.6844 0.0000 19.9156 0.0000
# 3 40.2429 63.6844 75.4622 0.0000 11.1255 0.0000
# 4 0.0000 0.0000 0.0000 18.6883 0.0000 13.4191
# 5 17.8774 19.9156 11.1255 0.0000 32.1482 0.0000
# 6 0.0000 0.0000 0.0000 13.4191 0.0000 19.4799
#
#
#
# Elastic Compliance Matrix: (Units=1/GPa)
#
#
# Indices 1 2 3 4 5 6 
#
# 1 0.112260 -0.008018 -0.047028 0.000000 -0.041185 0.000000
# 2 -0.008018 0.021045 -0.012877 0.000000 -0.004122 0.000000
# 3 -0.047028 -0.012877 0.046541 0.000000 0.018023 0.000000
# 4 0.000000 0.000000 0.000000 0.105883 0.000000 -0.072939
# 5 -0.041185 -0.004122 0.018023 0.000000 0.050325 0.000000
# 6 0.000000 0.000000 0.000000 -0.072939 0.000000 0.101581
#
#
# Mechanical properties :
#
#
# Convention : Reuss Voigt Hill
#
# Bulk Modulus (GPa) = 22.72710 56.44206 39.58458
# Shear Modulus (GPa) = 8.50125 18.82865 13.66495
#
# Velocity S-wave (km/s) = 2.21203 3.29199 2.80448
# Velocity P-wave (km/s) = 4.42776 6.85098 5.76806
#
# Compressibility (1/GPa) = 0.04400034
#
# Stress axis : x y z
#
# Youngs Moduli (GPa) = 8.90786 47.51692 21.48640
#
# Poissons Ratio (x) = 0.38100 1.01047
# Poissons Ratio (y) = 0.07142 0.27668
# Poissons Ratio (z) = 0.41892 0.61187
#
# Static dielectric constant tensor:
#      x y z
#    x 1.569460 0.000000 0.031580 
#    y 0.000000 1.651540 0.000000 
#    z 0.031580 0.000000 1.594380 
# 
# From -- ./inp_files/111730.got.cif
#   From: 2010.05.17/outbox.cif.g08.bks.cpg/sg12_56_cif.got.tgz:111730.got - 2010.06.03 13:09:07.
