data_PCOD9171619
_publ_section_title
;
Structure prediction by ZEFSAII (Michael W. Deem and Ramdas Pophale) SiO2 
 PCOD9171619
Probable space group: C 2/M
;
_chemical_formula_sum "Si O2"
_cell_formula_units_Z 56
_cell_length_a 34.480953
_cell_length_b 8.266826
_cell_length_c 19.163049
_cell_angle_alpha 90.000000
_cell_angle_beta 36.190803
_cell_angle_gamma 90.000000
_cell_volume 3225.410624
_symmetry_space_group_name_H-M "C 2/M"
_symmetry_group_IT_number 12
_symmetry_cell_setting 'monoclinic'
loop_
_space_group_symop_operation_xyz
x,y,z
-x,y,-z
-x,-y,-z
x,-y,z
1/2+x,1/2+y,z
1/2-x,1/2+y,-z
1/2-x,1/2-y,-z
1/2+x,1/2-y,z
loop_
_atom_site_type_symbol
_atom_site_label
_atom_site_fract_x
_atom_site_fract_y
_atom_site_fract_z
Si Si1 0.756835 0.808711 0.746337
Si Si2 0.116176 0.192826 0.004500
Si Si3 0.142653 0.809813 0.674424
Si Si4 0.150567 0.809406 0.100926
Si Si5 0.770004 0.690604 0.573901
Si Si6 0.293414 0.697346 0.842944
Si Si7 0.501939 0.809739 0.917628
O O1 0.681179 0.771296 0.876494
O O2 0.774788 0.721661 0.648791
O O3 0.799701 0.762058 0.752314
O O4 0.763652 0.000000 0.725556
O O5 0.127883 0.000000 0.989578
O O6 0.109123 0.253953 0.095183
O O7 0.052656 0.227529 0.050996
O O8 0.175774 0.779849 0.551284
O O9 0.198269 0.756347 0.649465
O O10 0.074783 0.718305 0.782952
O O11 0.130332 0.000000 0.702522
O O12 0.152452 0.750064 0.178403
O O13 0.136916 0.000000 0.125390
O O14 0.225129 0.778043 0.966418
O O15 0.775384 0.500000 0.550972
O O16 0.286140 0.500000 0.857754
O O17 0.486687 0.000000 0.941347
O O18 0.500000 0.747373 0.000000
#
# Coordination Sequence:
#
# PCOD9171619 Si02
#       7
#     8   8   8   8   8   8   8
#     4  10  18  28  45  70  99 128 158 192 231 276
#     4  10  19  30  46  68  95 127 161 196 234 277
#     4  10  21  36  53  71  92 121 157 194 232 274
#     4   8  14  25  40  60  88 121 155 189 227 272
#     4  10  20  34  52  72  95 122 153 192 234 276
#     4   8  14  24  39  61  90 122 153 187 227 271
#     4  11  23  36  50  69  95 126 158 192 230 275
#
# _framework density 17.362130000000001
#
# number of rings (size 3 to 8) (size 9 to 14) (size 15 to 20)
#    0.000    2.429    0.000    3.000    0.000    6.286 
#    0.000    0.000    0.000    0.000    0.000    1.000 
#    0.000    8.000    0.000    0.000    0.000    0.000 
#
# Total GULP energy -155979.938047 kJ/mol
# GULP energy per Si atom -5570.712073 kJ/mol
# Density = 1.732261 g / cm^3
# Si number density = 17.362130 Si / 1000 Ang^3
#
#
#
# Elastic Constant Matrix: (Units=GPa)
#
#
# Indices 1 2 3 4 5 6 
#
# 1 136.0025 -2.6370 34.3760 0.0003 21.3574 -0.0007
# 2 -2.6370 11.8638 -7.4200 -0.0031 -1.3346 0.0070
# 3 34.3760 -7.4200 33.6243 -0.0033 9.5752 0.0054
# 4 0.0003 -0.0031 -0.0033 21.9542 0.0002 4.6318
# 5 21.3574 -1.3346 9.5752 0.0002 22.6204 -0.0014
# 6 -0.0007 0.0070 0.0054 4.6318 -0.0014 29.0252
#
#
#
# Elastic Compliance Matrix: (Units=1/GPa)
#
#
# Indices 1 2 3 4 5 6 
#
# 1 0.010852 -0.004786 -0.010407 -0.000003 -0.006123 0.000004
# 2 -0.004786 0.100189 0.027326 0.000025 -0.001137 -0.000033
# 3 -0.010407 0.027326 0.049068 0.000015 -0.009332 -0.000019
# 4 -0.000003 0.000025 0.000015 0.047136 -0.000003 -0.007522
# 5 -0.006123 -0.001137 -0.009332 -0.000003 0.053872 0.000005
# 6 0.000004 -0.000033 -0.000019 -0.007522 0.000005 0.035653
#
#
# Mechanical properties :
#
#
# Convention : Reuss Voigt Hill
#
# Bulk Modulus (GPa) = 5.42374 25.56984 15.49679
# Shear Modulus (GPa) = 14.97173 25.19806 20.08490
#
# Velocity S-wave (km/s) = 2.93972 3.81376 3.40490
# Velocity P-wave (km/s) = 3.82796 5.84400 4.93992
#
# Compressibility (1/GPa) = 0.18437476
#
# Stress axis : x y z
#
# Youngs Moduli (GPa) = 92.14849 9.98115 20.37999
#
# Poissons Ratio (x) = 0.04777 0.21209
# Poissons Ratio (y) = 0.44099 -0.55690
# Poissons Ratio (z) = 0.95899 -0.27274
#
# Static dielectric constant tensor:
#      x y z
#    x 1.647340 0.000000 0.036740 
#    y 0.000000 1.604010 0.000000 
#    z 0.036740 0.000000 1.546220 
# 
# From -- ./inp_files/281039.got.cif
#   From: 2010.05.17/outbox.cif.g08.bks.cpg/sg12_141_cif.got.tgz:281039.got - 2010.06.03 13:09:07.
