data_PCOD9171985
_publ_section_title
;
Structure prediction by ZEFSAII (Michael W. Deem and Ramdas Pophale) SiO2 
 PCOD9171985
Probable space group: C 2/M
;
_chemical_formula_sum "Si O2"
_cell_formula_units_Z 56
_cell_length_a 27.462606
_cell_length_b 9.448572
_cell_length_c 17.546072
_cell_angle_alpha 90.000000
_cell_angle_beta 125.709190
_cell_angle_gamma 90.000000
_cell_volume 3696.906507
_symmetry_space_group_name_H-M "C 2/M"
_symmetry_group_IT_number 12
_symmetry_cell_setting 'monoclinic'
loop_
_space_group_symop_operation_xyz
x,y,z
-x,y,-z
-x,-y,-z
x,-y,z
1/2+x,1/2+y,z
1/2-x,1/2+y,-z
1/2-x,1/2-y,-z
1/2+x,1/2-y,z
loop_
_atom_site_type_symbol
_atom_site_label
_atom_site_fract_x
_atom_site_fract_y
_atom_site_fract_z
Si Si1 0.231993 0.335881 0.221813
Si Si2 0.588621 0.162215 0.112152
Si Si3 0.459460 0.331319 0.789479
Si Si4 0.730106 0.167702 0.600108
Si Si5 0.158314 0.832404 0.410687
Si Si6 0.786597 0.329651 0.968788
Si Si7 0.073935 0.667674 0.921198
O O1 0.250664 0.500000 0.247201
O O2 0.160798 0.330922 0.174796
O O3 0.264905 0.238417 0.312784
O O4 0.237037 0.294050 0.137810
O O5 0.564192 0.269334 0.151974
O O6 0.571681 0.000000 0.116903
O O7 0.567387 0.190160 0.006567
O O8 0.465614 0.500000 0.799271
O O9 0.407539 0.297836 0.680818
O O10 0.523023 0.257105 0.833184
O O11 0.793044 0.192588 0.612383
O O12 0.680036 0.241367 0.502000
O O13 0.721079 0.000000 0.596740
O O14 0.161081 0.000000 0.431136
O O15 0.781948 0.500000 0.972341
O O16 0.750000 0.250000 0.000000
O O17 0.857556 0.294446 0.036445
O O18 0.066399 0.500000 0.900818
#
# Coordination Sequence:
#
# PCOD9171985 Si02
#       7
#     8   8   8   8   8   8   8
#     4   9  17  30  48  68  93 125 156 189 234 280
#     4   9  17  29  44  61  88 127 161 186 219 269
#     4  11  20  29  42  65  94 124 158 194 229 264
#     4  10  18  29  45  66  90 122 163 199 230 268
#     4   9  19  31  41  60  94 128 159 196 231 267
#     4   9  19  35  53  73  95 120 153 193 236 282
#     4   9  19  33  46  64  91 123 157 188 225 279
#
# _framework density 15.1478
#
# number of rings (size 3 to 8) (size 9 to 14) (size 15 to 20)
#    0.000    2.571    1.429    3.000    0.000    5.143 
#    0.000    2.857    0.000    0.000    0.000    1.000 
#    0.000    8.000    0.000    0.000    0.000    0.000 
#
# Total GULP energy -156112.316424 kJ/mol
# GULP energy per Si atom -5575.439872 kJ/mol
# Density = 1.511332 g / cm^3
# Si number density = 15.147800 Si / 1000 Ang^3
#
#
#
# Elastic Constant Matrix: (Units=GPa)
#
#
# Indices 1 2 3 4 5 6 
#
# 1 68.3795 45.2483 63.5760 0.0000 -2.2365 0.0000
# 2 45.2483 65.8105 81.6228 0.0000 5.0042 0.0000
# 3 63.5760 81.6228 130.7984 0.0000 11.9748 0.0000
# 4 0.0000 0.0000 0.0000 29.5953 0.0000 0.3574
# 5 -2.2365 5.0042 11.9748 0.0000 20.3264 0.0000
# 6 0.0000 0.0000 0.0000 0.3574 0.0000 25.1837
#
#
#
# Elastic Compliance Matrix: (Units=1/GPa)
#
#
# Indices 1 2 3 4 5 6 
#
# 1 0.030594 -0.009542 -0.009978 0.000000 0.011593 0.000000
# 2 -0.009542 0.071666 -0.040561 0.000000 0.005202 0.000000
# 3 -0.009978 -0.040561 0.039102 0.000000 -0.014148 0.000000
# 4 0.000000 0.000000 0.000000 0.033795 0.000000 -0.000480
# 5 0.011593 0.005202 -0.014148 0.000000 0.057527 0.000000
# 6 0.000000 0.000000 0.000000 -0.000480 0.000000 0.039715
#
#
# Mechanical properties :
#
#
# Convention : Reuss Voigt Hill
#
# Bulk Modulus (GPa) = 47.16530 71.76472 59.46501
# Shear Modulus (GPa) = 12.51169 19.99051 16.25110
#
# Velocity S-wave (km/s) = 2.87709 3.63671 3.27897
# Velocity P-wave (km/s) = 6.49933 8.06928 7.32648
#
# Compressibility (1/GPa) = 0.02120203
#
# Stress axis : x y z
#
# Youngs Moduli (GPa) = 32.68596 13.95360 25.57437
#
# Poissons Ratio (x) = 0.13314 0.25517
# Poissons Ratio (y) = 0.31188 1.03731
# Poissons Ratio (z) = 0.32613 0.56597
#
# Static dielectric constant tensor:
#      x y z
#    x 1.492220 0.000000 0.018210 
#    y 0.000000 1.498080 0.000000 
#    z 0.018210 0.000000 1.500630 
# 
# From -- ./inp_files/244304.got.cif
#   From: 2010.05.17/outbox.cif.g08.bks.cpg/sg12_123_cif.got.tgz:244304.got - 2010.06.03 13:09:07.
