data_PCOD9171923
_publ_section_title
;
Structure prediction by ZEFSAII (Michael W. Deem and Ramdas Pophale) SiO2 
 PCOD9171923
Probable space group: C 2/M
;
_chemical_formula_sum "Si O2"
_cell_formula_units_Z 52
_cell_length_a 5.285387
_cell_length_b 35.306978
_cell_length_c 20.512863
_cell_angle_alpha 90.000000
_cell_angle_beta 114.847513
_cell_angle_gamma 90.000000
_cell_volume 3473.573015
_symmetry_space_group_name_H-M "C 2/M"
_symmetry_group_IT_number 12
_symmetry_cell_setting 'monoclinic'
loop_
_space_group_symop_operation_xyz
x,y,z
-x,y,-z
-x,-y,-z
x,-y,z
1/2+x,1/2+y,z
1/2-x,1/2+y,-z
1/2-x,1/2-y,-z
1/2+x,1/2-y,z
loop_
_atom_site_type_symbol
_atom_site_label
_atom_site_fract_x
_atom_site_fract_y
_atom_site_fract_z
Si Si1 0.854266 0.771563 0.412602
Si Si2 0.747961 0.357039 0.581447
Si Si3 0.741002 0.545959 0.169298
Si Si4 0.099648 0.454162 0.081557
Si Si5 0.106927 0.430666 0.328558
Si Si6 0.206525 0.957330 0.403082
Si Si7 0.000000 0.395147 0.500000
O O1 0.584576 0.744873 0.388891
O O2 0.768129 0.815012 0.392873
O O3 0.000000 0.771003 0.500000
O O4 0.500000 0.360578 0.500000
O O5 0.780526 0.389030 0.639617
O O6 0.006630 0.367388 0.562198
O O7 0.759411 0.500000 0.180941
O O8 0.416567 0.556857 0.131860
O O9 0.888958 0.555398 0.116867
O O10 0.905822 0.566126 0.245232
O O11 0.102124 0.500000 0.078320
O O12 0.000000 0.440219 0.000000
O O13 0.388744 0.453918 0.345466
O O14 0.928986 0.447056 0.370548
O O15 0.253039 0.925811 0.464089
O O16 0.251359 0.000000 0.430540
#
# Coordination Sequence:
#
# PCOD9171923 Si02
#       7
#     8   8   8   8   8   8   4
#     4   9  19  30  48  68  83 104 135 179 228 270
#     4  10  20  34  48  62  90 112 150 187 225 271
#     4  10  18  29  44  63  88 112 145 183 215 258
#     4   9  17  29  46  65  84 109 141 180 220 257
#     4  11  22  33  47  65  85 120 148 187 235 265
#     4  11  21  33  45  58  80 111 156 194 227 262
#     4  10  21  32  44  62  80 114 146 196 234 258
#
# _framework density 14.970176
#
# number of rings (size 3 to 8) (size 9 to 14) (size 15 to 20)
#    0.000    2.000    1.538    3.000    5.385    3.077 
#    0.000    2.308    0.000    0.000    0.000    0.000 
#    0.000    0.000    0.000    0.000    0.000   15.385 
#
# Total GULP energy -144818.264467 kJ/mol
# GULP energy per Si atom -5569.933249 kJ/mol
# Density = 1.493610 g / cm^3
# Si number density = 14.970176 Si / 1000 Ang^3
#
#
#
# Elastic Constant Matrix: (Units=GPa)
#
#
# Indices 1 2 3 4 5 6 
#
# 1 59.4784 22.9011 -5.8314 0.0000 7.2885 0.0000
# 2 22.9011 94.4342 12.4627 0.0000 2.7645 0.0000
# 3 -5.8314 12.4627 43.6765 0.0000 5.9826 0.0000
# 4 0.0000 0.0000 0.0000 6.1739 0.0000 2.3848
# 5 7.2885 2.7645 5.9826 0.0000 19.9413 0.0000
# 6 0.0000 0.0000 0.0000 2.3848 0.0000 9.4274
#
#
#
# Elastic Compliance Matrix: (Units=1/GPa)
#
#
# Indices 1 2 3 4 5 6 
#
# 1 0.020460 -0.005433 0.005426 0.000000 -0.008353 0.000000
# 2 -0.005433 0.012454 -0.004499 0.000000 0.001609 0.000000
# 3 0.005426 -0.004499 0.026165 0.000000 -0.009210 0.000000
# 4 0.000000 0.000000 0.000000 0.179513 0.000000 -0.045411
# 5 -0.008353 0.001609 -0.009210 0.000000 0.055740 0.000000
# 6 0.000000 0.000000 0.000000 -0.045411 0.000000 0.117561
#
#
# Mechanical properties :
#
#
# Convention : Reuss Voigt Hill
#
# Bulk Modulus (GPa) = 19.97344 28.51710 24.24527
# Shear Modulus (GPa) = 11.42607 18.31231 14.86919
#
# Velocity S-wave (km/s) = 2.76570 3.50130 3.15501
# Velocity P-wave (km/s) = 4.85489 5.95282 5.43167
#
# Compressibility (1/GPa) = 0.05006649
#
# Stress axis : x y z
#
# Youngs Moduli (GPa) = 48.87477 80.29722 38.21830
#
# Poissons Ratio (x) = 0.43629 -0.20738
# Poissons Ratio (y) = 0.26556 0.17196
# Poissons Ratio (z) = -0.26521 0.36129
#
# Static dielectric constant tensor:
#      x y z
#    x 1.606580 0.000000 0.001340 
#    y 0.000000 1.485310 0.000000 
#    z 0.001340 0.000000 1.500390 
# 
# From -- ./inp_files/298484.got.cif
#   From: 2010.05.17/outbox.cif.g08.bks.cpg/sg12_150_cif.got.tgz:298484.got - 2010.06.03 13:09:07.
