data_PCOD9171237
_publ_section_title
;
Structure prediction by ZEFSAII (Michael W. Deem and Ramdas Pophale) SiO2 
 PCOD9171237
Probable space group: C 2/M
;
_chemical_formula_sum "Si O2"
_cell_formula_units_Z 64
_cell_length_a 25.197988
_cell_length_b 7.453680
_cell_length_c 17.206942
_cell_angle_alpha 90.000000
_cell_angle_beta 105.987802
_cell_angle_gamma 90.000000
_cell_volume 3106.765273
_symmetry_space_group_name_H-M "C 2/M"
_symmetry_group_IT_number 12
_symmetry_cell_setting 'monoclinic'
loop_
_space_group_symop_operation_xyz
x,y,z
-x,y,-z
-x,-y,-z
x,-y,z
1/2+x,1/2+y,z
1/2-x,1/2+y,-z
1/2-x,1/2-y,-z
1/2+x,1/2-y,z
loop_
_atom_site_type_symbol
_atom_site_label
_atom_site_fract_x
_atom_site_fract_y
_atom_site_fract_z
Si Si1 0.050015 0.281188 0.415834
Si Si2 0.236044 0.715472 0.903246
Si Si3 0.370902 0.781836 0.233060
Si Si4 0.414781 0.784641 0.739373
Si Si5 0.660129 0.713952 0.153686
Si Si6 0.440078 0.292689 0.985287
Si Si7 0.424153 0.218679 0.404613
Si Si8 0.466302 0.215901 0.160978
O O1 0.049862 0.500000 0.413779
O O2 0.077483 0.221146 0.346180
O O3 0.080265 0.225000 0.507466
O O4 0.985696 0.228771 0.400214
O O5 0.233915 0.500000 0.897821
O O6 0.178342 0.781743 0.842757
O O7 0.283964 0.781368 0.863562
O O8 0.250000 0.750000 0.000000
O O9 0.376957 0.723375 0.325064
O O10 0.429959 0.735032 0.220000
O O11 0.367346 0.000000 0.232001
O O12 0.359829 0.740732 0.765825
O O13 0.470437 0.721099 0.806981
O O14 0.417841 0.000000 0.738835
O O15 0.662460 0.500000 0.143429
O O16 0.609525 0.789326 0.082145
O O17 0.444395 0.500000 0.961866
O O18 0.432682 0.286351 0.073984
O O19 0.500000 0.205973 0.000000
O O20 0.424177 0.000000 0.404468
O O21 0.467434 0.000000 0.156382
#
# Coordination Sequence:
#
# PCOD9171237 Si02
#       8
#     8   8   8   8   8   8   8   8
#     4   8  13  22  39  69 103 125 143 179 236 286
#     4  10  21  36  53  70  92 123 161 201 236 271
#     4   9  16  28  46  69  94 120 152 193 236 277
#     4  10  18  28  45  71  98 120 146 186 232 279
#     4  10  21  35  47  63  89 125 162 190 225 277
#     4  10  19  30  42  57  84 120 153 184 220 270
#     4   8  12  21  41  68  99 126 146 181 234 285
#     4  10  18  27  43  69  95 114 142 186 235 278
#
# _framework density 20.600204999999999
#
# number of rings (size 3 to 8) (size 9 to 14) (size 15 to 20)
#    0.000    2.625    2.500    1.500    0.000    1.250 
#    0.000    0.000    0.000    0.750    0.000    3.500 
#    0.000    0.000    0.000    0.000    0.000    0.000 
#
# Total GULP energy -178320.693271 kJ/mol
# GULP energy per Si atom -5572.521665 kJ/mol
# Density = 2.055332 g / cm^3
# Si number density = 20.600205 Si / 1000 Ang^3
#
#
#
# Elastic Constant Matrix: (Units=GPa)
#
#
# Indices 1 2 3 4 5 6 
#
# 1 95.5404 6.3809 50.1332 0.0000 -12.2573 0.0000
# 2 6.3809 61.9435 -1.0843 0.0000 1.7933 0.0000
# 3 50.1332 -1.0843 159.9388 0.0000 -12.2529 0.0000
# 4 0.0000 0.0000 0.0000 16.6992 0.0000 -9.0933
# 5 -12.2573 1.7933 -12.2529 0.0000 31.8907 0.0000
# 6 0.0000 0.0000 0.0000 -9.0933 0.0000 3.2661
#
#
#
# Elastic Compliance Matrix: (Units=1/GPa)
#
#
# Indices 1 2 3 4 5 6 
#
# 1 0.013037 -0.001515 -0.003819 0.000000 0.003629 0.000000
# 2 -0.001515 0.016346 0.000485 0.000000 -0.001315 0.000000
# 3 -0.003819 0.000485 0.007561 0.000000 0.001410 0.000000
# 4 0.000000 0.000000 0.000000 -0.116036 0.000000 -0.323065
# 5 0.003629 -0.001315 0.001410 0.000000 0.033368 0.000000
# 6 0.000000 0.000000 0.000000 -0.323065 0.000000 -0.593289
#
#
# Mechanical properties :
#
#
# Convention : Reuss Voigt Hill
#
# Bulk Modulus (GPa) = 36.70159 47.58693 42.14426
# Shear Modulus (GPa) = -8.06148 27.83737 9.88795
#
# Velocity S-wave (km/s) = -1.98035 3.68001 2.19325
# Velocity P-wave (km/s) = 3.55327 6.41927 5.18810
#
# Compressibility (1/GPa) = 0.02724677
#
# Stress axis : x y z
#
# Youngs Moduli (GPa) = 76.70237 61.17570 132.26243
#
# Poissons Ratio (x) = 0.09268 0.50509
# Poissons Ratio (y) = 0.11620 -0.06414
# Poissons Ratio (z) = 0.29292 -0.02967
#
# Static dielectric constant tensor:
#      x y z
#    x 1.751840 0.000000 -0.030900 
#    y 0.000000 1.792300 0.000000 
#    z -0.030900 0.000000 1.798010 
# 
# From -- ./inp_files/245146.got.cif
#   From: 2010.05.17/outbox.cif.g08.bks.cpg/sg12_123_cif.got.tgz:245146.got - 2010.06.03 13:09:07.
