data_PCOD9171307
_publ_section_title
;
Structure prediction by ZEFSAII (Michael W. Deem and Ramdas Pophale) SiO2 
 PCOD9171307
Probable space group: C 2/M
;
_chemical_formula_sum "Si O2"
_cell_formula_units_Z 56
_cell_length_a 20.033473
_cell_length_b 7.740800
_cell_length_c 22.658026
_cell_angle_alpha 90.000000
_cell_angle_beta 55.413387
_cell_angle_gamma 90.000000
_cell_volume 2892.716922
_symmetry_space_group_name_H-M "C 2/M"
_symmetry_group_IT_number 12
_symmetry_cell_setting 'monoclinic'
loop_
_space_group_symop_operation_xyz
x,y,z
-x,y,-z
-x,-y,-z
x,-y,z
1/2+x,1/2+y,z
1/2-x,1/2+y,-z
1/2-x,1/2-y,-z
1/2+x,1/2-y,z
loop_
_atom_site_type_symbol
_atom_site_label
_atom_site_fract_x
_atom_site_fract_y
_atom_site_fract_z
Si Si1 0.688586 0.707452 0.582715
Si Si2 0.629562 0.204053 0.056193
Si Si3 0.748010 0.299183 0.099677
Si Si4 0.510081 0.710664 0.689906
Si Si5 0.285373 0.708279 0.297498
Si Si6 0.664593 0.293114 0.257755
Si Si7 0.035975 0.207988 0.812979
O O1 0.684838 0.500000 0.588234
O O2 0.750000 0.750000 0.500000
O O3 0.595926 0.769034 0.619968
O O4 0.716335 0.769440 0.633749
O O5 0.673356 0.288244 0.090874
O O6 0.533702 0.229513 0.108332
O O7 0.647174 0.000000 0.051485
O O8 0.675140 0.273093 0.974984
O O9 0.766802 0.500000 0.101706
O O10 0.718269 0.221795 0.176271
O O11 0.510269 0.500000 0.688105
O O12 0.427480 0.772415 0.701356
O O13 0.511179 0.759093 0.758578
O O14 0.287989 0.500000 0.297518
O O15 0.209935 0.760226 0.295825
O O16 0.371226 0.767048 0.226020
O O17 0.659700 0.500000 0.251906
O O18 0.035411 0.000000 0.815350
#
# Coordination Sequence:
#
# PCOD9171307 Si02
#       7
#     8   8   8   8   8   8   8
#     4   9  18  35  57  78 100 127 161 199 240 291
#     4  10  18  27  45  74  99 123 167 220 253 282
#     4   9  18  31  46  67  99 136 167 201 253 301
#     4   8  15  30  53  74  93 128 170 199 233 289
#     4   9  20  35  52  74 102 133 162 200 250 295
#     4  10  18  32  53  73  97 132 170 205 242 291
#     4   9  16  32  52  67  93 134 171 204 245 297
#
# _framework density 19.358962999999999
#
# number of rings (size 3 to 8) (size 9 to 14) (size 15 to 20)
#    0.000    2.857    1.429    2.143    0.000    2.286 
#    0.000    4.286    0.000    8.571    0.000    0.000 
#    0.000    0.000    0.000    0.000    0.000    0.000 
#
# Total GULP energy -156055.438699 kJ/mol
# GULP energy per Si atom -5573.408525 kJ/mol
# Density = 1.931490 g / cm^3
# Si number density = 19.358963 Si / 1000 Ang^3
#
#
#
# Elastic Constant Matrix: (Units=GPa)
#
#
# Indices 1 2 3 4 5 6 
#
# 1 135.7801 0.6633 69.8154 -0.0002 -14.1836 0.0005
# 2 0.6633 24.2187 4.6961 -0.0011 -2.1130 -0.0006
# 3 69.8154 4.6961 139.7047 0.0001 -22.1987 0.0003
# 4 -0.0002 -0.0011 0.0001 17.8737 0.0000 -2.4462
# 5 -14.1836 -2.1130 -22.1987 0.0000 22.7520 -0.0003
# 6 0.0005 -0.0006 0.0003 -2.4462 -0.0003 21.3111
#
#
#
# Elastic Compliance Matrix: (Units=1/GPa)
#
#
# Indices 1 2 3 4 5 6 
#
# 1 0.009976 0.000792 -0.004748 0.000000 0.001660 0.000000
# 2 0.000792 0.041793 -0.001308 0.000003 0.003099 0.000002
# 3 -0.004748 -0.001308 0.010752 0.000000 0.007409 0.000000
# 4 0.000000 0.000003 0.000000 0.056841 0.000000 0.006525
# 5 0.001660 0.003099 0.007409 0.000000 0.052504 0.000001
# 6 0.000000 0.000002 0.000000 0.006525 0.000001 0.047673
#
#
# Mechanical properties :
#
#
# Convention : Reuss Voigt Hill
#
# Bulk Modulus (GPa) = 19.23369 50.00590 34.61979
# Shear Modulus (GPa) = 20.21040 27.35593 23.78316
#
# Velocity S-wave (km/s) = 3.23458 3.76319 3.50885
# Velocity P-wave (km/s) = 4.88946 6.69097 5.85986
#
# Compressibility (1/GPa) = 0.05199211
#
# Stress axis : x y z
#
# Youngs Moduli (GPa) = 100.24303 23.92756 93.00573
#
# Poissons Ratio (x) = -0.01896 0.44160
# Poissons Ratio (y) = -0.07942 0.12169
# Poissons Ratio (z) = 0.47597 0.03131
#
# Static dielectric constant tensor:
#      x y z
#    x 1.667640 0.000000 -0.024670 
#    y 0.000000 1.731760 0.000000 
#    z -0.024670 0.000000 1.689110 
# 
# From -- ./inp_files/313684.got.cif
#   From: 2010.05.17/outbox.cif.g08.bks.cpg/sg12_157_cif.got.tgz:313684.got - 2010.06.03 13:09:07.
