data_PCOD9171079
_publ_section_title
;
Structure prediction by ZEFSAII (Michael W. Deem and Ramdas Pophale) SiO2 
 PCOD9171079
Probable space group: C 2/M
;
_chemical_formula_sum "Si O2"
_cell_formula_units_Z 64
_cell_length_a 23.307401
_cell_length_b 9.172515
_cell_length_c 21.391393
_cell_angle_alpha 90.000000
_cell_angle_beta 115.825033
_cell_angle_gamma 90.000000
_cell_volume 4116.478697
_symmetry_space_group_name_H-M "C 2/M"
_symmetry_group_IT_number 12
_symmetry_cell_setting 'monoclinic'
loop_
_space_group_symop_operation_xyz
x,y,z
-x,y,-z
-x,-y,-z
x,-y,z
1/2+x,1/2+y,z
1/2-x,1/2+y,-z
1/2-x,1/2-y,-z
1/2+x,1/2-y,z
loop_
_atom_site_type_symbol
_atom_site_label
_atom_site_fract_x
_atom_site_fract_y
_atom_site_fract_z
Si Si1 0.888949 0.332401 0.849044
Si Si2 0.513165 0.176536 0.609093
Si Si3 0.537330 0.831796 0.875101
Si Si4 0.999048 0.173956 0.734180
Si Si5 0.854854 0.826195 0.710064
Si Si6 0.600633 0.823604 0.536470
Si Si7 0.074406 0.831701 0.013204
Si Si8 0.759249 0.323529 0.437456
O O1 0.869973 0.500000 0.848073
O O2 0.852264 0.255977 0.774840
O O3 0.886871 0.245780 0.913049
O O4 0.963447 0.330883 0.863200
O O5 0.517292 0.253142 0.677495
O O6 0.447476 0.218201 0.542258
O O7 0.569044 0.219911 0.587229
O O8 0.513800 0.000000 0.616507
O O9 0.536954 0.744417 0.810121
O O10 0.556070 0.000000 0.875765
O O11 0.576186 0.754053 0.948799
O O12 0.923862 0.203825 0.711839
O O13 0.007561 0.000000 0.737008
O O14 0.798340 0.784897 0.636402
O O15 0.851741 0.000000 0.719851
O O16 0.672515 0.776703 0.558154
O O17 0.600247 0.000000 0.536872
O O18 0.092660 0.000000 0.014435
O O19 0.000000 0.829778 0.000000
O O20 0.759452 0.500000 0.444273
O O21 0.750000 0.250000 0.500000
#
# Coordination Sequence:
#
# PCOD9171079 Si02
#       8
#     8   8   8   8   8   8   8   8
#     4   9  16  25  38  55  77 108 145 178 206 243
#     4   9  16  29  47  63  80 107 142 177 212 253
#     4   9  16  25  37  55  79 109 144 176 205 245
#     4  10  18  27  39  59  86 113 140 173 214 254
#     4   9  18  29  40  57  84 114 142 173 212 256
#     4   8  16  30  47  64  82 107 141 177 213 254
#     4   9  15  23  36  54  79 110 140 172 211 250
#     4  10  19  31  46  64  86 112 141 175 214 255
#
# _framework density 15.547268000000001
#
# number of rings (size 3 to 8) (size 9 to 14) (size 15 to 20)
#    0.000    2.875    0.000    3.000    0.000    5.500 
#    0.000    1.875    0.000    0.000    0.000    0.000 
#    0.000    1.000    0.000    2.750    0.000    4.000 
#
# Total GULP energy -178272.715583 kJ/mol
# GULP energy per Si atom -5571.022362 kJ/mol
# Density = 1.551188 g / cm^3
# Si number density = 15.547268 Si / 1000 Ang^3
#
#
#
# Elastic Constant Matrix: (Units=GPa)
#
#
# Indices 1 2 3 4 5 6 
#
# 1 49.3303 31.1760 53.9112 0.0000 -10.0743 0.0000
# 2 31.1760 73.8259 75.2247 0.0000 -13.5310 0.0000
# 3 53.9112 75.2247 169.7796 0.0000 -24.1126 0.0000
# 4 0.0000 0.0000 0.0000 31.2298 0.0000 -7.4133
# 5 -10.0743 -13.5310 -24.1126 0.0000 20.5831 0.0000
# 6 0.0000 0.0000 0.0000 -7.4133 0.0000 11.3185
#
#
#
# Elastic Compliance Matrix: (Units=1/GPa)
#
#
# Indices 1 2 3 4 5 6 
#
# 1 0.032589 -0.005609 -0.007343 0.000000 0.003661 0.000000
# 2 -0.005609 0.025951 -0.009218 0.000000 0.003516 0.000000
# 3 -0.007343 -0.009218 0.013117 0.000000 0.005713 0.000000
# 4 0.000000 0.000000 0.000000 0.037916 0.000000 0.024834
# 5 0.003661 0.003516 0.005713 0.000000 0.059379 0.000000
# 6 0.000000 0.000000 0.000000 0.024834 0.000000 0.104616
#
#
# Mechanical properties :
#
#
# Convention : Reuss Voigt Hill
#
# Bulk Modulus (GPa) = 36.60643 68.17329 52.38986
# Shear Modulus (GPa) = 15.28992 21.46787 18.37889
#
# Velocity S-wave (km/s) = 3.13940 3.71996 3.44194
# Velocity P-wave (km/s) = 6.06114 7.89905 7.04033
#
# Compressibility (1/GPa) = 0.02731761
#
# Stress axis : x y z
#
# Youngs Moduli (GPa) = 30.68537 38.53456 76.23606
#
# Poissons Ratio (x) = 0.21613 0.55981
# Poissons Ratio (y) = 0.17211 0.70272
# Poissons Ratio (z) = 0.22533 0.35520
#
# Static dielectric constant tensor:
#      x y z
#    x 1.501840 0.000000 0.002470 
#    y 0.000000 1.518770 0.000000 
#    z 0.002470 0.000000 1.505460 
# 
# From -- ./inp_files/323728.got.cif
#   From: 2010.05.17/outbox.cif.g08.bks.cpg/sg12_162_cif.got.tgz:323728.got - 2010.06.03 13:09:07.
