data_PCOD9171231
_publ_section_title
;
Structure prediction by ZEFSAII (Michael W. Deem and Ramdas Pophale) SiO2 
 PCOD9171231
Probable space group: C 2/M
;
_chemical_formula_sum "Si O2"
_cell_formula_units_Z 56
_cell_length_a 17.104503
_cell_length_b 16.971274
_cell_length_c 15.701405
_cell_angle_alpha 90.000000
_cell_angle_beta 45.000184
_cell_angle_gamma 90.000000
_cell_volume 3222.922167
_symmetry_space_group_name_H-M "C 2/M"
_symmetry_group_IT_number 12
_symmetry_cell_setting 'monoclinic'
loop_
_space_group_symop_operation_xyz
x,y,z
-x,y,-z
-x,-y,-z
x,-y,z
1/2+x,1/2+y,z
1/2-x,1/2+y,-z
1/2-x,1/2-y,-z
1/2+x,1/2-y,z
loop_
_atom_site_type_symbol
_atom_site_label
_atom_site_fract_x
_atom_site_fract_y
_atom_site_fract_z
Si Si1 0.755390 0.668331 0.699452
Si Si2 0.643149 0.817545 0.746758
Si Si3 0.039231 0.500000 0.602821
Si Si4 0.872398 0.667406 0.428079
Si Si5 0.554789 0.275482 0.367352
Si Si6 0.556225 0.911630 0.050739
Si Si7 0.686040 0.000000 0.314871
Si Si8 0.276575 0.593474 0.788738
O O1 0.656645 0.731064 0.776779
O O2 0.795707 0.663532 0.570392
O O3 0.854638 0.709354 0.676096
O O4 0.743419 0.579642 0.740538
O O5 0.684562 0.816477 0.617954
O O6 0.517861 0.848664 0.843557
O O7 0.717836 0.875788 0.746759
O O8 0.072276 0.581107 0.621674
O O9 0.110988 0.500000 0.459269
O O10 0.909334 0.500000 0.682611
O O11 0.964043 0.733658 0.378566
O O12 0.500000 0.298702 0.500000
O O13 0.617804 0.350729 0.280957
O O14 0.546154 0.000000 0.094843
O O15 0.500000 0.914214 0.000000
O O16 0.683948 0.893706 0.933289
O O17 0.298642 0.500000 0.766756
#
# Coordination Sequence:
#
# PCOD9171231 Si02
#       8
#     8   8   4   8   8   8   4   8
#     4   9  17  29  43  64  92 125 149 177 214 269
#     4  10  18  27  46  69  90 112 144 190 232 259
#     4   9  16  24  44  64  86 119 144 187 221 258
#     4  10  18  27  43  68  97 115 143 186 228 259
#     4   9  17  30  47  66  92 124 149 174 217 272
#     4   8  15  29  46  65  88 113 148 188 225 263
#     4   9  14  28  44  60  84 120 161 170 210 268
#     4   9  18  32  49  67  88 117 151 186 223 267
#
# _framework density 17.375536
#
# number of rings (size 3 to 8) (size 9 to 14) (size 15 to 20)
#    0.000    2.857    1.429    1.714    2.000    0.286 
#    0.000    0.714    1.571    0.000    0.000   13.500 
#    0.000    0.000    0.000    0.000    0.000    0.000 
#
# Total GULP energy -155894.255083 kJ/mol
# GULP energy per Si atom -5567.651967 kJ/mol
# Density = 1.733599 g / cm^3
# Si number density = 17.375536 Si / 1000 Ang^3
#
#
#
# Elastic Constant Matrix: (Units=GPa)
#
#
# Indices 1 2 3 4 5 6 
#
# 1 15.0522 9.5691 -0.3547 0.0000 -0.0917 0.0000
# 2 9.5691 132.0580 29.4931 0.0000 -19.9009 0.0000
# 3 -0.3547 29.4931 28.2458 0.0000 -12.6663 0.0000
# 4 0.0000 0.0000 0.0000 19.1071 0.0000 -6.0482
# 5 -0.0917 -19.9009 -12.6663 0.0000 18.3536 0.0000
# 6 0.0000 0.0000 0.0000 -6.0482 0.0000 20.8272
#
#
#
# Elastic Compliance Matrix: (Units=1/GPa)
#
#
# Indices 1 2 3 4 5 6 
#
# 1 0.071130 -0.007137 0.007291 0.000000 -0.002352 0.000000
# 2 -0.007137 0.010947 -0.008997 0.000000 0.005624 0.000000
# 3 0.007291 -0.008997 0.058697 0.000000 0.030789 0.000000
# 4 0.000000 0.000000 0.000000 0.057634 0.000000 0.016737
# 5 -0.002352 0.005624 0.030789 0.000000 0.081820 0.000000
# 6 0.000000 0.000000 0.000000 0.016737 0.000000 0.052875
#
#
# Mechanical properties :
#
#
# Convention : Reuss Voigt Hill
#
# Bulk Modulus (GPa) = 8.12441 28.08568 18.10505
# Shear Modulus (GPa) = 12.76101 20.76748 16.76424
#
# Velocity S-wave (km/s) = 2.71297 3.46094 3.10952
# Velocity P-wave (km/s) = 3.80782 5.67184 4.83059
#
# Compressibility (1/GPa) = 0.12308579
#
# Stress axis : x y z
#
# Youngs Moduli (GPa) = 14.05874 91.35259 17.03678
#
# Poissons Ratio (x) = 0.65197 -0.12421
# Poissons Ratio (y) = 0.10033 0.15329
# Poissons Ratio (z) = -0.10250 0.82194
#
# Static dielectric constant tensor:
#      x y z
#    x 1.595420 0.000000 -0.009090 
#    y 0.000000 1.608880 0.000000 
#    z -0.009090 0.000000 1.615210 
# 
# From -- ./inp_files/215873.got.cif
#   From: 2010.05.17/outbox.cif.g08.bks.cpg/sg12_108_cif.got.tgz:215873.got - 2010.06.03 13:09:07.
