data_PCOD9171993
_publ_section_title
;
Structure prediction by ZEFSAII (Michael W. Deem and Ramdas Pophale) SiO2 
 PCOD9171993
Probable space group: C 2/M
;
_chemical_formula_sum "Si O2"
_cell_formula_units_Z 48
_cell_length_a 30.920426
_cell_length_b 10.240343
_cell_length_c 5.646667
_cell_angle_alpha 90.000000
_cell_angle_beta 90.665127
_cell_angle_gamma 90.000000
_cell_volume 1787.816271
_symmetry_space_group_name_H-M "C 2/M"
_symmetry_group_IT_number 12
_symmetry_cell_setting 'monoclinic'
loop_
_space_group_symop_operation_xyz
x,y,z
-x,y,-z
-x,-y,-z
x,-y,z
1/2+x,1/2+y,z
1/2-x,1/2+y,-z
1/2-x,1/2-y,-z
1/2+x,1/2-y,z
loop_
_atom_site_type_symbol
_atom_site_label
_atom_site_fract_x
_atom_site_fract_y
_atom_site_fract_z
Si Si1 0.450188 0.769308 0.939253
Si Si2 0.718455 0.000000 0.882989
Si Si3 0.265914 0.000000 0.616463
Si Si4 0.895292 0.000000 0.894146
Si Si5 0.675061 0.260397 0.415390
Si Si6 0.299135 0.278250 0.083400
Si Si7 0.423014 0.785885 0.438518
Si Si8 0.093219 0.000000 0.607267
O O1 0.424709 0.631890 0.905386
O O2 0.446061 0.835507 0.678546
O O3 0.500000 0.747148 0.000000
O O4 0.430904 0.838911 0.174400
O O5 0.749214 0.000000 0.655659
O O6 0.687707 0.874586 0.880214
O O7 0.750280 0.000000 0.113016
O O8 0.296139 0.870030 0.616375
O O9 0.877832 0.000000 0.626049
O O10 0.876930 0.000000 0.158542
O O11 0.696147 0.331150 0.647739
O O12 0.627343 0.220025 0.492903
O O13 0.676034 0.323752 0.150777
O O14 0.250000 0.250000 0.000000
O O15 0.434651 0.631287 0.403423
#
# Coordination Sequence:
#
# PCOD9171993 Si02
#       8
#     8   4   4   4   8   8   8   4
#     4  10  18  29  45  67  92 122 156 192 228 270
#     4   8  16  30  48  69  93 116 149 194 229 256
#     4   8  16  30  50  69  87 112 153 202 233 252
#     4   8  15  26  42  61  85 120 162 194 222 256
#     4  10  19  33  51  72  94 121 155 194 233 271
#     4  10  19  33  51  72  96 123 153 190 231 273
#     4  10  19  31  46  67  94 124 154 188 229 275
#     4   8  16  28  41  61  94 124 149 186 225 266
#
# _framework density 26.848398
#
# number of rings (size 3 to 8) (size 9 to 14) (size 15 to 20)
#    0.000    2.667    0.000    2.250    0.000    0.000 
#    0.000    6.667    0.000    0.000    0.000    3.500 
#    0.000    0.000    0.000    0.000    0.000    0.000 
#
# Total GULP energy -133786.173260 kJ/mol
# GULP energy per Si atom -5574.423886 kJ/mol
# Density = 2.678729 g / cm^3
# Si number density = 26.848398 Si / 1000 Ang^3
#
#
#
# Elastic Constant Matrix: (Units=GPa)
#
#
# Indices 1 2 3 4 5 6 
#
# 1 80.0593 -16.2816 46.3461 0.0000 2.7896 0.0000
# 2 -16.2816 49.9010 18.7508 0.0000 -0.8288 0.0000
# 3 46.3461 18.7508 392.9285 0.0000 4.5775 0.0000
# 4 0.0000 0.0000 0.0000 22.9608 0.0000 -6.7559
# 5 2.7896 -0.8288 4.5775 0.0000 52.3259 0.0000
# 6 0.0000 0.0000 0.0000 -6.7559 0.0000 8.7460
#
#
#
# Elastic Compliance Matrix: (Units=1/GPa)
#
#
# Indices 1 2 3 4 5 6 
#
# 1 0.014804 0.005575 -0.002006 0.000000 -0.000525 0.000000
# 2 0.005575 0.022514 -0.001734 0.000000 0.000211 0.000000
# 3 -0.002006 -0.001734 0.002866 0.000000 -0.000171 0.000000
# 4 0.000000 0.000000 0.000000 0.056363 0.000000 0.043538
# 5 -0.000525 0.000211 -0.000171 0.000000 0.019157 0.000000
# 6 0.000000 0.000000 0.000000 0.043538 0.000000 0.147969
#
#
# Mechanical properties :
#
#
# Convention : Reuss Voigt Hill
#
# Bulk Modulus (GPa) = 22.80280 68.94662 45.87471
# Shear Modulus (GPa) = 18.20679 48.41143 33.30911
#
# Velocity S-wave (km/s) = 2.60692 4.25095 3.52609
# Velocity P-wave (km/s) = 4.19202 7.05902 5.80529
#
# Compressibility (1/GPa) = 0.04385426
#
# Stress axis : x y z
#
# Youngs Moduli (GPa) = 67.54823 44.41675 348.87226
#
# Poissons Ratio (x) = -0.24764 0.69988
# Poissons Ratio (y) = -0.37661 0.60511
# Poissons Ratio (z) = 0.13551 0.07704
#
# Static dielectric constant tensor:
#      x y z
#    x 2.048000 0.000000 0.006650 
#    y 0.000000 2.503170 0.000000 
#    z 0.006650 0.000000 2.257670 
# 
# From -- ./inp_files/25016.got.cif
#   From: 2010.05.17/outbox.cif.g08.bks.cpg/sg12_13_cif.got.tgz:25016.got - 2010.06.03 13:09:07.
