data_PCOD9171145
_publ_section_title
;
Structure prediction by ZEFSAII (Michael W. Deem and Ramdas Pophale) SiO2 
 PCOD9171145
Probable space group: C 2/M
;
_chemical_formula_sum "Si O2"
_cell_formula_units_Z 48
_cell_length_a 25.100516
_cell_length_b 7.678767
_cell_length_c 13.925420
_cell_angle_alpha 90.000000
_cell_angle_beta 107.844958
_cell_angle_gamma 90.000000
_cell_volume 2554.870288
_symmetry_space_group_name_H-M "C 2/M"
_symmetry_group_IT_number 12
_symmetry_cell_setting 'monoclinic'
loop_
_space_group_symop_operation_xyz
x,y,z
-x,y,-z
-x,-y,-z
x,-y,z
1/2+x,1/2+y,z
1/2-x,1/2+y,-z
1/2-x,1/2-y,-z
1/2+x,1/2-y,z
loop_
_atom_site_type_symbol
_atom_site_label
_atom_site_fract_x
_atom_site_fract_y
_atom_site_fract_z
Si Si1 0.815460 0.295223 0.441788
Si Si2 0.500998 0.713358 0.388491
Si Si3 0.794031 0.791439 0.726314
Si Si4 0.769277 0.206257 0.117153
Si Si5 0.110715 0.199026 0.343151
Si Si6 0.878169 0.788804 0.282045
O O1 0.810697 0.500000 0.461964
O O2 0.755865 0.225770 0.370888
O O3 0.843525 0.200399 0.546217
O O4 0.856366 0.272404 0.373551
O O5 0.500000 0.768060 0.500000
O O6 0.504070 0.500000 0.392513
O O7 0.554853 0.777685 0.359012
O O8 0.442448 0.765011 0.307350
O O9 0.774013 0.761568 0.823697
O O10 0.854359 0.722218 0.726256
O O11 0.795406 0.000000 0.713884
O O12 0.831109 0.274060 0.180973
O O13 0.772740 0.000000 0.125473
O O14 0.750000 0.250000 0.000000
O O15 0.096102 0.000000 0.309320
O O16 0.878037 0.000000 0.282726
#
# Coordination Sequence:
#
# PCOD9171145 Si02
#       6
#     8   8   8   8   8   8
#     4  10  18  27  41  65  98 130 158 193 229 273
#     4   9  15  26  47  70  94 126 164 197 221 262
#     4   9  19  32  46  68  96 124 158 195 236 280
#     4  10  20  34  55  75  93 117 151 198 246 289
#     4  10  18  29  46  66  94 132 163 192 228 272
#     4   9  17  31  49  70  93 123 161 195 231 276
#
# _framework density 18.787648000000001
#
# number of rings (size 3 to 8) (size 9 to 14) (size 15 to 20)
#    0.000    2.500    1.667    1.500    0.000    2.000 
#    0.000    1.667    0.000    1.000    0.000    7.000 
#    0.000    0.000    0.000    0.000    0.000    0.000 
#
# Total GULP energy -133795.798082 kJ/mol
# GULP energy per Si atom -5574.824920 kJ/mol
# Density = 1.874489 g / cm^3
# Si number density = 18.787648 Si / 1000 Ang^3
#
#
#
# Elastic Constant Matrix: (Units=GPa)
#
#
# Indices 1 2 3 4 5 6 
#
# 1 197.6112 8.5009 67.0316 0.0000 -8.7884 0.0000
# 2 8.5009 37.3189 -0.3094 0.0000 1.7893 0.0000
# 3 67.0316 -0.3094 94.4071 0.0000 0.2898 0.0000
# 4 0.0000 0.0000 0.0000 16.6370 0.0000 -0.3231
# 5 -8.7884 1.7893 0.2898 0.0000 8.4019 0.0000
# 6 0.0000 0.0000 0.0000 -0.3231 0.0000 11.6950
#
#
#
# Elastic Compliance Matrix: (Units=1/GPa)
#
#
# Indices 1 2 3 4 5 6 
#
# 1 0.007282 -0.002097 -0.005203 0.000000 0.008243 0.000000
# 2 -0.002097 0.027677 0.001605 0.000000 -0.008143 0.000000
# 3 -0.005203 0.001605 0.014311 0.000000 -0.006277 0.000000
# 4 0.000000 0.000000 0.000000 0.060139 0.000000 0.001661
# 5 0.008243 -0.008143 -0.006277 0.000000 0.129593 0.000000
# 6 0.000000 0.000000 0.000000 0.001661 0.000000 0.085553
#
#
# Mechanical properties :
#
#
# Convention : Reuss Voigt Hill
#
# Bulk Modulus (GPa) = 26.39884 53.30926 39.85405
# Shear Modulus (GPa) = 14.34421 24.28773 19.31597
#
# Velocity S-wave (km/s) = 2.76613 3.59938 3.20991
# Velocity P-wave (km/s) = 4.92785 6.76094 5.91583
#
# Compressibility (1/GPa) = 0.03788045
#
# Stress axis : x y z
#
# Youngs Moduli (GPa) = 137.32422 36.13044 69.87657
#
# Poissons Ratio (x) = 0.07577 0.36354
# Poissons Ratio (y) = 0.28799 -0.11213
# Poissons Ratio (z) = 0.71445 -0.05798
#
# Static dielectric constant tensor:
#      x y z
#    x 1.710810 0.000000 0.021660 
#    y 0.000000 1.805100 0.000000 
#    z 0.021660 0.000000 1.546470 
# 
# From -- ./inp_files/172127.got.cif
#   From: 2010.05.17/outbox.cif.g08.bks.cpg/sg12_87_cif.got.tgz:172127.got - 2010.06.03 13:09:07.
