data_PCOD9171132
_publ_section_title
;
Structure prediction by ZEFSAII (Michael W. Deem and Ramdas Pophale) SiO2 
 PCOD9171132
Probable space group: C 2/M
;
_chemical_formula_sum "Si O2"
_cell_formula_units_Z 64
_cell_length_a 24.659477
_cell_length_b 7.510498
_cell_length_c 22.542054
_cell_angle_alpha 90.000000
_cell_angle_beta 129.201227
_cell_angle_gamma 90.000000
_cell_volume 3235.259272
_symmetry_space_group_name_H-M "C 2/M"
_symmetry_group_IT_number 12
_symmetry_cell_setting 'monoclinic'
loop_
_space_group_symop_operation_xyz
x,y,z
-x,y,-z
-x,-y,-z
x,-y,z
1/2+x,1/2+y,z
1/2-x,1/2+y,-z
1/2-x,1/2-y,-z
1/2+x,1/2-y,z
loop_
_atom_site_type_symbol
_atom_site_label
_atom_site_fract_x
_atom_site_fract_y
_atom_site_fract_z
Si Si1 0.328714 0.785342 0.771270
Si Si2 0.076878 0.794179 0.543679
Si Si3 0.118981 0.283594 0.314474
Si Si4 0.317483 0.718130 0.283902
Si Si5 0.076622 0.215817 0.742620
Si Si6 0.579894 0.209121 0.412476
Si Si7 0.536497 0.293211 0.839040
Si Si8 0.515683 0.288050 0.076039
O O1 0.328601 0.728840 0.701680
O O2 0.261677 0.720652 0.760976
O O3 0.402986 0.735163 0.850894
O O4 0.326657 0.000000 0.769212
O O5 0.136214 0.721601 0.627799
O O6 0.094417 0.790069 0.486496
O O7 0.000000 0.711702 0.500000
O O8 0.070337 0.000000 0.558270
O O9 0.116594 0.500000 0.313937
O O10 0.124087 0.223698 0.386194
O O11 0.043461 0.217345 0.239703
O O12 0.315329 0.500000 0.281321
O O13 0.359559 0.774340 0.254510
O O14 0.078487 0.282730 0.811892
O O15 0.002130 0.265611 0.661345
O O16 0.076732 0.000000 0.744542
O O17 0.592684 0.000000 0.427356
O O18 0.556962 0.500000 0.859006
O O19 0.530773 0.214837 0.901189
O O20 0.502197 0.500000 0.065273
O O21 0.500000 0.215243 0.000000
#
# Coordination Sequence:
#
# PCOD9171132 Si02
#       8
#     8   8   8   8   8   8   8   8
#     4   9  17  31  49  67  88 115 149 180 213 260
#     4  10  18  30  45  61  85 116 152 189 224 258
#     4   8  15  27  42  60  85 114 140 177 222 261
#     4   9  17  29  46  65  85 114 149 187 223 256
#     4   9  15  27  45  64  85 112 150 187 217 253
#     4  10  18  27  41  63  88 112 144 186 229 262
#     4   8  14  24  43  67  86 109 144 181 211 249
#     4   9  17  30  48  71  96 117 139 173 218 263
#
# _framework density 19.782032000000001
#
# number of rings (size 3 to 8) (size 9 to 14) (size 15 to 20)
#    0.000    3.000    1.250    0.375    0.000    1.000 
#    0.000    1.875    0.000    0.750    0.000    0.000 
#    0.000    0.000    0.000    0.000    0.000    0.000 
#
# Total GULP energy -178215.568993 kJ/mol
# GULP energy per Si atom -5569.236531 kJ/mol
# Density = 1.973701 g / cm^3
# Si number density = 19.782032 Si / 1000 Ang^3
#
#
#
# Elastic Constant Matrix: (Units=GPa)
#
#
# Indices 1 2 3 4 5 6 
#
# 1 159.6596 -2.4920 67.8748 -0.0001 -36.7296 0.0001
# 2 -2.4920 51.4861 -4.2358 -0.0014 -0.2383 0.0014
# 3 67.8748 -4.2358 76.4805 -0.0001 -31.8478 0.0001
# 4 -0.0001 -0.0014 -0.0001 -130.8175 -0.0001 111.4329
# 5 -36.7296 -0.2383 -31.8478 -0.0001 30.9046 0.0000
# 6 0.0001 0.0014 0.0001 111.4329 0.0000 -77.7154
#
#
#
# Elastic Compliance Matrix: (Units=1/GPa)
#
#
# Indices 1 2 3 4 5 6 
#
# 1 0.010487 -0.000063 -0.007218 0.000000 0.005025 0.000000
# 2 -0.000063 0.019599 0.002055 0.000000 0.002194 0.000000
# 3 -0.007218 0.002055 0.028078 0.000000 0.020373 0.000000
# 4 0.000000 0.000000 0.000000 0.034529 0.000000 0.049509
# 5 0.005025 0.002194 0.020373 0.000000 0.059341 0.000000
# 6 0.000000 0.000000 0.000000 0.049509 0.000000 0.058122
#
#
# Mechanical properties :
#
#
# Convention : Reuss Voigt Hill
#
# Bulk Modulus (GPa) = 20.95900 45.54669 33.25285
# Shear Modulus (GPa) = 21.14064 -20.42706 0.35679
#
# Velocity S-wave (km/s) = 3.27261 -3.21691 0.42515
# Velocity P-wave (km/s) = 4.98979 3.04570 4.13366
#
# Compressibility (1/GPa) = 0.04771219
#
# Stress axis : x y z
#
# Youngs Moduli (GPa) = 95.35842 51.02332 35.61460
#
# Poissons Ratio (x) = 0.00321 0.25706
# Poissons Ratio (y) = 0.00601 -0.07319
# Poissons Ratio (z) = 0.68829 -0.10485
#
# Static dielectric constant tensor:
#      x y z
#    x 1.749180 0.000000 -0.046850 
#    y 0.000000 1.736950 0.000000 
#    z -0.046850 0.000000 1.672900 
# 
# From -- ./inp_files/324337.got.cif
#   From: 2010.05.17/outbox.cif.g08.bks.cpg/sg12_163_cif.got.tgz:324337.got - 2010.06.03 13:09:07.
