data_PCOD9171761
_publ_section_title
;
Structure prediction by ZEFSAII (Michael W. Deem and Ramdas Pophale) SiO2 
 PCOD9171761
Probable space group: C 2/M
;
_chemical_formula_sum "Si O2"
_cell_formula_units_Z 64
_cell_length_a 22.639476
_cell_length_b 7.616125
_cell_length_c 19.804216
_cell_angle_alpha 90.000000
_cell_angle_beta 62.114008
_cell_angle_gamma 90.000000
_cell_volume 3018.223515
_symmetry_space_group_name_H-M "C 2/M"
_symmetry_group_IT_number 12
_symmetry_cell_setting 'monoclinic'
loop_
_space_group_symop_operation_xyz
x,y,z
-x,y,-z
-x,-y,-z
x,-y,z
1/2+x,1/2+y,z
1/2-x,1/2+y,-z
1/2-x,1/2-y,-z
1/2+x,1/2-y,z
loop_
_atom_site_type_symbol
_atom_site_label
_atom_site_fract_x
_atom_site_fract_y
_atom_site_fract_z
Si Si1 0.022415 0.201015 0.737142
Si Si2 0.234156 0.785543 0.118628
Si Si3 0.257553 0.289670 0.735647
Si Si4 0.854551 0.795072 0.407238
Si Si5 0.285831 0.205192 0.573740
Si Si6 0.386596 0.210160 0.030443
Si Si7 0.898229 0.211160 0.876654
Si Si8 0.899424 0.713011 0.171912
O O1 0.076167 0.282494 0.656992
O O2 0.059391 0.203496 0.789884
O O3 0.950701 0.281120 0.793564
O O4 0.009877 0.000000 0.721784
O O5 0.216220 0.734144 0.205105
O O6 0.309791 0.723945 0.065754
O O7 0.176586 0.723892 0.099064
O O8 0.236139 0.000000 0.114886
O O9 0.260091 0.500000 0.733009
O O10 0.293745 0.225906 0.649150
O O11 0.178902 0.242114 0.775618
O O12 0.787485 0.720047 0.407808
O O13 0.840549 0.784397 0.494325
O O14 0.856702 0.000000 0.386037
O O15 0.285053 0.000000 0.557602
O O16 0.416249 0.270143 0.086223
O O17 0.383573 0.000000 0.038564
O O18 0.420048 0.248552 0.941287
O O19 0.897377 0.000000 0.871375
O O20 0.906405 0.500000 0.173113
#
# Coordination Sequence:
#
# PCOD9171761 Si02
#       8
#     8   8   8   8   8   8   8   8
#     4  10  20  33  48  68  98 129 157 193 233 280
#     4   8  16  32  52  72  94 122 159 201 238 275
#     4   9  16  29  50  72  95 123 155 194 238 279
#     4   9  18  31  45  66  98 129 153 186 231 280
#     4  10  18  28  47  74  99 121 152 193 235 278
#     4   9  18  33  51  71  95 122 158 202 241 277
#     4  10  20  33  50  71  94 125 162 197 237 280
#     4   9  18  31  48  69  94 127 160 191 233 283
#
# _framework density 21.204525
#
# number of rings (size 3 to 8) (size 9 to 14) (size 15 to 20)
#    0.000    2.750    1.250    2.250    0.000    2.500 
#    0.000    5.000    0.000    0.750    0.000    5.250 
#    0.000    0.000    0.000    0.000    0.000    0.000 
#
# Total GULP energy -178468.971609 kJ/mol
# GULP energy per Si atom -5577.155363 kJ/mol
# Density = 2.115626 g / cm^3
# Si number density = 21.204525 Si / 1000 Ang^3
#
#
#
# Elastic Constant Matrix: (Units=GPa)
#
#
# Indices 1 2 3 4 5 6 
#
# 1 18.4276 -3.5137 -4.9467 -0.0002 6.2816 0.0014
# 2 -3.5137 42.0387 -4.9900 -0.0001 -4.8189 0.0019
# 3 -4.9467 -4.9900 124.3125 0.0001 3.9578 0.0002
# 4 -0.0002 -0.0001 0.0001 17.2445 0.0000 5.5665
# 5 6.2816 -4.8189 3.9578 0.0000 26.9474 -0.0001
# 6 0.0014 0.0019 0.0002 5.5665 -0.0001 8.3747
#
#
#
# Elastic Compliance Matrix: (Units=1/GPa)
#
#
# Indices 1 2 3 4 5 6 
#
# 1 0.060529 0.003826 0.003004 0.000005 -0.013866 -0.000015
# 2 0.003826 0.024615 0.001033 0.000003 0.003358 -0.000008
# 3 0.003004 0.001033 0.008260 0.000000 -0.001729 -0.000001
# 4 0.000005 0.000003 0.000000 0.073831 -0.000001 -0.049074
# 5 -0.013866 0.003358 -0.001729 -0.000001 0.041196 0.000003
# 6 -0.000015 -0.000008 -0.000001 -0.049074 0.000003 0.152026
#
#
# Mechanical properties :
#
#
# Convention : Reuss Voigt Hill
#
# Bulk Modulus (GPa) = 9.16330 17.54198 13.35264
# Shear Modulus (GPa) = 13.11965 23.72859 18.42412
#
# Velocity S-wave (km/s) = 2.49011 3.34883 2.95087
# Velocity P-wave (km/s) = 3.54940 4.82116 4.23331
#
# Compressibility (1/GPa) = 0.10913094
#
# Stress axis : x y z
#
# Youngs Moduli (GPa) = 16.52102 40.62556 121.06123
#
# Poissons Ratio (x) = -0.15544 -0.36362
# Poissons Ratio (y) = -0.06321 -0.12511
# Poissons Ratio (z) = -0.04962 -0.04198
#
# Static dielectric constant tensor:
#      x y z
#    x 1.756200 0.000000 -0.023110 
#    y 0.000000 1.819870 0.000000 
#    z -0.023110 0.000000 1.804130 
# 
# From -- ./inp_files/324132.got.cif
#   From: 2010.05.17/outbox.cif.g08.bks.cpg/sg12_163_cif.got.tgz:324132.got - 2010.06.03 13:09:07.
