data_PCOD9171903
_publ_section_title
;
Structure prediction by ZEFSAII (Michael W. Deem and Ramdas Pophale) SiO2 
 PCOD9171903
Probable space group: C 2/M
;
_chemical_formula_sum "Si O2"
_cell_formula_units_Z 40
_cell_length_a 41.978592
_cell_length_b 12.346262
_cell_length_c 5.305889
_cell_angle_alpha 90.000000
_cell_angle_beta 75.356618
_cell_angle_gamma 90.000000
_cell_volume 2660.606127
_symmetry_space_group_name_H-M "C 2/M"
_symmetry_group_IT_number 12
_symmetry_cell_setting 'monoclinic'
loop_
_space_group_symop_operation_xyz
x,y,z
-x,y,-z
-x,-y,-z
x,-y,z
1/2+x,1/2+y,z
1/2-x,1/2+y,-z
1/2-x,1/2-y,-z
1/2+x,1/2-y,z
loop_
_atom_site_type_symbol
_atom_site_label
_atom_site_fract_x
_atom_site_fract_y
_atom_site_fract_z
Si Si1 0.205506 0.246097 0.339001
Si Si2 0.480492 0.367918 0.789018
Si Si3 0.135237 0.868905 0.479527
Si Si4 0.274727 0.871442 0.200537
Si Si5 0.095299 0.868560 0.059406
O O1 0.171029 0.184245 0.407934
O O2 0.236172 0.162470 0.277658
O O3 0.209687 0.318511 0.580746
O O4 0.209689 0.318528 0.080554
O O5 0.500000 0.334113 0.500000
O O6 0.480076 0.500000 0.789851
O O7 0.442577 0.331636 0.864848
O O8 0.500000 0.334112 0.000000
O O9 0.114868 0.836827 0.271372
O O10 0.138448 0.000000 0.473103
O O11 0.114870 0.836829 0.769165
O O12 0.278192 0.000000 0.193627
O O13 0.094280 0.000000 0.061448
#
# Coordination Sequence:
#
# PCOD9171903 Si02
#       5
#     8   8   8   8   8
#     4  10  20  32  49  68  86 115 147 178 223 263
#     4   9  15  23  35  51  74 106 146 183 208 238
#     4  10  18  29  43  61  87 114 147 185 218 254
#     4  10  20  34  49  67  89 111 145 185 218 260
#     4   9  17  26  38  57  81 112 147 183 216 247
#
# _framework density 15.03417
#
# number of rings (size 3 to 8) (size 9 to 14) (size 15 to 20)
#    0.000    2.400    0.000    3.600    0.000    4.800 
#    0.000    6.000    0.000    0.000    0.000    0.000 
#    0.000    0.000    0.000    0.000    0.000  252.000 
#
# Total GULP energy -111516.902561 kJ/mol
# GULP energy per Si atom -5575.845128 kJ/mol
# Density = 1.499995 g / cm^3
# Si number density = 15.034170 Si / 1000 Ang^3
#
#
#
# Elastic Constant Matrix: (Units=GPa)
#
#
# Indices 1 2 3 4 5 6 
#
# 1 160.1078 39.0344 107.9447 0.0000 -6.9205 0.0000
# 2 39.0344 45.5295 37.7593 0.0000 -0.5731 0.0000
# 3 107.9447 37.7593 169.7472 0.0000 11.4225 0.0000
# 4 0.0000 0.0000 0.0000 7.9017 0.0000 -3.4168
# 5 -6.9205 -0.5731 11.4225 0.0000 27.0156 0.0000
# 6 0.0000 0.0000 0.0000 -3.4168 0.0000 15.3105
#
#
#
# Elastic Compliance Matrix: (Units=1/GPa)
#
#
# Indices 1 2 3 4 5 6 
#
# 1 0.012665 -0.004596 -0.007455 0.000000 0.006299 0.000000
# 2 -0.004596 0.028871 -0.003563 0.000000 0.000942 0.000000
# 3 -0.007455 -0.003563 0.011897 0.000000 -0.007015 0.000000
# 4 0.000000 0.000000 0.000000 0.140072 0.000000 0.031260
# 5 0.006299 0.000942 -0.007015 0.000000 0.041615 0.000000
# 6 0.000000 0.000000 0.000000 0.031260 0.000000 0.072291
#
#
# Mechanical properties :
#
#
# Convention : Reuss Voigt Hill
#
# Bulk Modulus (GPa) = 45.03673 82.76236 63.89955
# Shear Modulus (GPa) = 14.44920 22.75531 18.60225
#
# Velocity S-wave (km/s) = 3.10351 3.89469 3.52139
# Velocity P-wave (km/s) = 6.54703 8.68296 7.68952
#
# Compressibility (1/GPa) = 0.02220410
#
# Stress axis : x y z
#
# Youngs Moduli (GPa) = 78.95799 34.63711 84.05691
#
# Poissons Ratio (x) = 0.15919 0.62667
# Poissons Ratio (y) = 0.36289 0.29948
# Poissons Ratio (z) = 0.58866 0.12341
#
# Static dielectric constant tensor:
#      x y z
#    x 1.487790 0.000000 0.006660 
#    y 0.000000 1.455090 0.000000 
#    z 0.006660 0.000000 1.502220 
# 
# From -- ./inp_files/30604.got.cif
#   From: 2010.05.17/outbox.cif.g08.bks.cpg/sg12_16_cif.got.tgz:30604.got - 2010.06.03 13:09:07.
