data_PCOD9171220
_publ_section_title
;
Structure prediction by ZEFSAII (Michael W. Deem and Ramdas Pophale) SiO2 
 PCOD9171220
Probable space group: C 2/M
;
_chemical_formula_sum "Si O2"
_cell_formula_units_Z 56
_cell_length_a 28.311646
_cell_length_b 8.895141
_cell_length_c 18.114873
_cell_angle_alpha 90.000000
_cell_angle_beta 128.502870
_cell_angle_gamma 90.000000
_cell_volume 3570.099455
_symmetry_space_group_name_H-M "C 2/M"
_symmetry_group_IT_number 12
_symmetry_cell_setting 'monoclinic'
loop_
_space_group_symop_operation_xyz
x,y,z
-x,y,-z
-x,-y,-z
x,-y,z
1/2+x,1/2+y,z
1/2-x,1/2+y,-z
1/2-x,1/2-y,-z
1/2+x,1/2-y,z
loop_
_atom_site_type_symbol
_atom_site_label
_atom_site_fract_x
_atom_site_fract_y
_atom_site_fract_z
Si Si1 0.040676 0.177326 0.210592
Si Si2 0.530281 0.819357 0.355204
Si Si3 0.071248 0.326414 0.090793
Si Si4 0.184103 0.320605 0.927675
Si Si5 0.098559 0.178593 0.724802
Si Si6 0.571764 0.172639 0.551272
Si Si7 0.399363 0.676916 0.030048
O O1 0.053595 0.260240 0.299848
O O2 0.074690 0.248482 0.173726
O O3 0.052647 0.000000 0.227672
O O4 0.968781 0.195436 0.124500
O O5 0.465267 0.743548 0.307446
O O6 0.573074 0.782298 0.466748
O O7 0.522409 0.000000 0.346863
O O8 0.090457 0.500000 0.112083
O O9 0.103478 0.237255 0.056274
O O10 0.000000 0.324737 0.000000
O O11 0.187028 0.500000 0.926654
O O12 0.150825 0.254720 0.823304
O O13 0.250000 0.250000 0.000000
O O14 0.143460 0.268953 0.957425
O O15 0.102048 0.223826 0.642093
O O16 0.099251 0.000000 0.735235
O O17 0.500000 0.173342 0.500000
O O18 0.592457 0.000000 0.579914
O O19 0.385074 0.500000 0.019788
#
# Coordination Sequence:
#
# PCOD9171220 Si02
#       7
#     8   8   8   8   8   8   8
#     4  10  18  27  43  66  94 123 155 191 228 274
#     4  10  18  28  44  65  92 124 157 189 226 275
#     4   9  17  28  43  63  88 120 156 187 225 275
#     4  12  24  37  52  68  90 120 159 200 237 276
#     4  11  20  31  46  65  89 119 154 192 234 276
#     4   8  16  29  43  62  87 119 154 187 226 273
#     4  10  19  32  47  65  90 119 154 193 234 275
#
# _framework density 15.685838
#
# number of rings (size 3 to 8) (size 9 to 14) (size 15 to 20)
#    0.000    2.000    1.429    5.143    0.000    6.000 
#    0.000    0.000    0.000    0.000    0.000    0.000 
#    0.000    1.143    0.000    4.286    0.000    6.571 
#
# Total GULP energy -156183.096056 kJ/mol
# GULP energy per Si atom -5577.967716 kJ/mol
# Density = 1.565014 g / cm^3
# Si number density = 15.685838 Si / 1000 Ang^3
#
#
#
# Elastic Constant Matrix: (Units=GPa)
#
#
# Indices 1 2 3 4 5 6 
#
# 1 46.5160 47.0636 52.4751 0.0000 -27.1779 0.0000
# 2 47.0636 131.2704 64.2951 0.0000 -19.0342 0.0000
# 3 52.4751 64.2951 95.6903 0.0000 -31.2460 0.0000
# 4 0.0000 0.0000 0.0000 22.3649 0.0000 -6.5023
# 5 -27.1779 -19.0342 -31.2460 0.0000 33.7508 0.0000
# 6 0.0000 0.0000 0.0000 -6.5023 0.0000 24.2169
#
#
#
# Elastic Compliance Matrix: (Units=1/GPa)
#
#
# Indices 1 2 3 4 5 6 
#
# 1 0.085923 -0.012356 -0.026515 0.000000 0.037674 0.000000
# 2 -0.012356 0.013152 -0.004140 0.000000 -0.006365 0.000000
# 3 -0.026515 -0.004140 0.028720 0.000000 0.002903 0.000000
# 4 0.000000 0.000000 0.000000 0.048499 0.000000 0.013022
# 5 0.037674 -0.006365 0.002903 0.000000 0.059064 0.000000
# 6 0.000000 0.000000 0.000000 0.013022 0.000000 0.044790
#
#
# Mechanical properties :
#
#
# Convention : Reuss Voigt Hill
#
# Bulk Modulus (GPa) = 23.93811 66.79380 45.36595
# Shear Modulus (GPa) = 13.15464 23.37604 18.26534
#
# Velocity S-wave (km/s) = 2.89906 3.86458 3.41610
# Velocity P-wave (km/s) = 5.14783 7.91126 6.67413
#
# Compressibility (1/GPa) = 0.04177440
#
# Stress axis : x y z
#
# Youngs Moduli (GPa) = 11.63836 76.03122 34.81877
#
# Poissons Ratio (x) = 0.93943 0.92321
# Poissons Ratio (y) = 0.14380 0.14414
# Poissons Ratio (z) = 0.30859 0.31475
#
# Static dielectric constant tensor:
#      x y z
#    x 1.512350 0.000000 -0.030630 
#    y 0.000000 1.521040 0.000000 
#    z -0.030630 0.000000 1.524130 
# 
# From -- ./inp_files/288164.got.cif
#   From: 2010.05.17/outbox.cif.g08.bks.cpg/sg12_145_cif.got.tgz:288164.got - 2010.06.03 13:09:07.
