data_PCOD9171964
_publ_section_title
;
Structure prediction by ZEFSAII (Michael W. Deem and Ramdas Pophale) SiO2 
 PCOD9171964
Probable space group: C 2/M
;
_chemical_formula_sum "Si O2"
_cell_formula_units_Z 64
_cell_length_a 28.735108
_cell_length_b 8.913155
_cell_length_c 21.193649
_cell_angle_alpha 90.000000
_cell_angle_beta 128.019746
_cell_angle_gamma 90.000000
_cell_volume 4276.270766
_symmetry_space_group_name_H-M "C 2/M"
_symmetry_group_IT_number 12
_symmetry_cell_setting 'monoclinic'
loop_
_space_group_symop_operation_xyz
x,y,z
-x,y,-z
-x,-y,-z
x,-y,z
1/2+x,1/2+y,z
1/2-x,1/2+y,-z
1/2-x,1/2-y,-z
1/2+x,1/2-y,z
loop_
_atom_site_type_symbol
_atom_site_label
_atom_site_fract_x
_atom_site_fract_y
_atom_site_fract_z
Si Si1 0.890022 0.679075 0.764346
Si Si2 0.245443 0.819562 0.148974
Si Si3 0.873726 0.818537 0.024922
Si Si4 0.304441 0.680591 0.084853
Si Si5 0.498201 0.681427 0.072456
Si Si6 0.340593 0.327273 0.601921
Si Si7 0.210397 0.327220 0.558072
Si Si8 0.263642 0.179190 0.721764
O O1 0.894636 0.500000 0.765736
O O2 0.946291 0.749592 0.845238
O O3 0.880956 0.743419 0.686493
O O4 0.830210 0.716424 0.753513
O O5 0.296465 0.750979 0.147007
O O6 0.248074 0.758554 0.221760
O O7 0.248217 0.000000 0.149819
O O8 0.182219 0.772116 0.065000
O O9 0.859913 0.780161 0.086339
O O10 0.936193 0.765846 0.050622
O O11 0.874379 0.000000 0.022219
O O12 0.299511 0.500000 0.083722
O O13 0.250000 0.750000 0.000000
O O14 0.501174 0.500000 0.079716
O O15 0.500000 0.720207 0.000000
O O16 0.358407 0.500000 0.609729
O O17 0.274814 0.325599 0.577864
O O18 0.333812 0.247370 0.528915
O O19 0.195092 0.500000 0.557511
O O20 0.219970 0.237171 0.630570
O O21 0.259457 0.000000 0.724420
#
# Coordination Sequence:
#
# PCOD9171964 Si02
#       8
#     8   8   8   8   8   8   8   8
#     4  10  20  31  42  60  86 115 148 184 218 252
#     4  10  18  29  45  64  85 110 143 180 220 263
#     4   8  16  29  44  61  82 111 146 181 215 255
#     4   9  16  28  44  62  84 109 140 177 217 260
#     4  10  19  31  46  62  83 115 152 184 215 252
#     4   9  16  27  43  60  80 110 145 177 211 253
#     4   9  16  26  41  61  84 110 140 175 213 252
#     4  10  19  29  41  60  88 118 145 174 213 261
#
# _framework density 14.966310999999999
#
# number of rings (size 3 to 8) (size 9 to 14) (size 15 to 20)
#    0.000    2.625    0.000    3.750    0.000    5.750 
#    0.000    3.750    0.000    0.000    0.000    0.000 
#    0.000    1.000    0.000   10.750    0.000    5.250 
#
# Total GULP energy -178270.376868 kJ/mol
# GULP energy per Si atom -5570.949277 kJ/mol
# Density = 1.493225 g / cm^3
# Si number density = 14.966311 Si / 1000 Ang^3
#
#
#
# Elastic Constant Matrix: (Units=GPa)
#
#
# Indices 1 2 3 4 5 6 
#
# 1 97.4576 41.7382 58.1640 0.0000 -18.7122 0.0000
# 2 41.7382 60.2578 43.4405 0.0000 -12.7411 0.0000
# 3 58.1640 43.4405 117.1077 0.0000 -20.9298 0.0000
# 4 0.0000 0.0000 0.0000 28.0694 0.0000 -4.4687
# 5 -18.7122 -12.7411 -20.9298 0.0000 19.6530 0.0000
# 6 0.0000 0.0000 0.0000 -4.4687 0.0000 17.1937
#
#
#
# Elastic Compliance Matrix: (Units=1/GPa)
#
#
# Indices 1 2 3 4 5 6 
#
# 1 0.017550 -0.007237 -0.004797 0.000000 0.006909 0.000000
# 2 -0.007237 0.026466 -0.005419 0.000000 0.004496 0.000000
# 3 -0.004797 -0.005419 0.014188 0.000000 0.007029 0.000000
# 4 0.000000 0.000000 0.000000 0.037164 0.000000 0.009659
# 5 0.006909 0.004496 0.007029 0.000000 0.067862 0.000000
# 6 0.000000 0.000000 0.000000 0.009659 0.000000 0.060671
#
#
# Mechanical properties :
#
#
# Convention : Reuss Voigt Hill
#
# Bulk Modulus (GPa) = 42.92426 62.38982 52.65704
# Shear Modulus (GPa) = 18.75660 21.74858 20.25259
#
# Velocity S-wave (km/s) = 3.54397 3.81618 3.68259
# Velocity P-wave (km/s) = 6.74457 7.82272 7.30357
#
# Compressibility (1/GPa) = 0.02329685
#
# Stress axis : x y z
#
# Youngs Moduli (GPa) = 56.98066 37.78490 70.48040
#
# Poissons Ratio (x) = 0.27344 0.33811
# Poissons Ratio (y) = 0.41236 0.38197
# Poissons Ratio (z) = 0.27335 0.20477
#
# Static dielectric constant tensor:
#      x y z
#    x 1.502700 0.000000 -0.013160 
#    y 0.000000 1.500520 0.000000 
#    z -0.013160 0.000000 1.481070 
# 
# From -- ./inp_files/326924.got.cif
#   From: 2010.05.17/outbox.cif.g08.bks.cpg/sg12_164_cif.got.tgz:326924.got - 2010.06.03 13:09:07.
