data_PCOD9171553
_publ_section_title
;
Structure prediction by ZEFSAII (Michael W. Deem and Ramdas Pophale) SiO2 
 PCOD9171553
Probable space group: C 2/M
;
_chemical_formula_sum "Si O2"
_cell_formula_units_Z 52
_cell_length_a 17.971604
_cell_length_b 7.755927
_cell_length_c 17.650141
_cell_angle_alpha 90.000000
_cell_angle_beta 124.244279
_cell_angle_gamma 90.000000
_cell_volume 2033.706469
_symmetry_space_group_name_H-M "C 2/M"
_symmetry_group_IT_number 12
_symmetry_cell_setting 'monoclinic'
loop_
_space_group_symop_operation_xyz
x,y,z
-x,y,-z
-x,-y,-z
x,-y,z
1/2+x,1/2+y,z
1/2-x,1/2+y,-z
1/2-x,1/2-y,-z
1/2+x,1/2-y,z
loop_
_atom_site_type_symbol
_atom_site_label
_atom_site_fract_x
_atom_site_fract_y
_atom_site_fract_z
Si Si1 0.233782 0.296191 0.078740
Si Si2 0.423163 0.807054 0.227897
Si Si3 0.542497 0.796666 0.932644
Si Si4 0.102223 0.701616 0.544492
Si Si5 0.213857 0.310118 0.287149
Si Si6 0.387440 0.303555 0.619783
Si Si7 0.890758 0.000000 0.848399
O O1 0.232057 0.500000 0.083325
O O2 0.317974 0.234156 0.175965
O O3 0.250000 0.250000 0.000000
O O4 0.131663 0.234555 0.029422
O O5 0.436326 0.798687 0.144850
O O6 0.504158 0.696132 0.307090
O O7 0.440322 0.000000 0.265508
O O8 0.468234 0.652873 0.899147
O O9 0.523577 0.000000 0.938496
O O10 0.104015 0.500000 0.565699
O O11 0.180175 0.796166 0.635158
O O12 0.127869 0.722175 0.470790
O O13 0.000000 0.764779 0.500000
O O14 0.192440 0.500000 0.243148
O O15 0.159306 0.290090 0.335998
O O16 0.181596 0.151895 0.218664
O O17 0.354350 0.500000 0.601915
#
# Coordination Sequence:
#
# PCOD9171553 Si02
#       7
#     8   8   8   8   8   8   4
#     4   9  17  25  38  62 100 148 185 222 277 338
#     4  10  18  28  44  70 104 145 190 228 280 335
#     4   9  18  29  43  70 109 150 188 230 282 343
#     4  11  25  45  64  85 116 150 190 240 294 351
#     4  12  23  39  61  88 118 151 197 242 290 346
#     4  12  22  37  59  86 118 153 195 242 288 343
#     4  12  20  32  55  78 111 153 194 235 295 329
#
# _framework density 25.569078999999999
#
# number of rings (size 3 to 8) (size 9 to 14) (size 15 to 20)
#    0.000    1.385    3.077    4.615    5.385    1.231 
#    0.000    0.000    0.000    0.000    0.000    0.000 
#    0.000    2.462    0.000    6.615    0.923    0.000 
#
# Total GULP energy -145101.777835 kJ/mol
# GULP energy per Si atom -5580.837609 kJ/mol
# Density = 2.551088 g / cm^3
# Si number density = 25.569079 Si / 1000 Ang^3
#
#
#
# Elastic Constant Matrix: (Units=GPa)
#
#
# Indices 1 2 3 4 5 6 
#
# 1 105.3938 55.7106 50.3550 0.0000 15.1151 0.0000
# 2 55.7106 118.0213 30.6967 0.0000 34.1358 0.0000
# 3 50.3550 30.6967 131.0684 0.0000 35.6999 0.0000
# 4 0.0000 0.0000 0.0000 50.8127 0.0000 4.4584
# 5 15.1151 34.1358 35.6999 0.0000 52.7198 0.0000
# 6 0.0000 0.0000 0.0000 4.4584 0.0000 22.4400
#
#
#
# Elastic Compliance Matrix: (Units=1/GPa)
#
#
# Indices 1 2 3 4 5 6 
#
# 1 0.015027 -0.006787 -0.005159 0.000000 0.003579 0.000000
# 2 -0.006787 0.013550 0.001586 0.000000 -0.007902 0.000000
# 3 -0.005159 0.001586 0.011179 0.000000 -0.007118 0.000000
# 4 0.000000 0.000000 0.000000 0.020029 0.000000 -0.003979
# 5 0.003579 -0.007902 -0.007118 0.000000 0.027878 0.000000
# 6 0.000000 0.000000 0.000000 -0.003979 0.000000 0.045354
#
#
# Mechanical properties :
#
#
# Convention : Reuss Voigt Hill
#
# Bulk Modulus (GPa) = 52.52962 69.77867 61.15414
# Shear Modulus (GPa) = 31.23415 39.70922 35.47168
#
# Velocity S-wave (km/s) = 3.49887 3.94511 3.72867
# Velocity P-wave (km/s) = 6.07549 6.93551 6.51970
#
# Compressibility (1/GPa) = 0.01903688
#
# Stress axis : x y z
#
# Youngs Moduli (GPa) = 66.54636 73.80314 89.45544
#
# Poissons Ratio (x) = 0.50090 0.46147
# Poissons Ratio (y) = 0.45164 -0.14190
# Poissons Ratio (z) = 0.34329 -0.11707
#
# Static dielectric constant tensor:
#      x y z
#    x 2.073750 0.000000 -0.010810 
#    y 0.000000 1.945500 0.000000 
#    z -0.010810 0.000000 2.006310 
# 
# From -- ./inp_files/346350.got.cif
#   From: 2010.05.17/outbox.cif.g08.bks.cpg/sg12_174_cif.got.tgz:346350.got - 2010.06.03 13:09:07.
