data_PCOD9171664
_publ_section_title
;
Structure prediction by ZEFSAII (Michael W. Deem and Ramdas Pophale) SiO2 
 PCOD9171664
Probable space group: C 2/M
;
_chemical_formula_sum "Si O2"
_cell_formula_units_Z 64
_cell_length_a 29.340042
_cell_length_b 8.568459
_cell_length_c 16.199033
_cell_angle_alpha 90.000000
_cell_angle_beta 90.033430
_cell_angle_gamma 90.000000
_cell_volume 4072.419144
_symmetry_space_group_name_H-M "C 2/M"
_symmetry_group_IT_number 12
_symmetry_cell_setting 'monoclinic'
loop_
_space_group_symop_operation_xyz
x,y,z
-x,y,-z
-x,-y,-z
x,-y,z
1/2+x,1/2+y,z
1/2-x,1/2+y,-z
1/2-x,1/2-y,-z
1/2+x,1/2-y,z
loop_
_atom_site_type_symbol
_atom_site_label
_atom_site_fract_x
_atom_site_fract_y
_atom_site_fract_z
Si Si1 0.606551 0.815020 0.163156
Si Si2 0.698872 0.186732 0.909595
Si Si3 0.051571 0.808972 0.681092
Si Si4 0.108533 0.188726 0.840282
Si Si5 0.697624 0.313662 0.094648
Si Si6 0.444616 0.680674 0.498957
Si Si7 0.054223 0.810658 0.320498
Si Si8 0.947137 0.188716 0.995873
O O1 0.658541 0.762566 0.149231
O O2 0.585259 0.747491 0.246676
O O3 0.577861 0.752333 0.084900
O O4 0.603783 0.000000 0.164339
O O5 0.659102 0.245118 0.850256
O O6 0.750325 0.229716 0.883332
O O7 0.697000 0.000000 0.917980
O O8 0.690721 0.261088 0.999770
O O9 0.082711 0.760258 0.757371
O O10 0.067598 0.751639 0.590612
O O11 0.998669 0.764276 0.693794
O O12 0.051907 0.000000 0.678435
O O13 0.110470 0.000000 0.840196
O O14 0.079540 0.236284 0.921177
O O15 0.693036 0.500000 0.098735
O O16 0.500000 0.678619 0.500000
O O17 0.429358 0.500000 0.498578
O O18 0.431220 0.747562 0.588033
O O19 0.054896 0.000000 0.322273
O O20 0.946035 0.000000 0.991717
O O21 0.000000 0.236956 0.000000
#
# Coordination Sequence:
#
# PCOD9171664 Si02
#       8
#     8   8   8   8   8   8   8   8
#     4  12  23  32  45  68  96 125 156 195 236 275
#     4  10  20  33  50  70  91 115 149 197 242 280
#     4   8  14  26  46  73  97 122 159 195 226 268
#     4  10  18  28  46  69  95 127 156 187 227 276
#     4  10  20  35  52  67  86 117 156 195 238 283
#     4   7  11  22  44  71  93 115 154 202 233 258
#     4   9  16  29  49  69  93 127 162 196 230 269
#     4  10  20  33  47  64  91 130 167 190 216 265
#
# _framework density 15.715475
#
# number of rings (size 3 to 8) (size 9 to 14) (size 15 to 20)
#    0.000    2.500    1.250    4.125    0.000    3.750 
#    0.000    1.875    0.000    4.125    0.000    0.875 
#    0.000    0.000    0.000    0.000    0.000    0.000 
#
# Total GULP energy -178355.177714 kJ/mol
# GULP energy per Si atom -5573.599304 kJ/mol
# Density = 1.567971 g / cm^3
# Si number density = 15.715475 Si / 1000 Ang^3
#
#
#
# Elastic Constant Matrix: (Units=GPa)
#
#
# Indices 1 2 3 4 5 6 
#
# 1 103.7942 19.8291 72.9397 0.0000 -1.5117 0.0000
# 2 19.8291 15.3893 21.9505 0.0000 -1.2727 0.0000
# 3 72.9397 21.9505 144.5990 0.0000 -10.9459 0.0000
# 4 0.0000 0.0000 0.0000 1.5080 0.0000 1.2696
# 5 -1.5117 -1.2727 -10.9459 0.0000 10.2710 0.0000
# 6 0.0000 0.0000 0.0000 1.2696 0.0000 19.7398
#
#
#
# Elastic Compliance Matrix: (Units=1/GPa)
#
#
# Indices 1 2 3 4 5 6 
#
# 1 0.016901 -0.012059 -0.007200 0.000000 -0.006680 0.000000
# 2 -0.012059 0.091653 -0.007728 0.000000 0.001346 0.000000
# 3 -0.007200 -0.007728 0.012583 0.000000 0.011393 0.000000
# 4 0.000000 0.000000 0.000000 0.701112 0.000000 -0.045094
# 5 -0.006680 0.001346 0.011393 0.000000 0.108687 0.000000
# 6 0.000000 0.000000 0.000000 -0.045094 0.000000 0.053560
#
#
# Mechanical properties :
#
#
# Convention : Reuss Voigt Hill
#
# Bulk Modulus (GPa) = 14.88941 54.80234 34.84587
# Shear Modulus (GPa) = 4.71316 16.24128 10.47722
#
# Velocity S-wave (km/s) = 1.73366 3.21823 2.58482
# Velocity P-wave (km/s) = 3.67455 6.98259 5.57938
#
# Compressibility (1/GPa) = 0.06716185
#
# Stress axis : x y z
#
# Youngs Moduli (GPa) = 59.16853 10.91068 79.47009
#
# Poissons Ratio (x) = 0.13157 0.57221
# Poissons Ratio (y) = 0.71352 0.61418
# Poissons Ratio (z) = 0.42603 0.08432
#
# Static dielectric constant tensor:
#      x y z
#    x 1.514960 0.000000 0.000180 
#    y 0.000000 1.533590 0.000000 
#    z 0.000180 0.000000 1.533300 
# 
# From -- ./inp_files/248455.got.cif
#   From: 2010.05.17/outbox.cif.g08.bks.cpg/sg12_125_cif.got.tgz:248455.got - 2010.06.03 13:09:07.
