data_PCOD9171230
_publ_section_title
;
Structure prediction by ZEFSAII (Michael W. Deem and Ramdas Pophale) SiO2 
 PCOD9171230
Probable space group: C 2/M
;
_chemical_formula_sum "Si O2"
_cell_formula_units_Z 56
_cell_length_a 22.861543
_cell_length_b 7.811300
_cell_length_c 22.407197
_cell_angle_alpha 90.000000
_cell_angle_beta 50.195074
_cell_angle_gamma 90.000000
_cell_volume 3074.020763
_symmetry_space_group_name_H-M "C 2/M"
_symmetry_group_IT_number 12
_symmetry_cell_setting 'monoclinic'
loop_
_space_group_symop_operation_xyz
x,y,z
-x,y,-z
-x,-y,-z
x,-y,z
1/2+x,1/2+y,z
1/2-x,1/2+y,-z
1/2-x,1/2-y,-z
1/2+x,1/2-y,z
loop_
_atom_site_type_symbol
_atom_site_label
_atom_site_fract_x
_atom_site_fract_y
_atom_site_fract_z
Si Si1 0.244251 0.199881 0.904683
Si Si2 0.364714 0.709400 0.928610
Si Si3 0.651252 0.799831 0.606380
Si Si4 0.006538 0.796552 0.239055
Si Si5 0.577701 0.199574 0.422839
Si Si6 0.186870 0.801069 0.454575
Si Si7 0.371138 0.208008 0.738852
O O1 0.306464 0.217814 0.917208
O O2 0.290322 0.273249 0.818222
O O3 0.230294 0.000000 0.901399
O O4 0.167218 0.267453 0.986201
O O5 0.359789 0.500000 0.929451
O O6 0.447878 0.759092 0.850302
O O7 0.575690 0.780100 0.694313
O O8 0.727801 0.733750 0.588416
O O9 0.644145 0.714580 0.546100
O O10 0.664540 0.000000 0.585611
O O11 0.062434 0.754691 0.257920
O O12 0.997334 0.000000 0.242207
O O13 0.500000 0.277720 0.500000
O O14 0.641135 0.209891 0.432405
O O15 0.607284 0.272169 0.340845
O O16 0.560727 0.000000 0.420922
O O17 0.191909 0.000000 0.434600
O O18 0.366266 0.000000 0.741219
#
# Coordination Sequence:
#
# PCOD9171230 Si02
#       7
#     8   8   8   8   8   8   8
#     4   8  13  23  38  56  83 118 151 180 213 258
#     4   8  14  23  36  58  87 115 144 181 220 256
#     4  10  20  34  50  67  89 115 144 181 222 264
#     4  10  18  27  43  68  94 119 148 183 223 263
#     4  10  20  32  46  66  93 122 149 179 216 259
#     4  10  21  35  51  69  87 113 148 183 220 259
#     4   9  17  28  43  64  91 125 157 182 217 264
#
# _framework density 18.217182999999999
#
# number of rings (size 3 to 8) (size 9 to 14) (size 15 to 20)
#    0.000    2.714    0.000    2.143    0.000    4.286 
#    0.000    0.000    0.000    0.000    0.000    1.000 
#    0.000    8.000    0.000    0.000    0.000    0.000 
#
# Total GULP energy -155918.351226 kJ/mol
# GULP energy per Si atom -5568.512544 kJ/mol
# Density = 1.817572 g / cm^3
# Si number density = 18.217183 Si / 1000 Ang^3
#
#
#
# Elastic Constant Matrix: (Units=GPa)
#
#
# Indices 1 2 3 4 5 6 
#
# 1 39.3742 -3.7328 45.1884 -0.0001 1.1101 -0.0002
# 2 -3.7328 24.5279 1.5680 0.0029 1.2274 -0.0028
# 3 45.1884 1.5680 185.6217 0.0007 -3.6301 -0.0006
# 4 -0.0001 0.0029 0.0007 38.1983 -0.0001 -20.4951
# 5 1.1101 1.2274 -3.6301 -0.0001 20.7863 0.0003
# 6 -0.0002 -0.0028 -0.0006 -20.4951 0.0003 25.6126
#
#
#
# Elastic Compliance Matrix: (Units=1/GPa)
#
#
# Indices 1 2 3 4 5 6 
#
# 1 0.036433 0.006315 -0.008999 0.000000 -0.003890 0.000001
# 2 0.006315 0.042014 -0.001954 -0.000001 -0.003159 0.000004
# 3 -0.008999 -0.001954 0.007632 0.000000 0.001929 0.000000
# 4 0.000000 -0.000001 0.000000 0.045875 0.000000 0.036709
# 5 -0.003890 -0.003159 0.001929 0.000000 0.048840 -0.000001
# 6 0.000001 0.000004 0.000000 0.036709 -0.000001 0.068418
#
#
# Mechanical properties :
#
#
# Convention : Reuss Voigt Hill
#
# Bulk Modulus (GPa) = 13.02034 37.28568 25.15301
# Shear Modulus (GPa) = 17.60008 30.68612 24.14310
#
# Velocity S-wave (km/s) = 3.11163 4.10867 3.64441
# Velocity P-wave (km/s) = 4.48023 6.55896 5.61660
#
# Compressibility (1/GPa) = 0.07680293
#
# Stress axis : x y z
#
# Youngs Moduli (GPa) = 27.44738 23.80168 131.02299
#
# Poissons Ratio (x) = -0.15030 1.17906
# Poissons Ratio (y) = -0.17332 0.25601
# Poissons Ratio (z) = 0.24700 0.04651
#
# Static dielectric constant tensor:
#      x y z
#    x 1.579210 0.000000 -0.016590 
#    y 0.000000 1.684820 0.000000 
#    z -0.016590 0.000000 1.708760 
# 
# From -- ./inp_files/323804.got.cif
#   From: 2010.05.17/outbox.cif.g08.bks.cpg/sg12_162_cif.got.tgz:323804.got - 2010.06.03 13:09:07.
