data_PCOD9171362
_publ_section_title
;
Structure prediction by ZEFSAII (Michael W. Deem and Ramdas Pophale) SiO2 
 PCOD9171362
Probable space group: C 2/M
;
_chemical_formula_sum "Si O2"
_cell_formula_units_Z 56
_cell_length_a 30.435718
_cell_length_b 7.665733
_cell_length_c 14.063118
_cell_angle_alpha 90.000000
_cell_angle_beta 102.825557
_cell_angle_gamma 90.000000
_cell_volume 3199.233518
_symmetry_space_group_name_H-M "C 2/M"
_symmetry_group_IT_number 12
_symmetry_cell_setting 'monoclinic'
loop_
_space_group_symop_operation_xyz
x,y,z
-x,y,-z
-x,-y,-z
x,-y,z
1/2+x,1/2+y,z
1/2-x,1/2+y,-z
1/2-x,1/2-y,-z
1/2+x,1/2-y,z
loop_
_atom_site_type_symbol
_atom_site_label
_atom_site_fract_x
_atom_site_fract_y
_atom_site_fract_z
Si Si1 0.552253 0.790620 0.917147
Si Si2 0.891802 0.706363 0.877183
Si Si3 0.606236 0.707563 0.751940
Si Si4 0.963432 0.202885 0.768802
Si Si5 0.198818 0.211746 0.868483
Si Si6 0.517551 0.285697 0.611332
Si Si7 0.700821 0.791899 0.091689
O O1 0.583828 0.738987 0.844124
O O2 0.502693 0.725700 0.866429
O O3 0.548860 0.000000 0.920711
O O4 0.575523 0.722861 0.023974
O O5 0.888396 0.500000 0.893972
O O6 0.917255 0.726648 0.789959
O O7 0.841367 0.777271 0.867947
O O8 0.609489 0.500000 0.737974
O O9 0.657115 0.776058 0.784714
O O10 0.568481 0.773553 0.660272
O O11 0.984913 0.275074 0.681526
O O12 0.956147 0.000000 0.748999
O O13 0.248734 0.276745 0.865256
O O14 0.198944 0.000000 0.865349
O O15 0.191130 0.261135 0.975184
O O16 0.500000 0.232498 0.500000
O O17 0.517862 0.500000 0.614279
O O18 0.703506 0.000000 0.107714
#
# Coordination Sequence:
#
# PCOD9171362 Si02
#       7
#     8   8   8   8   8   8   8
#     4  10  18  28  41  58  84 117 145 166 197 246
#     4  10  19  29  40  57  84 118 146 165 196 246
#     4   9  16  26  43  66  86 108 140 177 212 241
#     4  10  20  30  43  62  81 105 140 177 211 246
#     4   9  16  26  41  61  85 110 142 180 206 232
#     4   8  15  29  46  63  83 104 130 171 220 261
#     4   9  17  28  40  57  84 118 147 168 199 242
#
# _framework density 17.504192
#
# number of rings (size 3 to 8) (size 9 to 14) (size 15 to 20)
#    0.000    2.714    1.429    2.143    0.000    3.429 
#    0.000    0.000    0.000   10.714    0.000    1.000 
#    0.000    0.000    0.000    0.000    0.000    0.000 
#
# Total GULP energy -155982.639421 kJ/mol
# GULP energy per Si atom -5570.808551 kJ/mol
# Density = 1.746435 g / cm^3
# Si number density = 17.504192 Si / 1000 Ang^3
#
#
#
# Elastic Constant Matrix: (Units=GPa)
#
#
# Indices 1 2 3 4 5 6 
#
# 1 176.7336 -1.3009 69.3797 0.0000 8.5656 0.0000
# 2 -1.3009 19.6710 -2.8781 0.0000 0.6712 0.0000
# 3 69.3797 -2.8781 84.1310 0.0000 15.7597 0.0000
# 4 0.0000 0.0000 0.0000 15.1270 0.0000 -5.9900
# 5 8.5656 0.6712 15.7597 0.0000 19.1510 0.0000
# 6 0.0000 0.0000 0.0000 -5.9900 0.0000 15.2069
#
#
#
# Elastic Compliance Matrix: (Units=1/GPa)
#
#
# Indices 1 2 3 4 5 6 
#
# 1 0.008460 -0.000609 -0.007439 0.000000 0.002360 0.000000
# 2 -0.000609 0.051373 0.003010 0.000000 -0.004005 0.000000
# 3 -0.007439 0.003010 0.020714 0.000000 -0.013824 0.000000
# 4 0.000000 0.000000 0.000000 0.078324 0.000000 0.030852
# 5 0.002360 -0.004005 -0.013824 0.000000 0.062677 0.000000
# 6 0.000000 0.000000 0.000000 0.030852 0.000000 0.077912
#
#
# Mechanical properties :
#
#
# Convention : Reuss Voigt Hill
#
# Bulk Modulus (GPa) = 14.19052 45.65967 29.92509
# Shear Modulus (GPa) = 15.01382 24.25263 19.63323
#
# Velocity S-wave (km/s) = 2.93187 3.72631 3.35271
# Velocity P-wave (km/s) = 4.42557 6.68248 5.66750
#
# Compressibility (1/GPa) = 0.07046959
#
# Stress axis : x y z
#
# Youngs Moduli (GPa) = 118.20569 19.46544 48.27731
#
# Poissons Ratio (x) = 0.01186 0.35915
# Poissons Ratio (y) = 0.07204 -0.14533
# Poissons Ratio (z) = 0.87937 -0.05860
#
# Static dielectric constant tensor:
#      x y z
#    x 1.651070 0.000000 0.012940 
#    y 0.000000 1.632580 0.000000 
#    z 0.012940 0.000000 1.568430 
# 
# From -- ./inp_files/247777.got.cif
#   From: 2010.05.17/outbox.cif.g08.bks.cpg/sg12_124_cif.got.tgz:247777.got - 2010.06.03 13:09:07.
