data_PCOD9171293
_publ_section_title
;
Structure prediction by ZEFSAII (Michael W. Deem and Ramdas Pophale) SiO2 
 PCOD9171293
Probable space group: C 2/M
;
_chemical_formula_sum "Si O2"
_cell_formula_units_Z 64
_cell_length_a 19.904088
_cell_length_b 7.613159
_cell_length_c 19.052990
_cell_angle_alpha 90.000000
_cell_angle_beta 86.684266
_cell_angle_gamma 90.000000
_cell_volume 2882.323297
_symmetry_space_group_name_H-M "C 2/M"
_symmetry_group_IT_number 12
_symmetry_cell_setting 'monoclinic'
loop_
_space_group_symop_operation_xyz
x,y,z
-x,y,-z
-x,-y,-z
x,-y,z
1/2+x,1/2+y,z
1/2-x,1/2+y,-z
1/2-x,1/2-y,-z
1/2+x,1/2-y,z
loop_
_atom_site_type_symbol
_atom_site_label
_atom_site_fract_x
_atom_site_fract_y
_atom_site_fract_z
Si Si1 0.089005 0.713074 0.684656
Si Si2 0.234972 0.207609 0.742434
Si Si3 0.884989 0.791639 0.917907
Si Si4 0.498817 0.210795 0.814040
Si Si5 0.214196 0.285281 0.405466
Si Si6 0.406346 0.208037 0.066852
Si Si7 0.259365 0.798803 0.100316
Si Si8 0.640238 0.797021 0.539028
O O1 0.087193 0.500000 0.680692
O O2 0.158845 0.760296 0.719585
O O3 0.028326 0.774255 0.738180
O O4 0.094238 0.779919 0.603986
O O5 0.284386 0.263200 0.676216
O O6 0.245725 0.299973 0.815235
O O7 0.243356 0.000000 0.753209
O O8 0.809469 0.716259 0.923319
O O9 0.923817 0.749396 0.844018
O O10 0.880963 0.000000 0.922846
O O11 0.924732 0.728352 0.984297
O O12 0.545736 0.279848 0.875180
O O13 0.504559 0.000000 0.811640
O O14 0.217961 0.500000 0.409019
O O15 0.284482 0.212762 0.432184
O O16 0.153856 0.225007 0.460037
O O17 0.331078 0.284938 0.078487
O O18 0.402125 0.000000 0.081367
O O19 0.261335 0.000000 0.074745
O O20 0.620175 0.000000 0.531279
#
# Coordination Sequence:
#
# PCOD9171293 Si02
#       8
#     8   8   8   8   8   8   8   8
#     4   9  16  29  48  69  95 132 169 197 233 287
#     4  10  18  27  45  72 100 128 160 202 245 284
#     4  11  24  37  52  75 101 126 159 206 249 289
#     4  10  20  35  54  74  99 132 165 198 240 290
#     4   8  14  23  35  61  97 125 152 193 241 279
#     4  10  20  37  58  74  94 127 163 200 243 294
#     4  10  21  38  54  71  98 131 165 200 242 293
#     4   8  13  22  39  61  90 127 161 191 229 281
#
# _framework density 22.204308999999999
#
# number of rings (size 3 to 8) (size 9 to 14) (size 15 to 20)
#    0.000    2.500    1.250    1.500    0.000    4.500 
#    0.000    0.000    0.000    0.000    0.000    0.875 
#    0.000    7.000    0.000    0.000    0.000    0.000 
#
# Total GULP energy -178439.872365 kJ/mol
# GULP energy per Si atom -5576.246011 kJ/mol
# Density = 2.215377 g / cm^3
# Si number density = 22.204309 Si / 1000 Ang^3
#
#
#
# Elastic Constant Matrix: (Units=GPa)
#
#
# Indices 1 2 3 4 5 6 
#
# 1 39.4123 3.0110 2.6823 0.0000 -16.8259 0.0000
# 2 3.0110 56.0956 2.8824 0.0000 -5.5747 0.0000
# 3 2.6823 2.8824 103.8263 0.0000 -21.9267 0.0000
# 4 0.0000 0.0000 0.0000 13.9372 0.0000 -2.9778
# 5 -16.8259 -5.5747 -21.9267 0.0000 17.2929 0.0000
# 6 0.0000 0.0000 0.0000 -2.9778 0.0000 8.5183
#
#
#
# Elastic Compliance Matrix: (Units=1/GPa)
#
#
# Indices 1 2 3 4 5 6 
#
# 1 0.054808 0.003487 0.013639 0.000000 0.071745 0.000000
# 2 0.003487 0.018717 0.001886 0.000000 0.011818 0.000000
# 3 0.013639 0.001886 0.016604 0.000000 0.034931 0.000000
# 4 0.000000 0.000000 0.000000 0.077542 0.000000 0.027107
# 5 0.071745 0.011818 0.034931 0.000000 0.175736 0.000000
# 6 0.000000 0.000000 0.000000 0.027107 0.000000 0.126871
#
#
# Mechanical properties :
#
#
# Convention : Reuss Voigt Hill
#
# Bulk Modulus (GPa) = 7.80319 24.05396 15.92857
# Shear Modulus (GPa) = 10.52697 20.66691 15.59694
#
# Velocity S-wave (km/s) = 2.17974 3.05415 2.65321
# Velocity P-wave (km/s) = 3.13957 4.82635 4.07127
#
# Compressibility (1/GPa) = 0.12815275
#
# Stress axis : x y z
#
# Youngs Moduli (GPa) = 18.24567 53.42710 60.22722
#
# Poissons Ratio (x) = -0.18631 -0.82143
# Poissons Ratio (y) = -0.06363 -0.11360
# Poissons Ratio (z) = -0.24885 -0.10077
#
# Static dielectric constant tensor:
#      x y z
#    x 1.822640 0.000000 -0.042480 
#    y 0.000000 1.775440 0.000000 
#    z -0.042480 0.000000 1.871970 
# 
# From -- ./inp_files/319139.got.cif
#   From: 2010.05.17/outbox.cif.g08.bks.cpg/sg12_160_cif.got.tgz:319139.got - 2010.06.03 13:09:07.
