data_PCOD9171842
_publ_section_title
;
Structure prediction by ZEFSAII (Michael W. Deem and Ramdas Pophale) SiO2 
 PCOD9171842
Probable space group: C 2/M
;
_chemical_formula_sum "Si O2"
_cell_formula_units_Z 36
_cell_length_a 14.325028
_cell_length_b 18.767395
_cell_length_c 14.074814
_cell_angle_alpha 90.000000
_cell_angle_beta 30.305991
_cell_angle_gamma 90.000000
_cell_volume 1909.434611
_symmetry_space_group_name_H-M "C 2/M"
_symmetry_group_IT_number 12
_symmetry_cell_setting 'monoclinic'
loop_
_space_group_symop_operation_xyz
x,y,z
-x,y,-z
-x,-y,-z
x,-y,z
1/2+x,1/2+y,z
1/2-x,1/2+y,-z
1/2-x,1/2-y,-z
1/2+x,1/2-y,z
loop_
_atom_site_type_symbol
_atom_site_label
_atom_site_fract_x
_atom_site_fract_y
_atom_site_fract_z
Si Si1 0.181519 0.289462 0.907637
Si Si2 0.282518 0.812952 0.547382
Si Si3 0.500154 0.420171 0.887093
Si Si4 0.500000 0.717918 0.500000
Si Si5 0.350828 0.147257 0.858330
O O1 0.360524 0.321405 0.694462
O O2 0.257841 0.214159 0.882411
O O3 0.135070 0.333092 0.043445
O O4 0.000000 0.283560 0.000000
O O5 0.250000 0.750000 0.500000
O O6 0.112536 0.860924 0.729464
O O7 0.360244 0.769884 0.568270
O O8 0.446442 0.861465 0.362537
O O9 0.576126 0.500000 0.807547
O O10 0.500000 0.404503 0.000000
O O11 0.290068 0.415827 0.036327
#
# Coordination Sequence:
#
# PCOD9171842 Si02
#       5
#     8   8   8   4   8
#     4  10  18  30  51  79 109 138 176 229 283 328
#     4  11  21  34  55  83 112 145 187 234 282 330
#     4  11  23  38  56  80 115 154 187 226 282 346
#     4  10  18  28  49  78 109 138 174 222 276 332
#     4  10  20  33  51  77 110 143 181 228 277 333
#
# _framework density 18.853748
#
# number of rings (size 3 to 8) (size 9 to 14) (size 15 to 20)
#    0.000    1.556    0.000   10.000    0.000    0.889 
#    0.000    2.778    0.000    0.667    0.000   20.222 
#    0.000    0.889    0.000    0.000    0.000    0.000 
#
# Total GULP energy -100413.553453 kJ/mol
# GULP energy per Si atom -5578.530747 kJ/mol
# Density = 1.881084 g / cm^3
# Si number density = 18.853748 Si / 1000 Ang^3
#
#
#
# Elastic Constant Matrix: (Units=GPa)
#
#
# Indices 1 2 3 4 5 6 
#
# 1 109.9803 24.0134 25.1845 -0.0047 4.1088 0.0000
# 2 24.0134 57.9278 27.6040 -0.0116 2.8390 0.0022
# 3 25.1845 27.6040 145.8812 -0.0116 1.2702 0.0014
# 4 -0.0047 -0.0116 -0.0116 18.4900 0.0059 -0.3542
# 5 4.1088 2.8390 1.2702 0.0059 29.5136 0.0017
# 6 0.0000 0.0022 0.0014 -0.3542 0.0017 10.2473
#
#
#
# Elastic Compliance Matrix: (Units=1/GPa)
#
#
# Indices 1 2 3 4 5 6 
#
# 1 0.010172 -0.003665 -0.001054 0.000000 -0.001018 0.000001
# 2 -0.003665 0.020377 -0.003212 0.000010 -0.001312 -0.000003
# 3 -0.001054 -0.003212 0.007643 0.000002 0.000127 0.000000
# 4 0.000000 0.000010 0.000002 0.054119 -0.000012 0.001871
# 5 -0.001018 -0.001312 0.000127 -0.000012 0.034145 -0.000006
# 6 0.000001 -0.000003 0.000000 0.001871 -0.000006 0.097651
#
#
# Mechanical properties :
#
#
# Convention : Reuss Voigt Hill
#
# Bulk Modulus (GPa) = 44.77877 51.93256 48.35566
# Shear Modulus (GPa) = 20.20922 27.44933 23.82927
#
# Velocity S-wave (km/s) = 3.27753 3.81978 3.55900
# Velocity P-wave (km/s) = 6.17455 6.85996 6.52626
#
# Compressibility (1/GPa) = 0.02233201
#
# Stress axis : x y z
#
# Youngs Moduli (GPa) = 98.30869 49.07558 130.83142
#
# Poissons Ratio (x) = 0.17985 0.13787
# Poissons Ratio (y) = 0.36027 0.42019
# Poissons Ratio (z) = 0.10359 0.15761
#
# Static dielectric constant tensor:
#      x y z
#    x 1.681380 0.000000 0.035050 
#    y 0.000000 1.651210 0.000000 
#    z 0.035050 0.000000 1.743390 
# 
# From -- ./inp_files/217113.got.cif
#   From: 2010.05.17/outbox.cif.g08.bks.cpg/sg12_109_cif.got.tgz:217113.got - 2010.06.03 13:09:07.
