data_PCOD9171866
_publ_section_title
;
Structure prediction by ZEFSAII (Michael W. Deem and Ramdas Pophale) SiO2 
 PCOD9171866
Probable space group: C 2/M
;
_chemical_formula_sum "Si O2"
_cell_formula_units_Z 56
_cell_length_a 19.478237
_cell_length_b 17.825913
_cell_length_c 18.009513
_cell_angle_alpha 90.000000
_cell_angle_beta 151.009775
_cell_angle_gamma 90.000000
_cell_volume 3030.685925
_symmetry_space_group_name_H-M "C 2/M"
_symmetry_group_IT_number 12
_symmetry_cell_setting 'monoclinic'
loop_
_space_group_symop_operation_xyz
x,y,z
-x,y,-z
-x,-y,-z
x,-y,z
1/2+x,1/2+y,z
1/2-x,1/2+y,-z
1/2-x,1/2-y,-z
1/2+x,1/2-y,z
loop_
_atom_site_type_symbol
_atom_site_label
_atom_site_fract_x
_atom_site_fract_y
_atom_site_fract_z
Si Si1 0.805510 0.416530 0.528591
Si Si2 0.993094 0.130335 0.258314
Si Si3 0.927411 0.196327 0.355570
Si Si4 0.491274 0.200086 0.204432
Si Si5 0.251214 0.870403 0.077778
Si Si6 0.385867 0.242193 0.954447
Si Si7 0.998470 0.626367 0.584929
O O1 0.857348 0.500000 0.595740
O O2 0.639051 0.412396 0.384668
O O3 0.884617 0.354197 0.652249
O O4 0.856130 0.397494 0.492670
O O5 0.955086 0.146365 0.308577
O O6 0.021801 0.213855 0.252646
O O7 0.864679 0.095528 0.087969
O O8 0.759588 0.204833 0.209932
O O9 0.983759 0.282279 0.394350
O O10 0.000000 0.169300 0.500000
O O11 0.350147 0.178741 0.116610
O O12 0.457405 0.192836 0.086194
O O13 0.164399 0.817833 0.051906
O O14 0.370087 0.907869 0.243102
O O15 0.500000 0.257284 0.000000
O O16 0.000000 0.605902 0.500000
#
# Coordination Sequence:
#
# PCOD9171866 Si02
#       7
#     8   8   8   8   8   8   8
#     4  11  24  36  52  81 110 146 191 225 262 318
#     4  11  18  34  58  79 112 142 181 227 270 314
#     4  10  19  30  52  89 116 136 172 225 278 329
#     4  10  18  36  57  76 104 146 182 221 272 322
#     4   9  17  33  54  80 113 139 174 221 268 330
#     4  10  18  28  50  86 113 131 172 227 282 321
#     4   9  19  35  56  80 114 142 179 216 275 323
#
# _framework density 18.477664999999998
#
# number of rings (size 3 to 8) (size 9 to 14) (size 15 to 20)
#    0.000    2.000    5.714    1.286    2.000    6.000 
#    0.000    2.857    0.000    1.714    0.000    0.000 
#    0.000    0.000    0.000    0.000    0.000    0.000 
#
# Total GULP energy -156009.089016 kJ/mol
# GULP energy per Si atom -5571.753179 kJ/mol
# Density = 1.843561 g / cm^3
# Si number density = 18.477665 Si / 1000 Ang^3
#
#
#
# Elastic Constant Matrix: (Units=GPa)
#
#
# Indices 1 2 3 4 5 6 
#
# 1 117.7913 6.2411 61.8085 0.0007 1.4413 0.0003
# 2 6.2411 39.0412 10.8633 0.0008 2.5045 0.0006
# 3 61.8085 10.8633 98.5755 0.0012 -8.6689 0.0010
# 4 0.0007 0.0008 0.0012 -5.3627 0.0005 2.1981
# 5 1.4413 2.5045 -8.6689 0.0005 38.4458 0.0004
# 6 0.0003 0.0006 0.0010 2.1981 0.0004 0.9980
#
#
#
# Elastic Compliance Matrix: (Units=1/GPa)
#
#
# Indices 1 2 3 4 5 6 
#
# 1 0.012863 0.000412 -0.008320 0.000001 -0.002385 0.000003
# 2 0.000412 0.026661 -0.003418 -0.000001 -0.002523 -0.000010
# 3 -0.008320 -0.003418 0.016105 -0.000002 0.004166 -0.000010
# 4 0.000001 -0.000001 -0.000002 -0.097999 -0.000001 0.215848
# 5 -0.002385 -0.002523 0.004166 -0.000001 0.027204 -0.000010
# 6 0.000003 -0.000010 -0.000010 0.215848 -0.000010 0.526601
#
#
# Mechanical properties :
#
#
# Convention : Reuss Voigt Hill
#
# Bulk Modulus (GPa) = 30.32592 45.91487 38.12039
# Shear Modulus (GPa) = 9.17297 18.58256 13.87776
#
# Velocity S-wave (km/s) = 2.23050 3.17468 2.74351
# Velocity P-wave (km/s) = 4.80430 6.19201 5.54176
#
# Compressibility (1/GPa) = 0.03297509
#
# Stress axis : x y z
#
# Youngs Moduli (GPa) = 77.74296 37.50780 62.09407
#
# Poissons Ratio (x) = -0.01545 0.51665
# Poissons Ratio (y) = -0.03202 0.21225
# Poissons Ratio (z) = 0.64685 0.12821
#
# Static dielectric constant tensor:
#      x y z
#    x 1.635220 0.000000 -0.020070 
#    y 0.000000 1.633720 0.000000 
#    z -0.020070 0.000000 1.690530 
# 
# From -- ./inp_files/279029.got.cif
#   From: 2010.05.17/outbox.cif.g08.bks.cpg/sg12_140_cif.got.tgz:279029.got - 2010.06.03 13:09:07.
