data_PCOD9171046
_publ_section_title
;
Structure prediction by ZEFSAII (Michael W. Deem and Ramdas Pophale) SiO2 
 PCOD9171046
Probable space group: C 2/M
;
_chemical_formula_sum "Si O2"
_cell_formula_units_Z 64
_cell_length_a 25.869647
_cell_length_b 7.312719
_cell_length_c 22.981927
_cell_angle_alpha 90.000000
_cell_angle_beta 37.576371
_cell_angle_gamma 90.000000
_cell_volume 2651.284488
_symmetry_space_group_name_H-M "C 2/M"
_symmetry_group_IT_number 12
_symmetry_cell_setting 'monoclinic'
loop_
_space_group_symop_operation_xyz
x,y,z
-x,y,-z
-x,-y,-z
x,-y,z
1/2+x,1/2+y,z
1/2-x,1/2+y,-z
1/2-x,1/2-y,-z
1/2+x,1/2-y,z
loop_
_atom_site_type_symbol
_atom_site_label
_atom_site_fract_x
_atom_site_fract_y
_atom_site_fract_z
Si Si1 0.478501 0.223243 0.385054
Si Si2 0.711206 0.217880 0.471200
Si Si3 0.427739 0.288258 0.933598
Si Si4 0.392021 0.219681 0.832569
Si Si5 0.244244 0.223439 0.691948
Si Si6 0.751726 0.277343 0.874033
Si Si7 0.933529 0.778111 0.108715
Si Si8 0.618405 0.221573 0.345052
O O1 0.384265 0.286770 0.454661
O O2 0.538510 0.274384 0.277281
O O3 0.527965 0.282287 0.399785
O O4 0.476552 0.000000 0.389219
O O5 0.750000 0.250000 0.500000
O O6 0.764296 0.279921 0.367568
O O7 0.706205 0.000000 0.470892
O O8 0.428322 0.500000 0.950675
O O9 0.413991 0.279915 0.877323
O O10 0.517772 0.220881 0.875747
O O11 0.344086 0.209055 0.038986
O O12 0.301500 0.280257 0.887927
O O13 0.391249 0.000000 0.834102
O O14 0.163336 0.284741 0.801670
O O15 0.334941 0.280796 0.637686
O O16 0.244142 0.000000 0.694095
O O17 0.748963 0.500000 0.876222
O O18 0.811869 0.230131 0.766620
O O19 0.926880 0.000000 0.109511
O O20 0.000000 0.719677 0.000000
O O21 0.612418 0.000000 0.353540
#
# Coordination Sequence:
#
# PCOD9171046 Si02
#       8
#     8   8   8   8   8   8   8   8
#     4   8  16  30  47  68  93 125 160 194 237 288
#     4  10  21  35  51  73 102 130 161 199 240 288
#     4  10  18  26  42  66  91 120 156 195 233 278
#     4   9  17  29  44  62  89 123 158 192 229 278
#     4   9  17  28  45  71  98 125 159 202 245 284
#     4   8  14  25  41  64  92 122 153 189 236 285
#     4   9  17  28  42  65  97 126 152 190 243 292
#     4   8  13  25  46  69  95 122 153 198 247 285
#
# _framework density 24.139244000000001
#
# number of rings (size 3 to 8) (size 9 to 14) (size 15 to 20)
#    0.000    3.125    0.000    2.625    1.750    3.500 
#    0.000    2.500    0.000    0.375    0.000    7.875 
#    0.000    0.000    0.000    0.000    0.000    0.000 
#
# Total GULP energy -178613.383677 kJ/mol
# GULP energy per Si atom -5581.668240 kJ/mol
# Density = 2.408430 g / cm^3
# Si number density = 24.139244 Si / 1000 Ang^3
#
#
#
# Elastic Constant Matrix: (Units=GPa)
#
#
# Indices 1 2 3 4 5 6 
#
# 1 182.9028 -1.9018 67.6600 0.0094 -5.9936 -0.0131
# 2 -1.9018 91.9268 0.5257 -0.0010 -6.0718 -0.0004
# 3 67.6600 0.5257 93.1992 0.0026 -13.9695 -0.0037
# 4 0.0094 -0.0010 0.0026 -29.4064 0.0079 18.4196
# 5 -5.9936 -6.0718 -13.9695 0.0079 43.2670 0.0003
# 6 -0.0131 -0.0004 -0.0037 18.4196 0.0003 0.8242
#
#
#
# Elastic Compliance Matrix: (Units=1/GPa)
#
#
# Indices 1 2 3 4 5 6 
#
# 1 0.007500 0.000138 -0.005556 0.000004 -0.000735 0.000004
# 2 0.000138 0.010985 0.000075 0.000000 0.001585 0.000000
# 3 -0.005556 0.000075 0.015394 -0.000001 0.004211 -0.000002
# 4 0.000004 0.000000 -0.000001 -0.002267 0.000000 0.050670
# 5 -0.000735 0.001585 0.004211 0.000000 0.024592 -0.000010
# 6 0.000004 0.000000 -0.000002 0.050670 -0.000010 0.080894
#
#
# Mechanical properties :
#
#
# Convention : Reuss Voigt Hill
#
# Bulk Modulus (GPa) = 43.11341 55.62183 49.36762
# Shear Modulus (GPa) = 32.15141 23.05327 27.60234
#
# Velocity S-wave (km/s) = 3.65350 3.09368 3.38518
# Velocity P-wave (km/s) = 5.97465 5.98776 5.98121
#
# Compressibility (1/GPa) = 0.02319464
#
# Stress axis : x y z
#
# Youngs Moduli (GPa) = 133.33467 91.03032 64.96126
#
# Poissons Ratio (x) = -0.01259 0.36091
# Poissons Ratio (y) = -0.01845 -0.00488
# Poissons Ratio (z) = 0.74077 -0.00684
#
# Static dielectric constant tensor:
#      x y z
#    x 1.931410 0.000000 0.005400 
#    y 0.000000 1.944720 -0.000010 
#    z 0.005400 -0.000010 1.900910 
# 
# From -- ./inp_files/327476.got.cif
#   From: 2010.05.17/outbox.cif.g08.bks.cpg/sg12_164_cif.got.tgz:327476.got - 2010.06.03 13:09:07.
