data_PCOD9171851
_publ_section_title
;
Structure prediction by ZEFSAII (Michael W. Deem and Ramdas Pophale) SiO2 
 PCOD9171851
Probable space group: C 2/M
;
_chemical_formula_sum "Si O2"
_cell_formula_units_Z 60
_cell_length_a 14.329303
_cell_length_b 22.660113
_cell_length_c 12.610217
_cell_angle_alpha 90.000000
_cell_angle_beta 44.403865
_cell_angle_gamma 90.000000
_cell_volume 2865.027078
_symmetry_space_group_name_H-M "C 2/M"
_symmetry_group_IT_number 12
_symmetry_cell_setting 'monoclinic'
loop_
_space_group_symop_operation_xyz
x,y,z
-x,y,-z
-x,-y,-z
x,-y,z
1/2+x,1/2+y,z
1/2-x,1/2+y,-z
1/2-x,1/2-y,-z
1/2+x,1/2-y,z
loop_
_atom_site_type_symbol
_atom_site_label
_atom_site_fract_x
_atom_site_fract_y
_atom_site_fract_z
Si Si1 0.840699 0.148755 0.020377
Si Si2 0.185423 0.433944 0.293938
Si Si3 0.913232 0.600038 0.415026
Si Si4 0.313051 0.067495 0.109410
Si Si5 0.523281 0.568584 0.240513
Si Si6 0.796342 0.066627 0.584359
Si Si7 0.932270 0.666002 0.875703
Si Si8 0.500000 0.256776 0.000000
O O1 0.786292 0.092746 0.128827
O O2 0.719647 0.173566 0.045067
O O3 0.966150 0.121079 0.854233
O O4 0.879507 0.198774 0.072563
O O5 0.218775 0.500000 0.301396
O O6 0.168723 0.392594 0.410137
O O7 0.043779 0.434535 0.348269
O O8 0.818976 0.567162 0.409474
O O9 0.973783 0.654908 0.301749
O O10 0.175853 0.065114 0.154857
O O11 0.265628 0.095225 0.260071
O O12 0.359279 0.000000 0.084895
O O13 0.416634 0.106722 0.959828
O O14 0.485504 0.500000 0.240909
O O15 0.427408 0.587603 0.415503
O O16 0.830139 0.000000 0.591587
O O17 0.993546 0.715365 0.901815
#
# Coordination Sequence:
#
# PCOD9171851 Si02
#       8
#     8   8   8   8   8   8   8   4
#     4  10  23  39  62  86 112 154 201 241 289 343
#     4  10  20  37  59  88 125 153 181 232 295 355
#     4  10  20  34  56  85 115 153 186 227 290 352
#     4   9  18  33  57  87 117 149 186 232 296 359
#     4   9  18  34  55  85 122 153 184 231 293 355
#     4  10  18  28  49  84 123 153 180 221 277 352
#     4  10  22  41  62  84 115 154 194 246 292 338
#     4  12  24  42  62  84 110 156 206 254 284 326
#
# _framework density 20.942211
#
# number of rings (size 3 to 8) (size 9 to 14) (size 15 to 20)
#    0.000    2.133    0.000    3.600    1.867    5.867 
#    0.000    3.000    2.933    0.000    0.000    0.000 
#    0.000    0.000    0.000    0.000    0.000    0.000 
#
# Total GULP energy -167197.237979 kJ/mol
# GULP energy per Si atom -5573.241266 kJ/mol
# Density = 2.089455 g / cm^3
# Si number density = 20.942211 Si / 1000 Ang^3
#
#
#
# Elastic Constant Matrix: (Units=GPa)
#
#
# Indices 1 2 3 4 5 6 
#
# 1 76.7058 29.8288 18.3152 0.0000 12.5818 0.0000
# 2 29.8288 56.5684 25.8565 0.0000 3.6444 0.0000
# 3 18.3152 25.8565 98.0931 0.0000 8.6205 0.0000
# 4 0.0000 0.0000 0.0000 -48.2709 0.0000 1.5057
# 5 12.5818 3.6444 8.6205 0.0000 27.2902 0.0000
# 6 0.0000 0.0000 0.0000 1.5057 0.0000 26.4380
#
#
#
# Elastic Compliance Matrix: (Units=1/GPa)
#
#
# Indices 1 2 3 4 5 6 
#
# 1 0.017627 -0.008669 -0.000405 0.000000 -0.006841 0.000000
# 2 -0.008669 0.024391 -0.005015 0.000000 0.002324 0.000000
# 3 -0.000405 -0.005015 0.011845 0.000000 -0.002885 0.000000
# 4 0.000000 0.000000 0.000000 -0.020680 0.000000 0.001178
# 5 -0.006841 0.002324 -0.002885 0.000000 0.040398 0.000000
# 6 0.000000 0.000000 0.000000 0.001178 0.000000 0.037757
#
#
# Mechanical properties :
#
#
# Convention : Reuss Voigt Hill
#
# Bulk Modulus (GPa) = 38.93149 42.15202 40.54176
# Shear Modulus (GPa) = 33.76574 11.58257 22.67416
#
# Velocity S-wave (km/s) = 4.01974 2.35430 3.29401
# Velocity P-wave (km/s) = 6.33835 5.24993 5.81964
#
# Compressibility (1/GPa) = 0.02568615
#
# Stress axis : x y z
#
# Youngs Moduli (GPa) = 56.73211 40.99799 84.42039
#
# Poissons Ratio (x) = 0.35541 0.03418
# Poissons Ratio (y) = 0.49180 0.42337
# Poissons Ratio (z) = 0.02297 0.20560
#
# Static dielectric constant tensor:
#      x y z
#    x 1.813300 0.000000 0.015090 
#    y 0.000000 1.736230 0.000000 
#    z 0.015090 0.000000 1.784510 
# 
# From -- ./inp_files/148913.got.cif
#   From: 2010.05.17/outbox.cif.g08.bks.cpg/sg12_75_cif.got.tgz:148913.got - 2010.06.03 13:09:07.
