data_PCOD9171114
_publ_section_title
;
Structure prediction by ZEFSAII (Michael W. Deem and Ramdas Pophale) SiO2 
 PCOD9171114
Probable space group: C 2/M
;
_chemical_formula_sum "Si O2"
_cell_formula_units_Z 56
_cell_length_a 19.623825
_cell_length_b 7.329847
_cell_length_c 34.013750
_cell_angle_alpha 90.000000
_cell_angle_beta 30.953298
_cell_angle_gamma 90.000000
_cell_volume 2516.417705
_symmetry_space_group_name_H-M "C 2/M"
_symmetry_group_IT_number 12
_symmetry_cell_setting 'monoclinic'
loop_
_space_group_symop_operation_xyz
x,y,z
-x,y,-z
-x,-y,-z
x,-y,z
1/2+x,1/2+y,z
1/2-x,1/2+y,-z
1/2-x,1/2-y,-z
1/2+x,1/2-y,z
loop_
_atom_site_type_symbol
_atom_site_label
_atom_site_fract_x
_atom_site_fract_y
_atom_site_fract_z
Si Si1 0.846374 0.216765 0.988502
Si Si2 0.395458 0.220794 0.673106
Si Si3 0.099880 0.714445 0.244448
Si Si4 0.096880 0.219148 0.729575
Si Si5 0.845927 0.777238 0.074467
Si Si6 0.097004 0.277183 0.417501
Si Si7 0.586664 0.278471 0.821443
O O1 0.988914 0.287247 0.903614
O O2 0.859567 0.000000 0.986782
O O3 0.750000 0.250000 0.000000
O O4 0.799207 0.282855 0.054130
O O5 0.448036 0.285439 0.689380
O O6 0.444402 0.283143 0.606035
O O7 0.239403 0.267871 0.751529
O O8 0.408097 0.000000 0.665182
O O9 0.123138 0.500000 0.239428
O O10 0.240425 0.788117 0.158815
O O11 0.993628 0.729775 0.262240
O O12 0.250366 0.278053 0.650603
O O13 0.045314 0.281446 0.797972
O O14 0.098405 0.000000 0.730085
O O15 0.845116 0.000000 0.077538
O O16 0.000000 0.723283 0.000000
O O17 0.096532 0.500000 0.417855
O O18 0.000000 0.216694 0.500000
O O19 0.581083 0.500000 0.824718
#
# Coordination Sequence:
#
# PCOD9171114 Si02
#       7
#     8   8   8   8   8   8   8
#     4  10  18  27  41  60  82 108 140 179 217 251
#     4   8  14  25  43  64  83 108 143 177 207 244
#     4  10  18  28  44  66  91 115 141 177 218 259
#     4   9  17  29  46  66  88 114 142 176 217 257
#     4   9  17  28  43  63  85 113 150 186 215 246
#     4   8  14  27  48  70  87 108 145 184 209 240
#     4   8  14  26  43  60  78 107 147 181 207 243
#
# _framework density 22.253855999999999
#
# number of rings (size 3 to 8) (size 9 to 14) (size 15 to 20)
#    0.000    3.143    0.000    3.429    0.000    3.429 
#    0.000    0.714    0.000    8.143    0.000    0.000 
#    0.000    0.000    0.000    0.000    0.000    0.000 
#
# Total GULP energy -156208.637015 kJ/mol
# GULP energy per Si atom -5578.879893 kJ/mol
# Density = 2.220321 g / cm^3
# Si number density = 22.253856 Si / 1000 Ang^3
#
#
#
# Elastic Constant Matrix: (Units=GPa)
#
#
# Indices 1 2 3 4 5 6 
#
# 1 125.9028 -2.8101 30.5793 -0.0617 31.5628 -0.1267
# 2 -2.8101 84.6357 7.8020 -0.1829 7.3215 0.1519
# 3 30.5793 7.8020 94.3496 -0.0070 34.6869 -0.0017
# 4 -0.0617 -0.1829 -0.0070 -12.8171 -0.0077 -3.6702
# 5 31.5628 7.3215 34.6869 -0.0077 35.7733 -0.0186
# 6 -0.1267 0.1519 -0.0017 -3.6702 -0.0186 15.1549
#
#
#
# Elastic Compliance Matrix: (Units=1/GPa)
#
#
# Indices 1 2 3 4 5 6 
#
# 1 0.010307 0.001149 -0.000009 -0.000073 -0.009320 0.000045
# 2 0.001149 0.012158 -0.000140 -0.000134 -0.003366 -0.000149
# 3 -0.000009 -0.000140 0.016472 0.000007 -0.015935 -0.000015
# 4 -0.000073 -0.000134 0.000007 -0.072959 0.000061 -0.017668
# 5 -0.009320 -0.003366 -0.015935 0.000061 0.052317 0.000033
# 6 0.000045 -0.000149 -0.000015 -0.017668 0.000033 0.061708
#
#
# Mechanical properties :
#
#
# Convention : Reuss Voigt Hill
#
# Bulk Modulus (GPa) = 24.42844 41.78116 33.10480
# Shear Modulus (GPa) = 54.55644 25.57668 40.06656
#
# Velocity S-wave (km/s) = 4.95668 3.39383 4.24775
# Velocity P-wave (km/s) = 6.61508 5.84577 6.24229
#
# Compressibility (1/GPa) = 0.04093589
#
# Stress axis : x y z
#
# Youngs Moduli (GPa) = 97.02136 82.25313 60.71020
#
# Poissons Ratio (x) = -0.09451 0.00055
# Poissons Ratio (y) = -0.11148 0.00851
# Poissons Ratio (z) = 0.00088 0.01153
#
# Static dielectric constant tensor:
#      x y z
#    x 1.837890 -0.000070 0.019050 
#    y -0.000070 1.869030 -0.000060 
#    z 0.019050 -0.000060 1.778860 
# 
# From -- ./inp_files/319012.got.cif
#   From: 2010.05.17/outbox.cif.g08.bks.cpg/sg12_160_cif.got.tgz:319012.got - 2010.06.03 13:09:07.
