data_PCOD9171781
_publ_section_title
;
Structure prediction by ZEFSAII (Michael W. Deem and Ramdas Pophale) SiO2 
 PCOD9171781
Probable space group: C 2/M
;
_chemical_formula_sum "Si O2"
_cell_formula_units_Z 56
_cell_length_a 19.666533
_cell_length_b 8.777175
_cell_length_c 23.602707
_cell_angle_alpha 90.000000
_cell_angle_beta 44.011061
_cell_angle_gamma 90.000000
_cell_volume 2830.756114
_symmetry_space_group_name_H-M "C 2/M"
_symmetry_group_IT_number 12
_symmetry_cell_setting 'monoclinic'
loop_
_space_group_symop_operation_xyz
x,y,z
-x,y,-z
-x,-y,-z
x,-y,z
1/2+x,1/2+y,z
1/2-x,1/2+y,-z
1/2-x,1/2-y,-z
1/2+x,1/2-y,z
loop_
_atom_site_type_symbol
_atom_site_label
_atom_site_fract_x
_atom_site_fract_y
_atom_site_fract_z
Si Si1 0.254706 0.182969 0.862872
Si Si2 0.803345 0.317438 0.707547
Si Si3 0.294375 0.320230 0.594868
Si Si4 0.155244 0.318108 0.023772
Si Si5 0.033655 0.680460 0.569735
Si Si6 0.439095 0.679312 0.819301
Si Si7 0.377377 0.678545 0.371210
O O1 0.254423 0.223289 0.796766
O O2 0.356488 0.243725 0.828945
O O3 0.253236 0.000000 0.869154
O O4 0.168777 0.255006 0.952384
O O5 0.794304 0.500000 0.705327
O O6 0.764722 0.234164 0.675200
O O7 0.919163 0.280820 0.641936
O O8 0.286994 0.500000 0.593988
O O9 0.404254 0.265121 0.515491
O O10 0.224377 0.240163 0.591245
O O11 0.157949 0.500000 0.022882
O O12 0.067366 0.255883 0.115064
O O13 0.250000 0.250000 0.000000
O O14 0.042004 0.500000 0.555316
O O15 0.082769 0.728466 0.599439
O O16 0.415654 0.500000 0.838579
O O17 0.542627 0.694650 0.726637
O O18 0.370033 0.500000 0.390801
#
# Coordination Sequence:
#
# PCOD9171781 Si02
#       7
#     8   8   8   8   8   8   8
#     4  10  18  32  54  81 112 145 183 226 276 330
#     4  10  22  39  60  84 113 150 187 231 283 335
#     4  12  26  40  57  82 114 151 190 233 282 336
#     4  10  18  28  47  77 113 147 180 224 274 324
#     4  11  22  40  63  85 112 145 188 236 284 335
#     4  10  19  32  53  81 111 144 183 229 277 327
#     4  11  23  39  60  84 114 149 189 235 282 335
#
# _framework density 19.782699000000001
#
# number of rings (size 3 to 8) (size 9 to 14) (size 15 to 20)
#    0.000    1.429    1.429    6.857    0.000    5.714 
#    0.000    0.000    0.000    0.857    0.000    6.000 
#    0.000    0.000    0.000    0.000    0.000    0.000 
#
# Total GULP energy -156500.747626 kJ/mol
# GULP energy per Si atom -5589.312415 kJ/mol
# Density = 1.973767 g / cm^3
# Si number density = 19.782699 Si / 1000 Ang^3
#
#
#
# Elastic Constant Matrix: (Units=GPa)
#
#
# Indices 1 2 3 4 5 6 
#
# 1 33.7551 -3.3338 -4.2800 0.0000 7.1632 0.0000
# 2 -3.3338 62.1128 24.6719 0.0000 6.3073 0.0000
# 3 -4.2800 24.6719 83.2822 0.0000 26.6127 0.0000
# 4 0.0000 0.0000 0.0000 32.7241 0.0000 8.4479
# 5 7.1632 6.3073 26.6127 0.0000 23.4749 0.0000
# 6 0.0000 0.0000 0.0000 8.4479 0.0000 22.7126
#
#
#
# Elastic Compliance Matrix: (Units=1/GPa)
#
#
# Indices 1 2 3 4 5 6 
#
# 1 0.034905 0.000746 0.007904 0.000000 -0.019811 0.000000
# 2 0.000746 0.018318 -0.005869 0.000000 0.001504 0.000000
# 3 0.007904 -0.005869 0.022609 0.000000 -0.026466 0.000000
# 4 0.000000 0.000000 0.000000 0.033804 0.000000 -0.012573
# 5 -0.019811 0.001504 -0.026466 0.000000 0.078244 0.000000
# 6 0.000000 0.000000 0.000000 -0.012573 0.000000 0.048705
#
#
# Mechanical properties :
#
#
# Convention : Reuss Voigt Hill
#
# Bulk Modulus (GPa) = 12.28596 23.69625 17.99111
# Shear Modulus (GPa) = 19.36811 26.58847 22.97829
#
# Velocity S-wave (km/s) = 3.13236 3.67007 3.41183
# Velocity P-wave (km/s) = 4.39388 5.47390 4.96335
#
# Compressibility (1/GPa) = 0.08139374
#
# Stress axis : x y z
#
# Youngs Moduli (GPa) = 28.64909 54.59035 44.22929
#
# Poissons Ratio (x) = -0.04072 -0.34957
# Poissons Ratio (y) = -0.02137 0.25958
# Poissons Ratio (z) = -0.22643 0.32039
#
# Static dielectric constant tensor:
#      x y z
#    x 1.678240 0.000000 0.019360 
#    y 0.000000 1.654080 0.000000 
#    z 0.019360 0.000000 1.745600 
# 
# From -- ./inp_files/342258.got.cif
#   From: 2010.05.17/outbox.cif.g08.bks.cpg/sg12_172_cif.got.tgz:342258.got - 2010.06.03 13:09:07.
