data_PCOD9171105
_publ_section_title
;
Structure prediction by ZEFSAII (Michael W. Deem and Ramdas Pophale) SiO2 
 PCOD9171105
Probable space group: C 2/M
;
_chemical_formula_sum "Si O2"
_cell_formula_units_Z 56
_cell_length_a 27.588544
_cell_length_b 7.698349
_cell_length_c 15.277565
_cell_angle_alpha 90.000000
_cell_angle_beta 76.513788
_cell_angle_gamma 90.000000
_cell_volume 3155.274228
_symmetry_space_group_name_H-M "C 2/M"
_symmetry_group_IT_number 12
_symmetry_cell_setting 'monoclinic'
loop_
_space_group_symop_operation_xyz
x,y,z
-x,y,-z
-x,-y,-z
x,-y,z
1/2+x,1/2+y,z
1/2-x,1/2+y,-z
1/2-x,1/2-y,-z
1/2+x,1/2-y,z
loop_
_atom_site_type_symbol
_atom_site_label
_atom_site_fract_x
_atom_site_fract_y
_atom_site_fract_z
Si Si1 0.175928 0.299811 0.727025
Si Si2 0.216536 0.289742 0.385804
Si Si3 0.293858 0.789078 0.099100
Si Si4 0.819749 0.292247 0.898000
Si Si5 0.126855 0.709128 0.290707
Si Si6 0.644045 0.793974 0.563251
Si Si7 0.055534 0.203301 0.471163
O O1 0.160344 0.500000 0.746605
O O2 0.231534 0.292588 0.662933
O O3 0.181393 0.222472 0.821794
O O4 0.142956 0.221720 0.662217
O O5 0.222471 0.500000 0.385925
O O6 0.175250 0.249587 0.329409
O O7 0.190854 0.226466 0.486452
O O8 0.235575 0.740218 0.117294
O O9 0.295337 0.000000 0.099664
O O10 0.318830 0.726479 0.998073
O O11 0.826013 0.500000 0.899991
O O12 0.860559 0.225767 0.811877
O O13 0.122915 0.500000 0.290222
O O14 0.079704 0.774253 0.365044
O O15 0.594934 0.774426 0.525164
O O16 0.652612 0.000000 0.568088
O O17 0.000000 0.278872 0.500000
O O18 0.052316 0.000000 0.491887
#
# Coordination Sequence:
#
# PCOD9171105 Si02
#       7
#     8   8   8   8   8   8   8
#     4  10  18  27  40  62  90 120 153 181 209 247
#     4   9  16  26  39  58  86 120 153 180 208 246
#     4   9  17  26  40  62  90 123 154 185 215 241
#     4   9  16  28  42  60  89 122 154 184 213 249
#     4   9  17  29  46  66  89 119 151 180 215 262
#     4   9  19  32  44  61  87 118 148 177 213 263
#     4  10  21  35  50  69  88 105 135 184 233 272
#
# _framework density 17.748062000000001
#
# number of rings (size 3 to 8) (size 9 to 14) (size 15 to 20)
#    0.000    2.714    1.429    1.714    0.000    4.571 
#    0.000    0.000    0.000    0.000    0.000    1.000 
#    0.000    8.000    0.000    0.000    0.000    0.000 
#
# Total GULP energy -156001.091722 kJ/mol
# GULP energy per Si atom -5571.467562 kJ/mol
# Density = 1.770767 g / cm^3
# Si number density = 17.748062 Si / 1000 Ang^3
#
#
#
# Elastic Constant Matrix: (Units=GPa)
#
#
# Indices 1 2 3 4 5 6 
#
# 1 55.8323 -3.5226 47.9222 0.0000 -3.8344 0.0000
# 2 -3.5226 22.5120 4.2438 0.0000 1.8200 0.0000
# 3 47.9222 4.2438 156.9988 0.0000 19.8009 0.0000
# 4 0.0000 0.0000 0.0000 7.2493 0.0000 -3.5166
# 5 -3.8344 1.8200 19.8009 0.0000 22.6018 0.0000
# 6 0.0000 0.0000 0.0000 -3.5166 0.0000 12.7182
#
#
#
# Elastic Compliance Matrix: (Units=1/GPa)
#
#
# Indices 1 2 3 4 5 6 
#
# 1 0.028117 0.005275 -0.010425 0.000000 0.013478 0.000000
# 2 0.005275 0.045802 -0.002806 0.000000 -0.000335 0.000000
# 3 -0.010425 -0.002806 0.011042 0.000000 -0.011216 0.000000
# 4 0.000000 0.000000 0.000000 0.159312 0.000000 0.044050
# 5 0.013478 -0.000335 -0.011216 0.000000 0.056384 0.000000
# 6 0.000000 0.000000 0.000000 0.044050 0.000000 0.090807
#
#
# Mechanical properties :
#
#
# Convention : Reuss Voigt Hill
#
# Bulk Modulus (GPa) = 14.48225 36.95888 25.72057
# Shear Modulus (GPa) = 11.61728 20.96052 16.28890
#
# Velocity S-wave (km/s) = 2.56122 3.44030 3.03278
# Velocity P-wave (km/s) = 4.11389 6.05395 5.17563
#
# Compressibility (1/GPa) = 0.06905005
#
# Stress axis : x y z
#
# Youngs Moduli (GPa) = 35.56533 21.83296 90.56278
#
# Poissons Ratio (x) = -0.11517 0.94412
# Poissons Ratio (y) = -0.18762 0.25412
# Poissons Ratio (z) = 0.37077 0.06126
#
# Static dielectric constant tensor:
#      x y z
#    x 1.589350 0.000000 0.030190 
#    y 0.000000 1.639660 0.000000 
#    z 0.030190 0.000000 1.676990 
# 
# From -- ./inp_files/247732.got.cif
#   From: 2010.05.17/outbox.cif.g08.bks.cpg/sg12_124_cif.got.tgz:247732.got - 2010.06.03 13:09:07.
