data_PCOD9171053
_publ_section_title
;
Structure prediction by ZEFSAII (Michael W. Deem and Ramdas Pophale) SiO2 
 PCOD9171053
Probable space group: C 2/M
;
_chemical_formula_sum "Si O2"
_cell_formula_units_Z 48
_cell_length_a 18.864061
_cell_length_b 12.577871
_cell_length_c 9.804682
_cell_angle_alpha 90.000000
_cell_angle_beta 74.842288
_cell_angle_gamma 90.000000
_cell_volume 2245.419752
_symmetry_space_group_name_H-M "C 2/M"
_symmetry_group_IT_number 12
_symmetry_cell_setting 'monoclinic'
loop_
_space_group_symop_operation_xyz
x,y,z
-x,y,-z
-x,-y,-z
x,-y,z
1/2+x,1/2+y,z
1/2-x,1/2+y,-z
1/2-x,1/2-y,-z
1/2+x,1/2-y,z
loop_
_atom_site_type_symbol
_atom_site_label
_atom_site_fract_x
_atom_site_fract_y
_atom_site_fract_z
Si Si1 0.912094 0.380879 0.531593
Si Si2 0.257060 0.672517 0.701035
Si Si3 0.390782 0.118458 0.097101
Si Si4 0.155043 0.819170 0.596176
Si Si5 0.875541 0.732815 0.818370
Si Si6 0.522625 0.682434 0.839197
O O1 0.892513 0.500000 0.495611
O O2 0.881007 0.287565 0.452281
O O3 0.883388 0.355300 0.697164
O O4 0.000000 0.374079 0.500000
O O5 0.184147 0.612649 0.780130
O O6 0.221962 0.782529 0.659183
O O7 0.307445 0.626738 0.553928
O O8 0.307391 0.696178 0.805759
O O9 0.447358 0.197916 0.142567
O O10 0.418892 0.000000 0.062250
O O11 0.370702 0.176885 0.966249
O O12 0.089939 0.868250 0.720534
O O13 0.949393 0.804030 0.787688
O O14 0.500000 0.637452 0.000000
#
# Coordination Sequence:
#
# PCOD9171053 Si02
#       6
#     8   8   8   8   8   8
#     4  10  18  26  43  69 100 133 157 190 237 292
#     4   9  19  31  48  64  95 137 174 200 230 283
#     4  10  20  32  47  72 105 136 160 196 246 296
#     4   9  17  32  44  66  95 131 167 205 232 281
#     4  10  18  31  47  69 100 132 169 199 238 289
#     4   9  18  29  46  72  99 125 159 200 244 293
#
# _framework density 21.376849
#
# number of rings (size 3 to 8) (size 9 to 14) (size 15 to 20)
#    0.000    2.500    1.667    1.000    0.000    6.333 
#    0.000    0.000    0.000    0.000    0.000    2.333 
#    0.000   29.333    0.000    0.000    0.000    0.000 
#
# Total GULP energy -133836.926938 kJ/mol
# GULP energy per Si atom -5576.538622 kJ/mol
# Density = 2.132819 g / cm^3
# Si number density = 21.376849 Si / 1000 Ang^3
#
#
#
# Elastic Constant Matrix: (Units=GPa)
#
#
# Indices 1 2 3 4 5 6 
#
# 1 125.8762 10.6879 19.5264 0.0000 -2.1654 0.0000
# 2 10.6879 31.1869 -4.6949 0.0000 -1.3020 0.0000
# 3 19.5264 -4.6949 116.3423 0.0000 -25.2016 0.0000
# 4 0.0000 0.0000 0.0000 -9.8392 0.0000 -2.0472
# 5 -2.1654 -1.3020 -25.2016 0.0000 45.8597 0.0000
# 6 0.0000 0.0000 0.0000 -2.0472 0.0000 2.8061
#
#
#
# Elastic Compliance Matrix: (Units=1/GPa)
#
#
# Indices 1 2 3 4 5 6 
#
# 1 0.008465 -0.003180 -0.001682 0.000000 -0.000615 0.000000
# 2 -0.003180 0.033594 0.002342 0.000000 0.002091 0.000000
# 3 -0.001682 0.002342 0.010181 0.000000 0.005582 0.000000
# 4 0.000000 0.000000 0.000000 -0.088240 0.000000 -0.064376
# 5 -0.000615 0.002091 0.005582 0.000000 0.024903 0.000000
# 6 0.000000 0.000000 0.000000 -0.064376 0.000000 0.309399
#
#
# Mechanical properties :
#
#
# Convention : Reuss Voigt Hill
#
# Bulk Modulus (GPa) = 21.18608 36.04937 28.61772
# Shear Modulus (GPa) = 15.67023 24.29107 19.98065
#
# Velocity S-wave (km/s) = 2.71042 3.37460 3.06058
# Velocity P-wave (km/s) = 4.44156 5.66430 5.08978
#
# Compressibility (1/GPa) = 0.04720081
#
# Stress axis : x y z
#
# Youngs Moduli (GPa) = 118.13801 29.76690 98.21881
#
# Poissons Ratio (x) = 0.09465 0.16523
# Poissons Ratio (y) = 0.37566 -0.23005
# Poissons Ratio (z) = 0.19873 -0.06972
#
# Static dielectric constant tensor:
#      x y z
#    x 1.750430 0.000000 -0.032160 
#    y 0.000000 1.753720 0.000000 
#    z -0.032160 0.000000 1.851110 
# 
# From -- ./inp_files/167754.got.cif
#   From: 2010.05.17/outbox.cif.g08.bks.cpg/sg12_84_cif.got.tgz:167754.got - 2010.06.03 13:09:07.
