data_PCOD9171155
_publ_section_title
;
Structure prediction by ZEFSAII (Michael W. Deem and Ramdas Pophale) SiO2 
 PCOD9171155
Probable space group: C 2/M
;
_chemical_formula_sum "Si O2"
_cell_formula_units_Z 64
_cell_length_a 35.106066
_cell_length_b 8.954756
_cell_length_c 13.797696
_cell_angle_alpha 90.000000
_cell_angle_beta 100.723215
_cell_angle_gamma 90.000000
_cell_volume 4261.785850
_symmetry_space_group_name_H-M "C 2/M"
_symmetry_group_IT_number 12
_symmetry_cell_setting 'monoclinic'
loop_
_space_group_symop_operation_xyz
x,y,z
-x,y,-z
-x,-y,-z
x,-y,z
1/2+x,1/2+y,z
1/2-x,1/2+y,-z
1/2-x,1/2-y,-z
1/2+x,1/2-y,z
loop_
_atom_site_type_symbol
_atom_site_label
_atom_site_fract_x
_atom_site_fract_y
_atom_site_fract_z
Si Si1 0.724216 0.180003 0.287442
Si Si2 0.235087 0.179107 0.894512
Si Si3 0.503556 0.828705 0.384382
Si Si4 0.654149 0.824973 0.375503
Si Si5 0.917399 0.679466 0.347565
Si Si6 0.158320 0.178521 0.750909
Si Si7 0.082377 0.176504 0.438223
Si Si8 0.797402 0.324750 0.405598
O O1 0.738142 0.219325 0.185670
O O2 0.680265 0.217691 0.295449
O O3 0.754291 0.261379 0.373148
O O4 0.728555 0.000000 0.301109
O O5 0.190877 0.221412 0.845381
O O6 0.236092 0.000000 0.903002
O O7 0.250000 0.250000 0.000000
O O8 0.500000 0.829782 0.500000
O O9 0.460649 0.780586 0.331536
O O10 0.540365 0.727565 0.379070
O O11 0.510830 0.000000 0.357533
O O12 0.616457 0.730788 0.383799
O O13 0.683464 0.810469 0.480476
O O14 0.643316 0.000000 0.363272
O O15 0.915285 0.500000 0.353383
O O16 0.883219 0.743091 0.265127
O O17 0.912390 0.744739 0.454057
O O18 0.177110 0.231309 0.658400
O O19 0.154067 0.000000 0.749243
O O20 0.083680 0.000000 0.452944
O O21 0.798234 0.500000 0.379637
#
# Coordination Sequence:
#
# PCOD9171155 Si02
#       8
#     8   8   8   8   8   8   8   8
#     4   9  19  33  46  62  85 113 146 185 222 259
#     4   9  19  34  50  67  88 113 143 180 226 268
#     4   8  16  29  42  56  81 116 152 187 218 254
#     4  10  19  30  43  59  86 120 151 182 217 257
#     4  10  18  29  44  62  85 116 153 187 220 259
#     4  10  19  30  45  66  90 116 147 186 223 260
#     4  11  20  27  40  61  87 120 154 186 218 253
#     4  10  18  27  42  62  85 116 148 178 215 259
#
# _framework density 15.017179
#
# number of rings (size 3 to 8) (size 9 to 14) (size 15 to 20)
#    0.000    2.375    1.250    4.125    0.000    6.250 
#    0.000    0.000    0.000    0.000    0.000    0.000 
#    0.000    1.000    0.000   11.250    0.000    5.625 
#
# Total GULP energy -178334.168841 kJ/mol
# GULP energy per Si atom -5572.942776 kJ/mol
# Density = 1.498300 g / cm^3
# Si number density = 15.017179 Si / 1000 Ang^3
#
#
#
# Elastic Constant Matrix: (Units=GPa)
#
#
# Indices 1 2 3 4 5 6 
#
# 1 134.1006 56.7414 41.9626 0.0000 6.2022 0.0000
# 2 56.7414 55.5214 23.4128 0.0000 2.4694 0.0000
# 3 41.9626 23.4128 47.3455 0.0000 9.3075 0.0000
# 4 0.0000 0.0000 0.0000 14.7193 0.0000 5.2393
# 5 6.2022 2.4694 9.3075 0.0000 13.7191 0.0000
# 6 0.0000 0.0000 0.0000 5.2393 0.0000 24.3697
#
#
#
# Elastic Compliance Matrix: (Units=1/GPa)
#
#
# Indices 1 2 3 4 5 6 
#
# 1 0.014831 -0.012129 -0.007222 0.000000 0.000378 0.000000
# 2 -0.012129 0.032875 -0.006256 0.000000 0.003810 0.000000
# 3 -0.007222 -0.006256 0.034331 0.000000 -0.018901 0.000000
# 4 0.000000 0.000000 0.000000 0.073568 0.000000 -0.015817
# 5 0.000378 0.003810 -0.018901 0.000000 0.084858 0.000000
# 6 0.000000 0.000000 0.000000 -0.015817 0.000000 0.044435
#
#
# Mechanical properties :
#
#
# Convention : Reuss Voigt Hill
#
# Bulk Modulus (GPa) = 32.44169 53.46681 42.95425
# Shear Modulus (GPa) = 14.43473 18.21832 16.32652
#
# Velocity S-wave (km/s) = 3.10371 3.48683 3.30083
# Velocity P-wave (km/s) = 5.87316 7.20359 6.57213
#
# Compressibility (1/GPa) = 0.03082454
#
# Stress axis : x y z
#
# Youngs Moduli (GPa) = 67.42436 30.41808 29.12792
#
# Poissons Ratio (x) = 0.36894 0.21035
# Poissons Ratio (y) = 0.81778 0.18223
# Poissons Ratio (z) = 0.48691 0.19030
#
# Static dielectric constant tensor:
#      x y z
#    x 1.538530 0.000000 0.002320 
#    y 0.000000 1.502730 0.000000 
#    z 0.002320 0.000000 1.471040 
# 
# From -- ./inp_files/248350.got.cif
#   From: 2010.05.17/outbox.cif.g08.bks.cpg/sg12_125_cif.got.tgz:248350.got - 2010.06.03 13:09:07.
