data_PCOD9171802
_publ_section_title
;
Structure prediction by ZEFSAII (Michael W. Deem and Ramdas Pophale) SiO2 
 PCOD9171802
Probable space group: C 2/M
;
_chemical_formula_sum "Si O2"
_cell_formula_units_Z 48
_cell_length_a 28.824204
_cell_length_b 8.794428
_cell_length_c 11.610877
_cell_angle_alpha 90.000000
_cell_angle_beta 102.207856
_cell_angle_gamma 90.000000
_cell_volume 2876.712517
_symmetry_space_group_name_H-M "C 2/M"
_symmetry_group_IT_number 12
_symmetry_cell_setting 'monoclinic'
loop_
_space_group_symop_operation_xyz
x,y,z
-x,y,-z
-x,-y,-z
x,-y,z
1/2+x,1/2+y,z
1/2-x,1/2+y,-z
1/2-x,1/2-y,-z
1/2+x,1/2-y,z
loop_
_atom_site_type_symbol
_atom_site_label
_atom_site_fract_x
_atom_site_fract_y
_atom_site_fract_z
Si Si1 0.007740 0.675760 0.865348
Si Si2 0.410380 0.681539 0.787129
Si Si3 0.820423 0.816850 0.598375
Si Si4 0.389596 0.183434 0.027555
Si Si5 0.271767 0.316890 0.338376
Si Si6 0.204830 0.816905 0.909491
O O1 0.003962 0.500000 0.827534
O O2 0.964263 0.768513 0.790144
O O3 0.061920 0.729053 0.879834
O O4 0.000000 0.679926 0.000000
O O5 0.408744 0.500000 0.799751
O O6 0.372169 0.728249 0.670698
O O7 0.394755 0.756828 0.899714
O O8 0.779713 0.751718 0.660382
O O9 0.806150 0.769039 0.461559
O O10 0.817953 0.000000 0.601055
O O11 0.343016 0.250661 0.061155
O O12 0.388103 0.000000 0.024319
O O13 0.267822 0.500000 0.339236
O O14 0.290129 0.273908 0.222295
O O15 0.204811 0.000000 0.918520
O O16 0.250000 0.750000 0.000000
#
# Coordination Sequence:
#
# PCOD9171802 Si02
#       6
#     8   8   8   8   8   8
#     4   8  16  30  46  66  94 126 156 191 235 277
#     4  10  18  28  48  75  98 121 154 196 236 278
#     4   9  18  32  49  70  95 121 153 193 232 273
#     4  10  20  33  48  68  98 130 157 191 234 278
#     4   9  19  34  49  67  93 125 157 189 230 277
#     4  11  22  34  50  71  96 126 158 192 231 279
#
# _framework density 16.685713
#
# number of rings (size 3 to 8) (size 9 to 14) (size 15 to 20)
#    0.000    2.500    0.000    3.500    0.000    9.000 
#    0.000    0.000    0.000    1.000    0.000    7.000 
#    0.000    0.000    0.000    0.000    0.000    0.000 
#
# Total GULP energy -133798.102403 kJ/mol
# GULP energy per Si atom -5574.920933 kJ/mol
# Density = 1.664774 g / cm^3
# Si number density = 16.685713 Si / 1000 Ang^3
#
#
#
# Elastic Constant Matrix: (Units=GPa)
#
#
# Indices 1 2 3 4 5 6 
#
# 1 160.6417 42.9642 69.8308 0.0000 23.0432 0.0000
# 2 42.9642 37.5834 30.7976 0.0000 8.7271 0.0000
# 3 69.8308 30.7976 72.1735 0.0000 14.5480 0.0000
# 4 0.0000 0.0000 0.0000 16.9968 0.0000 3.4639
# 5 23.0432 8.7271 14.5480 0.0000 30.1240 0.0000
# 6 0.0000 0.0000 0.0000 3.4639 0.0000 31.7021
#
#
#
# Elastic Compliance Matrix: (Units=1/GPa)
#
#
# Indices 1 2 3 4 5 6 
#
# 1 0.011928 -0.006078 -0.008268 0.000000 -0.003371 0.000000
# 2 -0.006078 0.044406 -0.012643 0.000000 -0.002109 0.000000
# 3 -0.008268 -0.012643 0.027958 0.000000 -0.003515 0.000000
# 4 0.000000 0.000000 0.000000 0.060174 0.000000 -0.006575
# 5 -0.003371 -0.002109 -0.003515 0.000000 0.038083 0.000000
# 6 0.000000 0.000000 0.000000 -0.006575 0.000000 0.032262
#
#
# Mechanical properties :
#
#
# Convention : Reuss Voigt Hill
#
# Bulk Modulus (GPa) = 32.98708 61.95376 47.47042
# Shear Modulus (GPa) = 17.92794 24.21831 21.07312
#
# Velocity S-wave (km/s) = 3.28143 3.81391 3.55765
# Velocity P-wave (km/s) = 5.84548 7.52363 6.73701
#
# Compressibility (1/GPa) = 0.03031490
#
# Stress axis : x y z
#
# Youngs Moduli (GPa) = 83.83455 22.51969 35.76736
#
# Poissons Ratio (x) = 0.13688 0.29572
# Poissons Ratio (y) = 0.50956 0.45219
# Poissons Ratio (z) = 0.69314 0.28471
#
# Static dielectric constant tensor:
#      x y z
#    x 1.562200 0.000000 0.023720 
#    y 0.000000 1.562250 0.000000 
#    z 0.023720 0.000000 1.558720 
# 
# From -- ./inp_files/172432.got.cif
#   From: 2010.05.17/outbox.cif.g08.bks.cpg/sg12_87_cif.got.tgz:172432.got - 2010.06.03 13:09:07.
