data_PCOD9171201
_publ_section_title
;
Structure prediction by ZEFSAII (Michael W. Deem and Ramdas Pophale) SiO2 
 PCOD9171201
Probable space group: C 2/M
;
_chemical_formula_sum "Si O2"
_cell_formula_units_Z 40
_cell_length_a 30.037346
_cell_length_b 7.541390
_cell_length_c 26.136872
_cell_angle_alpha 90.000000
_cell_angle_beta 20.644253
_cell_angle_gamma 90.000000
_cell_volume 2087.397567
_symmetry_space_group_name_H-M "C 2/M"
_symmetry_group_IT_number 12
_symmetry_cell_setting 'monoclinic'
loop_
_space_group_symop_operation_xyz
x,y,z
-x,y,-z
-x,-y,-z
x,-y,z
1/2+x,1/2+y,z
1/2-x,1/2+y,-z
1/2-x,1/2-y,-z
1/2+x,1/2-y,z
loop_
_atom_site_type_symbol
_atom_site_label
_atom_site_fract_x
_atom_site_fract_y
_atom_site_fract_z
Si Si1 0.165042 0.213282 0.469891
Si Si2 0.618846 0.282465 0.405398
Si Si3 0.107498 0.293324 0.921390
Si Si4 0.542177 0.710948 0.819109
Si Si5 0.603655 0.287642 0.644346
O O1 0.117292 0.275374 0.466292
O O2 0.314314 0.252867 0.316277
O O3 0.090820 0.280159 0.600135
O O4 0.155154 0.000000 0.480797
O O5 0.500000 0.223096 0.500000
O O6 0.616124 0.500000 0.408081
O O7 0.752553 0.221921 0.238035
O O8 0.117512 0.500000 0.895789
O O9 0.000000 0.213202 0.000000
O O10 0.055715 0.283038 0.034454
O O11 0.526652 0.500000 0.834747
O O12 0.530711 0.779838 0.773010
O O13 0.585520 0.500000 0.662577
O O14 0.750000 0.250000 0.500000
#
# Coordination Sequence:
#
# PCOD9171201 Si02
#       5
#     8   8   8   8   8
#     4   9  15  28  47  65  89 119 149 184 223 258
#     4   9  17  29  47  69  89 112 149 190 222 258
#     4  10  18  30  47  67  89 117 149 184 224 262
#     4  10  18  27  42  68  95 117 146 182 222 265
#     4   8  15  25  40  63  89 116 145 179 219 262
#
# _framework density 19.162617999999998
#
# number of rings (size 3 to 8) (size 9 to 14) (size 15 to 20)
#    0.000    2.800    2.000    0.600    0.000    1.200 
#    0.000    0.000    0.000    3.600    0.000    0.000 
#    0.000    0.000    0.000    0.000    0.000    1.000 
#
# Total GULP energy -111412.346603 kJ/mol
# GULP energy per Si atom -5570.617330 kJ/mol
# Density = 1.911900 g / cm^3
# Si number density = 19.162618 Si / 1000 Ang^3
#
#
#
# Elastic Constant Matrix: (Units=GPa)
#
#
# Indices 1 2 3 4 5 6 
#
# 1 155.2787 -2.4796 94.4936 -0.0003 14.9238 0.0016
# 2 -2.4796 46.7325 0.8372 0.0087 -7.6109 0.0016
# 3 94.4936 0.8372 110.1891 0.0100 9.5970 -0.0035
# 4 -0.0003 0.0087 0.0100 -7.0065 0.0080 -5.0778
# 5 14.9238 -7.6109 9.5970 0.0080 26.6649 -0.0057
# 6 0.0016 0.0016 -0.0035 -5.0778 -0.0057 0.8267
#
#
#
# Elastic Compliance Matrix: (Units=1/GPa)
#
#
# Indices 1 2 3 4 5 6 
#
# 1 0.013797 0.000374 -0.011533 0.000010 -0.003464 -0.000041
# 2 0.000374 0.022512 -0.001067 0.000007 0.006600 0.000038
# 3 -0.011533 -0.001067 0.019035 -0.000009 -0.000700 0.000047
# 4 0.000010 0.000007 -0.000009 -0.026181 -0.000027 -0.160810
# 5 -0.003464 0.006600 -0.000700 -0.000027 0.041577 0.000113
# 6 -0.000041 0.000038 0.000047 -0.160810 0.000113 0.221891
#
#
# Mechanical properties :
#
#
# Convention : Reuss Voigt Hill
#
# Bulk Modulus (GPa) = 32.36977 55.32251 43.84614
# Shear Modulus (GPa) = 15.27270 18.72028 16.99649
#
# Velocity S-wave (km/s) = 2.82619 3.12896 2.98142
# Velocity P-wave (km/s) = 5.25153 6.47970 5.89768
#
# Compressibility (1/GPa) = 0.03089302
#
# Stress axis : x y z
#
# Youngs Moduli (GPa) = 72.47735 44.42021 52.53525
#
# Poissons Ratio (x) = -0.01663 0.60590
# Poissons Ratio (y) = -0.02714 0.05606
# Poissons Ratio (z) = 0.83590 0.04740
#
# Static dielectric constant tensor:
#      x y z
#    x 1.706830 0.000000 0.047390 
#    y 0.000000 1.705170 0.000000 
#    z 0.047390 0.000000 1.641230 
# 
# From -- ./inp_files/101006.got.cif
#   From: 2010.05.17/outbox.cif.g08.bks.cpg/sg12_51_cif.got.tgz:101006.got - 2010.06.03 13:09:07.
