data_PCOD9171788
_publ_section_title
;
Structure prediction by ZEFSAII (Michael W. Deem and Ramdas Pophale) SiO2 
 PCOD9171788
Probable space group: C 2/M
;
_chemical_formula_sum "Si O2"
_cell_formula_units_Z 44
_cell_length_a 15.586272
_cell_length_b 13.976720
_cell_length_c 19.554253
_cell_angle_alpha 90.000000
_cell_angle_beta 154.045904
_cell_angle_gamma 90.000000
_cell_volume 1864.303374
_symmetry_space_group_name_H-M "C 2/M"
_symmetry_group_IT_number 12
_symmetry_cell_setting 'monoclinic'
loop_
_space_group_symop_operation_xyz
x,y,z
-x,y,-z
-x,-y,-z
x,-y,z
1/2+x,1/2+y,z
1/2-x,1/2+y,-z
1/2-x,1/2-y,-z
1/2+x,1/2-y,z
loop_
_atom_site_type_symbol
_atom_site_label
_atom_site_fract_x
_atom_site_fract_y
_atom_site_fract_z
Si Si1 0.500059 0.612779 0.859532
Si Si2 0.067928 0.388781 0.830102
Si Si3 0.616952 0.104481 0.513938
Si Si4 0.572141 0.739236 0.713563
Si Si5 0.632088 0.388411 0.533386
Si Si6 0.500000 0.734566 0.000000
O O1 0.460811 0.500000 0.845395
O O2 0.329282 0.644464 0.686185
O O3 0.494375 0.668948 0.927298
O O4 0.717192 0.619139 0.982592
O O5 0.069624 0.500000 0.802421
O O6 0.859634 0.382183 0.717867
O O7 0.062650 0.296245 0.777485
O O8 0.500000 0.094254 0.500000
O O9 0.484414 0.172235 0.375121
O O10 0.642838 0.000000 0.500166
O O11 0.419599 0.660489 0.576430
O O12 0.796025 0.708550 0.859672
O O13 0.500000 0.346406 0.500000
O O14 0.583505 0.500000 0.491414
#
# Coordination Sequence:
#
# PCOD9171788 Si02
#       6
#     8   8   8   8   8   4
#     4   9  17  29  48  79 119 151 178 216 272 342
#     4   9  19  36  59  87 116 145 180 226 283 340
#     4  10  18  28  47  81 121 154 180 212 270 341
#     4  11  20  34  57  84 114 144 183 233 280 333
#     4  10  22  40  62  80 103 148 201 240 274 319
#     4  10  19  28  49  80 116 148 182 218 280 340
#
# _framework density 23.601308
#
# number of rings (size 3 to 8) (size 9 to 14) (size 15 to 20)
#    0.000    2.182    1.818    1.909    0.000    1.455 
#    0.000    1.364    4.000    0.000    0.000    0.000 
#    0.000    0.000    0.000    0.000    0.000    0.000 
#
# Total GULP energy -122758.721748 kJ/mol
# GULP energy per Si atom -5579.941898 kJ/mol
# Density = 2.354759 g / cm^3
# Si number density = 23.601308 Si / 1000 Ang^3
#
#
#
# Elastic Constant Matrix: (Units=GPa)
#
#
# Indices 1 2 3 4 5 6 
#
# 1 26.4395 11.6563 22.5320 0.0004 16.2209 -0.0001
# 2 11.6563 69.3804 -8.1482 0.0003 2.5483 -0.0023
# 3 22.5320 -8.1482 150.3025 -0.0016 37.0077 -0.0023
# 4 0.0004 0.0003 -0.0016 30.9029 -0.0004 -5.0511
# 5 16.2209 2.5483 37.0077 -0.0004 32.8640 -0.0009
# 6 -0.0001 -0.0023 -0.0023 -5.0511 -0.0009 20.9124
#
#
#
# Elastic Compliance Matrix: (Units=1/GPa)
#
#
# Indices 1 2 3 4 5 6 
#
# 1 0.060452 -0.009620 -0.003350 -0.000002 -0.025320 -0.000003
# 2 -0.009620 0.016223 0.002023 0.000000 0.001212 0.000002
# 3 -0.003350 0.002023 0.009542 0.000001 -0.009249 0.000001
# 4 -0.000002 0.000000 0.000001 0.033689 0.000001 0.008137
# 5 -0.025320 0.001212 -0.009249 0.000001 0.053247 0.000002
# 6 -0.000003 0.000002 0.000001 0.008137 0.000002 0.049784
#
#
# Mechanical properties :
#
#
# Convention : Reuss Voigt Hill
#
# Bulk Modulus (GPa) = 15.54621 33.13363 24.33992
# Shear Modulus (GPa) = 18.77789 31.60801 25.19295
#
# Velocity S-wave (km/s) = 2.82375 3.66354 3.27071
# Velocity P-wave (km/s) = 4.15123 5.65374 4.95971
#
# Compressibility (1/GPa) = 0.06432435
#
# Stress axis : x y z
#
# Youngs Moduli (GPa) = 16.54215 61.64269 104.79524
#
# Poissons Ratio (x) = 0.59298 0.35103
# Poissons Ratio (y) = 0.15913 -0.21202
# Poissons Ratio (z) = 0.05541 -0.12471
#
# Static dielectric constant tensor:
#      x y z
#    x 1.962020 0.000000 0.019860 
#    y 0.000000 1.923660 0.000000 
#    z 0.019860 0.000000 1.934710 
# 
# From -- ./inp_files/344120.got.cif
#   From: 2010.05.17/outbox.cif.g08.bks.cpg/sg12_173_cif.got.tgz:344120.got - 2010.06.03 13:09:07.
