data_PCOD9171741
_publ_section_title
;
Structure prediction by ZEFSAII (Michael W. Deem and Ramdas Pophale) SiO2 
 PCOD9171741
Probable space group: C 2/M
;
_chemical_formula_sum "Si O2"
_cell_formula_units_Z 42
_cell_length_a 22.494837
_cell_length_b 10.525120
_cell_length_c 9.002169
_cell_angle_alpha 90.000000
_cell_angle_beta 61.808761
_cell_angle_gamma 90.000000
_cell_volume 1878.530023
_symmetry_space_group_name_H-M "C 2/M"
_symmetry_group_IT_number 12
_symmetry_cell_setting 'monoclinic'
loop_
_space_group_symop_operation_xyz
x,y,z
-x,y,-z
-x,-y,-z
x,-y,z
1/2+x,1/2+y,z
1/2-x,1/2+y,-z
1/2-x,1/2-y,-z
1/2+x,1/2-y,z
loop_
_atom_site_type_symbol
_atom_site_label
_atom_site_fract_x
_atom_site_fract_y
_atom_site_fract_z
Si Si1 0.150093 0.500000 0.655082
Si Si2 0.630304 0.500000 0.662747
Si Si3 0.065689 0.359070 0.184427
Si Si4 0.076051 0.740524 0.618935
Si Si5 0.265833 0.500000 0.741250
Si Si6 0.247549 0.000000 0.744131
Si Si7 0.179947 0.259676 0.218899
Si Si8 0.000000 0.500000 0.000000
O O1 0.102980 0.621012 0.683229
O O2 0.191191 0.500000 0.759310
O O3 0.204467 0.500000 0.458899
O O4 0.588105 0.372010 0.689884
O O5 0.684153 0.500000 0.461597
O O6 0.672811 0.500000 0.764683
O O7 0.072798 0.500000 0.250754
O O8 0.135315 0.287018 0.126854
O O9 0.001686 0.284460 0.324879
O O10 0.041759 0.392058 0.047746
O O11 0.123548 0.740259 0.417350
O O12 0.282699 0.626133 0.812095
O O13 0.268984 0.126126 0.805983
#
# Coordination Sequence:
#
# PCOD9171741 Si02
#       8
#     4   4   8   8   4   4   8   2
#     4   9  15  26  43  65  98 136 164 179 206 267
#     4   9  18  28  40  69 108 134 150 177 225 277
#     4  10  19  33  50  69  87 117 155 197 239 278
#     4  10  18  28  47  73 100 127 153 187 228 273
#     4   9  18  28  40  69 108 134 150 177 225 277
#     4   9  15  26  43  65  98 136 164 179 206 267
#     4  10  18  28  47  73 100 127 153 187 228 273
#     4   8  20  36  50  70  84 112 164 204 240 274
#
# _framework density 22.357908999999999
#
# number of rings (size 3 to 8) (size 9 to 14) (size 15 to 20)
#    0.571    1.905    1.905    1.714    0.000    6.095 
#    0.000    2.857    0.000    2.286    0.000   21.333 
#    0.000    0.000    0.000    0.000    0.000    0.000 
#
# Total GULP energy -117090.507060 kJ/mol
# GULP energy per Si atom -5575.738431 kJ/mol
# Density = 2.230702 g / cm^3
# Si number density = 22.357909 Si / 1000 Ang^3
#
#
#
# Elastic Constant Matrix: (Units=GPa)
#
#
# Indices 1 2 3 4 5 6 
#
# 1 153.6663 86.6326 36.0193 0.0000 37.1760 0.0000
# 2 86.6326 193.2429 15.4859 0.0000 28.7995 0.0000
# 3 36.0193 15.4859 73.6181 0.0000 11.2508 0.0000
# 4 0.0000 0.0000 0.0000 -30.3302 0.0000 3.8160
# 5 37.1760 28.7995 11.2508 0.0000 45.7699 0.0000
# 6 0.0000 0.0000 0.0000 3.8160 0.0000 24.1728
#
#
#
# Elastic Compliance Matrix: (Units=1/GPa)
#
#
# Indices 1 2 3 4 5 6 
#
# 1 0.010804 -0.003726 -0.003657 0.000000 -0.005532 0.000000
# 2 -0.003726 0.007028 0.000580 0.000000 -0.001538 0.000000
# 3 -0.003657 0.000580 0.015432 0.000000 -0.001188 0.000000
# 4 0.000000 0.000000 0.000000 -0.032328 0.000000 0.005103
# 5 -0.005532 -0.001538 -0.001188 0.000000 0.027602 0.000000
# 6 0.000000 0.000000 0.000000 0.005103 0.000000 0.040563
#
#
# Mechanical properties :
#
#
# Convention : Reuss Voigt Hill
#
# Bulk Modulus (GPa) = 50.86955 77.42252 64.14604
# Shear Modulus (GPa) = 56.01683 26.74847 41.38265
#
# Velocity S-wave (km/s) = 5.01089 3.46262 4.30690
# Velocity P-wave (km/s) = 7.50203 7.11970 7.31336
#
# Compressibility (1/GPa) = 0.01965813
#
# Stress axis : x y z
#
# Youngs Moduli (GPa) = 92.56193 142.28797 64.79885
#
# Poissons Ratio (x) = 0.53015 0.23695
# Poissons Ratio (y) = 0.34488 -0.03756
# Poissons Ratio (z) = 0.33847 -0.08249
#
# Static dielectric constant tensor:
#      x y z
#    x 1.775520 0.000000 -0.038750 
#    y 0.000000 1.772480 0.000000 
#    z -0.038750 0.000000 1.928830 
# 
# From -- ./inp_files/152861.got.cif
#   From: 2010.05.17/outbox.cif.g08.bks.cpg/sg12_77_cif.got.tgz:152861.got - 2010.06.03 13:09:07.
