data_PCOD9171368
_publ_section_title
;
Structure prediction by ZEFSAII (Michael W. Deem and Ramdas Pophale) SiO2 
 PCOD9171368
Probable space group: C 2/M
;
_chemical_formula_sum "Si O2"
_cell_formula_units_Z 64
_cell_length_a 25.485172
_cell_length_b 7.610715
_cell_length_c 19.115883
_cell_angle_alpha 90.000000
_cell_angle_beta 58.841084
_cell_angle_gamma 90.000000
_cell_volume 3172.830976
_symmetry_space_group_name_H-M "C 2/M"
_symmetry_group_IT_number 12
_symmetry_cell_setting 'monoclinic'
loop_
_space_group_symop_operation_xyz
x,y,z
-x,y,-z
-x,-y,-z
x,-y,z
1/2+x,1/2+y,z
1/2-x,1/2+y,-z
1/2-x,1/2-y,-z
1/2+x,1/2-y,z
loop_
_atom_site_type_symbol
_atom_site_label
_atom_site_fract_x
_atom_site_fract_y
_atom_site_fract_z
Si Si1 0.405612 0.198653 0.235499
Si Si2 0.361284 0.290174 0.859251
Si Si3 0.344055 0.287652 0.020494
Si Si4 0.516540 0.298692 0.069292
Si Si5 0.967162 0.290943 0.591624
Si Si6 0.832022 0.212663 0.724575
Si Si7 0.300368 0.209256 0.206520
Si Si8 0.499287 0.213105 0.723608
O O1 0.464309 0.193005 0.143993
O O2 0.351474 0.281068 0.225420
O O3 0.439012 0.278982 0.280687
O O4 0.386592 0.000000 0.267537
O O5 0.353094 0.500000 0.864030
O O6 0.337138 0.221371 0.801532
O O7 0.435041 0.258282 0.806843
O O8 0.327609 0.225411 0.953073
O O9 0.341937 0.500000 0.022066
O O10 0.314093 0.233731 0.114272
O O11 0.414895 0.230262 0.974996
O O12 0.515459 0.500000 0.097364
O O13 0.500000 0.305955 0.000000
O O14 0.978342 0.500000 0.585424
O O15 0.894174 0.263149 0.642705
O O16 0.000000 0.218997 0.500000
O O17 0.991539 0.222095 0.649465
O O18 0.768660 0.275221 0.734701
O O19 0.830260 0.000000 0.728500
O O20 0.301275 0.000000 0.216370
O O21 0.502050 0.000000 0.721787
#
# Coordination Sequence:
#
# PCOD9171368 Si02
#       8
#     8   8   8   8   8   8   8   8
#     4  10  19  29  44  65  91 124 159 192 229 270
#     4   9  17  30  47  65  89 122 159 201 240 268
#     4  10  19  29  43  64  90 124 166 205 239 269
#     4  10  18  28  41  60  88 122 162 205 239 264
#     4   9  18  34  57  81  98 112 138 183 236 285
#     4   9  19  35  51  69  95 125 156 188 226 276
#     4  10  21  33  44  63  94 131 165 194 225 266
#     4   9  17  29  47  72  96 117 147 188 234 279
#
# _framework density 20.171261999999999
#
# number of rings (size 3 to 8) (size 9 to 14) (size 15 to 20)
#    0.000    2.500    2.500    0.000    0.000    2.500 
#    0.000    0.000    0.000    0.750    0.000    0.000 
#    0.000    0.000    0.000    0.000    0.000    0.000 
#
# Total GULP energy -178301.532575 kJ/mol
# GULP energy per Si atom -5571.922893 kJ/mol
# Density = 2.012535 g / cm^3
# Si number density = 20.171262 Si / 1000 Ang^3
#
#
#
# Elastic Constant Matrix: (Units=GPa)
#
#
# Indices 1 2 3 4 5 6 
#
# 1 117.7510 -0.4646 73.2740 -0.0011 -8.2999 -0.0008
# 2 -0.4646 41.3815 -2.8417 -0.0048 3.7249 -0.0051
# 3 73.2740 -2.8417 104.9548 0.0004 7.9483 -0.0002
# 4 -0.0011 -0.0048 0.0004 1.9856 0.0001 -3.1241
# 5 -8.2999 3.7249 7.9483 0.0001 15.7200 -0.0001
# 6 -0.0008 -0.0051 -0.0002 -3.1241 -0.0001 11.5885
#
#
#
# Elastic Compliance Matrix: (Units=1/GPa)
#
#
# Indices 1 2 3 4 5 6 
#
# 1 0.018777 -0.002391 -0.014524 0.000012 0.017824 0.000004
# 2 -0.002391 0.025132 0.003012 0.000134 -0.008740 0.000047
# 3 -0.014524 0.003012 0.021196 -0.000006 -0.019099 -0.000001
# 4 0.000012 0.000134 -0.000006 0.874614 -0.000029 0.235782
# 5 0.017824 -0.008740 -0.019099 -0.000029 0.084752 -0.000010
# 6 0.000004 0.000047 -0.000001 0.235782 -0.000010 0.149856
#
#
# Mechanical properties :
#
#
# Convention : Reuss Voigt Hill
#
# Bulk Modulus (GPa) = 26.81068 44.89140 35.85104
# Shear Modulus (GPa) = 4.11669 18.80011 11.45840
#
# Velocity S-wave (km/s) = 1.43014 3.05622 2.38598
# Velocity P-wave (km/s) = 4.00593 5.89554 5.04008
#
# Compressibility (1/GPa) = 0.03729857
#
# Stress axis : x y z
#
# Youngs Moduli (GPa) = 53.25529 39.78973 47.17916
#
# Poissons Ratio (x) = 0.09514 0.68523
# Poissons Ratio (y) = 0.12733 -0.14209
# Poissons Ratio (z) = 0.77348 -0.11983
#
# Static dielectric constant tensor:
#      x y z
#    x 1.788110 0.000000 0.040260 
#    y 0.000000 1.795050 0.000000 
#    z 0.040260 0.000000 1.700030 
# 
# From -- ./inp_files/323683.got.cif
#   From: 2010.05.17/outbox.cif.g08.bks.cpg/sg12_162_cif.got.tgz:323683.got - 2010.06.03 13:09:07.
