data_PCOD9171057
_publ_section_title
;
Structure prediction by ZEFSAII (Michael W. Deem and Ramdas Pophale) SiO2 
 PCOD9171057
Probable space group: C 2/M
;
_chemical_formula_sum "Si O2"
_cell_formula_units_Z 40
_cell_length_a 15.274839
_cell_length_b 13.730728
_cell_length_c 6.926236
_cell_angle_alpha 90.000000
_cell_angle_beta 71.941109
_cell_angle_gamma 90.000000
_cell_volume 1381.110805
_symmetry_space_group_name_H-M "C 2/M"
_symmetry_group_IT_number 12
_symmetry_cell_setting 'monoclinic'
loop_
_space_group_symop_operation_xyz
x,y,z
-x,y,-z
-x,-y,-z
x,-y,z
1/2+x,1/2+y,z
1/2-x,1/2+y,-z
1/2-x,1/2-y,-z
1/2+x,1/2-y,z
loop_
_atom_site_type_symbol
_atom_site_label
_atom_site_fract_x
_atom_site_fract_y
_atom_site_fract_z
Si Si1 0.902133 0.383490 0.146548
Si Si2 0.636928 0.886825 0.370109
Si Si3 0.972540 0.209402 0.730278
Si Si4 0.655648 0.614430 0.685179
Si Si5 0.293733 0.386134 0.805367
O O1 0.903245 0.500000 0.114722
O O2 0.809661 0.346053 0.106158
O O3 0.886951 0.373374 0.386767
O O4 0.000000 0.347076 0.000000
O O5 0.572179 0.813284 0.300652
O O6 0.746249 0.867552 0.276401
O O7 0.618852 0.000000 0.333316
O O8 0.881813 0.152218 0.858347
O O9 0.000000 0.166427 0.500000
O O10 0.067268 0.183508 0.776201
O O11 0.631577 0.500000 0.728707
O O12 0.684784 0.626546 0.438658
O O13 0.288290 0.500000 0.848607
#
# Coordination Sequence:
#
# PCOD9171057 Si02
#       5
#     8   8   8   8   8
#     4   8  14  26  44  63  85 117 154 190 226 262
#     4   9  18  31  46  67  94 123 155 186 222 275
#     4  10  18  26  44  68  96 122 147 183 231 276
#     4   8  15  28  44  62  88 119 149 185 225 264
#     4   8  14  24  40  64  90 112 141 182 223 265
#
# _framework density 28.962197
#
# number of rings (size 3 to 8) (size 9 to 14) (size 15 to 20)
#    0.000    3.400    0.000    3.000    0.000   10.000 
#    0.000    0.000    0.000   13.200    0.000    0.000 
#    0.000    7.200    0.000    0.000    0.000   12.400 
#
# Total GULP energy -112088.120193 kJ/mol
# GULP energy per Si atom -5604.406010 kJ/mol
# Density = 2.889628 g / cm^3
# Si number density = 28.962197 Si / 1000 Ang^3
#
#
#
# Elastic Constant Matrix: (Units=GPa)
#
#
# Indices 1 2 3 4 5 6 
#
# 1 342.2291 113.1320 101.2597 0.0000 -51.6872 0.0000
# 2 113.1320 142.7482 57.6427 0.0000 -58.8385 0.0000
# 3 101.2597 57.6427 147.8059 0.0000 -28.2379 0.0000
# 4 0.0000 0.0000 0.0000 35.6862 0.0000 -20.1401
# 5 -51.6872 -58.8385 -28.2379 0.0000 76.5532 0.0000
# 6 0.0000 0.0000 0.0000 -20.1401 0.0000 44.5347
#
#
#
# Elastic Compliance Matrix: (Units=1/GPa)
#
#
# Indices 1 2 3 4 5 6 
#
# 1 0.004394 -0.002588 -0.001952 0.000000 0.000258 0.000000
# 2 -0.002588 0.012872 -0.001819 0.000000 0.007475 0.000000
# 3 -0.001952 -0.001819 0.008922 0.000000 0.000575 0.000000
# 4 0.000000 0.000000 0.000000 0.037625 0.000000 0.017015
# 5 0.000258 0.007475 0.000575 0.000000 0.019194 0.000000
# 6 0.000000 0.000000 0.000000 0.017015 0.000000 0.030149
#
#
# Mechanical properties :
#
#
# Convention : Reuss Voigt Hill
#
# Bulk Modulus (GPa) = 74.23480 130.76133 102.49806
# Shear Modulus (GPa) = 38.35426 55.40473 46.87950
#
# Velocity S-wave (km/s) = 3.64302 4.37853 4.02760
# Velocity P-wave (km/s) = 6.58656 8.41481 7.55618
#
# Compressibility (1/GPa) = 0.01347077
#
# Stress axis : x y z
#
# Youngs Moduli (GPa) = 227.58636 77.68814 112.08314
#
# Poissons Ratio (x) = 0.20106 0.21875
# Poissons Ratio (y) = 0.58900 0.20386
# Poissons Ratio (z) = 0.44418 0.14130
#
# Static dielectric constant tensor:
#      x y z
#    x 2.217960 0.000000 0.037470 
#    y 0.000000 2.240620 0.000000 
#    z 0.037470 0.000000 2.314710 
# 
# From -- ./inp_files/129118.got.cif
#   From: 2010.05.17/outbox.cif.g08.bks.cpg/sg12_65_cif.got.tgz:129118.got - 2010.06.03 13:09:07.
