data_PCOD9171665
_publ_section_title
;
Structure prediction by ZEFSAII (Michael W. Deem and Ramdas Pophale) SiO2 
 PCOD9171665
Probable space group: C 2/M
;
_chemical_formula_sum "Si O2"
_cell_formula_units_Z 64
_cell_length_a 20.630928
_cell_length_b 7.477504
_cell_length_c 21.323186
_cell_angle_alpha 90.000000
_cell_angle_beta 96.551748
_cell_angle_gamma 90.000000
_cell_volume 3267.999066
_symmetry_space_group_name_H-M "C 2/M"
_symmetry_group_IT_number 12
_symmetry_cell_setting 'monoclinic'
loop_
_space_group_symop_operation_xyz
x,y,z
-x,y,-z
-x,-y,-z
x,-y,z
1/2+x,1/2+y,z
1/2-x,1/2+y,-z
1/2-x,1/2-y,-z
1/2+x,1/2-y,z
loop_
_atom_site_type_symbol
_atom_site_label
_atom_site_fract_x
_atom_site_fract_y
_atom_site_fract_z
Si Si1 0.236572 0.282121 0.327175
Si Si2 0.083277 0.209544 0.327716
Si Si3 0.060251 0.780542 0.463547
Si Si4 0.807469 0.213528 0.457590
Si Si5 0.942550 0.713898 0.948856
Si Si6 0.266673 0.202709 0.809160
Si Si7 0.706370 0.785174 0.055555
Si Si8 0.583306 0.286024 0.191461
O O1 0.236253 0.500000 0.325534
O O2 0.162201 0.227431 0.334721
O O3 0.284385 0.219725 0.387255
O O4 0.255229 0.217035 0.259528
O O5 0.058675 0.283485 0.391278
O O6 0.059130 0.277984 0.257097
O O7 0.066804 0.000000 0.326769
O O8 0.126110 0.718506 0.504863
O O9 0.000000 0.728388 0.500000
O O10 0.061796 0.000000 0.461570
O O11 0.750000 0.250000 0.500000
O O12 0.814691 0.000000 0.452048
O O13 0.940457 0.500000 0.956888
O O14 0.868839 0.780931 0.955881
O O15 0.955556 0.749139 0.876550
O O16 0.000000 0.783453 0.000000
O O17 0.258998 0.285504 0.877049
O O18 0.345515 0.200255 0.810679
O O19 0.240885 0.000000 0.808331
O O20 0.702173 0.000000 0.062812
O O21 0.750000 0.750000 0.000000
O O22 0.592962 0.500000 0.196545
#
# Coordination Sequence:
#
# PCOD9171665 Si02
#       8
#     8   8   8   8   8   8   8   8
#     4   9  16  26  44  68  90 111 147 194 229 260
#     4   9  16  27  44  66  92 118 148 184 225 270
#     4   9  17  29  45  64  90 124 156 183 218 270
#     4  10  18  28  46  70  90 114 151 191 228 265
#     4   9  18  33  51  69  90 121 156 187 221 265
#     4   8  15  28  43  62  91 121 151 183 219 267
#     4   9  17  29  47  68  91 119 150 183 220 267
#     4   9  16  25  42  69  95 115 145 189 230 265
#
# _framework density 19.583848
#
# number of rings (size 3 to 8) (size 9 to 14) (size 15 to 20)
#    0.000    3.000    1.250    1.125    0.000    2.750 
#    0.000    0.000    2.750    1.500    0.000    0.000 
#    0.000    0.000    0.000    0.000    0.000    0.000 
#
# Total GULP energy -178211.781477 kJ/mol
# GULP energy per Si atom -5569.118171 kJ/mol
# Density = 1.953927 g / cm^3
# Si number density = 19.583848 Si / 1000 Ang^3
#
#
#
# Elastic Constant Matrix: (Units=GPa)
#
#
# Indices 1 2 3 4 5 6 
#
# 1 79.0103 -2.5387 79.9161 0.0000 -0.9870 0.0000
# 2 -2.5387 57.9525 -1.8580 0.0000 1.7503 0.0000
# 3 79.9161 -1.8580 249.5531 0.0000 0.5311 0.0000
# 4 0.0000 0.0000 0.0000 6.0266 0.0000 -3.3410
# 5 -0.9870 1.7503 0.5311 0.0000 31.9172 0.0000
# 6 0.0000 0.0000 0.0000 -3.3410 0.0000 9.6025
#
#
#
# Elastic Compliance Matrix: (Units=1/GPa)
#
#
# Indices 1 2 3 4 5 6 
#
# 1 0.018756 0.000610 -0.006003 0.000000 0.000647 0.000000
# 2 0.000610 0.017308 -0.000064 0.000000 -0.000929 0.000000
# 3 -0.006003 -0.000064 0.005930 0.000000 -0.000281 0.000000
# 4 0.000000 0.000000 0.000000 0.205584 0.000000 0.071528
# 5 0.000647 -0.000929 -0.000281 0.000000 0.031407 0.000000
# 6 0.000000 0.000000 0.000000 0.071528 0.000000 0.129026
#
#
# Mechanical properties :
#
#
# Convention : Reuss Voigt Hill
#
# Bulk Modulus (GPa) = 32.17683 59.72829 45.95256
# Shear Modulus (GPa) = 11.64724 30.24235 20.94480
#
# Velocity S-wave (km/s) = 2.44137 3.93396 3.27386
# Velocity P-wave (km/s) = 4.94095 7.15539 6.14869
#
# Compressibility (1/GPa) = 0.03107826
#
# Stress axis : x y z
#
# Youngs Moduli (GPa) = 53.31514 57.77600 168.64070
#
# Poissons Ratio (x) = -0.03522 1.01240
# Poissons Ratio (y) = -0.03250 0.01086
# Poissons Ratio (z) = 0.32007 0.00372
#
# Static dielectric constant tensor:
#      x y z
#    x 1.642640 0.000000 0.024680 
#    y 0.000000 1.693420 0.000000 
#    z 0.024680 0.000000 1.758560 
# 
# From -- ./inp_files/319175.got.cif
#   From: 2010.05.17/outbox.cif.g08.bks.cpg/sg12_160_cif.got.tgz:319175.got - 2010.06.03 13:09:07.
