data_PCOD9171599
_publ_section_title
;
Structure prediction by ZEFSAII (Michael W. Deem and Ramdas Pophale) SiO2 
 PCOD9171599
Probable space group: C 2/M
;
_chemical_formula_sum "Si O2"
_cell_formula_units_Z 64
_cell_length_a 29.321986
_cell_length_b 7.991914
_cell_length_c 15.357929
_cell_angle_alpha 90.000000
_cell_angle_beta 91.301705
_cell_angle_gamma 90.000000
_cell_volume 3598.029736
_symmetry_space_group_name_H-M "C 2/M"
_symmetry_group_IT_number 12
_symmetry_cell_setting 'monoclinic'
loop_
_space_group_symop_operation_xyz
x,y,z
-x,y,-z
-x,-y,-z
x,-y,z
1/2+x,1/2+y,z
1/2-x,1/2+y,-z
1/2-x,1/2-y,-z
1/2+x,1/2-y,z
loop_
_atom_site_type_symbol
_atom_site_label
_atom_site_fract_x
_atom_site_fract_y
_atom_site_fract_z
Si Si1 0.491979 0.198873 0.401042
Si Si2 0.264416 0.196063 0.616655
Si Si3 0.153935 0.296783 0.484031
Si Si4 0.307810 0.301579 0.255379
Si Si5 0.167967 0.204121 0.225783
Si Si6 0.241556 0.801481 0.098182
Si Si7 0.085491 0.198218 0.326127
Si Si8 0.893908 0.298494 0.341623
O O1 0.500000 0.266872 0.500000
O O2 0.536631 0.224772 0.344758
O O3 0.445706 0.263628 0.353855
O O4 0.485265 0.000000 0.411538
O O5 0.295033 0.265701 0.537990
O O6 0.220118 0.274020 0.662084
O O7 0.301107 0.214249 0.697444
O O8 0.256577 0.000000 0.599199
O O9 0.155175 0.500000 0.483942
O O10 0.118422 0.240276 0.408800
O O11 0.132728 0.238116 0.573265
O O12 0.304763 0.500000 0.263721
O O13 0.280983 0.254407 0.166886
O O14 0.360597 0.252179 0.262116
O O15 0.193030 0.254208 0.137768
O O16 0.115755 0.251787 0.243885
O O17 0.170713 0.000000 0.235326
O O18 0.241080 0.000000 0.100574
O O19 0.250000 0.750000 0.000000
O O20 0.079031 0.000000 0.321143
O O21 0.894781 0.500000 0.342600
#
# Coordination Sequence:
#
# PCOD9171599 Si02
#       8
#     8   8   8   8   8   8   8   8
#     4  10  19  33  48  64  89 128 174 213 249 288
#     4   8  15  27  44  63  87 122 162 198 230 274
#     4   9  16  29  45  61  86 126 168 201 238 282
#     4  10  20  33  47  69  99 126 157 198 241 285
#     4   8  16  29  45  69  99 126 151 188 237 287
#     4  10  19  34  56  79 103 128 155 187 231 288
#     4  10  18  28  45  69  95 123 161 207 249 281
#     4  10  20  32  46  63  89 128 170 205 243 288
#
# _framework density 17.787514000000002
#
# number of rings (size 3 to 8) (size 9 to 14) (size 15 to 20)
#    0.000    2.625    1.250    1.125    0.000    3.250 
#    0.000    0.000    0.000    0.000    0.000    0.875 
#    0.000    7.000    0.000    0.000    0.000    0.000 
#
# Total GULP energy -178252.190031 kJ/mol
# GULP energy per Si atom -5570.380938 kJ/mol
# Density = 1.774703 g / cm^3
# Si number density = 17.787514 Si / 1000 Ang^3
#
#
#
# Elastic Constant Matrix: (Units=GPa)
#
#
# Indices 1 2 3 4 5 6 
#
# 1 145.6208 5.9574 54.2934 0.0000 5.2449 0.0000
# 2 5.9574 21.1985 7.7078 0.0000 -0.7766 0.0000
# 3 54.2934 7.7078 72.3625 0.0000 -7.5730 0.0000
# 4 0.0000 0.0000 0.0000 17.9654 0.0000 0.4191
# 5 5.2449 -0.7766 -7.5730 0.0000 17.8642 0.0000
# 6 0.0000 0.0000 0.0000 0.4191 0.0000 20.0904
#
#
#
# Elastic Compliance Matrix: (Units=1/GPa)
#
#
# Indices 1 2 3 4 5 6 
#
# 1 0.010216 -0.000078 -0.008341 0.000000 -0.006538 0.000000
# 2 -0.000078 0.049074 -0.005173 0.000000 -0.000037 0.000000
# 3 -0.008341 -0.005173 0.021830 0.000000 0.011478 0.000000
# 4 0.000000 0.000000 0.000000 0.055690 0.000000 -0.001162
# 5 -0.006538 -0.000037 0.011478 0.000000 0.062762 0.000000
# 6 0.000000 0.000000 0.000000 -0.001162 0.000000 0.049799
#
#
# Mechanical properties :
#
#
# Convention : Reuss Voigt Hill
#
# Bulk Modulus (GPa) = 18.54010 41.67767 30.10889
# Shear Modulus (GPa) = 16.97610 22.59886 19.78748
#
# Velocity S-wave (km/s) = 3.09266 3.56826 3.33894
# Velocity P-wave (km/s) = 4.81648 6.36069 5.64167
#
# Compressibility (1/GPa) = 0.05393715
#
# Stress axis : x y z
#
# Youngs Moduli (GPa) = 97.88962 20.37719 45.80956
#
# Poissons Ratio (x) = 0.00158 0.38208
# Poissons Ratio (y) = 0.00761 0.23696
# Poissons Ratio (z) = 0.81647 0.10541
#
# Static dielectric constant tensor:
#      x y z
#    x 1.662010 0.000000 -0.009520 
#    y 0.000000 1.631200 0.000000 
#    z -0.009520 0.000000 1.594670 
# 
# From -- ./inp_files/248409.got.cif
#   From: 2010.05.17/outbox.cif.g08.bks.cpg/sg12_125_cif.got.tgz:248409.got - 2010.06.03 13:09:07.
