data_PCOD9171921
_publ_section_title
;
Structure prediction by ZEFSAII (Michael W. Deem and Ramdas Pophale) SiO2 
 PCOD9171921
Probable space group: C 2/M
;
_chemical_formula_sum "Si O2"
_cell_formula_units_Z 64
_cell_length_a 25.334533
_cell_length_b 7.350788
_cell_length_c 30.861742
_cell_angle_alpha 90.000000
_cell_angle_beta 146.543657
_cell_angle_gamma 90.000000
_cell_volume 3168.519346
_symmetry_space_group_name_H-M "C 2/M"
_symmetry_group_IT_number 12
_symmetry_cell_setting 'monoclinic'
loop_
_space_group_symop_operation_xyz
x,y,z
-x,y,-z
-x,-y,-z
x,-y,z
1/2+x,1/2+y,z
1/2-x,1/2+y,-z
1/2-x,1/2-y,-z
1/2+x,1/2-y,z
loop_
_atom_site_type_symbol
_atom_site_label
_atom_site_fract_x
_atom_site_fract_y
_atom_site_fract_z
Si Si1 0.863628 0.277286 0.292084
Si Si2 0.990053 0.221919 0.123997
Si Si3 0.947069 0.218477 0.736977
Si Si4 0.278406 0.282557 0.969664
Si Si5 0.529129 0.778161 0.471283
Si Si6 0.195006 0.220985 0.237530
Si Si7 0.242550 0.721277 0.622927
Si Si8 0.380185 0.785874 0.205598
O O1 0.864756 0.500000 0.292969
O O2 0.764443 0.220103 0.246749
O O3 0.874269 0.213381 0.250176
O O4 0.951256 0.219760 0.382845
O O5 0.006856 0.278196 0.185572
O O6 0.084317 0.279200 0.162195
O O7 0.989246 0.000000 0.123375
O O8 0.886776 0.284671 0.037212
O O9 0.836752 0.281012 0.661249
O O10 0.015821 0.269065 0.744937
O O11 0.944958 0.000000 0.737053
O O12 0.281078 0.500000 0.966207
O O13 0.198540 0.210320 0.881951
O O14 0.250000 0.250000 0.000000
O O15 0.500000 0.722983 0.500000
O O16 0.637838 0.718985 0.536551
O O17 0.528360 0.000000 0.470771
O O18 0.239616 0.272968 0.314673
O O19 0.194521 0.000000 0.236756
O O20 0.241936 0.500000 0.621689
O O21 0.360242 0.000000 0.195690
#
# Coordination Sequence:
#
# PCOD9171921 Si02
#       8
#     8   8   8   8   8   8   8   8
#     4   9  16  25  37  58  92 122 137 166 222 269
#     4   8  14  24  41  62  81 105 141 182 213 243
#     4   9  16  28  45  63  85 114 148 180 211 247
#     4  10  18  29  44  63  86 112 147 181 210 249
#     4   9  13  20  37  61  88 114 142 175 214 255
#     4   8  12  21  37  58  84 110 136 171 217 256
#     4   8  13  21  38  64  84 105 144 187 212 239
#     4  10  20  30  41  63  94 119 139 172 219 265
#
# _framework density 20.198708
#
# number of rings (size 3 to 8) (size 9 to 14) (size 15 to 20)
#    0.000    3.125    2.500    1.500    0.000    0.000 
#    0.000    1.250    0.000    3.750    0.000    4.375 
#    0.000    3.000    0.000    0.000    0.000    0.000 
#
# Total GULP energy -178495.024561 kJ/mol
# GULP energy per Si atom -5577.969518 kJ/mol
# Density = 2.015273 g / cm^3
# Si number density = 20.198708 Si / 1000 Ang^3
#
#
#
# Elastic Constant Matrix: (Units=GPa)
#
#
# Indices 1 2 3 4 5 6 
#
# 1 196.3893 0.8636 120.8591 0.0005 16.6678 -0.0003
# 2 0.8636 74.4474 6.5432 0.0008 -1.4007 0.0012
# 3 120.8591 6.5432 154.8284 -0.0009 19.2880 0.0000
# 4 0.0005 0.0008 -0.0009 -6.5210 0.0004 0.4325
# 5 16.6678 -1.4007 19.2880 0.0004 34.1505 -0.0001
# 6 -0.0003 0.0012 0.0000 0.4325 -0.0001 9.6625
#
#
#
# Elastic Compliance Matrix: (Units=1/GPa)
#
#
# Indices 1 2 3 4 5 6 
#
# 1 0.009830 0.000549 -0.007639 0.000002 -0.000461 0.000000
# 2 0.000549 0.013541 -0.001115 0.000002 0.000917 -0.000002
# 3 -0.007639 -0.001115 0.012919 -0.000003 -0.003614 0.000000
# 4 0.000002 0.000002 -0.000003 -0.152897 0.000002 0.006844
# 5 -0.000461 0.000917 -0.003614 0.000002 0.031586 0.000000
# 6 0.000000 -0.000002 0.000000 0.006844 0.000000 0.103186
#
#
# Mechanical properties :
#
#
# Convention : Reuss Voigt Hill
#
# Bulk Modulus (GPa) = 50.30222 75.79964 63.05093
# Shear Modulus (GPa) = 121.35589 27.28503 74.32046
#
# Velocity S-wave (km/s) = 7.75960 3.67935 6.07244
# Velocity P-wave (km/s) = 10.25864 7.46047 8.96934
#
# Compressibility (1/GPa) = 0.01987984
#
# Stress axis : x y z
#
# Youngs Moduli (GPa) = 101.73423 73.84886 77.40597
#
# Poissons Ratio (x) = -0.04052 0.59128
# Poissons Ratio (y) = -0.05582 0.08629
# Poissons Ratio (z) = 0.77712 0.08233
#
# Static dielectric constant tensor:
#      x y z
#    x 1.690660 0.000000 0.029230 
#    y 0.000000 1.828520 0.000000 
#    z 0.029230 0.000000 1.703570 
# 
# From -- ./inp_files/282550.got.cif
#   From: 2010.05.17/outbox.cif.g08.bks.cpg/sg12_142_cif.got.tgz:282550.got - 2010.06.03 13:09:07.
