data_PCOD9171904
_publ_section_title
;
Structure prediction by ZEFSAII (Michael W. Deem and Ramdas Pophale) SiO2 
 PCOD9171904
Probable space group: C 2/M
;
_chemical_formula_sum "Si O2"
_cell_formula_units_Z 64
_cell_length_a 24.896568
_cell_length_b 7.332968
_cell_length_c 27.343236
_cell_angle_alpha 90.000000
_cell_angle_beta 143.240078
_cell_angle_gamma 90.000000
_cell_volume 2987.491929
_symmetry_space_group_name_H-M "C 2/M"
_symmetry_group_IT_number 12
_symmetry_cell_setting 'monoclinic'
loop_
_space_group_symop_operation_xyz
x,y,z
-x,y,-z
-x,-y,-z
x,-y,z
1/2+x,1/2+y,z
1/2-x,1/2+y,-z
1/2-x,1/2-y,-z
1/2+x,1/2-y,z
loop_
_atom_site_type_symbol
_atom_site_label
_atom_site_fract_x
_atom_site_fract_y
_atom_site_fract_z
Si Si1 0.559741 0.715988 0.225045
Si Si2 0.412426 0.221979 0.406088
Si Si3 0.496705 0.277963 0.075945
Si Si4 0.850484 0.277340 0.255764
Si Si5 0.645340 0.277969 0.106654
Si Si6 0.337540 0.782852 0.531179
Si Si7 0.734719 0.777146 0.624641
Si Si8 0.507189 0.218879 0.716024
O O1 0.569012 0.500000 0.224475
O O2 0.507586 0.785491 0.139348
O O3 0.662280 0.786086 0.301828
O O4 0.509550 0.740132 0.239632
O O5 0.500000 0.282654 0.500000
O O6 0.404174 0.278662 0.343768
O O7 0.322604 0.275087 0.369880
O O8 0.415680 0.000000 0.408278
O O9 0.493961 0.500000 0.073686
O O10 0.584639 0.224990 0.108797
O O11 0.409776 0.219945 0.981718
O O12 0.849031 0.500000 0.255153
O O13 0.747601 0.216461 0.183021
O O14 0.902607 0.219091 0.245056
O O15 0.646909 0.500000 0.107996
O O16 0.250000 0.750000 0.500000
O O17 0.317347 0.715337 0.462039
O O18 0.423298 0.711276 0.622760
O O19 0.350379 0.000000 0.535855
O O20 0.736187 0.000000 0.624778
O O21 0.506295 0.000000 0.712166
#
# Coordination Sequence:
#
# PCOD9171904 Si02
#       8
#     8   8   8   8   8   8   8   8
#     4  10  18  29  45  66  90 116 149 185 222 260
#     4   9  15  23  37  59  86 113 141 179 225 266
#     4   8  14  24  42  68  92 111 139 185 229 267
#     4   9  16  26  40  59  87 121 149 177 222 272
#     4   8  13  24  42  65  91 115 141 179 231 275
#     4  10  18  29  43  61  87 117 149 182 216 258
#     4   9  16  25  40  62  86 110 141 182 223 260
#     4  10  20  31  43  63  92 122 152 183 216 263
#
# _framework density 21.422651999999999
#
# number of rings (size 3 to 8) (size 9 to 14) (size 15 to 20)
#    0.000    2.875    1.250    2.250    0.000    6.000 
#    0.000    0.625    0.000    0.000    0.000    6.125 
#    0.000    4.500    0.000    0.000    0.000    0.000 
#
# Total GULP energy -178689.784824 kJ/mol
# GULP energy per Si atom -5584.055776 kJ/mol
# Density = 2.137389 g / cm^3
# Si number density = 21.422652 Si / 1000 Ang^3
#
#
#
# Elastic Constant Matrix: (Units=GPa)
#
#
# Indices 1 2 3 4 5 6 
#
# 1 137.2554 -6.1894 87.5716 -0.0003 -12.8724 -0.0008
# 2 -6.1894 81.1921 3.8760 -0.0011 -0.9814 -0.0050
# 3 87.5716 3.8760 152.7136 0.0000 -10.7446 0.0002
# 4 -0.0003 -0.0011 0.0000 -8.7492 0.0002 -6.7709
# 5 -12.8724 -0.9814 -10.7446 0.0002 40.0099 -0.0001
# 6 -0.0008 -0.0050 0.0002 -6.7709 -0.0001 8.4357
#
#
#
# Elastic Compliance Matrix: (Units=1/GPa)
#
#
# Indices 1 2 3 4 5 6 
#
# 1 0.011766 0.001238 -0.006635 -0.000001 0.002034 0.000001
# 2 0.001238 0.012464 -0.000996 -0.000005 0.000437 0.000004
# 3 -0.006635 -0.000996 0.010423 0.000001 0.000640 -0.000001
# 4 -0.000001 -0.000005 0.000001 -0.070503 0.000000 -0.056588
# 5 0.002034 0.000437 0.000640 0.000000 0.025831 0.000001
# 6 0.000001 0.000004 -0.000001 -0.056588 0.000001 0.073123
#
#
# Mechanical properties :
#
#
# Convention : Reuss Voigt Hill
#
# Bulk Modulus (GPa) = 45.73002 60.18640 52.95821
# Shear Modulus (GPa) = 60.11198 26.99947 43.55572
#
# Velocity S-wave (km/s) = 5.30292 3.55396 4.51395
# Velocity P-wave (km/s) = 7.67382 6.70795 7.20708
#
# Compressibility (1/GPa) = 0.02186747
#
# Stress axis : x y z
#
# Youngs Moduli (GPa) = 84.99320 80.23319 95.93824
#
# Poissons Ratio (x) = -0.09935 0.63657
# Poissons Ratio (y) = -0.10524 0.09552
# Poissons Ratio (z) = 0.56395 0.07989
#
# Static dielectric constant tensor:
#      x y z
#    x 1.736850 0.000000 -0.008080 
#    y 0.000000 1.872260 0.000000 
#    z -0.008080 0.000000 1.755060 
# 
# From -- ./inp_files/349054.got.cif
#   From: 2010.05.17/outbox.cif.g08.bks.cpg/sg12_175_cif.got.tgz:349054.got - 2010.06.03 13:09:07.
