data_PCOD9171732
_publ_section_title
;
Structure prediction by ZEFSAII (Michael W. Deem and Ramdas Pophale) SiO2 
 PCOD9171732
Probable space group: C 2/M
;
_chemical_formula_sum "Si O2"
_cell_formula_units_Z 48
_cell_length_a 28.260802
_cell_length_b 8.571544
_cell_length_c 12.238379
_cell_angle_alpha 90.000000
_cell_angle_beta 107.174799
_cell_angle_gamma 90.000000
_cell_volume 2832.412255
_symmetry_space_group_name_H-M "C 2/M"
_symmetry_group_IT_number 12
_symmetry_cell_setting 'monoclinic'
loop_
_space_group_symop_operation_xyz
x,y,z
-x,y,-z
-x,-y,-z
x,-y,z
1/2+x,1/2+y,z
1/2-x,1/2+y,-z
1/2-x,1/2-y,-z
1/2+x,1/2-y,z
loop_
_atom_site_type_symbol
_atom_site_label
_atom_site_fract_x
_atom_site_fract_y
_atom_site_fract_z
Si Si1 0.305321 0.812810 0.533001
Si Si2 0.568673 0.188134 0.757244
Si Si3 0.377231 0.317357 0.402337
Si Si4 0.959606 0.317368 0.611502
Si Si5 0.115111 0.683394 0.240845
Si Si6 0.944925 0.308798 0.002112
O O1 0.250000 0.750000 0.500000
O O2 0.333749 0.763462 0.441994
O O3 0.338690 0.752296 0.658235
O O4 0.305286 0.000000 0.537663
O O5 0.612093 0.253550 0.711236
O O6 0.515806 0.232016 0.667514
O O7 0.566950 0.238977 0.882267
O O8 0.570768 0.000000 0.757226
O O9 0.368029 0.500000 0.393129
O O10 0.426946 0.279668 0.505443
O O11 0.958261 0.500000 0.575966
O O12 0.931535 0.309243 0.708433
O O13 0.125912 0.500000 0.230265
O O14 0.095994 0.747981 0.112891
O O15 0.944998 0.500000 0.000181
O O16 0.000000 0.261790 0.000000
#
# Coordination Sequence:
#
# PCOD9171732 Si02
#       6
#     8   8   8   8   8   8
#     4  10  20  36  58  79  99 122 158 207 259 303
#     4  10  18  28  47  72 101 136 170 205 243 290
#     4  11  22  33  46  68 100 134 169 206 248 295
#     4   9  16  28  46  69  99 133 169 206 245 289
#     4   8  14  26  46  75 103 127 159 203 245 289
#     4   9  14  24  46  75 103 132 169 203 235 286
#
# _framework density 16.946684999999999
#
# number of rings (size 3 to 8) (size 9 to 14) (size 15 to 20)
#    0.000    2.500    1.667    3.500    0.000    2.667 
#    0.000    0.000    0.000    6.500    0.000    0.000 
#    0.000    0.000    0.000    0.000    0.000    0.000 
#
# Total GULP energy -133768.859755 kJ/mol
# GULP energy per Si atom -5573.702490 kJ/mol
# Density = 1.690811 g / cm^3
# Si number density = 16.946685 Si / 1000 Ang^3
#
#
#
# Elastic Constant Matrix: (Units=GPa)
#
#
# Indices 1 2 3 4 5 6 
#
# 1 120.6928 25.9513 70.3444 0.0000 -2.4961 0.0000
# 2 25.9513 26.4954 25.2525 0.0000 -4.8027 0.0000
# 3 70.3444 25.2525 114.1388 0.0000 -19.7745 0.0000
# 4 0.0000 0.0000 0.0000 -17.0692 0.0000 -10.6618
# 5 -2.4961 -4.8027 -19.7745 0.0000 15.2755 0.0000
# 6 0.0000 0.0000 0.0000 -10.6618 0.0000 19.4093
#
#
#
# Elastic Compliance Matrix: (Units=1/GPa)
#
#
# Indices 1 2 3 4 5 6 
#
# 1 0.015651 -0.008044 -0.010134 0.000000 -0.013090 0.000000
# 2 -0.008044 0.051997 -0.005082 0.000000 0.008455 0.000000
# 3 -0.010134 -0.005082 0.020068 0.000000 0.022725 0.000000
# 4 0.000000 0.000000 0.000000 -0.043619 0.000000 -0.023960
# 5 -0.013090 0.008455 0.022725 0.000000 0.095402 0.000000
# 6 0.000000 0.000000 0.000000 -0.023960 0.000000 0.038360
#
#
# Mechanical properties :
#
#
# Convention : Reuss Voigt Hill
#
# Bulk Modulus (GPa) = 24.27348 56.04705 40.16026
# Shear Modulus (GPa) = 20.99875 12.84172 16.92023
#
# Velocity S-wave (km/s) = 3.52391 2.75575 3.16324
# Velocity P-wave (km/s) = 5.55984 6.57799 6.09023
#
# Compressibility (1/GPa) = 0.04119723
#
# Stress axis : x y z
#
# Youngs Moduli (GPa) = 63.89494 19.23194 49.82994
#
# Poissons Ratio (x) = 0.15469 0.50497
# Poissons Ratio (y) = 0.51394 0.25323
# Poissons Ratio (z) = 0.64750 0.09773
#
# Static dielectric constant tensor:
#      x y z
#    x 1.552830 0.000000 0.003710 
#    y 0.000000 1.578000 0.000000 
#    z 0.003710 0.000000 1.606610 
# 
# From -- ./inp_files/172327.got.cif
#   From: 2010.05.17/outbox.cif.g08.bks.cpg/sg12_87_cif.got.tgz:172327.got - 2010.06.03 13:09:07.
