data_PCOD9171808
_publ_section_title
;
Structure prediction by ZEFSAII (Michael W. Deem and Ramdas Pophale) SiO2 
 PCOD9171808
Probable space group: C 2/M
;
_chemical_formula_sum "Si O2"
_cell_formula_units_Z 56
_cell_length_a 17.849521
_cell_length_b 20.572702
_cell_length_c 10.909837
_cell_angle_alpha 90.000000
_cell_angle_beta 56.092728
_cell_angle_gamma 90.000000
_cell_volume 3324.938671
_symmetry_space_group_name_H-M "C 2/M"
_symmetry_group_IT_number 12
_symmetry_cell_setting 'monoclinic'
loop_
_space_group_symop_operation_xyz
x,y,z
-x,y,-z
-x,-y,-z
x,-y,z
1/2+x,1/2+y,z
1/2-x,1/2+y,-z
1/2-x,1/2-y,-z
1/2+x,1/2-y,z
loop_
_atom_site_type_symbol
_atom_site_label
_atom_site_fract_x
_atom_site_fract_y
_atom_site_fract_z
Si Si1 0.735259 0.729544 0.320039
Si Si2 0.903993 0.193319 0.049597
Si Si3 0.307710 0.074898 0.902611
Si Si4 0.188662 0.349373 0.530234
Si Si5 0.689581 0.574209 0.763247
Si Si6 0.491641 0.922167 0.362003
Si Si7 0.308420 0.310040 0.894420
O O1 0.822701 0.763609 0.178395
O O2 0.772189 0.674001 0.376075
O O3 0.687671 0.784934 0.445067
O O4 0.674678 0.704276 0.263093
O O5 0.889220 0.123238 0.126527
O O6 0.890298 0.185651 0.916144
O O7 0.000000 0.220674 0.000000
O O8 0.261243 0.077954 0.810548
O O9 0.412469 0.092458 0.788941
O O10 0.301281 0.000000 0.950330
O O11 0.252885 0.125711 0.034268
O O12 0.258002 0.398773 0.402070
O O13 0.090980 0.382488 0.619299
O O14 0.661262 0.500000 0.774828
O O15 0.500000 0.907945 0.500000
O O16 0.475538 0.000000 0.366494
O O17 0.250000 0.250000 0.000000
#
# Coordination Sequence:
#
# PCOD9171808 Si02
#       7
#     8   8   8   8   8   8   8
#     4   9  20  34  47  67  98 133 162 197 235 294
#     4   9  18  32  49  72  94 115 153 206 244 279
#     4   9  17  30  47  72 101 125 158 203 247 292
#     4  10  18  31  48  68  99 127 163 199 236 282
#     4   9  16  29  49  68  91 123 154 194 242 285
#     4  10  18  28  48  77 103 126 161 204 244 293
#     4   9  18  33  52  68  94 131 165 195 245 298
#
# _framework density 16.842416
#
# number of rings (size 3 to 8) (size 9 to 14) (size 15 to 20)
#    0.000    2.714    1.429    1.286    0.000    2.571 
#    0.000    1.429    0.000    1.714    0.000    1.000 
#    0.000    0.000    0.000    0.000    0.000    0.000 
#
# Total GULP energy -156015.435469 kJ/mol
# GULP energy per Si atom -5571.979838 kJ/mol
# Density = 1.680408 g / cm^3
# Si number density = 16.842416 Si / 1000 Ang^3
#
#
#
# Elastic Constant Matrix: (Units=GPa)
#
#
# Indices 1 2 3 4 5 6 
#
# 1 49.7981 2.9552 19.5413 0.0000 3.7314 0.0000
# 2 2.9552 41.0720 2.7613 0.0000 8.1392 0.0000
# 3 19.5413 2.7613 26.9714 0.0000 12.4795 0.0000
# 4 0.0000 0.0000 0.0000 7.0261 0.0000 3.8888
# 5 3.7314 8.1392 12.4795 0.0000 28.0422 0.0000
# 6 0.0000 0.0000 0.0000 3.8888 0.0000 27.9058
#
#
#
# Elastic Compliance Matrix: (Units=1/GPa)
#
#
# Indices 1 2 3 4 5 6 
#
# 1 0.029240 -0.001959 -0.024490 0.000000 0.007576 0.000000
# 2 -0.001959 0.025988 0.002680 0.000000 -0.008475 0.000000
# 3 -0.024490 0.002680 0.067244 0.000000 -0.027444 0.000000
# 4 0.000000 0.000000 0.000000 0.154222 0.000000 -0.021492
# 5 0.007576 -0.008475 -0.027444 0.000000 0.049326 0.000000
# 6 0.000000 0.000000 0.000000 -0.021492 0.000000 0.038830
#
#
# Mechanical properties :
#
#
# Convention : Reuss Voigt Hill
#
# Bulk Modulus (GPa) = 13.34516 18.70634 16.02575
# Shear Modulus (GPa) = 11.43213 18.76706 15.09959
#
# Velocity S-wave (km/s) = 2.60815 3.34169 2.99745
# Velocity P-wave (km/s) = 4.12440 5.10098 4.63846
#
# Compressibility (1/GPa) = 0.07493353
#
# Stress axis : x y z
#
# Youngs Moduli (GPa) = 34.20012 38.47973 14.87132
#
# Poissons Ratio (x) = 0.07537 0.36419
# Poissons Ratio (y) = 0.06699 -0.03985
# Poissons Ratio (z) = 0.83755 -0.10312
#
# Static dielectric constant tensor:
#      x y z
#    x 1.573390 0.000000 0.006830 
#    y 0.000000 1.585900 0.000000 
#    z 0.006830 0.000000 1.565530 
# 
# From -- ./inp_files/158976.got.cif
#   From: 2010.05.17/outbox.cif.g08.bks.cpg/sg12_80_cif.got.tgz:158976.got - 2010.06.03 13:09:07.
