data_PCOD9171494
_publ_section_title
;
Structure prediction by ZEFSAII (Michael W. Deem and Ramdas Pophale) SiO2 
 PCOD9171494
Probable space group: C 2/M
;
_chemical_formula_sum "Si O2"
_cell_formula_units_Z 56
_cell_length_a 24.905992
_cell_length_b 9.025111
_cell_length_c 23.629206
_cell_angle_alpha 90.000000
_cell_angle_beta 43.657136
_cell_angle_gamma 90.000000
_cell_volume 3666.649644
_symmetry_space_group_name_H-M "C 2/M"
_symmetry_group_IT_number 12
_symmetry_cell_setting 'monoclinic'
loop_
_space_group_symop_operation_xyz
x,y,z
-x,y,-z
-x,-y,-z
x,-y,z
1/2+x,1/2+y,z
1/2-x,1/2+y,-z
1/2-x,1/2-y,-z
1/2+x,1/2-y,z
loop_
_atom_site_type_symbol
_atom_site_label
_atom_site_fract_x
_atom_site_fract_y
_atom_site_fract_z
Si Si1 0.844524 0.324581 0.866491
Si Si2 0.766583 0.670252 0.399819
Si Si3 0.421658 0.821742 0.226086
Si Si4 0.487680 0.677107 0.944310
Si Si5 0.366708 0.169650 0.440406
Si Si6 0.331426 0.324518 0.998265
Si Si7 0.500938 0.676315 0.275944
O O1 0.859576 0.500000 0.852499
O O2 0.756174 0.295469 0.913885
O O3 0.912124 0.237284 0.782978
O O4 0.845662 0.269857 0.930849
O O5 0.743852 0.500000 0.407016
O O6 0.830772 0.717420 0.304958
O O7 0.690752 0.768207 0.467908
O O8 0.815696 0.672731 0.421251
O O9 0.456393 0.763293 0.141270
O O10 0.469383 0.746871 0.241109
O O11 0.428322 0.000000 0.226068
O O12 0.501773 0.500000 0.928003
O O13 0.500000 0.718633 0.000000
O O14 0.399434 0.704820 0.990922
O O15 0.441779 0.267780 0.369255
O O16 0.388862 0.000000 0.433847
O O17 0.334914 0.500000 0.980273
O O18 0.499764 0.500000 0.272382
#
# Coordination Sequence:
#
# PCOD9171494 Si02
#       7
#     8   8   8   8   8   8   8
#     4  10  18  28  44  64  87 114 148 185 218 262
#     4   8  15  26  38  55  81 111 143 177 214 256
#     4  10  19  30  44  62  84 114 151 186 220 260
#     4  10  20  33  48  66  89 117 150 187 225 265
#     4   9  16  25  38  58  83 112 145 176 211 256
#     4   9  18  31  45  63  86 115 147 182 225 264
#     4  11  19  27  41  61  88 118 147 179 220 264
#
# _framework density 15.272798
#
# number of rings (size 3 to 8) (size 9 to 14) (size 15 to 20)
#    0.000    2.429    1.429    3.429    0.000    4.857 
#    0.000    0.000    0.000    0.000    0.000    0.000 
#    0.000    1.143    0.000   13.143    0.000    3.571 
#
# Total GULP energy -156023.913976 kJ/mol
# GULP energy per Si atom -5572.282642 kJ/mol
# Density = 1.523804 g / cm^3
# Si number density = 15.272798 Si / 1000 Ang^3
#
#
#
# Elastic Constant Matrix: (Units=GPa)
#
#
# Indices 1 2 3 4 5 6 
#
# 1 48.5280 28.6547 45.0135 0.0003 -4.2860 -0.0001
# 2 28.6547 80.8957 69.4516 0.0005 -12.9202 -0.0007
# 3 45.0135 69.4516 138.3602 0.0002 -20.5830 -0.0003
# 4 0.0003 0.0005 0.0002 29.9659 0.0000 -4.2470
# 5 -4.2860 -12.9202 -20.5830 0.0000 14.6436 0.0000
# 6 -0.0001 -0.0007 -0.0003 -4.2470 0.0000 11.1032
#
#
#
# Elastic Compliance Matrix: (Units=1/GPa)
#
#
# Indices 1 2 3 4 5 6 
#
# 1 0.030841 -0.004477 -0.008890 0.000000 -0.007419 0.000000
# 2 -0.004477 0.022650 -0.009021 0.000000 0.005994 0.000001
# 3 -0.008890 -0.009021 0.016534 0.000000 0.012679 0.000000
# 4 0.000000 0.000000 0.000000 0.035284 0.000000 0.013496
# 5 -0.007419 0.005994 0.012679 0.000000 0.089227 0.000000
# 6 0.000000 0.000001 0.000000 0.013496 0.000000 0.095226
#
#
# Mechanical properties :
#
#
# Convention : Reuss Voigt Hill
#
# Bulk Modulus (GPa) = 39.60623 61.55816 50.58219
# Shear Modulus (GPa) = 14.57916 19.45351 17.01634
#
# Velocity S-wave (km/s) = 3.09299 3.57282 3.34152
# Velocity P-wave (km/s) = 6.22449 7.57715 6.93388
#
# Compressibility (1/GPa) = 0.02524855
#
# Stress axis : x y z
#
# Youngs Moduli (GPa) = 32.42402 44.15103 60.48048
#
# Poissons Ratio (x) = 0.19766 0.53769
# Poissons Ratio (y) = 0.14516 0.54560
# Poissons Ratio (z) = 0.28826 0.39829
#
# Static dielectric constant tensor:
#      x y z
#    x 1.477770 0.000000 -0.026640 
#    y 0.000000 1.514600 0.000000 
#    z -0.026640 0.000000 1.530250 
# 
# From -- ./inp_files/348479.got.cif
#   From: 2010.05.17/outbox.cif.g08.bks.cpg/sg12_175_cif.got.tgz:348479.got - 2010.06.03 13:09:07.
