data_PCOD9171115
_publ_section_title
;
Structure prediction by ZEFSAII (Michael W. Deem and Ramdas Pophale) SiO2 
 PCOD9171115
Probable space group: C 2/M
;
_chemical_formula_sum "Si O2"
_cell_formula_units_Z 56
_cell_length_a 30.294854
_cell_length_b 7.460933
_cell_length_c 14.269207
_cell_angle_alpha 90.000000
_cell_angle_beta 74.674573
_cell_angle_gamma 90.000000
_cell_volume 3110.549778
_symmetry_space_group_name_H-M "C 2/M"
_symmetry_group_IT_number 12
_symmetry_cell_setting 'monoclinic'
loop_
_space_group_symop_operation_xyz
x,y,z
-x,y,-z
-x,-y,-z
x,-y,z
1/2+x,1/2+y,z
1/2-x,1/2+y,-z
1/2-x,1/2-y,-z
1/2+x,1/2-y,z
loop_
_atom_site_type_symbol
_atom_site_label
_atom_site_fract_x
_atom_site_fract_y
_atom_site_fract_z
Si Si1 0.888832 0.219222 0.132245
Si Si2 0.297412 0.712862 0.092089
Si Si3 0.507237 0.706857 0.393519
Si Si4 0.601343 0.793898 0.251858
Si Si5 0.444679 0.282876 0.918293
Si Si6 0.695346 0.216869 0.131180
Si Si7 0.037156 0.218771 0.772266
O O1 0.837832 0.282282 0.135764
O O2 0.914252 0.275396 0.213010
O O3 0.887795 0.000000 0.132947
O O4 0.921417 0.273722 0.027418
O O5 0.294812 0.500000 0.109221
O O6 0.245740 0.783446 0.131727
O O7 0.310716 0.738350 0.975410
O O8 0.500000 0.788671 0.500000
O O9 0.492160 0.500000 0.408526
O O10 0.560657 0.708799 0.334649
O O11 0.479081 0.783740 0.320780
O O12 0.583838 0.784603 0.154518
O O13 0.652615 0.717633 0.216730
O O14 0.603867 0.000000 0.280611
O O15 0.443097 0.500000 0.917134
O O16 0.496950 0.231108 0.868068
O O17 0.695029 0.000000 0.136643
O O18 0.036891 0.000000 0.769325
#
# Coordination Sequence:
#
# PCOD9171115 Si02
#       7
#     8   8   8   8   8   8   8
#     4   9  14  21  37  60  81 106 137 166 197 231
#     4   9  16  25  39  57  79 109 144 171 191 224
#     4   9  18  32  48  64  80  99 129 171 212 247
#     4  10  18  27  41  60  84 111 136 163 201 241
#     4   9  15  24  38  57  81 109 139 165 191 228
#     4   9  17  27  37  55  83 111 138 169 198 225
#     4   8  14  23  38  60  82 100 126 167 208 240
#
# _framework density 18.003249
#
# number of rings (size 3 to 8) (size 9 to 14) (size 15 to 20)
#    0.000    3.000    1.429    1.714    0.000    2.571 
#    0.000    0.000    0.000   10.286    0.000    1.000 
#    0.000    0.000    0.000    0.000    0.000    0.000 
#
# Total GULP energy -155988.689338 kJ/mol
# GULP energy per Si atom -5571.024619 kJ/mol
# Density = 1.796227 g / cm^3
# Si number density = 18.003249 Si / 1000 Ang^3
#
#
#
# Elastic Constant Matrix: (Units=GPa)
#
#
# Indices 1 2 3 4 5 6 
#
# 1 161.6580 1.2972 59.8148 0.0000 10.2808 0.0000
# 2 1.2972 49.7089 -1.6923 0.0000 2.9051 0.0000
# 3 59.8148 -1.6923 84.6589 0.0000 2.2385 0.0000
# 4 0.0000 0.0000 0.0000 -4.6686 0.0000 -3.4514
# 5 10.2808 2.9051 2.2385 0.0000 12.6534 0.0000
# 6 0.0000 0.0000 0.0000 -3.4514 0.0000 6.7188
#
#
#
# Elastic Compliance Matrix: (Units=1/GPa)
#
#
# Indices 1 2 3 4 5 6 
#
# 1 0.008820 -0.000082 -0.006072 0.000000 -0.006073 0.000000
# 2 -0.000082 0.020416 0.000591 0.000000 -0.004725 0.000000
# 3 -0.006072 0.000591 0.016063 0.000000 0.001957 0.000000
# 4 0.000000 0.000000 0.000000 -0.155241 0.000000 -0.079747
# 5 -0.006073 -0.004725 0.001957 0.000000 0.084703 0.000000
# 6 0.000000 0.000000 0.000000 -0.079747 0.000000 0.107871
#
#
# Mechanical properties :
#
#
# Convention : Reuss Voigt Hill
#
# Bulk Modulus (GPa) = 29.26476 46.09612 37.68044
# Shear Modulus (GPa) = 47.55194 18.71445 33.13319
#
# Velocity S-wave (km/s) = 5.14493 3.22763 4.29464
# Velocity P-wave (km/s) = 7.18222 6.28888 6.75035
#
# Compressibility (1/GPa) = 0.03417079
#
# Stress axis : x y z
#
# Youngs Moduli (GPa) = 113.38356 48.98236 62.25633
#
# Poissons Ratio (x) = 0.00402 0.37805
# Poissons Ratio (y) = 0.00930 -0.03679
# Poissons Ratio (z) = 0.68852 -0.02895
#
# Static dielectric constant tensor:
#      x y z
#    x 1.669590 0.000000 0.003800 
#    y 0.000000 1.673230 0.000000 
#    z 0.003800 0.000000 1.588060 
# 
# From -- ./inp_files/247730.got.cif
#   From: 2010.05.17/outbox.cif.g08.bks.cpg/sg12_124_cif.got.tgz:247730.got - 2010.06.03 13:09:07.
