data_PCOD9171540
_publ_section_title
;
Structure prediction by ZEFSAII (Michael W. Deem and Ramdas Pophale) SiO2 
 PCOD9171540
Probable space group: C 2/M
;
_chemical_formula_sum "Si O2"
_cell_formula_units_Z 64
_cell_length_a 20.875970
_cell_length_b 9.161607
_cell_length_c 22.572757
_cell_angle_alpha 90.000000
_cell_angle_beta 62.614730
_cell_angle_gamma 90.000000
_cell_volume 3833.393938
_symmetry_space_group_name_H-M "C 2/M"
_symmetry_group_IT_number 12
_symmetry_cell_setting 'monoclinic'
loop_
_space_group_symop_operation_xyz
x,y,z
-x,y,-z
-x,-y,-z
x,-y,z
1/2+x,1/2+y,z
1/2-x,1/2+y,-z
1/2-x,1/2-y,-z
1/2+x,1/2-y,z
loop_
_atom_site_type_symbol
_atom_site_label
_atom_site_fract_x
_atom_site_fract_y
_atom_site_fract_z
Si Si1 0.031192 0.825673 0.789465
Si Si2 0.777042 0.326283 0.428894
Si Si3 0.680138 0.325707 0.794047
Si Si4 0.539009 0.828414 0.075206
Si Si5 0.551797 0.825868 0.657631
Si Si6 0.466778 0.177428 0.576589
Si Si7 0.114599 0.329299 0.928278
Si Si8 0.299054 0.823596 0.650102
O O1 0.110468 0.786624 0.782925
O O2 0.025212 0.755600 0.727520
O O3 0.972788 0.762187 0.860342
O O4 0.026881 0.000000 0.788543
O O5 0.764202 0.500000 0.436662
O O6 0.750000 0.250000 0.500000
O O7 0.862667 0.302613 0.385513
O O8 0.736547 0.254191 0.390847
O O9 0.678891 0.500000 0.801368
O O10 0.669582 0.254303 0.862647
O O11 0.751982 0.284387 0.727879
O O12 0.462516 0.818865 0.072854
O O13 0.550836 0.000000 0.082982
O O14 0.598655 0.777511 0.002050
O O15 0.512100 0.775872 0.614610
O O16 0.539752 0.000000 0.669723
O O17 0.500000 0.228885 0.500000
O O18 0.382925 0.216452 0.618468
O O19 0.470427 0.000000 0.573963
O O20 0.133215 0.500000 0.923169
O O21 0.294062 0.000000 0.644748
#
# Coordination Sequence:
#
# PCOD9171540 Si02
#       8
#     8   8   8   8   8   8   8   8
#     4  10  18  28  44  69 100 131 160 198 247 292
#     4  11  22  34  52  75  99 126 160 202 248 299
#     4   9  17  27  42  67  98 129 158 194 244 293
#     4   8  14  25  40  62  93 129 165 198 235 282
#     4  10  20  34  52  74  96 128 168 203 243 292
#     4   9  18  34  55  74  94 125 167 209 245 289
#     4   8  14  24  40  62  92 129 164 198 235 279
#     4  10  19  34  53  73 100 129 162 205 248 294
#
# _framework density 16.695388999999999
#
# number of rings (size 3 to 8) (size 9 to 14) (size 15 to 20)
#    0.000    2.625    1.250    2.250    0.000    4.000 
#    0.000    3.125    0.000    1.500    0.000    0.875 
#    0.000    0.000    0.000    0.000    0.000    0.000 
#
# Total GULP energy -178328.142673 kJ/mol
# GULP energy per Si atom -5572.754459 kJ/mol
# Density = 1.665739 g / cm^3
# Si number density = 16.695389 Si / 1000 Ang^3
#
#
#
# Elastic Constant Matrix: (Units=GPa)
#
#
# Indices 1 2 3 4 5 6 
#
# 1 66.0043 24.7575 42.9868 0.0000 7.4812 0.0000
# 2 24.7575 27.7604 50.6640 0.0000 6.3594 0.0000
# 3 42.9868 50.6640 174.1930 0.0000 9.5779 0.0000
# 4 0.0000 0.0000 0.0000 32.9160 0.0000 1.5136
# 5 7.4812 6.3594 9.5779 0.0000 17.4243 0.0000
# 6 0.0000 0.0000 0.0000 1.5136 0.0000 9.9504
#
#
#
# Elastic Compliance Matrix: (Units=1/GPa)
#
#
# Indices 1 2 3 4 5 6 
#
# 1 0.022898 -0.020851 0.000553 0.000000 -0.002525 0.000000
# 2 -0.020851 0.100494 -0.023262 0.000000 -0.014938 0.000000
# 3 0.000553 -0.023262 0.012288 0.000000 0.001498 0.000000
# 4 0.000000 0.000000 0.000000 0.030594 0.000000 -0.004654
# 5 -0.002525 -0.014938 0.001498 0.000000 0.063104 0.000000
# 6 0.000000 0.000000 0.000000 -0.004654 0.000000 0.101206
#
#
# Mechanical properties :
#
#
# Convention : Reuss Voigt Hill
#
# Bulk Modulus (GPa) = 20.59356 56.08604 38.33980
# Shear Modulus (GPa) = 11.52367 22.02812 16.77589
#
# Velocity S-wave (km/s) = 2.63007 3.63631 3.17333
# Velocity P-wave (km/s) = 4.64593 7.16219 6.03663
#
# Compressibility (1/GPa) = 0.04855887
#
# Stress axis : x y z
#
# Youngs Moduli (GPa) = 43.67238 9.95089 81.38288
#
# Poissons Ratio (x) = 0.20749 -0.04499
# Poissons Ratio (y) = 0.91062 1.89309
# Poissons Ratio (z) = -0.02414 0.23147
#
# Static dielectric constant tensor:
#      x y z
#    x 1.547940 0.000000 -0.006890 
#    y 0.000000 1.553840 0.000000 
#    z -0.006890 0.000000 1.573210 
# 
# From -- ./inp_files/319858.got.cif
#   From: 2010.05.17/outbox.cif.g08.bks.cpg/sg12_160_cif.got.tgz:319858.got - 2010.06.03 13:09:07.
