data_PCOD9171072
_publ_section_title
;
Structure prediction by ZEFSAII (Michael W. Deem and Ramdas Pophale) SiO2 
 PCOD9171072
Probable space group: C 2/M
;
_chemical_formula_sum "Si O2"
_cell_formula_units_Z 48
_cell_length_a 25.308572
_cell_length_b 7.292522
_cell_length_c 22.448625
_cell_angle_alpha 90.000000
_cell_angle_beta 141.168767
_cell_angle_gamma 90.000000
_cell_volume 2597.900121
_symmetry_space_group_name_H-M "C 2/M"
_symmetry_group_IT_number 12
_symmetry_cell_setting 'monoclinic'
loop_
_space_group_symop_operation_xyz
x,y,z
-x,y,-z
-x,-y,-z
x,-y,z
1/2+x,1/2+y,z
1/2-x,1/2+y,-z
1/2-x,1/2-y,-z
1/2+x,1/2-y,z
loop_
_atom_site_type_symbol
_atom_site_label
_atom_site_fract_x
_atom_site_fract_y
_atom_site_fract_z
Si Si1 0.892154 0.722809 0.846671
Si Si2 0.292595 0.723660 0.332862
Si Si3 0.868167 0.776175 0.270461
Si Si4 0.076678 0.723059 0.988630
Si Si5 0.263247 0.218418 0.942221
Si Si6 0.960941 0.217304 0.532154
O O1 0.891686 0.500000 0.845010
O O2 0.803257 0.783613 0.741752
O O3 0.980109 0.782787 0.894687
O O4 0.896954 0.773719 0.920812
O O5 0.293596 0.500000 0.335045
O O6 0.321237 0.774296 0.290888
O O7 0.365695 0.787706 0.442162
O O8 0.813353 0.713788 0.166398
O O9 0.965228 0.712477 0.360067
O O10 0.870446 0.000000 0.272157
O O11 0.075524 0.500000 0.986426
O O12 0.147463 0.786858 0.004890
O O13 0.264763 0.000000 0.934644
O O14 0.250000 0.250000 0.000000
O O15 0.000000 0.237381 0.500000
O O16 0.954013 0.000000 0.537679
#
# Coordination Sequence:
#
# PCOD9171072 Si02
#       6
#     8   8   8   8   8   8
#     4   8  11  16  29  48  70  93 112 137 179 223
#     4   8  10  14  26  46  71  93 109 132 176 225
#     4   8  12  19  29  44  69  95 114 138 174 212
#     4   8  13  20  30  47  70  93 116 142 176 215
#     4  10  18  27  38  52  72  99 127 150 173 204
#     4   7  10  14  23  41  66  93 112 129 167 221
#
# _framework density 18.476461
#
# number of rings (size 3 to 8) (size 9 to 14) (size 15 to 20)
#    0.000    3.833    1.667    3.000    0.000    0.000 
#    0.000    0.000    0.000    0.000    0.000    3.500 
#    0.000    6.000    0.000    0.000    0.000    0.000 
#
# Total GULP energy -133610.003196 kJ/mol
# GULP energy per Si atom -5567.083466 kJ/mol
# Density = 1.843441 g / cm^3
# Si number density = 18.476461 Si / 1000 Ang^3
#
#
#
# Elastic Constant Matrix: (Units=GPa)
#
#
# Indices 1 2 3 4 5 6 
#
# 1 114.5927 5.2874 97.9904 0.0000 31.7477 0.0000
# 2 5.2874 72.7544 7.8015 -0.0001 5.5574 -0.0001
# 3 97.9904 7.8015 172.9961 0.0000 50.7811 0.0000
# 4 0.0000 -0.0001 0.0000 -10.8457 0.0000 -11.4282
# 5 31.7477 5.5574 50.7811 0.0000 39.2432 0.0000
# 6 0.0000 -0.0001 0.0000 -11.4282 0.0000 -5.6949
#
#
#
# Elastic Compliance Matrix: (Units=1/GPa)
#
#
# Indices 1 2 3 4 5 6 
#
# 1 0.017030 -0.000111 -0.009033 0.000000 -0.002073 0.000000
# 2 -0.000111 0.013897 -0.000020 0.000000 -0.001852 0.000000
# 3 -0.009033 -0.000020 0.014113 0.000000 -0.010951 0.000000
# 4 0.000000 0.000000 0.000000 0.082727 0.000000 -0.166013
# 5 -0.002073 -0.001852 -0.010951 0.000000 0.041592 0.000000
# 6 0.000000 0.000000 0.000000 -0.166013 0.000000 0.157551
#
#
# Mechanical properties :
#
#
# Convention : Reuss Voigt Hill
#
# Bulk Modulus (GPa) = 37.43719 64.72243 51.07981
# Shear Modulus (GPa) = 14.11862 21.15814 17.63838
#
# Velocity S-wave (km/s) = 2.76731 3.38766 3.09308
# Velocity P-wave (km/s) = 5.52420 7.09982 6.36098
#
# Compressibility (1/GPa) = 0.02671141
#
# Stress axis : x y z
#
# Youngs Moduli (GPa) = 58.71905 71.96021 70.85889
#
# Poissons Ratio (x) = 0.00797 0.64006
# Poissons Ratio (y) = 0.00650 0.00144
# Poissons Ratio (z) = 0.53041 0.00146
#
# Static dielectric constant tensor:
#      x y z
#    x 1.611880 0.000000 0.061100 
#    y 0.000000 1.732170 0.000000 
#    z 0.061100 0.000000 1.666150 
# 
# From -- ./inp_files/282629.got.cif
#   From: 2010.05.17/outbox.cif.g08.bks.cpg/sg12_142_cif.got.tgz:282629.got - 2010.06.03 13:09:07.
