data_PCOD9171687
_publ_section_title
;
Structure prediction by ZEFSAII (Michael W. Deem and Ramdas Pophale) SiO2 
 PCOD9171687
Probable space group: C 2/M
;
_chemical_formula_sum "Si O2"
_cell_formula_units_Z 64
_cell_length_a 25.233778
_cell_length_b 8.693713
_cell_length_c 24.637445
_cell_angle_alpha 90.000000
_cell_angle_beta 133.617637
_cell_angle_gamma 90.000000
_cell_volume 3912.889140
_symmetry_space_group_name_H-M "C 2/M"
_symmetry_group_IT_number 12
_symmetry_cell_setting 'monoclinic'
loop_
_space_group_symop_operation_xyz
x,y,z
-x,y,-z
-x,-y,-z
x,-y,z
1/2+x,1/2+y,z
1/2-x,1/2+y,-z
1/2-x,1/2-y,-z
1/2+x,1/2-y,z
loop_
_atom_site_type_symbol
_atom_site_label
_atom_site_fract_x
_atom_site_fract_y
_atom_site_fract_z
Si Si1 0.773729 0.184241 0.575110
Si Si2 0.976920 0.183064 0.593998
Si Si3 0.292357 0.684549 0.161155
Si Si4 0.915407 0.685917 0.166251
Si Si5 0.862225 0.316111 0.313406
Si Si6 0.188723 0.685081 0.997356
Si Si7 0.645063 0.814929 0.566777
Si Si8 0.570245 0.815548 0.323818
O O1 0.750000 0.250000 0.500000
O O2 0.713767 0.228850 0.577708
O O3 0.854416 0.246366 0.644633
O O4 0.775245 0.000000 0.572816
O O5 0.926933 0.236205 0.508524
O O6 0.942715 0.255871 0.624228
O O7 0.059066 0.244008 0.645136
O O8 0.976904 0.000000 0.598722
O O9 0.295013 0.500000 0.166534
O O10 0.359753 0.740694 0.170618
O O11 0.304747 0.755946 0.228695
O O12 0.217534 0.732367 0.077040
O O13 0.909906 0.500000 0.167979
O O14 0.998208 0.729414 0.238785
O O15 0.886871 0.729017 0.085745
O O16 0.868140 0.500000 0.313128
O O17 0.843639 0.276043 0.362321
O O18 0.191783 0.500000 0.998882
O O19 0.250000 0.750000 0.000000
O O20 0.635483 0.000000 0.556077
O O21 0.575433 0.000000 0.328690
#
# Coordination Sequence:
#
# PCOD9171687 Si02
#       8
#     8   8   8   8   8   8   8   8
#     4  11  22  37  56  75  96 127 168 214 259 299
#     4  12  23  34  52  76 102 131 166 209 251 294
#     4  10  18  28  46  72 102 131 163 205 246 289
#     4   9  17  30  48  69  99 136 167 196 240 301
#     4  11  22  36  52  71 100 137 171 204 245 303
#     4   8  15  27  43  67  97 130 164 197 238 290
#     4  10  23  40  55  70  95 133 173 208 250 301
#     4  11  21  33  52  76 103 135 168 203 247 300
#
# _framework density 16.356200999999999
#
# number of rings (size 3 to 8) (size 9 to 14) (size 15 to 20)
#    0.000    1.750    2.500    3.000    0.000    4.000 
#    0.000    0.000    0.000    0.000    0.000    0.875 
#    0.000    7.000    0.000    0.000    0.000    0.000 
#
# Total GULP energy -178530.740099 kJ/mol
# GULP energy per Si atom -5579.085628 kJ/mol
# Density = 1.631897 g / cm^3
# Si number density = 16.356201 Si / 1000 Ang^3
#
#
#
# Elastic Constant Matrix: (Units=GPa)
#
#
# Indices 1 2 3 4 5 6 
#
# 1 39.1779 14.0510 24.4865 0.0000 -9.3590 0.0000
# 2 14.0510 30.9525 29.9735 0.0000 -3.6448 0.0001
# 3 24.4865 29.9735 149.1650 0.0000 -9.9028 0.0000
# 4 0.0000 0.0000 0.0000 23.8825 0.0000 0.2924
# 5 -9.3590 -3.6448 -9.9028 0.0000 18.7279 0.0000
# 6 0.0000 0.0001 0.0000 0.2924 0.0000 19.1160
#
#
#
# Elastic Compliance Matrix: (Units=1/GPa)
#
#
# Indices 1 2 3 4 5 6 
#
# 1 0.034500 -0.011727 -0.002398 0.000000 0.013690 0.000000
# 2 -0.011727 0.044345 -0.007049 0.000000 -0.000958 0.000000
# 3 -0.002398 -0.007049 0.008647 0.000000 0.002002 0.000000
# 4 0.000000 0.000000 0.000000 0.041880 0.000000 -0.000641
# 5 0.013690 -0.000958 0.002002 0.000000 0.061110 0.000000
# 6 0.000000 0.000000 0.000000 -0.000641 0.000000 0.052322
#
#
# Mechanical properties :
#
#
# Convention : Reuss Voigt Hill
#
# Bulk Modulus (GPa) = 22.15187 39.59083 30.87135
# Shear Modulus (GPa) = 16.65562 22.39756 19.52659
#
# Velocity S-wave (km/s) = 3.19455 3.70450 3.45894
# Velocity P-wave (km/s) = 5.21342 6.52348 5.90489
#
# Compressibility (1/GPa) = 0.04514292
#
# Stress axis : x y z
#
# Youngs Moduli (GPa) = 28.98581 22.55065 115.64645
#
# Poissons Ratio (x) = 0.26445 0.27733
# Poissons Ratio (y) = 0.33991 0.81522
# Poissons Ratio (z) = 0.06951 0.15896
#
# Static dielectric constant tensor:
#      x y z
#    x 1.512840 0.000000 -0.003390 
#    y 0.000000 1.554250 0.000000 
#    z -0.003390 0.000000 1.590010 
# 
# From -- ./inp_files/324101.got.cif
#   From: 2010.05.17/outbox.cif.g08.bks.cpg/sg12_163_cif.got.tgz:324101.got - 2010.06.03 13:09:07.
