data_PCOD9171751
_publ_section_title
;
Structure prediction by ZEFSAII (Michael W. Deem and Ramdas Pophale) SiO2 
 PCOD9171751
Probable space group: C 2/M
;
_chemical_formula_sum "Si O2"
_cell_formula_units_Z 56
_cell_length_a 29.843196
_cell_length_b 8.644937
_cell_length_c 17.982479
_cell_angle_alpha 90.000000
_cell_angle_beta 49.410296
_cell_angle_gamma 90.000000
_cell_volume 3523.064483
_symmetry_space_group_name_H-M "C 2/M"
_symmetry_group_IT_number 12
_symmetry_cell_setting 'monoclinic'
loop_
_space_group_symop_operation_xyz
x,y,z
-x,y,-z
-x,-y,-z
x,-y,z
1/2+x,1/2+y,z
1/2-x,1/2+y,-z
1/2-x,1/2-y,-z
1/2+x,1/2-y,z
loop_
_atom_site_type_symbol
_atom_site_label
_atom_site_fract_x
_atom_site_fract_y
_atom_site_fract_z
Si Si1 0.971909 0.815210 0.765941
Si Si2 0.791594 0.183278 0.131928
Si Si3 0.515643 0.813724 0.863074
Si Si4 0.658100 0.183633 0.075360
Si Si5 0.595619 0.186294 0.913383
Si Si6 0.038907 0.187640 0.389569
Si Si7 0.826695 0.814613 0.779806
O O1 0.910922 0.728008 0.849923
O O2 0.986430 0.773846 0.664857
O O3 0.016655 0.765104 0.781843
O O4 0.961713 0.000000 0.779902
O O5 0.842188 0.240047 0.133431
O O6 0.726993 0.256191 0.212295
O O7 0.787360 0.000000 0.137870
O O8 0.813160 0.239208 0.027416
O O9 0.568281 0.772651 0.862755
O O10 0.515136 0.000000 0.855633
O O11 0.454745 0.770081 0.971675
O O12 0.681823 0.248181 0.127835
O O13 0.666007 0.000000 0.062852
O O14 0.600823 0.000000 0.911300
O O15 0.107731 0.235528 0.316598
O O16 0.000000 0.246549 0.500000
O O17 0.039299 0.000000 0.393401
O O18 0.825867 0.000000 0.784990
#
# Coordination Sequence:
#
# PCOD9171751 Si02
#       7
#     8   8   8   8   8   8   8
#     4  10  18  28  47  73  97 123 158 194 234 280
#     4  12  22  31  44  66  95 127 160 193 231 272
#     4   9  17  30  47  66  93 127 162 196 232 273
#     4  11  20  31  45  63  93 128 161 194 227 270
#     4   9  18  31  46  65  91 129 166 195 228 270
#     4   8  16  32  52  73  95 119 151 192 234 281
#     4  10  20  33  49  68  91 121 157 193 232 281
#
# _framework density 15.895254
#
# number of rings (size 3 to 8) (size 9 to 14) (size 15 to 20)
#    0.000    2.143    1.429    5.571    0.000    0.571 
#    0.000    1.429    0.000   15.429    0.000    1.000 
#    0.000    0.000    0.000    0.000    0.000    0.000 
#
# Total GULP energy -156174.539890 kJ/mol
# GULP energy per Si atom -5577.662139 kJ/mol
# Density = 1.585908 g / cm^3
# Si number density = 15.895254 Si / 1000 Ang^3
#
#
#
# Elastic Constant Matrix: (Units=GPa)
#
#
# Indices 1 2 3 4 5 6 
#
# 1 134.3338 27.2137 48.0846 -0.0002 3.2395 0.0000
# 2 27.2137 35.2894 7.4841 -0.0008 2.0718 0.0008
# 3 48.0846 7.4841 71.2487 -0.0003 10.2690 0.0002
# 4 -0.0002 -0.0008 -0.0003 9.9974 0.0001 0.4796
# 5 3.2395 2.0718 10.2690 0.0001 12.3930 -0.0001
# 6 0.0000 0.0008 0.0002 0.4796 -0.0001 29.0713
#
#
#
# Elastic Compliance Matrix: (Units=1/GPa)
#
#
# Indices 1 2 3 4 5 6 
#
# 1 0.011638 -0.007609 -0.007722 -0.000001 0.004629 0.000000
# 2 -0.007609 0.034034 0.002377 0.000003 -0.005671 -0.000001
# 3 -0.007722 0.002377 0.021308 0.000001 -0.016035 0.000000
# 4 -0.000001 0.000003 0.000001 0.100105 -0.000002 -0.001651
# 5 0.004629 -0.005671 -0.016035 -0.000002 0.093716 0.000001
# 6 0.000000 -0.000001 0.000000 -0.001651 0.000001 0.034425
#
#
# Mechanical properties :
#
#
# Convention : Reuss Voigt Hill
#
# Bulk Modulus (GPa) = 24.34707 45.15964 34.75335
# Shear Modulus (GPa) = 14.93320 20.83164 17.88242
#
# Velocity S-wave (km/s) = 3.06841 3.62409 3.35777
# Velocity P-wave (km/s) = 5.28242 6.78119 6.07818
#
# Compressibility (1/GPa) = 0.04107271
#
# Stress axis : x y z
#
# Youngs Moduli (GPa) = 85.92456 29.38281 46.92988
#
# Poissons Ratio (x) = 0.22357 0.36240
# Poissons Ratio (y) = 0.65379 -0.11157
# Poissons Ratio (z) = 0.66353 -0.06986
#
# Static dielectric constant tensor:
#      x y z
#    x 1.569610 0.000000 -0.002340 
#    y 0.000000 1.534540 0.000000 
#    z -0.002340 0.000000 1.515790 
# 
# From -- ./inp_files/291799.got.cif
#   From: 2010.05.17/outbox.cif.g08.bks.cpg/sg12_146_cif.got.tgz:291799.got - 2010.06.03 13:09:07.
