data_PCOD9171731
_publ_section_title
;
Structure prediction by ZEFSAII (Michael W. Deem and Ramdas Pophale) SiO2 
 PCOD9171731
Probable space group: C 2/M
;
_chemical_formula_sum "Si O2"
_cell_formula_units_Z 48
_cell_length_a 31.383592
_cell_length_b 8.430348
_cell_length_c 12.394526
_cell_angle_alpha 90.000000
_cell_angle_beta 121.076694
_cell_angle_gamma 90.000000
_cell_volume 2808.625543
_symmetry_space_group_name_H-M "C 2/M"
_symmetry_group_IT_number 12
_symmetry_cell_setting 'monoclinic'
loop_
_space_group_symop_operation_xyz
x,y,z
-x,y,-z
-x,-y,-z
x,-y,z
1/2+x,1/2+y,z
1/2-x,1/2+y,-z
1/2-x,1/2-y,-z
1/2+x,1/2-y,z
loop_
_atom_site_type_symbol
_atom_site_label
_atom_site_fract_x
_atom_site_fract_y
_atom_site_fract_z
Si Si1 0.881006 0.307725 0.859164
Si Si2 0.305832 0.811137 0.578807
Si Si3 0.116068 0.186115 0.486603
Si Si4 0.928564 0.690016 0.131258
Si Si5 0.055449 0.808845 0.607901
Si Si6 0.040720 0.310860 0.217881
O O1 0.877302 0.500000 0.859841
O O2 0.835976 0.250321 0.724240
O O3 0.931005 0.273534 0.855955
O O4 0.888163 0.251003 0.990987
O O5 0.250000 0.750000 0.500000
O O6 0.338133 0.765520 0.515869
O O7 0.305035 0.000000 0.585093
O O8 0.097222 0.247991 0.577510
O O9 0.068753 0.214554 0.347176
O O10 0.126983 0.000000 0.509493
O O11 0.923095 0.500000 0.135664
O O12 0.930728 0.762055 0.252840
O O13 0.982528 0.719064 0.148124
O O14 0.000000 0.751387 0.500000
O O15 0.054081 0.000000 0.598489
O O16 0.048581 0.500000 0.247748
#
# Coordination Sequence:
#
# PCOD9171731 Si02
#       6
#     8   8   8   8   8   8
#     4   8  16  30  47  71 100 128 158 201 253 299
#     4  10  20  36  58  79 100 123 158 207 259 305
#     4  10  19  32  50  71 100 135 171 205 244 291
#     4  10  18  28  47  71  98 134 172 203 237 289
#     4  10  20  33  46  66 103 144 173 203 243 285
#     4   9  16  27  45  69  99 132 166 203 242 289
#
# _framework density 17.090209000000002
#
# number of rings (size 3 to 8) (size 9 to 14) (size 15 to 20)
#    0.000    2.500    1.667    2.500    0.000    3.667 
#    0.000    4.167    0.000    6.000    0.000    0.000 
#    0.000    0.000    0.000    0.000    0.000    0.000 
#
# Total GULP energy -133709.510380 kJ/mol
# GULP energy per Si atom -5571.229599 kJ/mol
# Density = 1.705131 g / cm^3
# Si number density = 17.090209 Si / 1000 Ang^3
#
#
#
# Elastic Constant Matrix: (Units=GPa)
#
#
# Indices 1 2 3 4 5 6 
#
# 1 89.7732 21.9532 73.3137 0.0000 1.5122 0.0000
# 2 21.9532 11.2380 15.5279 0.0000 3.2884 0.0000
# 3 73.3137 15.5279 135.3679 0.0000 -20.0007 0.0000
# 4 0.0000 0.0000 0.0000 -200.8767 0.0000 28.5675
# 5 1.5122 3.2884 -20.0007 0.0000 17.7041 0.0000
# 6 0.0000 0.0000 0.0000 28.5675 0.0000 18.1212
#
#
#
# Elastic Compliance Matrix: (Units=1/GPa)
#
#
# Indices 1 2 3 4 5 6 
#
# 1 0.034459 -0.041626 -0.015821 0.000000 -0.013085 0.000000
# 2 -0.041626 0.186454 -0.004124 0.000000 -0.035736 0.000000
# 3 -0.015821 -0.004124 0.020096 0.000000 0.024820 0.000000
# 4 0.000000 0.000000 0.000000 -0.004066 0.000000 0.006411
# 5 -0.013085 -0.035736 0.024820 0.000000 0.092280 0.000000
# 6 0.000000 0.000000 0.000000 0.006411 0.000000 0.045078
#
#
# Mechanical properties :
#
#
# Convention : Reuss Voigt Hill
#
# Bulk Modulus (GPa) = 8.48410 50.88538 29.68474
# Shear Modulus (GPa) = 9.31565 -24.63801 -7.66118
#
# Velocity S-wave (km/s) = 2.33724 -3.80102 -2.11956
# Velocity P-wave (km/s) = 3.50124 3.25201 3.37892
#
# Compressibility (1/GPa) = 0.11786760
#
# Stress axis : x y z
#
# Youngs Moduli (GPa) = 29.01974 5.36325 49.76082
#
# Poissons Ratio (x) = 0.22325 0.78728
# Poissons Ratio (y) = 1.20797 0.20520
# Poissons Ratio (z) = 0.45913 0.02212
#
# Static dielectric constant tensor:
#      x y z
#    x 1.570490 0.000000 -0.011360 
#    y 0.000000 1.591130 0.000000 
#    z -0.011360 0.000000 1.602470 
# 
# From -- ./inp_files/172149.got.cif
#   From: 2010.05.17/outbox.cif.g08.bks.cpg/sg12_87_cif.got.tgz:172149.got - 2010.06.03 13:09:07.
