data_PCOD9171443
_publ_section_title
;
Structure prediction by ZEFSAII (Michael W. Deem and Ramdas Pophale) SiO2 
 PCOD9171443
Probable space group: C 2/M
;
_chemical_formula_sum "Si O2"
_cell_formula_units_Z 48
_cell_length_a 24.627562
_cell_length_b 7.452272
_cell_length_c 14.327000
_cell_angle_alpha 90.000000
_cell_angle_beta 108.473848
_cell_angle_gamma 90.000000
_cell_volume 2493.952857
_symmetry_space_group_name_H-M "C 2/M"
_symmetry_group_IT_number 12
_symmetry_cell_setting 'monoclinic'
loop_
_space_group_symop_operation_xyz
x,y,z
-x,y,-z
-x,-y,-z
x,-y,z
1/2+x,1/2+y,z
1/2-x,1/2+y,-z
1/2-x,1/2-y,-z
1/2+x,1/2-y,z
loop_
_atom_site_type_symbol
_atom_site_label
_atom_site_fract_x
_atom_site_fract_y
_atom_site_fract_z
Si Si1 0.481672 0.289070 0.890293
Si Si2 0.368840 0.219936 0.361691
Si Si3 0.442975 0.208716 0.571242
Si Si4 0.248946 0.714884 0.610813
Si Si5 0.373757 0.282292 0.713764
Si Si6 0.550278 0.783010 0.747637
O O1 0.470605 0.500000 0.898471
O O2 0.423091 0.216756 0.811479
O O3 0.532154 0.272876 0.841292
O O4 0.500000 0.212152 0.000000
O O5 0.417130 0.281411 0.461972
O O6 0.307773 0.282260 0.367462
O O7 0.390854 0.271147 0.270746
O O8 0.368194 0.000000 0.364290
O O9 0.393699 0.223387 0.621957
O O10 0.498770 0.284304 0.652459
O O11 0.455828 0.000000 0.560710
O O12 0.248052 0.500000 0.619538
O O13 0.250000 0.750000 0.500000
O O14 0.308486 0.778429 0.689057
O O15 0.374666 0.500000 0.715553
O O16 0.548496 0.000000 0.747403
#
# Coordination Sequence:
#
# PCOD9171443 Si02
#       6
#     8   8   8   8   8   8
#     4   9  18  33  50  65  84 111 143 184 230 265
#     4   9  16  26  41  62  90 121 145 169 209 256
#     4   9  15  25  42  62  87 118 146 172 206 253
#     4  10  18  28  43  63  90 121 150 175 204 249
#     4   9  17  28  43  65  88 112 147 183 212 250
#     4   9  17  28  44  66  88 111 144 181 215 256
#
# _framework density 19.246554
#
# number of rings (size 3 to 8) (size 9 to 14) (size 15 to 20)
#    0.000    2.833    1.667    0.500    0.000    2.333 
#    0.000    1.667    0.000    5.000    0.000    0.000 
#    0.000    0.000    0.000    0.000    0.000    0.000 
#
# Total GULP energy -133748.697164 kJ/mol
# GULP energy per Si atom -5572.862382 kJ/mol
# Density = 1.920275 g / cm^3
# Si number density = 19.246554 Si / 1000 Ang^3
#
#
#
# Elastic Constant Matrix: (Units=GPa)
#
#
# Indices 1 2 3 4 5 6 
#
# 1 126.9439 -5.3880 62.6726 0.0000 -24.4098 0.0000
# 2 -5.3880 58.1021 0.1330 0.0000 3.1184 0.0000
# 3 62.6726 0.1330 123.0634 0.0000 -16.1612 0.0000
# 4 0.0000 0.0000 0.0000 9.5617 0.0000 -5.8669
# 5 -24.4098 3.1184 -16.1612 0.0000 13.8420 0.0000
# 6 0.0000 0.0000 0.0000 -5.8669 0.0000 11.8651
#
#
#
# Elastic Compliance Matrix: (Units=1/GPa)
#
#
# Indices 1 2 3 4 5 6 
#
# 1 0.013761 0.000271 -0.004523 0.000000 0.018925 0.000000
# 2 0.000271 0.017469 -0.000721 0.000000 -0.004300 0.000000
# 3 -0.004523 -0.000721 0.011107 0.000000 0.005154 0.000000
# 4 0.000000 0.000000 0.000000 0.150134 0.000000 0.074236
# 5 0.018925 -0.004300 0.005154 0.000000 0.112605 0.000000
# 6 0.000000 0.000000 0.000000 0.074236 0.000000 0.120988
#
#
# Mechanical properties :
#
#
# Convention : Reuss Voigt Hill
#
# Bulk Modulus (GPa) = 30.87457 46.99385 38.93421
# Shear Modulus (GPa) = 11.19050 23.76655 17.47852
#
# Velocity S-wave (km/s) = 2.41390 3.51785 3.01680
# Velocity P-wave (km/s) = 4.88320 6.40079 5.69279
#
# Compressibility (1/GPa) = 0.03238912
#
# Stress axis : x y z
#
# Youngs Moduli (GPa) = 72.66832 57.24547 90.03306
#
# Poissons Ratio (x) = -0.01550 0.40723
# Poissons Ratio (y) = -0.01967 0.06496
# Poissons Ratio (z) = 0.32869 0.04130
#
# Static dielectric constant tensor:
#      x y z
#    x 1.710080 0.000000 0.011450 
#    y 0.000000 1.723670 0.000000 
#    z 0.011450 0.000000 1.659100 
# 
# From -- ./inp_files/164178.got.cif
#   From: 2010.05.17/outbox.cif.g08.bks.cpg/sg12_83_cif.got.tgz:164178.got - 2010.06.03 13:09:07.
