data_PCOD9171577
_publ_section_title
;
Structure prediction by ZEFSAII (Michael W. Deem and Ramdas Pophale) SiO2 
 PCOD9171577
Probable space group: C 2/M
;
_chemical_formula_sum "Si O2"
_cell_formula_units_Z 56
_cell_length_a 23.432463
_cell_length_b 8.976429
_cell_length_c 21.903297
_cell_angle_alpha 90.000000
_cell_angle_beta 130.746273
_cell_angle_gamma 90.000000
_cell_volume 3490.400525
_symmetry_space_group_name_H-M "C 2/M"
_symmetry_group_IT_number 12
_symmetry_cell_setting 'monoclinic'
loop_
_space_group_symop_operation_xyz
x,y,z
-x,y,-z
-x,-y,-z
x,-y,z
1/2+x,1/2+y,z
1/2-x,1/2+y,-z
1/2-x,1/2-y,-z
1/2+x,1/2-y,z
loop_
_atom_site_type_symbol
_atom_site_label
_atom_site_fract_x
_atom_site_fract_y
_atom_site_fract_z
Si Si1 0.646801 0.322708 0.875113
Si Si2 0.415981 0.681338 0.924477
Si Si3 0.302980 0.321293 0.952174
Si Si4 0.754077 0.670255 0.599509
Si Si5 0.879338 0.178535 0.760609
Si Si6 0.510955 0.820513 0.263069
Si Si7 0.634624 0.828754 0.440853
O O1 0.640482 0.500000 0.862436
O O2 0.723068 0.260681 0.898344
O O3 0.572966 0.241351 0.798885
O O4 0.656095 0.293309 0.954354
O O5 0.417178 0.500000 0.926734
O O6 0.355900 0.727716 0.933549
O O7 0.393496 0.724126 0.840293
O O8 0.500000 0.732594 0.000000
O O9 0.290795 0.500000 0.939658
O O10 0.748508 0.500000 0.616126
O O11 0.798045 0.768860 0.679463
O O12 0.674507 0.732714 0.520703
O O13 0.808527 0.672577 0.577730
O O14 0.941490 0.252703 0.759989
O O15 0.885655 0.000000 0.760177
O O16 0.555976 0.777688 0.356428
O O17 0.512748 0.000000 0.260470
O O18 0.628145 0.000000 0.456575
#
# Coordination Sequence:
#
# PCOD9171577 Si02
#       7
#     8   8   8   8   8   8   8
#     4  10  19  31  49  70  91 118 153 192 231 271
#     4   9  17  30  48  69  92 121 156 189 222 263
#     4   9  18  33  50  67  91 122 155 190 226 266
#     4   9  16  26  40  60  89 121 150 183 225 271
#     4  10  18  28  45  67  92 123 157 190 224 268
#     4  10  19  30  45  67  95 123 151 187 231 274
#     4   8  15  26  40  60  86 117 151 184 220 267
#
# _framework density 16.044004000000001
#
# number of rings (size 3 to 8) (size 9 to 14) (size 15 to 20)
#    0.000    2.714    0.000    3.429    0.000    6.857 
#    0.000    1.429    0.000    3.000    0.000    1.000 
#    0.000    8.000    0.000    0.000    0.000    0.000 
#
# Total GULP energy -156033.562411 kJ/mol
# GULP energy per Si atom -5572.627229 kJ/mol
# Density = 1.600749 g / cm^3
# Si number density = 16.044004 Si / 1000 Ang^3
#
#
#
# Elastic Constant Matrix: (Units=GPa)
#
#
# Indices 1 2 3 4 5 6 
#
# 1 70.5648 27.1913 59.5569 0.0000 10.9025 0.0000
# 2 27.1913 50.4384 50.8087 0.0000 11.7280 0.0000
# 3 59.5569 50.8087 137.0296 0.0000 24.8449 0.0000
# 4 0.0000 0.0000 0.0000 22.7949 0.0000 4.9840
# 5 10.9025 11.7280 24.8449 0.0000 24.2848 0.0000
# 6 0.0000 0.0000 0.0000 4.9840 0.0000 17.9909
#
#
#
# Elastic Compliance Matrix: (Units=1/GPa)
#
#
# Indices 1 2 3 4 5 6 
#
# 1 0.022805 -0.003715 -0.008598 0.000000 0.000352 0.000000
# 2 -0.003715 0.032575 -0.009716 0.000000 -0.004124 0.000000
# 3 -0.008598 -0.009716 0.016067 0.000000 -0.007885 0.000000
# 4 0.000000 0.000000 0.000000 0.046698 0.000000 -0.012937
# 5 0.000352 -0.004124 -0.007885 0.000000 0.051078 0.000000
# 6 0.000000 0.000000 0.000000 -0.012937 0.000000 0.059168
#
#
# Mechanical properties :
#
#
# Convention : Reuss Voigt Hill
#
# Bulk Modulus (GPa) = 36.51110 59.23849 47.87480
# Shear Modulus (GPa) = 17.75696 21.04586 19.40141
#
# Velocity S-wave (km/s) = 3.33042 3.62575 3.48122
# Velocity P-wave (km/s) = 6.13149 7.38449 6.78697
#
# Compressibility (1/GPa) = 0.02738893
#
# Stress axis : x y z
#
# Youngs Moduli (GPa) = 43.84924 30.69823 62.23920
#
# Poissons Ratio (x) = 0.11404 0.53515
# Poissons Ratio (y) = 0.16289 0.60473
# Poissons Ratio (z) = 0.37703 0.29827
#
# Static dielectric constant tensor:
#      x y z
#    x 1.512540 0.000000 0.009170 
#    y 0.000000 1.537600 0.000000 
#    z 0.009170 0.000000 1.544370 
# 
# From -- ./inp_files/319715.got.cif
#   From: 2010.05.17/outbox.cif.g08.bks.cpg/sg12_160_cif.got.tgz:319715.got - 2010.06.03 13:09:07.
