data_PCOD9171688
_publ_section_title
;
Structure prediction by ZEFSAII (Michael W. Deem and Ramdas Pophale) SiO2 
 PCOD9171688
Probable space group: C 2/M
;
_chemical_formula_sum "Si O2"
_cell_formula_units_Z 56
_cell_length_a 9.195617
_cell_length_b 16.923904
_cell_length_c 17.093087
_cell_angle_alpha 90.000000
_cell_angle_beta 60.802978
_cell_angle_gamma 90.000000
_cell_volume 2322.148681
_symmetry_space_group_name_H-M "C 2/M"
_symmetry_group_IT_number 12
_symmetry_cell_setting 'monoclinic'
loop_
_space_group_symop_operation_xyz
x,y,z
-x,y,-z
-x,-y,-z
x,-y,z
1/2+x,1/2+y,z
1/2-x,1/2+y,-z
1/2-x,1/2-y,-z
1/2+x,1/2-y,z
loop_
_atom_site_type_symbol
_atom_site_label
_atom_site_fract_x
_atom_site_fract_y
_atom_site_fract_z
Si Si1 0.509975 0.087663 0.669208
Si Si2 0.450528 0.684544 0.287238
Si Si3 0.422387 0.159324 0.197462
Si Si4 0.126844 0.909169 0.833376
Si Si5 0.688679 0.087732 0.916032
Si Si6 0.278844 0.665058 0.036734
Si Si7 0.075824 0.267512 0.400814
O O1 0.618579 0.104485 0.718071
O O2 0.320390 0.096072 0.751260
O O3 0.531519 0.157509 0.601707
O O4 0.535282 0.000000 0.631804
O O5 0.458542 0.755377 0.222405
O O6 0.462952 0.609588 0.226534
O O7 0.259928 0.697646 0.367008
O O8 0.565880 0.705803 0.331090
O O9 0.303104 0.151986 0.154636
O O10 0.600250 0.135895 0.115289
O O11 0.116899 0.846947 0.910121
O O12 0.105602 0.000000 0.865347
O O13 0.710504 0.000000 0.878664
O O14 0.500000 0.091265 0.000000
O O15 0.810232 0.105717 0.956171
O O16 0.250000 0.750000 0.000000
O O17 0.000000 0.234500 0.500000
#
# Coordination Sequence:
#
# PCOD9171688 Si02
#       7
#     8   8   8   8   8   8   8
#     4   8  15  28  48  75 103 130 164 208 257 306
#     4  10  20  35  56  77 101 136 173 209 254 311
#     4   9  17  29  47  71 100 135 171 209 250 299
#     4   9  17  31  50  70  96 135 179 216 254 306
#     4   9  16  25  40  65  96 128 162 207 260 295
#     4  10  18  28  46  72 102 134 173 219 259 294
#     4  10  20  34  55  82 108 132 162 207 261 315
#
# _framework density 24.115596
#
# number of rings (size 3 to 8) (size 9 to 14) (size 15 to 20)
#    0.000    2.714    0.000    3.000    0.000    3.714 
#    0.000    0.000    0.000    9.000    0.000    0.000 
#    0.000    0.000    0.000    0.000    0.000    0.000 
#
# Total GULP energy -156185.926457 kJ/mol
# GULP energy per Si atom -5578.068802 kJ/mol
# Density = 2.406071 g / cm^3
# Si number density = 24.115596 Si / 1000 Ang^3
#
#
#
# Elastic Constant Matrix: (Units=GPa)
#
#
# Indices 1 2 3 4 5 6 
#
# 1 87.9325 -3.5800 14.4871 0.0000 23.3722 0.0000
# 2 -3.5800 88.1151 38.9694 0.0000 25.5618 0.0000
# 3 14.4871 38.9694 114.4454 0.0000 17.3056 0.0000
# 4 0.0000 0.0000 0.0000 21.2101 0.0000 1.1974
# 5 23.3722 25.5618 17.3056 0.0000 27.3895 0.0000
# 6 0.0000 0.0000 0.0000 1.1974 0.0000 25.2811
#
#
#
# Elastic Compliance Matrix: (Units=1/GPa)
#
#
# Indices 1 2 3 4 5 6 
#
# 1 0.017497 0.007483 -0.001602 0.000000 -0.020901 0.000000
# 2 0.007483 0.020084 -0.004407 0.000000 -0.022344 0.000000
# 3 -0.001602 -0.004407 0.010628 0.000000 -0.001235 0.000000
# 4 0.000000 0.000000 0.000000 0.047274 0.000000 -0.002239
# 5 -0.020901 -0.022344 -0.001235 0.000000 0.075980 0.000000
# 6 0.000000 0.000000 0.000000 -0.002239 0.000000 0.039661
#
#
# Mechanical properties :
#
#
# Convention : Reuss Voigt Hill
#
# Bulk Modulus (GPa) = 19.54824 43.36066 31.45445
# Shear Modulus (GPa) = 22.19972 30.81724 26.50848
#
# Velocity S-wave (km/s) = 3.03736 3.57865 3.31905
# Velocity P-wave (km/s) = 4.51933 5.92410 5.26874
#
# Compressibility (1/GPa) = 0.05115550
#
# Stress axis : x y z
#
# Youngs Moduli (GPa) = 57.15419 49.79106 94.09110
#
# Poissons Ratio (x) = -0.37258 0.15075
# Poissons Ratio (y) = -0.42768 0.41467
# Poissons Ratio (z) = 0.09157 0.21944
#
# Static dielectric constant tensor:
#      x y z
#    x 2.672230 0.000000 -0.089040 
#    y 0.000000 2.320810 0.000000 
#    z -0.089040 0.000000 1.926940 
# 
# From -- ./inp_files/206060.got.cif
#   From: 2010.05.17/outbox.cif.g08.bks.cpg/sg12_104_cif.got.tgz:206060.got - 2010.06.03 13:09:07.
