data_PCOD9171298
_publ_section_title
;
Structure prediction by ZEFSAII (Michael W. Deem and Ramdas Pophale) SiO2 
 PCOD9171298
Probable space group: C 2/M
;
_chemical_formula_sum "Si O2"
_cell_formula_units_Z 64
_cell_length_a 31.606032
_cell_length_b 7.616736
_cell_length_c 15.353777
_cell_angle_alpha 90.000000
_cell_angle_beta 61.289006
_cell_angle_gamma 90.000000
_cell_volume 3241.756881
_symmetry_space_group_name_H-M "C 2/M"
_symmetry_group_IT_number 12
_symmetry_cell_setting 'monoclinic'
loop_
_space_group_symop_operation_xyz
x,y,z
-x,y,-z
-x,-y,-z
x,-y,z
1/2+x,1/2+y,z
1/2-x,1/2+y,-z
1/2-x,1/2-y,-z
1/2+x,1/2-y,z
loop_
_atom_site_type_symbol
_atom_site_label
_atom_site_fract_x
_atom_site_fract_y
_atom_site_fract_z
Si Si1 0.176196 0.206889 0.918919
Si Si2 0.267819 0.705542 0.620798
Si Si3 0.561062 0.285768 0.527097
Si Si4 0.143438 0.784000 0.578672
Si Si5 0.158703 0.799840 0.750698
Si Si6 0.951189 0.788455 0.655683
Si Si7 0.285307 0.786858 0.797202
Si Si8 0.636793 0.205409 0.141309
O O1 0.153942 0.282425 0.851451
O O2 0.231135 0.272347 0.876933
O O3 0.181748 0.000000 0.895959
O O4 0.145678 0.225148 0.036046
O O5 0.257970 0.500000 0.616080
O O6 0.304904 0.770523 0.511541
O O7 0.216565 0.800294 0.677037
O O8 0.292813 0.725364 0.690797
O O9 0.561905 0.500000 0.526063
O O10 0.601622 0.227292 0.554176
O O11 0.506855 0.231794 0.607124
O O12 0.568441 0.229145 0.419619
O O13 0.137030 0.721364 0.683939
O O14 0.143985 0.000000 0.578732
O O15 0.140478 0.000000 0.772767
O O16 0.915955 0.731709 0.766901
O O17 0.951484 0.000000 0.654160
O O18 0.324716 0.720785 0.826795
O O19 0.287021 0.000000 0.794668
O O20 0.646689 0.000000 0.125253
#
# Coordination Sequence:
#
# PCOD9171298 Si02
#       8
#     8   8   8   8   8   8   8   8
#     4   9  18  32  47  63  87 122 160 193 227 266
#     4  10  18  27  45  72  98 124 154 187 224 271
#     4   8  15  29  50  74  96 120 152 188 225 268
#     4   9  16  27  46  71  95 121 156 193 227 267
#     4   9  18  32  47  64  93 128 157 191 231 267
#     4   9  17  31  51  73  97 122 149 185 228 275
#     4   9  19  33  46  65  95 126 154 187 228 272
#     4  11  21  31  47  70  94 121 153 190 233 278
#
# _framework density 19.742381000000002
#
# number of rings (size 3 to 8) (size 9 to 14) (size 15 to 20)
#    0.000    2.750    0.000    3.750    0.000    4.000 
#    0.000    1.875    0.000    3.750    0.000    5.250 
#    0.000    0.000    0.000    0.000    0.000    0.000 
#
# Total GULP energy -178529.701346 kJ/mol
# GULP energy per Si atom -5579.053167 kJ/mol
# Density = 1.969745 g / cm^3
# Si number density = 19.742381 Si / 1000 Ang^3
#
#
#
# Elastic Constant Matrix: (Units=GPa)
#
#
# Indices 1 2 3 4 5 6 
#
# 1 47.3475 -4.6170 17.8575 0.0000 16.1160 0.0000
# 2 -4.6170 43.2381 -8.1165 0.0000 0.8061 0.0000
# 3 17.8575 -8.1165 107.4101 0.0000 10.2840 0.0000
# 4 0.0000 0.0000 0.0000 7.9441 0.0000 -2.9603
# 5 16.1160 0.8061 10.2840 0.0000 21.2770 0.0000
# 6 0.0000 0.0000 0.0000 -2.9603 0.0000 8.8743
#
#
#
# Elastic Compliance Matrix: (Units=1/GPa)
#
#
# Indices 1 2 3 4 5 6 
#
# 1 0.029676 0.003066 -0.002662 0.000000 -0.021307 0.000000
# 2 0.003066 0.023846 0.001679 0.000000 -0.004037 0.000000
# 3 -0.002662 0.001679 0.010163 0.000000 -0.002959 0.000000
# 4 0.000000 0.000000 0.000000 0.143749 0.000000 0.047952
# 5 -0.021307 -0.004037 -0.002959 0.000000 0.064721 0.000000
# 6 0.000000 0.000000 0.000000 0.047952 0.000000 0.128681
#
#
# Mechanical properties :
#
#
# Convention : Reuss Voigt Hill
#
# Bulk Modulus (GPa) = 14.73830 23.13817 18.93824
# Shear Modulus (GPa) = 11.92504 20.47719 16.20112
#
# Velocity S-wave (km/s) = 2.46037 3.22408 2.86777
# Velocity P-wave (km/s) = 3.94370 5.06015 4.53640
#
# Compressibility (1/GPa) = 0.06785043
#
# Stress axis : x y z
#
# Youngs Moduli (GPa) = 33.69739 41.93651 98.39729
#
# Poissons Ratio (x) = -0.12859 0.26193
# Poissons Ratio (y) = -0.10333 -0.16518
# Poissons Ratio (z) = 0.08970 -0.07040
#
# Static dielectric constant tensor:
#      x y z
#    x 1.697410 0.000000 0.038200 
#    y 0.000000 1.734320 0.000000 
#    z 0.038200 0.000000 1.691840 
# 
# From -- ./inp_files/249081.got.cif
#   From: 2010.05.17/outbox.cif.g08.bks.cpg/sg12_125_cif.got.tgz:249081.got - 2010.06.03 13:09:07.
