data_PCOD9171059
_publ_section_title
;
Structure prediction by ZEFSAII (Michael W. Deem and Ramdas Pophale) SiO2 
 PCOD9171059
Probable space group: C 2/M
;
_chemical_formula_sum "Si O2"
_cell_formula_units_Z 64
_cell_length_a 32.647061
_cell_length_b 7.326054
_cell_length_c 12.925732
_cell_angle_alpha 90.000000
_cell_angle_beta 65.960377
_cell_angle_gamma 90.000000
_cell_volume 2823.356198
_symmetry_space_group_name_H-M "C 2/M"
_symmetry_group_IT_number 12
_symmetry_cell_setting 'monoclinic'
loop_
_space_group_symop_operation_xyz
x,y,z
-x,y,-z
-x,-y,-z
x,-y,z
1/2+x,1/2+y,z
1/2-x,1/2+y,-z
1/2-x,1/2-y,-z
1/2+x,1/2-y,z
loop_
_atom_site_type_symbol
_atom_site_label
_atom_site_fract_x
_atom_site_fract_y
_atom_site_fract_z
Si Si1 0.752847 0.220054 0.319318
Si Si2 0.147052 0.288557 0.722138
Si Si3 0.070449 0.278752 0.934021
Si Si4 0.022948 0.277004 0.369594
Si Si5 0.719994 0.217323 0.130980
Si Si6 0.375911 0.777738 0.702756
Si Si7 0.999039 0.278125 0.831752
Si Si8 0.843664 0.722675 0.509919
O O1 0.800116 0.282372 0.313452
O O2 0.744427 0.282788 0.210180
O O3 0.708586 0.277034 0.427321
O O4 0.753818 0.000000 0.319605
O O5 0.133441 0.500000 0.729226
O O6 0.119337 0.214780 0.848141
O O7 0.137123 0.210926 0.618692
O O8 0.070262 0.500000 0.943952
O O9 0.038603 0.228118 0.869806
O O10 0.046692 0.217012 0.063625
O O11 0.022121 0.500000 0.371703
O O12 0.075044 0.219947 0.311965
O O13 0.998784 0.218005 0.288786
O O14 0.000000 0.217789 0.500000
O O15 0.668205 0.282643 0.187907
O O16 0.716694 0.000000 0.145345
O O17 0.750000 0.250000 0.000000
O O18 0.367594 0.723378 0.591625
O O19 0.376412 0.000000 0.704584
O O20 0.999490 0.500000 0.828989
O O21 0.844615 0.500000 0.508094
#
# Coordination Sequence:
#
# PCOD9171059 Si02
#       8
#     8   8   8   8   8   8   8   8
#     4   9  18  32  44  60  90 122 145 176 227 270
#     4  10  18  26  44  70  86 110 154 189 211 252
#     4   8  15  25  37  55  83 116 141 173 225 268
#     4   9  16  22  35  58  83 116 153 182 215 270
#     4   9  18  32  49  66  89 123 154 183 225 272
#     4   8  15  27  40  60  90 122 148 179 231 276
#     4   8  14  25  35  50  84 118 140 171 221 272
#     4   8  15  27  42  58  85 118 147 179 218 265
#
# _framework density 22.668057999999998
#
# number of rings (size 3 to 8) (size 9 to 14) (size 15 to 20)
#    0.000    3.375    0.000    2.625    1.750    1.500 
#    0.000    2.500    0.000    0.750    0.000    1.750 
#    0.000    1.500    0.000    0.125    0.000    0.125 
#
# Total GULP energy -178507.872917 kJ/mol
# GULP energy per Si atom -5578.371029 kJ/mol
# Density = 2.261646 g / cm^3
# Si number density = 22.668058 Si / 1000 Ang^3
#
#
#
# Elastic Constant Matrix: (Units=GPa)
#
#
# Indices 1 2 3 4 5 6 
#
# 1 36.5927 -7.3767 9.0151 0.0000 4.5253 0.0000
# 2 -7.3767 84.6151 1.4934 0.0000 -1.9096 0.0000
# 3 9.0151 1.4934 123.1032 0.0000 8.9085 0.0000
# 4 0.0000 0.0000 0.0000 -7.3322 0.0000 -8.3152
# 5 4.5253 -1.9096 8.9085 0.0000 17.0147 0.0000
# 6 0.0000 0.0000 0.0000 -8.3152 0.0000 -8.5756
#
#
#
# Elastic Compliance Matrix: (Units=1/GPa)
#
#
# Indices 1 2 3 4 5 6 
#
# 1 0.029041 0.002413 -0.001680 0.000000 -0.006573 0.000000
# 2 0.002413 0.012056 -0.000389 0.000000 0.000915 0.000000
# 3 -0.001680 -0.000389 0.008546 0.000000 -0.004071 0.000000
# 4 0.000000 0.000000 0.000000 1.369058 0.000000 -1.327483
# 5 -0.006573 0.000915 -0.004071 0.000000 0.062755 0.000000
# 6 0.000000 0.000000 0.000000 -1.327483 0.000000 1.170560
#
#
# Mechanical properties :
#
#
# Convention : Reuss Voigt Hill
#
# Bulk Modulus (GPa) = 19.86885 27.84163 23.85524
# Shear Modulus (GPa) = 1.87399 16.30000 9.08699
#
# Velocity S-wave (km/s) = 0.91022 2.68446 2.00435
# Velocity P-wave (km/s) = 3.14465 4.68161 3.98787
#
# Compressibility (1/GPa) = 0.05033003
#
# Stress axis : x y z
#
# Youngs Moduli (GPa) = 34.43389 82.94547 117.01858
#
# Poissons Ratio (x) = -0.20016 0.19663
# Poissons Ratio (y) = -0.08309 0.04554
# Poissons Ratio (z) = 0.05786 0.03228
#
# Static dielectric constant tensor:
#      x y z
#    x 1.809840 0.000000 -0.014850 
#    y 0.000000 1.939180 0.000000 
#    z -0.014850 0.000000 1.850370 
# 
# From -- ./inp_files/188348.got.cif
#   From: 2010.05.17/outbox.cif.g08.bks.cpg/sg12_95_cif.got.tgz:188348.got - 2010.06.03 13:09:07.
