data_PCOD9171836
_publ_section_title
;
Structure prediction by ZEFSAII (Michael W. Deem and Ramdas Pophale) SiO2 
 PCOD9171836
Probable space group: C 2/M
;
_chemical_formula_sum "Si O2"
_cell_formula_units_Z 48
_cell_length_a 12.803086
_cell_length_b 22.198361
_cell_length_c 8.350927
_cell_angle_alpha 90.000000
_cell_angle_beta 119.737130
_cell_angle_gamma 90.000000
_cell_volume 2060.844340
_symmetry_space_group_name_H-M "C 2/M"
_symmetry_group_IT_number 12
_symmetry_cell_setting 'monoclinic'
loop_
_space_group_symop_operation_xyz
x,y,z
-x,y,-z
-x,-y,-z
x,-y,z
1/2+x,1/2+y,z
1/2-x,1/2+y,-z
1/2-x,1/2-y,-z
1/2+x,1/2-y,z
loop_
_atom_site_type_symbol
_atom_site_label
_atom_site_fract_x
_atom_site_fract_y
_atom_site_fract_z
Si Si1 0.860013 0.500000 0.346302
Si Si2 0.649313 0.803079 0.777633
Si Si3 0.787199 0.174084 0.222751
Si Si4 0.059903 0.071895 0.801001
Si Si5 0.818681 0.895214 0.763830
Si Si6 0.435523 0.866206 0.774384
Si Si7 0.012854 0.500000 0.196046
O O1 0.785362 0.443138 0.340205
O O2 0.000000 0.500000 0.500000
O O3 0.879049 0.500000 0.169180
O O4 0.633863 0.734308 0.713514
O O5 0.748069 0.833216 0.736077
O O6 0.522133 0.835857 0.709260
O O7 0.711471 0.813162 0.000419
O O8 0.863008 0.113057 0.259606
O O9 0.691483 0.165478 0.291692
O O10 0.924914 0.098016 0.717224
O O11 0.058047 0.000000 0.768765
O O12 0.121166 0.084589 0.020969
O O13 0.425148 0.936419 0.722940
O O14 0.500000 0.863991 0.000000
O O15 0.000000 0.500000 0.000000
#
# Coordination Sequence:
#
# PCOD9171836 Si02
#       7
#     4   8   8   8   8   8   4
#     4  12  22  35  54  84 117 148 192 232 275 331
#     4   9  17  29  42  63 109 138 177 218 274 321
#     4   9  19  26  41  73 101 146 175 215 275 341
#     4  10  18  28  49  72 110 138 178 222 287 328
#     4  10  18  32  48  74 106 143 178 230 277 327
#     4   9  17  27  44  67 102 139 171 219 272 329
#     4  10  20  32  52  78 107 143 176 228 288 323
#
# _framework density 23.291423000000002
#
# number of rings (size 3 to 8) (size 9 to 14) (size 15 to 20)
#    0.000    2.333    3.333    0.500    5.833    0.000 
#    0.000    0.000    0.000    0.000    0.000    7.000 
#    0.000    0.000    0.000    0.000    0.000    0.000 
#
# Total GULP energy -134013.608999 kJ/mol
# GULP energy per Si atom -5583.900375 kJ/mol
# Density = 2.323841 g / cm^3
# Si number density = 23.291423 Si / 1000 Ang^3
#
#
#
# Elastic Constant Matrix: (Units=GPa)
#
#
# Indices 1 2 3 4 5 6 
#
# 1 145.8190 79.6046 43.3502 0.0000 29.5681 0.0000
# 2 79.6046 157.4339 1.7258 0.0000 12.9468 0.0000
# 3 43.3502 1.7258 57.7183 0.0000 7.7109 0.0000
# 4 0.0000 0.0000 0.0000 22.9476 0.0000 11.0737
# 5 29.5681 12.9468 7.7109 0.0000 24.9997 0.0000
# 6 0.0000 0.0000 0.0000 11.0737 0.0000 13.2218
#
#
#
# Elastic Compliance Matrix: (Units=1/GPa)
#
#
# Indices 1 2 3 4 5 6 
#
# 1 0.016387 -0.007147 -0.010429 0.000000 -0.012464 0.000000
# 2 -0.007147 0.009755 0.004820 0.000000 0.001914 0.000000
# 3 -0.010429 0.004820 0.024718 0.000000 0.002214 0.000000
# 4 0.000000 0.000000 0.000000 0.073137 0.000000 -0.061255
# 5 -0.012464 0.001914 0.002214 0.000000 0.053068 0.000000
# 6 0.000000 0.000000 0.000000 -0.061255 0.000000 0.126936
#
#
# Mechanical properties :
#
#
# Convention : Reuss Voigt Hill
#
# Bulk Modulus (GPa) = 39.44769 67.81470 53.63120
# Shear Modulus (GPa) = 14.79459 27.98653 21.39056
#
# Velocity S-wave (km/s) = 2.52304 3.47014 3.03378
# Velocity P-wave (km/s) = 5.04589 6.72568 5.94541
#
# Compressibility (1/GPa) = 0.02535003
#
# Stress axis : x y z
#
# Youngs Moduli (GPa) = 61.02451 102.50928 40.45578
#
# Poissons Ratio (x) = 0.73259 0.42191
# Poissons Ratio (y) = 0.43611 -0.19500
# Poissons Ratio (z) = 0.63641 -0.49411
#
# Static dielectric constant tensor:
#      x y z
#    x 1.913970 0.000000 -0.074070 
#    y 0.000000 1.819070 0.000000 
#    z -0.074070 0.000000 1.997750 
# 
# From -- ./inp_files/135583.got.cif
#   From: 2010.05.17/outbox.cif.g08.bks.cpg/sg12_68_cif.got.tgz:135583.got - 2010.06.03 13:09:07.
