data_PCOD9171693
_publ_section_title
;
Structure prediction by ZEFSAII (Michael W. Deem and Ramdas Pophale) SiO2 
 PCOD9171693
Probable space group: C 2/M
;
_chemical_formula_sum "Si O2"
_cell_formula_units_Z 64
_cell_length_a 20.600952
_cell_length_b 9.716421
_cell_length_c 18.097611
_cell_angle_alpha 90.000000
_cell_angle_beta 127.862086
_cell_angle_gamma 90.000000
_cell_volume 2859.971572
_symmetry_space_group_name_H-M "C 2/M"
_symmetry_group_IT_number 12
_symmetry_cell_setting 'monoclinic'
loop_
_space_group_symop_operation_xyz
x,y,z
-x,y,-z
-x,-y,-z
x,-y,z
1/2+x,1/2+y,z
1/2-x,1/2+y,-z
1/2-x,1/2-y,-z
1/2+x,1/2-y,z
loop_
_atom_site_type_symbol
_atom_site_label
_atom_site_fract_x
_atom_site_fract_y
_atom_site_fract_z
Si Si1 0.943003 0.148002 0.530414
Si Si2 0.711239 0.345777 0.363954
Si Si3 0.203324 0.156923 0.682552
Si Si4 0.638150 0.334780 0.793623
Si Si5 0.930004 0.344173 0.886640
Si Si6 0.323906 0.164084 0.949744
Si Si7 0.626609 0.847710 0.416631
Si Si8 0.541266 0.666891 0.865078
O O1 0.854312 0.141466 0.430010
O O2 0.943361 0.276281 0.583838
O O3 0.000000 0.161046 0.500000
O O4 0.959641 0.000000 0.579296
O O5 0.680854 0.500000 0.331023
O O6 0.734018 0.269481 0.304290
O O7 0.649423 0.252956 0.366844
O O8 0.792384 0.356067 0.473715
O O9 0.148901 0.204620 0.714865
O O10 0.232744 0.000000 0.717894
O O11 0.633728 0.500000 0.789050
O O12 0.727888 0.300913 0.890629
O O13 0.564819 0.292307 0.797089
O O14 0.927482 0.500000 0.854098
O O15 0.849826 0.319887 0.881553
O O16 0.961712 0.236532 0.847835
O O17 0.000000 0.343517 0.000000
O O18 0.336510 0.000000 0.976189
O O19 0.382528 0.264963 0.036369
O O20 0.606668 0.000000 0.377411
O O21 0.539146 0.500000 0.869969
#
# Coordination Sequence:
#
# PCOD9171693 Si02
#       8
#     8   8   8   8   8   8   8   8
#     4   9  17  29  47  70  93 120 155 195 236 279
#     4   9  16  27  44  67  93 114 143 186 229 271
#     4   9  17  31  49  66  89 124 159 187 229 287
#     4   9  18  31  48  69  93 126 161 195 236 285
#     4   8  15  28  46  66  89 120 154 189 233 282
#     4   9  17  31  49  68  92 123 161 198 234 280
#     4   9  16  26  44  69  91 116 146 183 227 272
#     4  10  18  28  46  72  97 121 156 199 239 278
#
# _framework density 22.377844
#
# number of rings (size 3 to 8) (size 9 to 14) (size 15 to 20)
#    0.000    3.000    0.000    2.250    0.000    5.500 
#    0.000    2.500    2.750    0.000    0.000    0.000 
#    0.000    0.000    0.000    0.000    0.000    0.000 
#
# Total GULP energy -178495.821767 kJ/mol
# GULP energy per Si atom -5577.994430 kJ/mol
# Density = 2.232691 g / cm^3
# Si number density = 22.377844 Si / 1000 Ang^3
#
#
#
# Elastic Constant Matrix: (Units=GPa)
#
#
# Indices 1 2 3 4 5 6 
#
# 1 101.7007 63.7371 8.5492 0.0000 -32.4420 0.0000
# 2 63.7371 158.8505 31.8524 0.0000 -37.1770 0.0000
# 3 8.5492 31.8524 74.0676 0.0000 -6.6206 0.0000
# 4 0.0000 0.0000 0.0000 3.1407 0.0000 -12.1642
# 5 -32.4420 -37.1770 -6.6206 0.0000 43.2153 0.0000
# 6 0.0000 0.0000 0.0000 -12.1642 0.0000 26.5168
#
#
#
# Elastic Compliance Matrix: (Units=1/GPa)
#
#
# Indices 1 2 3 4 5 6 
#
# 1 0.014922 -0.004387 0.000840 0.000000 0.007557 0.000000
# 2 -0.004387 0.009800 -0.003294 0.000000 0.004633 0.000000
# 3 0.000840 -0.003294 0.014827 0.000000 0.000068 0.000000
# 4 0.000000 0.000000 0.000000 -0.409931 0.000000 -0.188050
# 5 0.007557 0.004633 0.000068 0.000000 0.032809 0.000000
# 6 0.000000 0.000000 0.000000 -0.188050 0.000000 -0.048553
#
#
# Mechanical properties :
#
#
# Convention : Reuss Voigt Hill
#
# Bulk Modulus (GPa) = 38.66017 60.32180 49.49098
# Shear Modulus (GPa) = -13.74303 29.93990 8.09843
#
# Velocity S-wave (km/s) = -2.48086 3.66174 1.90442
# Velocity P-wave (km/s) = 3.01784 6.70017 5.19614
#
# Compressibility (1/GPa) = 0.02586642
#
# Stress axis : x y z
#
# Youngs Moduli (GPa) = 67.01406 102.03740 67.44483
#
# Poissons Ratio (x) = 0.44766 -0.05664
# Poissons Ratio (y) = 0.29401 0.22217
# Poissons Ratio (z) = -0.05628 0.33612
#
# Static dielectric constant tensor:
#      x y z
#    x 1.894570 0.000000 0.068550 
#    y 0.000000 1.783670 0.000000 
#    z 0.068550 0.000000 1.892900 
# 
# From -- ./inp_files/319231.got.cif
#   From: 2010.05.17/outbox.cif.g08.bks.cpg/sg12_160_cif.got.tgz:319231.got - 2010.06.03 13:09:07.
