data_PCOD9171579
_publ_section_title
;
Structure prediction by ZEFSAII (Michael W. Deem and Ramdas Pophale) SiO2 
 PCOD9171579
Probable space group: C 2/M
;
_chemical_formula_sum "Si O2"
_cell_formula_units_Z 56
_cell_length_a 19.691086
_cell_length_b 7.356029
_cell_length_c 16.676741
_cell_angle_alpha 90.000000
_cell_angle_beta 120.916102
_cell_angle_gamma 90.000000
_cell_volume 2072.389371
_symmetry_space_group_name_H-M "C 2/M"
_symmetry_group_IT_number 12
_symmetry_cell_setting 'monoclinic'
loop_
_space_group_symop_operation_xyz
x,y,z
-x,y,-z
-x,-y,-z
x,-y,z
1/2+x,1/2+y,z
1/2-x,1/2+y,-z
1/2-x,1/2-y,-z
1/2+x,1/2-y,z
loop_
_atom_site_type_symbol
_atom_site_label
_atom_site_fract_x
_atom_site_fract_y
_atom_site_fract_z
Si Si1 0.560946 0.292049 0.970346
Si Si2 0.168463 0.783245 0.900031
Si Si3 0.671583 0.776993 0.307618
Si Si4 0.220120 0.278547 0.161950
Si Si5 0.463762 0.795069 0.675799
Si Si6 0.067779 0.719342 0.605639
Si Si7 0.671935 0.709222 0.528849
O O1 0.534301 0.500000 0.940867
O O2 0.591076 0.213924 0.901868
O O3 0.500000 0.210962 0.000000
O O4 0.645115 0.288125 0.066072
O O5 0.198249 0.716811 0.830720
O O6 0.157531 0.000000 0.889573
O O7 0.250000 0.750000 0.000000
O O8 0.699307 0.717406 0.238019
O O9 0.584420 0.713132 0.279730
O O10 0.738853 0.719615 0.411453
O O11 0.670127 0.000000 0.308058
O O12 0.220122 0.500000 0.160304
O O13 0.536468 0.709200 0.671968
O O14 0.393340 0.805706 0.565286
O O15 0.486174 0.000000 0.710044
O O16 0.070331 0.500000 0.611056
O O17 0.144705 0.784965 0.606276
O O18 0.000000 0.770704 0.500000
O O19 0.669575 0.500000 0.504339
#
# Coordination Sequence:
#
# PCOD9171579 Si02
#       7
#     8   8   8   8   8   8   8
#     4   9  17  30  48  71  97 120 144 179 222 266
#     4   8  14  26  46  67  86 113 145 174 208 255
#     4   9  18  31  46  65  90 119 150 189 232 266
#     4   9  17  31  49  67  89 119 154 186 219 264
#     4   9  17  31  48  63  85 120 157 189 225 270
#     4   8  15  28  45  62  81 110 146 182 222 269
#     4  10  18  28  45  68  91 115 149 193 233 268
#
# _framework density 27.021947999999998
#
# number of rings (size 3 to 8) (size 9 to 14) (size 15 to 20)
#    0.000    3.143    0.000    1.714    0.000    2.857 
#    0.000    4.286    0.000    1.714    0.000    0.000 
#    0.000    0.000    0.000    0.000    0.000    0.000 
#
# Total GULP energy -156312.255232 kJ/mol
# GULP energy per Si atom -5582.580544 kJ/mol
# Density = 2.696044 g / cm^3
# Si number density = 27.021948 Si / 1000 Ang^3
#
#
#
# Elastic Constant Matrix: (Units=GPa)
#
#
# Indices 1 2 3 4 5 6 
#
# 1 220.6304 15.3891 53.2473 0.0000 -54.5774 0.0000
# 2 15.3891 124.3062 12.3561 0.0000 -8.7550 0.0000
# 3 53.2473 12.3561 82.3476 0.0000 -32.4029 0.0000
# 4 0.0000 0.0000 0.0000 2.5550 0.0000 27.8565
# 5 -54.5774 -8.7550 -32.4029 0.0000 73.7956 0.0000
# 6 0.0000 0.0000 0.0000 27.8565 0.0000 -86.9192
#
#
#
# Elastic Compliance Matrix: (Units=1/GPa)
#
#
# Indices 1 2 3 4 5 6 
#
# 1 0.005972 -0.000257 -0.002535 0.000000 0.003273 0.000000
# 2 -0.000257 0.008194 -0.000913 0.000000 0.000381 0.000000
# 3 -0.002535 -0.000913 0.015884 0.000000 0.004991 0.000000
# 4 0.000000 0.000000 0.000000 0.087088 0.000000 0.027911
# 5 0.003273 0.000381 0.004991 0.000000 0.018208 0.000000
# 6 0.000000 0.000000 0.000000 0.027911 0.000000 -0.002560
#
#
# Mechanical properties :
#
#
# Convention : Reuss Voigt Hill
#
# Bulk Modulus (GPa) = 44.17131 65.47437 54.82284
# Shear Modulus (GPa) = 33.84253 20.97239 27.40746
#
# Velocity S-wave (km/s) = 3.54278 2.78892 3.18821
# Velocity P-wave (km/s) = 5.75474 5.88672 5.82110
#
# Compressibility (1/GPa) = 0.02263913
#
# Stress axis : x y z
#
# Youngs Moduli (GPa) = 167.45231 122.03923 62.95682
#
# Poissons Ratio (x) = 0.03134 0.15960
# Poissons Ratio (y) = 0.04300 0.05751
# Poissons Ratio (z) = 0.42450 0.11148
#
# Static dielectric constant tensor:
#      x y z
#    x 2.161510 0.000000 -0.105850 
#    y 0.000000 1.972950 0.000000 
#    z -0.105850 0.000000 2.234390 
# 
# From -- ./inp_files/280411.got.cif
#   From: 2010.05.17/outbox.cif.g08.bks.cpg/sg12_141_cif.got.tgz:280411.got - 2010.06.03 13:09:07.
