data_PCOD9171125
_publ_section_title
;
Structure prediction by ZEFSAII (Michael W. Deem and Ramdas Pophale) SiO2 
 PCOD9171125
Probable space group: C 2/M
;
_chemical_formula_sum "Si O2"
_cell_formula_units_Z 64
_cell_length_a 21.118191
_cell_length_b 8.894088
_cell_length_c 20.365188
_cell_angle_alpha 90.000000
_cell_angle_beta 100.858572
_cell_angle_gamma 90.000000
_cell_volume 3756.644856
_symmetry_space_group_name_H-M "C 2/M"
_symmetry_group_IT_number 12
_symmetry_cell_setting 'monoclinic'
loop_
_space_group_symop_operation_xyz
x,y,z
-x,y,-z
-x,-y,-z
x,-y,z
1/2+x,1/2+y,z
1/2-x,1/2+y,-z
1/2-x,1/2-y,-z
1/2+x,1/2-y,z
loop_
_atom_site_type_symbol
_atom_site_label
_atom_site_fract_x
_atom_site_fract_y
_atom_site_fract_z
Si Si1 0.801800 0.827323 0.419401
Si Si2 0.845598 0.674183 0.554075
Si Si3 0.269087 0.181163 0.137565
Si Si4 0.252768 0.820954 0.284572
Si Si5 0.867135 0.681755 0.928834
Si Si6 0.895269 0.316706 0.082718
Si Si7 0.968133 0.316875 0.835957
Si Si8 0.116606 0.317653 0.299961
O O1 0.845826 0.764023 0.486428
O O2 0.728191 0.820511 0.433062
O O3 0.799415 0.734514 0.351762
O O4 0.816601 0.000000 0.408562
O O5 0.860878 0.500000 0.543935
O O6 0.886878 0.730103 0.624445
O O7 0.276058 0.217579 0.216061
O O8 0.203269 0.252717 0.098572
O O9 0.330965 0.231570 0.108144
O O10 0.264174 0.000000 0.131091
O O11 0.183267 0.744651 0.283156
O O12 0.245158 0.000000 0.287804
O O13 0.863513 0.500000 0.926610
O O14 0.916754 0.729173 0.881629
O O15 0.891785 0.727083 0.005722
O O16 0.896088 0.500000 0.084210
O O17 0.960746 0.264807 0.130500
O O18 0.969204 0.500000 0.836556
O O19 0.940894 0.271540 0.759582
O O20 0.121018 0.500000 0.301217
#
# Coordination Sequence:
#
# PCOD9171125 Si02
#       8
#     8   8   8   8   8   8   8   8
#     4   9  16  25  39  60  87 117 149 185 223 265
#     4   8  14  23  36  58  89 117 141 176 227 276
#     4  10  20  32  46  67  96 127 155 188 235 282
#     4  10  18  27  41  61  88 122 153 184 225 272
#     4  10  18  30  52  73  90 118 157 198 235 275
#     4   9  18  31  47  70  96 121 154 195 236 278
#     4   9  16  28  48  72  94 118 155 198 234 269
#     4   9  16  27  44  66  89 116 151 190 227 266
#
# _framework density 17.036477999999999
#
# number of rings (size 3 to 8) (size 9 to 14) (size 15 to 20)
#    0.000    2.750    1.250    2.250    0.000    5.000 
#    0.000    0.000    0.000    3.750    0.000    0.875 
#    0.000    7.000    0.000    0.000    0.000    0.000 
#
# Total GULP energy -178278.532038 kJ/mol
# GULP energy per Si atom -5571.204126 kJ/mol
# Density = 1.699770 g / cm^3
# Si number density = 17.036478 Si / 1000 Ang^3
#
#
#
# Elastic Constant Matrix: (Units=GPa)
#
#
# Indices 1 2 3 4 5 6 
#
# 1 69.0145 6.5019 36.3744 0.0000 22.0967 0.0000
# 2 6.5019 12.7994 24.4608 0.0000 6.5783 0.0000
# 3 36.3744 24.4608 135.0936 0.0000 35.8728 0.0000
# 4 0.0000 0.0000 0.0000 19.2478 0.0000 3.2140
# 5 22.0967 6.5783 35.8728 0.0000 12.9092 0.0000
# 6 0.0000 0.0000 0.0000 3.2140 0.0000 13.7780
#
#
#
# Elastic Compliance Matrix: (Units=1/GPa)
#
#
# Indices 1 2 3 4 5 6 
#
# 1 0.074173 0.003451 0.051827 0.000000 -0.272740 0.000000
# 2 0.003451 0.119658 -0.018447 0.000000 -0.015620 0.000000
# 3 0.051827 -0.018447 0.068096 0.000000 -0.268539 0.000000
# 4 0.000000 0.000000 0.000000 0.054060 0.000000 -0.012611
# 5 -0.272740 -0.015620 -0.268539 0.000000 1.298500 0.000000
# 6 0.000000 0.000000 0.000000 -0.012611 0.000000 0.075521
#
#
# Mechanical properties :
#
#
# Convention : Reuss Voigt Hill
#
# Bulk Modulus (GPa) = 2.97984 39.06465 21.02224
# Shear Modulus (GPa) = 2.89317 19.15837 11.02577
#
# Velocity S-wave (km/s) = 1.30457 3.35707 2.54674
# Velocity P-wave (km/s) = 2.00552 6.16493 4.58413
#
# Compressibility (1/GPa) = 0.33558863
#
# Stress axis : x y z
#
# Youngs Moduli (GPa) = 13.48194 8.35716 14.68520
#
# Poissons Ratio (x) = -0.02884 -0.76109
# Poissons Ratio (y) = -0.04653 0.27090
# Poissons Ratio (z) = -0.69873 0.15417
#
# Static dielectric constant tensor:
#      x y z
#    x 1.545790 0.000000 0.012740 
#    y 0.000000 1.574540 0.000000 
#    z 0.012740 0.000000 1.603930 
# 
# From -- ./inp_files/319234.got.cif
#   From: 2010.05.17/outbox.cif.g08.bks.cpg/sg12_160_cif.got.tgz:319234.got - 2010.06.03 13:09:07.
