data_PCOD9171501
_publ_section_title
;
Structure prediction by ZEFSAII (Michael W. Deem and Ramdas Pophale) SiO2 
 PCOD9171501
Probable space group: C 2/M
;
_chemical_formula_sum "Si O2"
_cell_formula_units_Z 56
_cell_length_a 28.130779
_cell_length_b 8.583967
_cell_length_c 16.685860
_cell_angle_alpha 90.000000
_cell_angle_beta 114.413617
_cell_angle_gamma 90.000000
_cell_volume 3668.927273
_symmetry_space_group_name_H-M "C 2/M"
_symmetry_group_IT_number 12
_symmetry_cell_setting 'monoclinic'
loop_
_space_group_symop_operation_xyz
x,y,z
-x,y,-z
-x,-y,-z
x,-y,z
1/2+x,1/2+y,z
1/2-x,1/2+y,-z
1/2-x,1/2-y,-z
1/2+x,1/2-y,z
loop_
_atom_site_type_symbol
_atom_site_label
_atom_site_fract_x
_atom_site_fract_y
_atom_site_fract_z
Si Si1 0.236434 0.313721 0.363386
Si Si2 0.147076 0.310351 0.812189
Si Si3 0.757435 0.186281 0.810368
Si Si4 0.331519 0.686273 0.543854
Si Si5 0.564574 0.811703 0.459400
Si Si6 0.946351 0.689671 0.363697
Si Si7 0.302650 0.186830 0.995028
O O1 0.235944 0.500000 0.358679
O O2 0.233999 0.245208 0.273090
O O3 0.289946 0.264322 0.445978
O O4 0.189954 0.256842 0.388523
O O5 0.146527 0.500000 0.809690
O O6 0.199959 0.261888 0.802259
O O7 0.095914 0.254541 0.729997
O O8 0.152992 0.266104 0.909824
O O9 0.800037 0.247481 0.903756
O O10 0.757870 0.000000 0.812306
O O11 0.329931 0.500000 0.548154
O O12 0.388598 0.742173 0.558872
O O13 0.569373 0.766014 0.556572
O O14 0.506355 0.763094 0.391899
O O15 0.567230 0.000000 0.457740
O O16 0.946170 0.500000 0.362285
O O17 0.300940 0.000000 0.990558
O O18 0.250000 0.250000 0.000000
#
# Coordination Sequence:
#
# PCOD9171501 Si02
#       7
#     8   8   8   8   8   8   8
#     4  10  20  32  46  64  85 113 148 179 210 255
#     4   8  14  24  40  62  88 117 147 178 210 248
#     4  10  18  28  44  65  89 116 144 179 221 261
#     4  10  20  32  45  63  89 116 142 177 217 255
#     4   9  16  27  45  65  87 116 148 181 212 248
#     4   8  14  25  42  65  88 114 150 182 209 245
#     4   9  16  26  40  60  87 118 149 181 217 257
#
# _framework density 15.263317000000001
#
# number of rings (size 3 to 8) (size 9 to 14) (size 15 to 20)
#    0.000    2.857    0.000    4.286    0.000    2.857 
#    0.000    1.429    0.000    6.000    0.000    1.000 
#    0.000    8.000    0.000    0.000    0.000    0.000 
#
# Total GULP energy -155957.772956 kJ/mol
# GULP energy per Si atom -5569.920463 kJ/mol
# Density = 1.522858 g / cm^3
# Si number density = 15.263317 Si / 1000 Ang^3
#
#
#
# Elastic Constant Matrix: (Units=GPa)
#
#
# Indices 1 2 3 4 5 6 
#
# 1 91.3709 20.3833 67.5409 0.0000 0.8092 0.0000
# 2 20.3833 30.2638 32.5176 0.0000 -3.2908 0.0000
# 3 67.5409 32.5176 161.5011 0.0000 1.5171 0.0000
# 4 0.0000 0.0000 0.0000 19.2621 0.0000 -3.3728
# 5 0.8092 -3.2908 1.5171 0.0000 23.7118 0.0000
# 6 0.0000 0.0000 0.0000 -3.3728 0.0000 19.8691
#
#
#
# Elastic Compliance Matrix: (Units=1/GPa)
#
#
# Indices 1 2 3 4 5 6 
#
# 1 0.016361 -0.004809 -0.005866 0.000000 -0.000850 0.000000
# 2 -0.004809 0.044571 -0.007027 0.000000 0.006800 0.000000
# 3 -0.005866 -0.007027 0.010073 0.000000 -0.001420 0.000000
# 4 0.000000 0.000000 0.000000 0.053506 0.000000 0.009083
# 5 -0.000850 0.006800 -0.001420 0.000000 0.043237 0.000000
# 6 0.000000 0.000000 0.000000 0.009083 0.000000 0.051871
#
#
# Mechanical properties :
#
#
# Convention : Reuss Voigt Hill
#
# Bulk Modulus (GPa) = 28.08863 58.22439 43.15651
# Shear Modulus (GPa) = 18.73430 23.41488 21.07459
#
# Velocity S-wave (km/s) = 3.50724 3.92096 3.71986
# Velocity P-wave (km/s) = 5.90285 7.66342 6.84001
#
# Compressibility (1/GPa) = 0.03560160
#
# Stress axis : x y z
#
# Youngs Moduli (GPa) = 61.12166 22.43589 99.27266
#
# Poissons Ratio (x) = 0.10790 0.58233
# Poissons Ratio (y) = 0.29394 0.69759
# Poissons Ratio (z) = 0.35854 0.15766
#
# Static dielectric constant tensor:
#      x y z
#    x 1.472510 0.000000 0.023190 
#    y 0.000000 1.515270 0.000000 
#    z 0.023190 0.000000 1.524580 
# 
# From -- ./inp_files/243283.got.cif
#   From: 2010.05.17/outbox.cif.g08.bks.cpg/sg12_122_cif.got.tgz:243283.got - 2010.06.03 13:09:07.
