data_PCOD9171290
_publ_section_title
;
Structure prediction by ZEFSAII (Michael W. Deem and Ramdas Pophale) SiO2 
 PCOD9171290
Probable space group: C 2/M
;
_chemical_formula_sum "Si O2"
_cell_formula_units_Z 48
_cell_length_a 15.662165
_cell_length_b 7.648184
_cell_length_c 17.038243
_cell_angle_alpha 90.000000
_cell_angle_beta 57.884527
_cell_angle_gamma 90.000000
_cell_volume 1728.650742
_symmetry_space_group_name_H-M "C 2/M"
_symmetry_group_IT_number 12
_symmetry_cell_setting 'monoclinic'
loop_
_space_group_symop_operation_xyz
x,y,z
-x,y,-z
-x,-y,-z
x,-y,z
1/2+x,1/2+y,z
1/2-x,1/2+y,-z
1/2-x,1/2-y,-z
1/2+x,1/2-y,z
loop_
_atom_site_type_symbol
_atom_site_label
_atom_site_fract_x
_atom_site_fract_y
_atom_site_fract_z
Si Si1 0.004111 0.207629 0.895192
Si Si2 0.206143 0.201293 0.735267
Si Si3 0.885471 0.714769 0.555550
Si Si4 0.202422 0.706630 0.937710
Si Si5 0.092720 0.211261 0.225254
Si Si6 0.115629 0.702855 0.615428
O O1 0.950266 0.263252 0.839985
O O2 0.117243 0.285928 0.831193
O O3 0.018906 0.000000 0.884475
O O4 0.913641 0.231909 0.002072
O O5 0.313844 0.283073 0.659843
O O6 0.155139 0.198408 0.672406
O O7 0.220830 0.000000 0.750007
O O8 0.884258 0.500000 0.558926
O O9 0.848375 0.766698 0.486917
O O10 0.000000 0.773795 0.500000
O O11 0.199090 0.500000 0.933751
O O12 0.289787 0.769452 0.834622
O O13 0.250000 0.750000 0.000000
O O14 0.007312 0.285594 0.323755
O O15 0.091040 0.000000 0.230484
O O16 0.141370 0.500000 0.612689
#
# Coordination Sequence:
#
# PCOD9171290 Si02
#       6
#     8   8   8   8   8   8
#     4   8  14  23  36  57  83 111 141 172 211 254
#     4   9  17  30  47  65  89 120 147 176 219 265
#     4   9  18  32  48  66  88 115 148 183 220 263
#     4   9  15  22  34  54  82 115 143 170 209 252
#     4   8  15  26  38  56  86 119 145 172 214 262
#     4  10  18  27  45  70  90 113 147 185 219 253
#
# _framework density 27.767322
#
# number of rings (size 3 to 8) (size 9 to 14) (size 15 to 20)
#    0.000    3.167    0.000    3.500    0.000    6.667 
#    0.000    0.833    0.000    4.500    0.000    1.167 
#    0.000    9.333    0.000    0.000    0.000    0.000 
#
# Total GULP energy -134227.896294 kJ/mol
# GULP energy per Si atom -5592.829012 kJ/mol
# Density = 2.770412 g / cm^3
# Si number density = 27.767322 Si / 1000 Ang^3
#
#
#
# Elastic Constant Matrix: (Units=GPa)
#
#
# Indices 1 2 3 4 5 6 
#
# 1 98.2547 21.0533 47.7737 0.0000 -45.1616 0.0001
# 2 21.0533 95.2634 9.7608 0.0000 -3.5113 0.0005
# 3 47.7737 9.7608 267.4231 0.0000 -23.6404 0.0000
# 4 0.0000 0.0000 0.0000 23.5050 0.0000 -1.1644
# 5 -45.1616 -3.5113 -23.6404 0.0000 74.9803 0.0000
# 6 0.0001 0.0005 0.0000 -1.1644 0.0000 33.5306
#
#
#
# Elastic Compliance Matrix: (Units=1/GPa)
#
#
# Indices 1 2 3 4 5 6 
#
# 1 0.015778 -0.002966 -0.001937 0.000000 0.008754 0.000000
# 2 -0.002966 0.011105 0.000013 0.000000 -0.001262 0.000000
# 3 -0.001937 0.000013 0.004096 0.000000 0.000126 0.000000
# 4 0.000000 0.000000 0.000000 0.042618 0.000000 0.001480
# 5 0.008754 -0.001262 0.000126 0.000000 0.018590 0.000000
# 6 0.000000 0.000000 0.000000 0.001480 0.000000 0.029875
#
#
# Mechanical properties :
#
#
# Convention : Reuss Voigt Hill
#
# Bulk Modulus (GPa) = 47.16975 68.67965 57.92470
# Shear Modulus (GPa) = 35.99513 51.89341 43.94427
#
# Velocity S-wave (km/s) = 3.60434 4.32773 3.98249
# Velocity P-wave (km/s) = 5.86055 7.05408 6.48483
#
# Compressibility (1/GPa) = 0.02120003
#
# Stress axis : x y z
#
# Youngs Moduli (GPa) = 63.37744 90.05087 244.14136
#
# Poissons Ratio (x) = 0.26709 0.47281
# Poissons Ratio (y) = 0.18798 -0.00316
# Poissons Ratio (z) = 0.12274 -0.00117
#
# Static dielectric constant tensor:
#      x y z
#    x 2.328260 0.000000 -0.025210 
#    y 0.000000 1.935500 0.000000 
#    z -0.025210 0.000000 2.357360 
# 
# From -- ./inp_files/345410.got.cif
#   From: 2010.05.17/outbox.cif.g08.bks.cpg/sg12_173_cif.got.tgz:345410.got - 2010.06.03 13:09:07.
