data_PCOD9171801
_publ_section_title
;
Structure prediction by ZEFSAII (Michael W. Deem and Ramdas Pophale) SiO2 
 PCOD9171801
Probable space group: C 2/M
;
_chemical_formula_sum "Si O2"
_cell_formula_units_Z 64
_cell_length_a 20.651257
_cell_length_b 7.556849
_cell_length_c 16.030083
_cell_angle_alpha 90.000000
_cell_angle_beta 108.890136
_cell_angle_gamma 90.000000
_cell_volume 2366.894606
_symmetry_space_group_name_H-M "C 2/M"
_symmetry_group_IT_number 12
_symmetry_cell_setting 'monoclinic'
loop_
_space_group_symop_operation_xyz
x,y,z
-x,y,-z
-x,-y,-z
x,-y,z
1/2+x,1/2+y,z
1/2-x,1/2+y,-z
1/2-x,1/2-y,-z
1/2+x,1/2-y,z
loop_
_atom_site_type_symbol
_atom_site_label
_atom_site_fract_x
_atom_site_fract_y
_atom_site_fract_z
Si Si1 0.520211 0.717125 0.208962
Si Si2 0.825399 0.291358 0.564295
Si Si3 0.925375 0.782887 0.936889
Si Si4 0.128690 0.205069 0.847720
Si Si5 0.769082 0.716930 0.707410
Si Si6 0.782245 0.798835 0.907484
Si Si7 0.881430 0.209706 0.358634
Si Si8 0.970440 0.789301 0.596740
O O1 0.520900 0.500000 0.210919
O O2 0.572520 0.772607 0.159364
O O3 0.443587 0.780836 0.151865
O O4 0.531636 0.776815 0.308251
O O5 0.832059 0.500000 0.571353
O O6 0.750000 0.250000 0.500000
O O7 0.821669 0.221488 0.658273
O O8 0.891020 0.230888 0.538588
O O9 0.857143 0.715312 0.954454
O O10 0.923355 0.000000 0.939498
O O11 0.000000 0.731541 0.000000
O O12 0.206495 0.246294 0.905232
O O13 0.123519 0.227044 0.744945
O O14 0.121958 0.000000 0.863822
O O15 0.768633 0.500000 0.711161
O O16 0.779011 0.784851 0.804871
O O17 0.692954 0.779095 0.646556
O O18 0.787555 0.000000 0.935194
O O19 0.957734 0.281031 0.411293
O O20 0.880724 0.000000 0.376783
O O21 0.981466 0.000000 0.601260
#
# Coordination Sequence:
#
# PCOD9171801 Si02
#       8
#     8   8   8   8   8   8   8   8
#     4   8  14  27  49  71  90 124 168 198 229 281
#     4  11  23  36  50  70  98 130 160 192 233 280
#     4   9  17  28  42  65  98 131 164 202 239 278
#     4   8  14  27  47  69  94 122 155 195 235 283
#     4   9  18  34  54  73  94 124 161 195 230 279
#     4  10  18  28  48  75  97 120 154 199 246 283
#     4   7  12  26  49  72  90 114 152 193 229 271
#     4   9  16  30  53  75  94 118 155 202 241 277
#
# _framework density 27.039650000000002
#
# number of rings (size 3 to 8) (size 9 to 14) (size 15 to 20)
#    0.000    3.125    0.000    3.750    0.000    2.000 
#    0.000    6.875    0.000    6.750    0.000    0.000 
#    0.000    0.000    0.000    0.000    0.000    0.000 
#
# Total GULP energy -178690.903271 kJ/mol
# GULP energy per Si atom -5584.090727 kJ/mol
# Density = 2.697811 g / cm^3
# Si number density = 27.039650 Si / 1000 Ang^3
#
#
#
# Elastic Constant Matrix: (Units=GPa)
#
#
# Indices 1 2 3 4 5 6 
#
# 1 250.9921 10.4641 35.8061 0.0000 17.5762 0.0000
# 2 10.4641 59.7697 -19.6918 0.0000 0.2405 0.0000
# 3 35.8061 -19.6918 85.5712 0.0000 26.9397 0.0000
# 4 0.0000 0.0000 0.0000 11.8034 0.0000 5.8829
# 5 17.5762 0.2405 26.9397 0.0000 62.4431 0.0000
# 6 0.0000 0.0000 0.0000 5.8829 0.0000 15.0782
#
#
#
# Elastic Compliance Matrix: (Units=1/GPa)
#
#
# Indices 1 2 3 4 5 6 
#
# 1 0.004360 -0.001437 -0.002049 0.000000 -0.000338 0.000000
# 2 -0.001437 0.018832 0.005590 0.000000 -0.002080 0.000000
# 3 -0.002049 0.005590 0.015801 0.000000 -0.006262 0.000000
# 4 0.000000 0.000000 0.000000 0.105173 0.000000 -0.041035
# 5 -0.000338 -0.002080 -0.006262 0.000000 0.018819 0.000000
# 6 0.000000 0.000000 0.000000 -0.041035 0.000000 0.082331
#
#
# Mechanical properties :
#
#
# Convention : Reuss Voigt Hill
#
# Bulk Modulus (GPa) = 23.14721 49.94332 36.54526
# Shear Modulus (GPa) = 19.56873 42.51524 31.04199
#
# Velocity S-wave (km/s) = 2.69310 3.96956 3.39192
# Velocity P-wave (km/s) = 4.27193 6.28653 5.37447
#
# Compressibility (1/GPa) = 0.04320175
#
# Stress axis : x y z
#
# Youngs Moduli (GPa) = 229.35678 53.09989 63.28662
#
# Poissons Ratio (x) = 0.07630 0.12966
# Poissons Ratio (y) = 0.32957 -0.35375
# Poissons Ratio (z) = 0.46988 -0.29681
#
# Static dielectric constant tensor:
#      x y z
#    x 2.072840 0.000000 0.025900 
#    y 0.000000 2.005810 0.000000 
#    z 0.025900 0.000000 2.267590 
# 
# From -- ./inp_files/320143.got.cif
#   From: 2010.05.17/outbox.cif.g08.bks.cpg/sg12_161_cif.got.tgz:320143.got - 2010.06.03 13:09:07.
