data_PCOD9171763
_publ_section_title
;
Structure prediction by ZEFSAII (Michael W. Deem and Ramdas Pophale) SiO2 
 PCOD9171763
Probable space group: C 2/M
;
_chemical_formula_sum "Si O2"
_cell_formula_units_Z 64
_cell_length_a 22.512693
_cell_length_b 7.422800
_cell_length_c 17.567293
_cell_angle_alpha 90.000000
_cell_angle_beta 85.018016
_cell_angle_gamma 90.000000
_cell_volume 2924.530835
_symmetry_space_group_name_H-M "C 2/M"
_symmetry_group_IT_number 12
_symmetry_cell_setting 'monoclinic'
loop_
_space_group_symop_operation_xyz
x,y,z
-x,y,-z
-x,-y,-z
x,-y,z
1/2+x,1/2+y,z
1/2-x,1/2+y,-z
1/2-x,1/2-y,-z
1/2+x,1/2-y,z
loop_
_atom_site_type_symbol
_atom_site_label
_atom_site_fract_x
_atom_site_fract_y
_atom_site_fract_z
Si Si1 0.843924 0.779483 0.019968
Si Si2 0.759088 0.791187 0.152873
Si Si3 0.129503 0.283387 0.751158
Si Si4 0.545360 0.291177 0.889777
Si Si5 0.182929 0.281137 0.589003
Si Si6 0.822601 0.290566 0.578801
Si Si7 0.150394 0.287057 0.261803
Si Si8 0.583898 0.283066 0.126882
O O1 0.785390 0.713157 0.071152
O O2 0.901703 0.719086 0.063086
O O3 0.841656 0.000000 0.022734
O O4 0.860920 0.724352 0.932809
O O5 0.815177 0.784131 0.204238
O O6 0.704642 0.707598 0.205551
O O7 0.744710 0.000000 0.139989
O O8 0.130205 0.500000 0.753318
O O9 0.070563 0.220348 0.801183
O O10 0.141040 0.225549 0.663337
O O11 0.540207 0.500000 0.912883
O O12 0.478977 0.214748 0.898785
O O13 0.184469 0.500000 0.587311
O O14 0.165364 0.214703 0.506759
O O15 0.250915 0.221494 0.597068
O O16 0.840180 0.500000 0.572192
O O17 0.851188 0.212965 0.652543
O O18 0.163058 0.500000 0.269527
O O19 0.094215 0.268125 0.212978
O O20 0.582222 0.500000 0.123708
#
# Coordination Sequence:
#
# PCOD9171763 Si02
#       8
#     8   8   8   8   8   8   8   8
#     4   8  15  30  52  72  90 116 157 203 238 277
#     4   9  17  31  49  69  95 129 161 186 228 287
#     4  10  18  28  47  75 101 120 148 197 246 277
#     4   9  18  33  52  70  91 122 161 199 238 285
#     4   9  17  28  46  73  99 121 152 193 232 274
#     4   9  17  30  47  68  97 130 157 183 225 281
#     4  10  20  32  47  68  99 133 159 187 227 284
#     4  10  20  33  50  70  91 124 165 201 236 275
#
# _framework density 21.883852999999998
#
# number of rings (size 3 to 8) (size 9 to 14) (size 15 to 20)
#    0.000    2.750    1.250    1.500    0.000    4.000 
#    0.000    2.500    0.000    4.500    0.000    5.250 
#    0.000    0.000    0.000    0.000    0.000    0.000 
#
# Total GULP energy -178535.260974 kJ/mol
# GULP energy per Si atom -5579.226905 kJ/mol
# Density = 2.183404 g / cm^3
# Si number density = 21.883853 Si / 1000 Ang^3
#
#
#
# Elastic Constant Matrix: (Units=GPa)
#
#
# Indices 1 2 3 4 5 6 
#
# 1 25.8242 0.3407 5.0345 0.0000 1.5627 0.0000
# 2 0.3407 77.7179 0.5102 0.0000 1.5243 0.0000
# 3 5.0345 0.5102 147.1855 0.0000 8.6601 0.0000
# 4 0.0000 0.0000 0.0000 10.3495 0.0000 3.1616
# 5 1.5627 1.5243 8.6601 0.0000 31.2433 0.0000
# 6 0.0000 0.0000 0.0000 3.1616 0.0000 8.8943
#
#
#
# Elastic Compliance Matrix: (Units=1/GPa)
#
#
# Indices 1 2 3 4 5 6 
#
# 1 0.039064 -0.000132 -0.001241 0.000000 -0.001603 0.000000
# 2 -0.000132 0.012880 -0.000004 0.000000 -0.000621 0.000000
# 3 -0.001241 -0.000004 0.006946 0.000000 -0.001863 0.000000
# 4 0.000000 0.000000 0.000000 0.108393 0.000000 -0.038530
# 5 -0.001603 -0.000621 -0.001863 0.000000 0.032634 0.000000
# 6 0.000000 0.000000 0.000000 -0.038530 0.000000 0.126128
#
#
# Mechanical properties :
#
#
# Convention : Reuss Voigt Hill
#
# Bulk Modulus (GPa) = 17.81358 29.16650 23.49004
# Shear Modulus (GPa) = 14.38804 26.42024 20.40414
#
# Velocity S-wave (km/s) = 2.56690 3.47838 3.05681
# Velocity P-wave (km/s) = 4.11620 5.43038 4.81830
#
# Compressibility (1/GPa) = 0.05613694
#
# Stress axis : x y z
#
# Youngs Moduli (GPa) = 25.59888 77.64084 143.96274
#
# Poissons Ratio (x) = 0.01022 0.17872
# Poissons Ratio (y) = 0.00337 0.00052
# Poissons Ratio (z) = 0.03178 0.00028
#
# Static dielectric constant tensor:
#      x y z
#    x 1.779740 0.000000 0.003810 
#    y 0.000000 1.736550 0.000000 
#    z 0.003810 0.000000 1.851920 
# 
# From -- ./inp_files/287558.got.cif
#   From: 2010.05.17/outbox.cif.g08.bks.cpg/sg12_144_cif.got.tgz:287558.got - 2010.06.03 13:09:07.
