data_PCOD9171389
_publ_section_title
;
Structure prediction by ZEFSAII (Michael W. Deem and Ramdas Pophale) SiO2 
 PCOD9171389
Probable space group: C 2/M
;
_chemical_formula_sum "Si O2"
_cell_formula_units_Z 64
_cell_length_a 32.752684
_cell_length_b 8.896280
_cell_length_c 31.192421
_cell_angle_alpha 90.000000
_cell_angle_beta 29.874081
_cell_angle_gamma 90.000000
_cell_volume 4527.068499
_symmetry_space_group_name_H-M "C 2/M"
_symmetry_group_IT_number 12
_symmetry_cell_setting 'monoclinic'
loop_
_space_group_symop_operation_xyz
x,y,z
-x,y,-z
-x,-y,-z
x,-y,z
1/2+x,1/2+y,z
1/2-x,1/2+y,-z
1/2-x,1/2-y,-z
1/2+x,1/2-y,z
loop_
_atom_site_type_symbol
_atom_site_label
_atom_site_fract_x
_atom_site_fract_y
_atom_site_fract_z
Si Si1 0.199852 0.319921 0.506350
Si Si2 0.599034 0.673296 0.904811
Si Si3 0.580498 0.820608 0.832474
Si Si4 0.150728 0.180891 0.682396
Si Si5 0.450836 0.180942 0.304802
Si Si6 0.788654 0.179510 0.029884
Si Si7 0.871361 0.820455 0.863520
Si Si8 0.886800 0.679384 0.018651
O O1 0.203681 0.500000 0.506021
O O2 0.250000 0.250000 0.500000
O O3 0.254377 0.279231 0.415419
O O4 0.106035 0.278794 0.602132
O O5 0.625413 0.500000 0.879265
O O6 0.615719 0.756494 0.844972
O O7 0.631751 0.755355 0.917353
O O8 0.500000 0.675211 0.000000
O O9 0.622086 0.745243 0.753664
O O10 0.589779 0.000000 0.822608
O O11 0.482691 0.787062 0.921262
O O12 0.094372 0.250889 0.695970
O O13 0.141917 0.000000 0.689725
O O14 0.541248 0.247348 0.225393
O O15 0.453841 0.000000 0.297972
O O16 0.700732 0.252542 0.099991
O O17 0.831101 0.246718 0.033070
O O18 0.780775 0.000000 0.040547
O O19 0.844797 0.212338 0.936931
O O20 0.874921 0.000000 0.855303
O O21 0.877321 0.500000 0.027274
#
# Coordination Sequence:
#
# PCOD9171389 Si02
#       8
#     8   8   8   8   8   8   8   8
#     4   8  16  28  41  58  81 109 140 174 209 247
#     4   9  17  29  44  61  82 109 141 175 209 247
#     4  10  19  29  42  62  87 114 143 174 210 250
#     4  10  18  28  42  61  85 113 145 177 209 247
#     4  10  18  29  44  61  83 112 144 176 213 253
#     4  10  20  32  45  61  83 111 143 178 213 249
#     4  10  20  32  45  62  84 110 142 179 215 249
#     4  10  19  30  44  61  84 113 143 175 211 251
#
# _framework density 14.137183
#
# number of rings (size 3 to 8) (size 9 to 14) (size 15 to 20)
#    0.000    2.375    0.000    3.375    0.000    7.500 
#    0.000    0.000    0.000    0.000    0.000    0.000 
#    0.000    1.000    0.000   10.750    0.000    4.750 
#
# Total GULP energy -178331.324843 kJ/mol
# GULP energy per Si atom -5572.853901 kJ/mol
# Density = 1.410501 g / cm^3
# Si number density = 14.137183 Si / 1000 Ang^3
#
#
#
# Elastic Constant Matrix: (Units=GPa)
#
#
# Indices 1 2 3 4 5 6 
#
# 1 109.3705 50.9714 58.8243 0.0009 7.2509 0.0015
# 2 50.9714 62.2336 54.8981 0.0044 3.0788 -0.0040
# 3 58.8243 54.8981 119.9263 0.0066 3.1230 -0.0094
# 4 0.0009 0.0044 0.0066 19.8904 -0.0027 0.7563
# 5 7.2509 3.0788 3.1230 -0.0027 20.2364 0.0042
# 6 0.0015 -0.0040 -0.0094 0.7563 0.0042 26.2745
#
#
#
# Elastic Compliance Matrix: (Units=1/GPa)
#
#
# Indices 1 2 3 4 5 6 
#
# 1 0.015659 -0.009986 -0.003015 0.000002 -0.003626 -0.000003
# 2 -0.009986 0.033419 -0.010402 -0.000004 0.000099 0.000002
# 3 -0.003015 -0.010402 0.014568 -0.000002 0.000415 0.000004
# 4 0.000002 -0.000004 -0.000002 0.050331 0.000007 -0.001449
# 5 -0.003626 0.000099 0.000415 0.000007 0.050636 -0.000008
# 6 -0.000003 0.000002 0.000004 -0.001449 -0.000008 0.038101
#
#
# Mechanical properties :
#
#
# Convention : Reuss Voigt Hill
#
# Bulk Modulus (GPa) = 59.38550 68.99088 64.18819
# Shear Modulus (GPa) = 19.59742 21.73603 20.66672
#
# Velocity S-wave (km/s) = 3.72725 3.92536 3.82759
# Velocity P-wave (km/s) = 7.78595 8.33376 8.06451
#
# Compressibility (1/GPa) = 0.01683913
#
# Stress axis : x y z
#
# Youngs Moduli (GPa) = 63.85926 29.92315 68.64197
#
# Poissons Ratio (x) = 0.29883 0.20696
# Poissons Ratio (y) = 0.63773 0.71403
# Poissons Ratio (z) = 0.19254 0.31127
#
# Static dielectric constant tensor:
#      x y z
#    x 1.433060 0.000000 0.009380 
#    y 0.000000 1.470460 0.000000 
#    z 0.009380 0.000000 1.476850 
# 
# From -- ./inp_files/294589.got.cif
#   From: 2010.05.17/outbox.cif.g08.bks.cpg/sg12_148_cif.got.tgz:294589.got - 2010.06.03 13:09:07.
