data_PCOD9171685
_publ_section_title
;
Structure prediction by ZEFSAII (Michael W. Deem and Ramdas Pophale) SiO2 
 PCOD9171685
Probable space group: C 2/M
;
_chemical_formula_sum "Si O2"
_cell_formula_units_Z 56
_cell_length_a 19.627939
_cell_length_b 8.961999
_cell_length_c 22.069300
_cell_angle_alpha 90.000000
_cell_angle_beta 124.594962
_cell_angle_gamma 90.000000
_cell_volume 3195.702046
_symmetry_space_group_name_H-M "C 2/M"
_symmetry_group_IT_number 12
_symmetry_cell_setting 'monoclinic'
loop_
_space_group_symop_operation_xyz
x,y,z
-x,y,-z
-x,-y,-z
x,-y,z
1/2+x,1/2+y,z
1/2-x,1/2+y,-z
1/2-x,1/2-y,-z
1/2+x,1/2-y,z
loop_
_atom_site_type_symbol
_atom_site_label
_atom_site_fract_x
_atom_site_fract_y
_atom_site_fract_z
Si Si1 0.620157 0.322506 0.951522
Si Si2 0.015884 0.677881 0.315006
Si Si3 0.466056 0.822996 0.818444
Si Si4 0.255965 0.321227 0.096160
Si Si5 0.653442 0.679023 0.734488
Si Si6 0.809001 0.821742 0.579986
Si Si7 0.282242 0.178822 0.695866
O O1 0.618977 0.500000 0.955537
O O2 0.528680 0.261160 0.893876
O O3 0.675077 0.281113 0.919698
O O4 0.670485 0.253603 0.032849
O O5 0.025033 0.500000 0.326337
O O6 0.010604 0.709921 0.240000
O O7 0.097719 0.759887 0.380036
O O8 0.933305 0.737427 0.304529
O O9 0.368881 0.785327 0.773466
O O10 0.475480 0.000000 0.832673
O O11 0.245752 0.500000 0.089535
O O12 0.290858 0.278538 0.179196
O O13 0.639508 0.500000 0.731181
O O14 0.705304 0.710245 0.700312
O O15 0.750000 0.750000 0.500000
O O16 0.780776 0.766074 0.632193
O O17 0.807812 0.000000 0.575808
O O18 0.285191 0.000000 0.684659
#
# Coordination Sequence:
#
# PCOD9171685 Si02
#       7
#     8   8   8   8   8   8   8
#     4  10  18  28  46  72 100 134 183 233 273 316
#     4  10  20  34  56  84 112 142 181 222 265 318
#     4   9  17  31  50  73 102 139 180 224 269 319
#     4   9  18  30  46  71 103 139 179 223 274 322
#     4  10  19  35  56  80 111 145 182 224 271 325
#     4  11  22  39  63  87 113 142 177 217 261 314
#     4   9  20  37  57  82 112 144 178 219 271 325
#
# _framework density 17.523536
#
# number of rings (size 3 to 8) (size 9 to 14) (size 15 to 20)
#    0.000    2.286    1.429    3.000    0.000    4.000 
#    0.000    1.429    0.000    8.571    0.000    0.000 
#    0.000    0.000    0.000    0.000    0.000    0.000 
#
# Total GULP energy -156257.029198 kJ/mol
# GULP energy per Si atom -5580.608186 kJ/mol
# Density = 1.748365 g / cm^3
# Si number density = 17.523536 Si / 1000 Ang^3
#
#
#
# Elastic Constant Matrix: (Units=GPa)
#
#
# Indices 1 2 3 4 5 6 
#
# 1 106.5491 56.6368 52.9100 0.0000 15.0450 0.0000
# 2 56.6368 64.5224 62.8387 0.0000 12.4969 0.0000
# 3 52.9100 62.8387 127.5592 0.0000 23.2365 0.0000
# 4 0.0000 0.0000 0.0000 28.7296 0.0000 5.5893
# 5 15.0450 12.4969 23.2365 0.0000 18.4551 0.0000
# 6 0.0000 0.0000 0.0000 5.5893 0.0000 24.7346
#
#
#
# Elastic Compliance Matrix: (Units=1/GPa)
#
#
# Indices 1 2 3 4 5 6 
#
# 1 0.018063 -0.016274 0.001557 0.000000 -0.005665 0.000000
# 2 -0.016274 0.044523 -0.015711 0.000000 0.002900 0.000000
# 3 0.001557 -0.015711 0.017163 0.000000 -0.012240 0.000000
# 4 0.000000 0.000000 0.000000 0.036408 0.000000 -0.008227
# 5 -0.005665 0.002900 -0.012240 0.000000 0.072252 0.000000
# 6 0.000000 0.000000 0.000000 -0.008227 0.000000 0.042288
#
#
# Mechanical properties :
#
#
# Convention : Reuss Voigt Hill
#
# Bulk Modulus (GPa) = 52.93178 71.48908 62.21043
# Shear Modulus (GPa) = 16.78684 22.80018 19.79351
#
# Velocity S-wave (km/s) = 3.09845 3.61101 3.36451
# Velocity P-wave (km/s) = 6.56294 7.63351 7.11838
#
# Compressibility (1/GPa) = 0.01889224
#
# Stress axis : x y z
#
# Youngs Moduli (GPa) = 55.36198 22.46008 58.26454
#
# Poissons Ratio (x) = 0.36552 -0.09071
# Poissons Ratio (y) = 0.90098 0.91540
# Poissons Ratio (z) = -0.08619 0.35287
#
# Static dielectric constant tensor:
#      x y z
#    x 1.592810 0.000000 0.001470 
#    y 0.000000 1.584740 0.000000 
#    z 0.001470 0.000000 1.578330 
# 
# From -- ./inp_files/275116.got.cif
#   From: 2010.05.17/outbox.cif.g08.bks.cpg/sg12_138_cif.got.tgz:275116.got - 2010.06.03 13:09:07.
