data_PCOD9171888
_publ_section_title
;
Structure prediction by ZEFSAII (Michael W. Deem and Ramdas Pophale) SiO2 
 PCOD9171888
Probable space group: C 2/M
;
_chemical_formula_sum "Si O2"
_cell_formula_units_Z 56
_cell_length_a 28.325811
_cell_length_b 7.648791
_cell_length_c 15.041140
_cell_angle_alpha 90.000000
_cell_angle_beta 102.974278
_cell_angle_gamma 90.000000
_cell_volume 3175.592736
_symmetry_space_group_name_H-M "C 2/M"
_symmetry_group_IT_number 12
_symmetry_cell_setting 'monoclinic'
loop_
_space_group_symop_operation_xyz
x,y,z
-x,y,-z
-x,-y,-z
x,-y,z
1/2+x,1/2+y,z
1/2-x,1/2+y,-z
1/2-x,1/2-y,-z
1/2+x,1/2-y,z
loop_
_atom_site_type_symbol
_atom_site_label
_atom_site_fract_x
_atom_site_fract_y
_atom_site_fract_z
Si Si1 0.284694 0.792474 0.897543
Si Si2 0.445476 0.709804 0.467272
Si Si3 0.812115 0.788391 0.713700
Si Si4 0.677993 0.797025 0.901241
Si Si5 0.373001 0.789528 0.288032
Si Si6 0.633331 0.704809 0.426054
Si Si7 0.792710 0.711751 0.396594
O O1 0.311690 0.761771 0.816558
O O2 0.230791 0.711701 0.876067
O O3 0.277490 0.000000 0.906301
O O4 0.312886 0.722545 0.996536
O O5 0.500000 0.776917 0.500000
O O6 0.446840 0.500000 0.477893
O O7 0.421741 0.744206 0.361059
O O8 0.408637 0.780053 0.527855
O O9 0.854743 0.723721 0.666703
O O10 0.760770 0.728186 0.650914
O O11 0.812118 0.000000 0.710340
O O12 0.639077 0.721396 0.815591
O O13 0.665102 0.000000 0.909083
O O14 0.329601 0.730858 0.334675
O O15 0.370411 0.000000 0.282947
O O16 0.622138 0.500000 0.410771
O O17 0.683223 0.720571 0.503045
O O18 0.792785 0.500000 0.400445
#
# Coordination Sequence:
#
# PCOD9171888 Si02
#       7
#     8   8   8   8   8   8   8
#     4  10  19  27  42  64  87 119 154 182 210 250
#     4   9  18  32  47  66  91 111 136 182 228 262
#     4  10  18  29  41  57  87 121 148 176 212 253
#     4   9  17  31  44  60  89 120 148 182 219 249
#     4   9  16  28  46  64  86 115 145 175 212 259
#     4   9  18  29  43  61  82 114 148 175 214 265
#     4   9  16  26  40  58  84 116 142 174 212 244
#
# _framework density 17.634504
#
# number of rings (size 3 to 8) (size 9 to 14) (size 15 to 20)
#    0.000    2.714    1.429    0.857    0.000    2.571 
#    0.000    0.000    0.000    0.000    0.000    1.000 
#    0.000    8.000    0.000    0.000    0.000    0.000 
#
# Total GULP energy -156007.876651 kJ/mol
# GULP energy per Si atom -5571.709880 kJ/mol
# Density = 1.759437 g / cm^3
# Si number density = 17.634504 Si / 1000 Ang^3
#
#
#
# Elastic Constant Matrix: (Units=GPa)
#
#
# Indices 1 2 3 4 5 6 
#
# 1 67.0074 2.6521 71.2141 0.0000 3.3305 0.0000
# 2 2.6521 30.6932 -6.4786 0.0000 1.0335 0.0000
# 3 71.2141 -6.4786 141.6377 0.0000 -7.5776 0.0000
# 4 0.0000 0.0000 0.0000 16.6525 0.0000 -2.2340
# 5 3.3305 1.0335 -7.5776 0.0000 25.5462 0.0000
# 6 0.0000 0.0000 0.0000 -2.2340 0.0000 6.7208
#
#
#
# Elastic Compliance Matrix: (Units=1/GPa)
#
#
# Indices 1 2 3 4 5 6 
#
# 1 0.035589 -0.006695 -0.018731 0.000000 -0.009925 0.000000
# 2 -0.006695 0.034178 0.004981 0.000000 0.000967 0.000000
# 3 -0.018731 0.004981 0.017097 0.000000 0.007312 0.000000
# 4 0.000000 0.000000 0.000000 0.062854 0.000000 0.020892
# 5 -0.009925 0.000967 0.007312 0.000000 0.042568 0.000000
# 6 0.000000 0.000000 0.000000 0.020892 0.000000 0.155737
#
#
# Mechanical properties :
#
#
# Convention : Reuss Voigt Hill
#
# Bulk Modulus (GPa) = 21.75106 41.56816 31.65961
# Shear Modulus (GPa) = 12.36899 21.24728 16.80813
#
# Velocity S-wave (km/s) = 2.65129 3.47489 3.09064
# Velocity P-wave (km/s) = 4.66193 6.30262 5.54331
#
# Compressibility (1/GPa) = 0.04597477
#
# Stress axis : x y z
#
# Youngs Moduli (GPa) = 28.09866 29.25879 58.48967
#
# Poissons Ratio (x) = 0.19587 1.09557
# Poissons Ratio (y) = 0.18811 -0.29134
# Poissons Ratio (z) = 0.52631 -0.14574
#
# Static dielectric constant tensor:
#      x y z
#    x 1.596530 0.000000 -0.022060 
#    y 0.000000 1.680760 0.000000 
#    z -0.022060 0.000000 1.643640 
# 
# From -- ./inp_files/243048.got.cif
#   From: 2010.05.17/outbox.cif.g08.bks.cpg/sg12_122_cif.got.tgz:243048.got - 2010.06.03 13:09:07.
