data_PCOD9171700
_publ_section_title
;
Structure prediction by ZEFSAII (Michael W. Deem and Ramdas Pophale) SiO2 
 PCOD9171700
Probable space group: C 2/M
;
_chemical_formula_sum "Si O2"
_cell_formula_units_Z 64
_cell_length_a 20.358340
_cell_length_b 7.726509
_cell_length_c 22.473456
_cell_angle_alpha 90.000000
_cell_angle_beta 117.064283
_cell_angle_gamma 90.000000
_cell_volume 3147.949900
_symmetry_space_group_name_H-M "C 2/M"
_symmetry_group_IT_number 12
_symmetry_cell_setting 'monoclinic'
loop_
_space_group_symop_operation_xyz
x,y,z
-x,y,-z
-x,-y,-z
x,-y,z
1/2+x,1/2+y,z
1/2-x,1/2+y,-z
1/2-x,1/2-y,-z
1/2+x,1/2-y,z
loop_
_atom_site_type_symbol
_atom_site_label
_atom_site_fract_x
_atom_site_fract_y
_atom_site_fract_z
Si Si1 0.934225 0.198169 0.434669
Si Si2 0.803187 0.799493 0.932273
Si Si3 0.724093 0.206706 0.788476
Si Si4 0.146320 0.212194 0.925824
Si Si5 0.727466 0.290361 0.652785
Si Si6 0.187567 0.708058 0.426037
Si Si7 0.566557 0.701483 0.779211
Si Si8 0.476570 0.799963 0.635628
O O1 0.853109 0.276487 0.401174
O O2 0.000000 0.280306 0.500000
O O3 0.964513 0.200728 0.380211
O O4 0.926161 0.000000 0.452750
O O5 0.786950 0.725627 0.860093
O O6 0.722066 0.785396 0.929183
O O7 0.824008 0.000000 0.933080
O O8 0.856117 0.729663 0.006372
O O9 0.739677 0.241555 0.726100
O O10 0.644861 0.279428 0.776707
O O11 0.718616 0.000000 0.794380
O O12 0.083003 0.263317 0.853176
O O13 0.151527 0.000000 0.926782
O O14 0.724847 0.500000 0.650142
O O15 0.786071 0.230898 0.628058
O O16 0.181552 0.500000 0.420822
O O17 0.250000 0.750000 0.500000
O O18 0.105605 0.771753 0.407291
O O19 0.547781 0.500000 0.774089
O O20 0.503778 0.791176 0.714672
O O21 0.478926 0.000000 0.617624
#
# Coordination Sequence:
#
# PCOD9171700 Si02
#       8
#     8   8   8   8   8   8   8   8
#     4  10  20  34  54  76  97 127 164 200 245 302
#     4   8  14  24  38  61  95 130 161 198 244 289
#     4  10  18  28  46  73 103 132 164 206 253 295
#     4   8  14  24  39  61  92 130 167 199 236 288
#     4  10  20  35  53  73 100 133 168 203 247 302
#     4  10  23  41  58  76  99 132 168 208 254 301
#     4  10  18  29  47  71 100 135 171 205 245 295
#     4  11  22  35  52  76 104 131 164 208 255 297
#
# _framework density 20.330691999999999
#
# number of rings (size 3 to 8) (size 9 to 14) (size 15 to 20)
#    0.000    2.375    1.250    1.875    0.000    3.750 
#    0.000    0.000    0.000    0.000    0.000    0.875 
#    0.000    7.000    0.000    0.000    0.000    0.000 
#
# Total GULP energy -178364.996828 kJ/mol
# GULP energy per Si atom -5573.906151 kJ/mol
# Density = 2.028442 g / cm^3
# Si number density = 20.330692 Si / 1000 Ang^3
#
#
#
# Elastic Constant Matrix: (Units=GPa)
#
#
# Indices 1 2 3 4 5 6 
#
# 1 25.4551 -0.3359 -16.7155 0.0000 1.7266 0.0000
# 2 -0.3359 40.7106 -3.7023 0.0000 1.3544 0.0000
# 3 -16.7155 -3.7023 108.4734 0.0000 -5.8744 0.0000
# 4 0.0000 0.0000 0.0000 20.5506 0.0000 0.8518
# 5 1.7266 1.3544 -5.8744 0.0000 20.5586 0.0000
# 6 0.0000 0.0000 0.0000 0.8518 0.0000 2.3312
#
#
#
# Elastic Compliance Matrix: (Units=1/GPa)
#
#
# Indices 1 2 3 4 5 6 
#
# 1 0.043814 0.001031 0.006687 0.000000 -0.001837 0.000000
# 2 0.001031 0.024704 0.000923 0.000000 -0.001450 0.000000
# 3 0.006687 0.000923 0.010408 0.000000 0.002352 0.000000
# 4 0.000000 0.000000 0.000000 0.049409 0.000000 -0.018053
# 5 -0.001837 -0.001450 0.002352 0.000000 0.049563 0.000000
# 6 0.000000 0.000000 0.000000 -0.018053 0.000000 0.435552
#
#
# Mechanical properties :
#
#
# Convention : Reuss Voigt Hill
#
# Bulk Modulus (GPa) = 10.39390 14.79242 12.59316
# Shear Modulus (GPa) = 7.95877 21.71425 14.83651
#
# Velocity S-wave (km/s) = 1.98070 3.27165 2.70434
# Velocity P-wave (km/s) = 3.21782 4.64363 3.99485
#
# Compressibility (1/GPa) = 0.09621031
#
# Stress axis : x y z
#
# Youngs Moduli (GPa) = 22.82353 40.47865 96.07782
#
# Poissons Ratio (x) = -0.04172 -0.64251
# Poissons Ratio (y) = -0.02353 -0.08873
# Poissons Ratio (z) = -0.15263 -0.03738
#
# Static dielectric constant tensor:
#      x y z
#    x 1.692840 0.000000 -0.009290 
#    y 0.000000 1.728150 0.000000 
#    z -0.009290 0.000000 1.812720 
# 
# From -- ./inp_files/345586.got.cif
#   From: 2010.05.17/outbox.cif.g08.bks.cpg/sg12_173_cif.got.tgz:345586.got - 2010.06.03 13:09:07.
