data_PCOD9171736
_publ_section_title
;
Structure prediction by ZEFSAII (Michael W. Deem and Ramdas Pophale) SiO2 
 PCOD9171736
Probable space group: C 2/M
;
_chemical_formula_sum "Si O2"
_cell_formula_units_Z 64
_cell_length_a 27.354674
_cell_length_b 14.838153
_cell_length_c 7.974239
_cell_angle_alpha 90.000000
_cell_angle_beta 68.895209
_cell_angle_gamma 90.000000
_cell_volume 3019.580668
_symmetry_space_group_name_H-M "C 2/M"
_symmetry_group_IT_number 12
_symmetry_cell_setting 'monoclinic'
loop_
_space_group_symop_operation_xyz
x,y,z
-x,y,-z
-x,-y,-z
x,-y,z
1/2+x,1/2+y,z
1/2-x,1/2+y,-z
1/2-x,1/2-y,-z
1/2+x,1/2-y,z
loop_
_atom_site_type_symbol
_atom_site_label
_atom_site_fract_x
_atom_site_fract_y
_atom_site_fract_z
Si Si1 0.603140 0.781550 0.812066
Si Si2 0.482477 0.895075 0.248889
Si Si3 0.164557 0.273478 0.381187
Si Si4 0.751001 0.601995 0.574909
Si Si5 0.641516 0.398223 0.858322
Si Si6 0.806562 0.603806 0.144965
Si Si7 0.917714 0.604524 0.679446
Si Si8 0.799186 0.894742 0.861041
O O1 0.550114 0.835229 0.839901
O O2 0.631962 0.775616 0.594697
O O3 0.599791 0.680197 0.883902
O O4 0.643270 0.835123 0.883065
O O5 0.540920 0.866459 0.229720
O O6 0.449759 0.893096 0.464102
O O7 0.483404 0.000000 0.197401
O O8 0.219035 0.322592 0.357178
O O9 0.131980 0.333153 0.288722
O O10 0.173348 0.175126 0.296382
O O11 0.763239 0.500000 0.622344
O O12 0.688943 0.613070 0.666353
O O13 0.773134 0.607759 0.360012
O O14 0.620980 0.500000 0.872345
O O15 0.672312 0.388165 0.995946
O O16 0.822791 0.500000 0.102864
O O17 0.762916 0.628377 0.061085
O O18 0.903672 0.500000 0.723902
O O19 0.802183 0.000000 0.803918
#
# Coordination Sequence:
#
# PCOD9171736 Si02
#       8
#     8   8   8   8   8   8   8   8
#     4  10  18  28  47  72  93 117 151 186 221 264
#     4   8  14  26  46  73 101 122 141 173 220 271
#     4  10  18  28  47  72  93 117 151 186 221 264
#     4   9  17  29  45  67  95 122 148 181 221 266
#     4  10  21  34  45  60  87 123 159 192 226 264
#     4   9  17  29  45  67  95 122 148 181 221 266
#     4   8  14  26  46  73 101 122 141 173 220 271
#     4  10  21  34  45  60  87 123 159 192 226 264
#
# _framework density 21.194994999999999
#
# number of rings (size 3 to 8) (size 9 to 14) (size 15 to 20)
#    0.000    2.750    0.000    3.000    0.000    8.500 
#    0.000    0.000    0.000    3.750    0.000    7.000 
#    0.000    0.000    0.000    0.000    0.000    0.000 
#
# Total GULP energy -178911.077622 kJ/mol
# GULP energy per Si atom -5590.971176 kJ/mol
# Density = 2.114675 g / cm^3
# Si number density = 21.194995 Si / 1000 Ang^3
#
#
#
# Elastic Constant Matrix: (Units=GPa)
#
#
# Indices 1 2 3 4 5 6 
#
# 1 94.9582 72.7498 11.3450 0.0000 27.2167 0.0000
# 2 72.7498 105.2667 8.3902 0.0000 28.9466 0.0000
# 3 11.3450 8.3902 66.1210 0.0000 8.3585 0.0000
# 4 0.0000 0.0000 0.0000 -14.2037 0.0000 17.4942
# 5 27.2167 28.9466 8.3585 0.0000 30.6848 0.0000
# 6 0.0000 0.0000 0.0000 17.4942 0.0000 24.9757
#
#
#
# Elastic Compliance Matrix: (Units=1/GPa)
#
#
# Indices 1 2 3 4 5 6 
#
# 1 0.023704 -0.014305 -0.001346 0.000000 -0.007164 0.000000
# 2 -0.014305 0.021460 0.000711 0.000000 -0.007750 0.000000
# 3 -0.001346 0.000711 0.015740 0.000000 -0.003764 0.000000
# 4 0.000000 0.000000 0.000000 -0.037797 0.000000 0.026474
# 5 -0.007164 -0.007750 -0.003764 0.000000 0.047280 0.000000
# 6 0.000000 0.000000 0.000000 0.026474 0.000000 0.021495
#
#
# Mechanical properties :
#
#
# Convention : Reuss Voigt Hill
#
# Bulk Modulus (GPa) = 32.23248 50.14621 41.18935
# Shear Modulus (GPa) = 37.84851 19.88210 28.86530
#
# Velocity S-wave (km/s) = 4.23037 3.06609 3.69439
# Velocity P-wave (km/s) = 6.25316 6.02041 6.13789
#
# Compressibility (1/GPa) = 0.03102461
#
# Stress axis : x y z
#
# Youngs Moduli (GPa) = 42.18629 46.59780 63.53076
#
# Poissons Ratio (x) = 0.66657 0.08554
# Poissons Ratio (y) = 0.60347 -0.04517
# Poissons Ratio (z) = 0.05680 -0.03313
#
# Static dielectric constant tensor:
#      x y z
#    x 1.737070 0.000000 0.009320 
#    y 0.000000 1.751340 0.000000 
#    z 0.009320 0.000000 1.842690 
# 
# From -- ./inp_files/111164.got.cif
#   From: 2010.05.17/outbox.cif.g08.bks.cpg/sg12_56_cif.got.tgz:111164.got - 2010.06.03 13:09:07.
