data_PCOD9171285
_publ_section_title
;
Structure prediction by ZEFSAII (Michael W. Deem and Ramdas Pophale) SiO2 
 PCOD9171285
Probable space group: C 2/M
;
_chemical_formula_sum "Si O2"
_cell_formula_units_Z 64
_cell_length_a 25.905781
_cell_length_b 7.326937
_cell_length_c 14.819790
_cell_angle_alpha 90.000000
_cell_angle_beta 68.061126
_cell_angle_gamma 90.000000
_cell_volume 2609.239630
_symmetry_space_group_name_H-M "C 2/M"
_symmetry_group_IT_number 12
_symmetry_cell_setting 'monoclinic'
loop_
_space_group_symop_operation_xyz
x,y,z
-x,y,-z
-x,-y,-z
x,-y,z
1/2+x,1/2+y,z
1/2-x,1/2+y,-z
1/2-x,1/2-y,-z
1/2+x,1/2-y,z
loop_
_atom_site_type_symbol
_atom_site_label
_atom_site_fract_x
_atom_site_fract_y
_atom_site_fract_z
Si Si1 0.447270 0.223450 0.975669
Si Si2 0.206689 0.218206 0.162233
Si Si3 0.674000 0.220896 0.880512
Si Si4 0.911843 0.715488 0.809264
Si Si5 0.320432 0.279572 0.616650
Si Si6 0.799431 0.278896 0.344939
Si Si7 0.104791 0.291253 0.590036
Si Si8 0.989013 0.276554 0.608506
O O1 0.446560 0.283190 0.871985
O O2 0.447867 0.000000 0.977041
O O3 0.500000 0.282876 0.000000
O O4 0.387001 0.283578 0.051845
O O5 0.269693 0.284773 0.104867
O O6 0.154217 0.261042 0.134148
O O7 0.187815 0.281099 0.274955
O O8 0.210216 0.000000 0.163809
O O9 0.684302 0.263708 0.768621
O O10 0.672850 0.000000 0.889411
O O11 0.920928 0.500000 0.800673
O O12 0.934799 0.786250 0.698684
O O13 0.322781 0.500000 0.615139
O O14 0.264238 0.218646 0.601169
O O15 0.373086 0.210594 0.527279
O O16 0.797736 0.500000 0.353047
O O17 0.846315 0.207884 0.381761
O O18 0.099481 0.500000 0.624451
O O19 0.042928 0.216943 0.630670
O O20 0.988662 0.500000 0.604449
O O21 0.000000 0.212705 0.500000
#
# Coordination Sequence:
#
# PCOD9171285 Si02
#       8
#     8   8   8   8   8   8   8   8
#     4   9  18  30  49  77 106 131 159 204 256 295
#     4   9  18  33  52  71  96 134 169 198 241 301
#     4   8  15  29  48  71 100 130 162 201 246 296
#     4  10  20  33  51  77 103 128 164 211 252 287
#     4   9  17  30  45  66  96 126 160 203 245 284
#     4   8  15  26  43  66  92 125 162 197 239 297
#     4  10  18  27  45  68  91 126 166 200 243 296
#     4   9  18  30  43  65  98 129 157 195 244 290
#
# _framework density 24.528219
#
# number of rings (size 3 to 8) (size 9 to 14) (size 15 to 20)
#    0.000    3.000    0.000    2.625    1.750    2.000 
#    0.000    0.625    0.000    3.375    0.000    0.000 
#    0.000    0.000    0.000    0.000    0.000    0.000 
#
# Total GULP energy -178726.402813 kJ/mol
# GULP energy per Si atom -5585.200088 kJ/mol
# Density = 2.447239 g / cm^3
# Si number density = 24.528219 Si / 1000 Ang^3
#
#
#
# Elastic Constant Matrix: (Units=GPa)
#
#
# Indices 1 2 3 4 5 6 
#
# 1 183.5922 -1.2559 64.0884 0.0000 -5.0537 0.0000
# 2 -1.2559 96.6567 -2.4609 0.0000 1.7941 0.0000
# 3 64.0884 -2.4609 87.9911 0.0000 -17.7286 0.0000
# 4 0.0000 0.0000 0.0000 -19.3682 0.0000 5.8868
# 5 -5.0537 1.7941 -17.7286 0.0000 40.1691 0.0000
# 6 0.0000 0.0000 0.0000 5.8868 0.0000 -1.1003
#
#
#
# Elastic Compliance Matrix: (Units=1/GPa)
#
#
# Indices 1 2 3 4 5 6 
#
# 1 0.007395 -0.000020 -0.005707 0.000000 -0.001587 0.000000
# 2 -0.000020 0.010358 0.000231 0.000000 -0.000363 0.000000
# 3 -0.005707 0.000231 0.016882 0.000000 0.006723 0.000000
# 4 0.000000 0.000000 0.000000 0.082470 0.000000 0.441208
# 5 -0.001587 -0.000363 0.006723 0.000000 0.027678 0.000000
# 6 0.000000 0.000000 0.000000 0.441208 0.000000 1.451627
#
#
# Mechanical properties :
#
#
# Convention : Reuss Voigt Hill
#
# Bulk Modulus (GPa) = 42.29297 54.33149 48.31223
# Shear Modulus (GPa) = 3.09543 24.46468 13.78005
#
# Velocity S-wave (km/s) = 1.12460 3.16161 2.37281
# Velocity P-wave (km/s) = 4.35503 5.96040 5.21980
#
# Compressibility (1/GPa) = 0.02364459
#
# Stress axis : x y z
#
# Youngs Moduli (GPa) = 135.22506 96.54131 59.23428
#
# Poissons Ratio (x) = 0.00191 0.33803
# Poissons Ratio (y) = 0.00267 -0.01368
# Poissons Ratio (z) = 0.77167 -0.02229
#
# Static dielectric constant tensor:
#      x y z
#    x 1.952840 0.000000 0.018910 
#    y 0.000000 1.865580 0.000000 
#    z 0.018910 0.000000 1.934800 
# 
# From -- ./inp_files/239651.got.cif
#   From: 2010.05.17/outbox.cif.g08.bks.cpg/sg12_120_cif.got.tgz:239651.got - 2010.06.03 13:09:07.
