data_PCOD9171953
_publ_section_title
;
Structure prediction by ZEFSAII (Michael W. Deem and Ramdas Pophale) SiO2 
 PCOD9171953
Probable space group: C 2/M
;
_chemical_formula_sum "Si O2"
_cell_formula_units_Z 56
_cell_length_a 32.861388
_cell_length_b 22.079918
_cell_length_c 5.121670
_cell_angle_alpha 90.000000
_cell_angle_beta 112.056411
_cell_angle_gamma 90.000000
_cell_volume 3444.195625
_symmetry_space_group_name_H-M "C 2/M"
_symmetry_group_IT_number 12
_symmetry_cell_setting 'monoclinic'
loop_
_space_group_symop_operation_xyz
x,y,z
-x,y,-z
-x,-y,-z
x,-y,z
1/2+x,1/2+y,z
1/2-x,1/2+y,-z
1/2-x,1/2-y,-z
1/2+x,1/2-y,z
loop_
_atom_site_type_symbol
_atom_site_label
_atom_site_fract_x
_atom_site_fract_y
_atom_site_fract_z
Si Si1 0.192613 0.725096 0.133481
Si Si2 0.259041 0.069047 0.141201
Si Si3 0.793904 0.195507 0.332190
Si Si4 0.117976 0.373646 0.898120
Si Si5 0.294567 0.430410 0.499404
Si Si6 0.030849 0.569457 0.826045
Si Si7 0.648349 0.070798 0.477074
O O1 0.193169 0.756212 0.416988
O O2 0.240088 0.691041 0.217877
O O3 0.148764 0.685284 0.992376
O O4 0.194595 0.776874 0.918583
O O5 0.221468 0.088935 0.250994
O O6 0.305075 0.098695 0.316823
O O7 0.265608 0.000000 0.247478
O O8 0.244800 0.065819 0.808469
O O9 0.816786 0.130671 0.442852
O O10 0.143314 0.418881 0.158422
O O11 0.068884 0.380559 0.890881
O O12 0.115345 0.395650 0.592848
O O13 0.313048 0.500000 0.550422
O O14 0.049783 0.500000 0.889367
O O15 0.000000 0.570985 0.500000
O O16 0.000000 0.578371 0.000000
O O17 0.644523 0.000000 0.526626
#
# Coordination Sequence:
#
# PCOD9171953 Si02
#       7
#     8   8   8   8   8   8   8
#     4  10  21  32  47  65  89 127 159 191 232 281
#     4   9  17  26  38  60  86 110 141 185 236 276
#     4  10  19  33  46  63  92 123 159 195 234 279
#     4  12  22  34  50  69  91 118 161 195 232 296
#     4  10  18  29  45  62  83 116 156 196 236 273
#     4  10  21  37  54  71  93 121 153 197 255 303
#     4  11  20  29  44  66  90 113 142 193 245 276
#
# _framework density 16.259238
#
# number of rings (size 3 to 8) (size 9 to 14) (size 15 to 20)
#    0.000    1.714    0.000    6.429    0.000    5.714 
#    0.000    0.714    0.000    0.000    0.000    0.000 
#    0.000    0.000    0.000    0.000    0.000   14.286 
#
# Total GULP energy -155885.942942 kJ/mol
# GULP energy per Si atom -5567.355105 kJ/mol
# Density = 1.622223 g / cm^3
# Si number density = 16.259238 Si / 1000 Ang^3
#
#
#
# Elastic Constant Matrix: (Units=GPa)
#
#
# Indices 1 2 3 4 5 6 
#
# 1 42.9748 24.6014 13.1474 0.0000 0.3373 0.0000
# 2 24.6014 81.6667 5.2925 0.0000 1.6089 0.0000
# 3 13.1474 5.2925 42.7531 0.0000 -9.1042 0.0000
# 4 0.0000 0.0000 0.0000 14.0703 0.0000 3.5061
# 5 0.3373 1.6089 -9.1042 0.0000 19.2531 0.0000
# 6 0.0000 0.0000 0.0000 3.5061 0.0000 16.7578
#
#
#
# Elastic Compliance Matrix: (Units=1/GPa)
#
#
# Indices 1 2 3 4 5 6 
#
# 1 0.031160 -0.008692 -0.009416 0.000000 -0.004272 0.000000
# 2 -0.008692 0.014835 0.000673 0.000000 -0.000769 0.000000
# 3 -0.009416 0.000673 0.029162 0.000000 0.013899 0.000000
# 4 0.000000 0.000000 0.000000 0.074981 0.000000 -0.015687
# 5 -0.004272 -0.000769 0.013899 0.000000 0.058651 0.000000
# 6 0.000000 0.000000 0.000000 -0.015687 0.000000 0.062956
#
#
# Mechanical properties :
#
#
# Convention : Reuss Voigt Hill
#
# Bulk Modulus (GPa) = 24.82256 28.16415 26.49336
# Shear Modulus (GPa) = 15.62288 18.30645 16.96467
#
# Velocity S-wave (km/s) = 3.10314 3.35910 3.23365
# Velocity P-wave (km/s) = 5.30464 5.69248 5.50198
#
# Compressibility (1/GPa) = 0.04028593
#
# Stress axis : x y z
#
# Youngs Moduli (GPa) = 32.09293 67.40861 34.29108
#
# Poissons Ratio (x) = 0.58593 0.32288
# Poissons Ratio (y) = 0.27896 -0.02307
# Poissons Ratio (z) = 0.30218 -0.04535
#
# Static dielectric constant tensor:
#      x y z
#    x 1.584270 0.000000 -0.027860 
#    y 0.000000 1.618990 0.000000 
#    z -0.027860 0.000000 1.639960 
# 
# From -- ./inp_files/32456.got.cif
#   From: 2010.05.17/outbox.cif.g08.bks.cpg/sg12_17_cif.got.tgz:32456.got - 2010.06.03 13:09:07.
