data_PCOD9171123
_publ_section_title
;
Structure prediction by ZEFSAII (Michael W. Deem and Ramdas Pophale) SiO2 
 PCOD9171123
Probable space group: C 2/M
;
_chemical_formula_sum "Si O2"
_cell_formula_units_Z 64
_cell_length_a 28.951467
_cell_length_b 8.878334
_cell_length_c 16.659134
_cell_angle_alpha 90.000000
_cell_angle_beta 84.315844
_cell_angle_gamma 90.000000
_cell_volume 4261.022041
_symmetry_space_group_name_H-M "C 2/M"
_symmetry_group_IT_number 12
_symmetry_cell_setting 'monoclinic'
loop_
_space_group_symop_operation_xyz
x,y,z
-x,y,-z
-x,-y,-z
x,-y,z
1/2+x,1/2+y,z
1/2-x,1/2+y,-z
1/2-x,1/2-y,-z
1/2+x,1/2-y,z
loop_
_atom_site_type_symbol
_atom_site_label
_atom_site_fract_x
_atom_site_fract_y
_atom_site_fract_z
Si Si1 0.469393 0.673317 0.423285
Si Si2 0.711674 0.679366 0.448578
Si Si3 0.230964 0.322517 0.877160
Si Si4 0.938826 0.179696 0.670310
Si Si5 0.124581 0.322910 0.194623
Si Si6 0.815740 0.319537 0.959385
Si Si7 0.278255 0.177462 0.726255
Si Si8 0.111584 0.678588 0.475670
O O1 0.500000 0.675005 0.500000
O O2 0.454941 0.500000 0.412437
O O3 0.506930 0.720556 0.350108
O O4 0.425134 0.774868 0.449307
O O5 0.711843 0.500000 0.454289
O O6 0.750000 0.750000 0.500000
O O7 0.721737 0.730933 0.355745
O O8 0.660965 0.743367 0.478945
O O9 0.231797 0.500000 0.859488
O O10 0.275685 0.277079 0.923250
O O11 0.238290 0.230482 0.794554
O O12 0.188150 0.290159 0.944955
O O13 0.915532 0.227128 0.757425
O O14 0.910053 0.261173 0.604440
O O15 0.935405 0.000000 0.658267
O O16 0.113429 0.500000 0.203586
O O17 0.138111 0.289500 0.100003
O O18 0.172313 0.297884 0.236994
O O19 0.805567 0.500000 0.949834
O O20 0.274524 0.000000 0.710407
O O21 0.117039 0.500000 0.469988
#
# Coordination Sequence:
#
# PCOD9171123 Si02
#       8
#     8   8   8   8   8   8   8   8
#     4   8  16  29  42  59  82 108 139 175 212 250
#     4  12  24  37  51  65  83 108 141 181 222 260
#     4   9  15  24  39  56  75 104 140 174 210 250
#     4  10  18  27  41  61  85 113 145 178 211 251
#     4   9  16  25  39  57  83 113 143 177 211 249
#     4   8  15  25  35  52  79 108 139 175 209 245
#     4  10  19  31  44  60  81 107 139 177 216 255
#     4  11  20  31  46  63  82 107 139 176 216 258
#
# _framework density 15.019871
#
# number of rings (size 3 to 8) (size 9 to 14) (size 15 to 20)
#    0.000    2.375    1.250    4.875    0.000    5.250 
#    0.000    0.000    0.000    0.000    0.000    0.000 
#    0.000    0.000    0.000    1.125    0.000   21.750 
#
# Total GULP energy -178235.916611 kJ/mol
# GULP energy per Si atom -5569.872394 kJ/mol
# Density = 1.498569 g / cm^3
# Si number density = 15.019871 Si / 1000 Ang^3
#
#
#
# Elastic Constant Matrix: (Units=GPa)
#
#
# Indices 1 2 3 4 5 6 
#
# 1 67.2550 45.3739 48.8637 0.0000 -23.7227 0.0000
# 2 45.3739 88.4125 42.3270 0.0000 -15.6651 0.0000
# 3 48.8637 42.3270 62.1563 0.0000 -31.3965 0.0000
# 4 0.0000 0.0000 0.0000 22.5214 0.0000 -6.8887
# 5 -23.7227 -15.6651 -31.3965 0.0000 27.7787 0.0000
# 6 0.0000 0.0000 0.0000 -6.8887 0.0000 19.6678
#
#
#
# Elastic Compliance Matrix: (Units=1/GPa)
#
#
# Indices 1 2 3 4 5 6 
#
# 1 0.037906 -0.007761 -0.024176 0.000000 0.000670 0.000000
# 2 -0.007761 0.019180 -0.011290 0.000000 -0.008572 0.000000
# 3 -0.024176 -0.011290 0.067905 0.000000 0.049736 0.000000
# 4 0.000000 0.000000 0.000000 0.049730 0.000000 0.017418
# 5 0.000670 -0.008572 0.049736 0.000000 0.087951 0.000000
# 6 0.000000 0.000000 0.000000 0.017418 0.000000 0.056945
#
#
# Mechanical properties :
#
#
# Convention : Reuss Voigt Hill
#
# Bulk Modulus (GPa) = 25.94843 54.55033 40.24938
# Shear Modulus (GPa) = 11.93557 19.41086 15.67322
#
# Velocity S-wave (km/s) = 2.82202 3.59882 3.23383
# Velocity P-wave (km/s) = 5.28507 7.32573 6.38742
#
# Compressibility (1/GPa) = 0.03853798
#
# Stress axis : x y z
#
# Youngs Moduli (GPa) = 26.38112 52.13896 14.72639
#
# Poissons Ratio (x) = 0.40463 0.35603
# Poissons Ratio (y) = 0.20473 0.16625
# Poissons Ratio (z) = 0.63780 0.58862
#
# Static dielectric constant tensor:
#      x y z
#    x 1.492670 0.000000 -0.051680 
#    y 0.000000 1.502790 0.000000 
#    z -0.051680 0.000000 1.525690 
# 
# From -- ./inp_files/291550.got.cif
#   From: 2010.05.17/outbox.cif.g08.bks.cpg/sg12_146_cif.got.tgz:291550.got - 2010.06.03 13:09:07.
