data_PCOD9171183
_publ_section_title
;
Structure prediction by ZEFSAII (Michael W. Deem and Ramdas Pophale) SiO2 
 PCOD9171183
Probable space group: C 2/M
;
_chemical_formula_sum "Si O2"
_cell_formula_units_Z 64
_cell_length_a 27.974829
_cell_length_b 8.981260
_cell_length_c 17.481746
_cell_angle_alpha 90.000000
_cell_angle_beta 77.443732
_cell_angle_gamma 90.000000
_cell_volume 4287.224789
_symmetry_space_group_name_H-M "C 2/M"
_symmetry_group_IT_number 12
_symmetry_cell_setting 'monoclinic'
loop_
_space_group_symop_operation_xyz
x,y,z
-x,y,-z
-x,-y,-z
x,-y,z
1/2+x,1/2+y,z
1/2-x,1/2+y,-z
1/2-x,1/2-y,-z
1/2+x,1/2-y,z
loop_
_atom_site_type_symbol
_atom_site_label
_atom_site_fract_x
_atom_site_fract_y
_atom_site_fract_z
Si Si1 0.452918 0.173150 0.900554
Si Si2 0.441138 0.329389 0.507432
Si Si3 0.062641 0.322396 0.812723
Si Si4 0.967191 0.821124 0.333243
Si Si5 0.880564 0.676380 0.062329
Si Si6 0.803220 0.178319 0.977285
Si Si7 0.123169 0.823890 0.181427
Si Si8 0.927197 0.323536 0.666565
O O1 0.510349 0.198936 0.873137
O O2 0.423613 0.280204 0.854112
O O3 0.443780 0.000000 0.880859
O O4 0.428759 0.192174 0.991882
O O5 0.500000 0.329696 0.500000
O O6 0.424321 0.500000 0.522818
O O7 0.436598 0.282749 0.420701
O O8 0.419758 0.228256 0.581739
O O9 0.067578 0.500000 0.797281
O O10 0.058300 0.237225 0.734421
O O11 0.104707 0.275354 0.857547
O O12 0.021004 0.747730 0.323568
O O13 0.973206 0.000000 0.330038
O O14 0.868885 0.500000 0.067870
O O15 0.837552 0.762295 0.033984
O O16 0.830840 0.218412 0.888037
O O17 0.800361 0.000000 0.981760
O O18 0.750000 0.250000 0.000000
O O19 0.114891 0.737772 0.263094
O O20 0.124216 0.000000 0.194834
O O21 0.931050 0.500000 0.670513
#
# Coordination Sequence:
#
# PCOD9171183 Si02
#       8
#     8   8   8   8   8   8   8   8
#     4   9  16  27  42  61  87 119 152 184 218 256
#     4   8  16  29  41  55  80 117 154 187 225 262
#     4  10  18  27  42  64  90 121 155 187 219 258
#     4  10  19  29  41  58  86 123 156 188 225 261
#     4   9  18  31  46  65  90 118 149 185 224 267
#     4  10  21  36  53  70  89 115 147 186 231 275
#     4  10  19  30  45  66  90 117 149 184 225 270
#     4  11  19  27  42  63  86 115 152 191 225 261
#
# _framework density 14.928072
#
# number of rings (size 3 to 8) (size 9 to 14) (size 15 to 20)
#    0.000    2.375    1.250    3.375    0.000    6.250 
#    0.000    0.000    0.000    3.750    0.000    0.000 
#    0.000    1.000    0.000    3.250    0.000    4.000 
#
# Total GULP energy -178335.903584 kJ/mol
# GULP energy per Si atom -5572.996987 kJ/mol
# Density = 1.489410 g / cm^3
# Si number density = 14.928072 Si / 1000 Ang^3
#
#
#
# Elastic Constant Matrix: (Units=GPa)
#
#
# Indices 1 2 3 4 5 6 
#
# 1 59.3613 36.8681 58.0615 0.0000 2.0920 0.0000
# 2 36.8681 64.2789 61.2036 0.0000 0.0390 0.0000
# 3 58.0615 61.2036 123.4382 0.0000 11.7425 0.0000
# 4 0.0000 0.0000 0.0000 23.9110 0.0000 2.7502
# 5 2.0920 0.0390 11.7425 0.0000 15.5051 0.0000
# 6 0.0000 0.0000 0.0000 2.7502 0.0000 13.8622
#
#
#
# Elastic Compliance Matrix: (Units=1/GPa)
#
#
# Indices 1 2 3 4 5 6 
#
# 1 0.033543 -0.007111 -0.012741 0.000000 0.005141 0.000000
# 2 -0.007111 0.033145 -0.014195 0.000000 0.011627 0.000000
# 3 -0.012741 -0.014195 0.022593 0.000000 -0.015356 0.000000
# 4 0.000000 0.000000 0.000000 0.042798 0.000000 -0.008491
# 5 0.005141 0.011627 -0.015356 0.000000 0.075402 0.000000
# 6 0.000000 0.000000 0.000000 -0.008491 0.000000 0.073823
#
#
# Mechanical properties :
#
#
# Convention : Reuss Voigt Hill
#
# Bulk Modulus (GPa) = 47.19865 62.14944 54.67405
# Shear Modulus (GPa) = 14.02675 16.71867 15.37271
#
# Velocity S-wave (km/s) = 3.06865 3.35019 3.21251
# Velocity P-wave (km/s) = 6.65143 7.52915 7.10386
#
# Compressibility (1/GPa) = 0.02118705
#
# Stress axis : x y z
#
# Youngs Moduli (GPa) = 29.81213 30.17060 44.26063
#
# Poissons Ratio (x) = 0.21454 0.56393
# Poissons Ratio (y) = 0.21199 0.62829
# Poissons Ratio (z) = 0.37984 0.42828
#
# Static dielectric constant tensor:
#      x y z
#    x 1.460260 0.000000 0.006250 
#    y 0.000000 1.500340 0.000000 
#    z 0.006250 0.000000 1.531290 
# 
# From -- ./inp_files/294545.got.cif
#   From: 2010.05.17/outbox.cif.g08.bks.cpg/sg12_148_cif.got.tgz:294545.got - 2010.06.03 13:09:07.
