data_PCOD9171453
_publ_section_title
;
Structure prediction by ZEFSAII (Michael W. Deem and Ramdas Pophale) SiO2 
 PCOD9171453
Probable space group: C 2/M
;
_chemical_formula_sum "Si O2"
_cell_formula_units_Z 48
_cell_length_a 25.081560
_cell_length_b 8.708779
_cell_length_c 22.185563
_cell_angle_alpha 90.000000
_cell_angle_beta 37.806454
_cell_angle_gamma 90.000000
_cell_volume 2970.571081
_symmetry_space_group_name_H-M "C 2/M"
_symmetry_group_IT_number 12
_symmetry_cell_setting 'monoclinic'
loop_
_space_group_symop_operation_xyz
x,y,z
-x,y,-z
-x,-y,-z
x,-y,z
1/2+x,1/2+y,z
1/2-x,1/2+y,-z
1/2-x,1/2-y,-z
1/2+x,1/2-y,z
loop_
_atom_site_type_symbol
_atom_site_label
_atom_site_fract_x
_atom_site_fract_y
_atom_site_fract_z
Si Si1 0.115983 0.316022 0.725859
Si Si2 0.829457 0.817199 0.004574
Si Si3 0.952555 0.817533 0.339832
Si Si4 0.215610 0.683425 0.466788
Si Si5 0.476871 0.184655 0.952859
Si Si6 0.367225 0.817564 0.839647
O O1 0.120861 0.500000 0.714492
O O2 0.072153 0.246949 0.704655
O O3 0.213085 0.247595 0.643241
O O4 0.055424 0.279104 0.836713
O O5 0.727210 0.782279 0.104087
O O6 0.837743 0.000000 0.988103
O O7 0.890572 0.762284 0.003728
O O8 0.859877 0.734082 0.916031
O O9 0.882634 0.744730 0.448173
O O10 0.051420 0.767632 0.262492
O O11 0.943088 0.000000 0.347819
O O12 0.217131 0.500000 0.466745
O O13 0.250000 0.750000 0.500000
O O14 0.465050 0.000000 0.962371
O O15 0.500000 0.231241 0.000000
O O16 0.381953 0.000000 0.824365
#
# Coordination Sequence:
#
# PCOD9171453 Si02
#       6
#     8   8   8   8   8   8
#     4  10  18  30  46  65  94 127 160 199 239 280
#     4  10  20  32  48  70  95 126 163 201 240 284
#     4  11  19  28  45  70  97 125 159 192 237 291
#     4  10  18  28  43  64  93 125 157 192 237 288
#     4  10  21  35  51  70  96 132 168 201 239 282
#     4  10  19  31  47  69  98 129 158 194 242 292
#
# _framework density 16.158508999999999
#
# number of rings (size 3 to 8) (size 9 to 14) (size 15 to 20)
#    0.000    1.833    1.667    6.500    0.000    3.000 
#    0.000    0.000    0.000    0.000    0.000    1.167 
#    0.000    9.333    0.000    0.000    0.000    0.000 
#
# Total GULP energy -133891.312523 kJ/mol
# GULP energy per Si atom -5578.804688 kJ/mol
# Density = 1.612173 g / cm^3
# Si number density = 16.158509 Si / 1000 Ang^3
#
#
#
# Elastic Constant Matrix: (Units=GPa)
#
#
# Indices 1 2 3 4 5 6 
#
# 1 79.6670 34.4019 50.0439 -0.0015 -12.9170 0.0009
# 2 34.4019 93.8627 53.5082 -0.0035 -15.1587 0.0026
# 3 50.0439 53.5082 102.1843 -0.0027 -28.6309 0.0023
# 4 -0.0015 -0.0035 -0.0027 25.7781 0.0014 -8.3669
# 5 -12.9170 -15.1587 -28.6309 0.0014 25.0101 -0.0011
# 6 0.0009 0.0026 0.0023 -8.3669 -0.0011 20.1615
#
#
#
# Elastic Compliance Matrix: (Units=1/GPa)
#
#
# Indices 1 2 3 4 5 6 
#
# 1 0.018497 -0.002306 -0.008195 0.000000 -0.001225 0.000000
# 2 -0.002306 0.015475 -0.006890 0.000001 0.000301 -0.000001
# 3 -0.008195 -0.006890 0.022159 0.000000 0.016959 0.000000
# 4 0.000000 0.000001 0.000000 0.044831 -0.000001 0.018605
# 5 -0.001225 0.000301 0.016959 -0.000001 0.058948 0.000001
# 6 0.000000 -0.000001 0.000000 0.018605 0.000001 0.057320
#
#
# Mechanical properties :
#
#
# Convention : Reuss Voigt Hill
#
# Bulk Modulus (GPa) = 46.83703 61.29133 54.06418
# Shear Modulus (GPa) = 19.29553 23.37394 21.33473
#
# Velocity S-wave (km/s) = 3.45938 3.80747 3.63759
# Velocity P-wave (km/s) = 6.70860 7.57250 7.15360
#
# Compressibility (1/GPa) = 0.02135063
#
# Stress axis : x y z
#
# Youngs Moduli (GPa) = 54.06349 64.61891 45.12838
#
# Poissons Ratio (x) = 0.14899 0.36981
# Poissons Ratio (y) = 0.12465 0.31093
# Poissons Ratio (z) = 0.44303 0.44522
#
# Static dielectric constant tensor:
#      x y z
#    x 1.524430 0.000000 -0.038980 
#    y 0.000000 1.541950 0.000000 
#    z -0.038980 0.000000 1.575580 
# 
# From -- ./inp_files/323520.got.cif
#   From: 2010.05.17/outbox.cif.g08.bks.cpg/sg12_162_cif.got.tgz:323520.got - 2010.06.03 13:09:07.
