data_PCOD9171017
_publ_section_title
;
Structure prediction by ZEFSAII (Michael W. Deem and Ramdas Pophale) SiO2 
 PCOD9171017
Probable space group: C 2/M
;
_chemical_formula_sum "Si O2"
_cell_formula_units_Z 48
_cell_length_a 15.746711
_cell_length_b 7.392026
_cell_length_c 15.175409
_cell_angle_alpha 90.000000
_cell_angle_beta 72.047869
_cell_angle_gamma 90.000000
_cell_volume 1680.419837
_symmetry_space_group_name_H-M "C 2/M"
_symmetry_group_IT_number 12
_symmetry_cell_setting 'monoclinic'
loop_
_space_group_symop_operation_xyz
x,y,z
-x,y,-z
-x,-y,-z
x,-y,z
1/2+x,1/2+y,z
1/2-x,1/2+y,-z
1/2-x,1/2-y,-z
1/2+x,1/2-y,z
loop_
_atom_site_type_symbol
_atom_site_label
_atom_site_fract_x
_atom_site_fract_y
_atom_site_fract_z
Si Si1 0.641729 0.719315 0.980293
Si Si2 0.627679 0.780184 0.527256
Si Si3 0.821448 0.708887 0.306865
Si Si4 0.573262 0.779223 0.358365
Si Si5 0.515052 0.716929 0.854832
Si Si6 0.298752 0.207576 0.820262
O O1 0.646063 0.500000 0.979757
O O2 0.576442 0.767245 0.919674
O O3 0.738200 0.791586 0.917191
O O4 0.585140 0.774976 0.084684
O O5 0.685905 0.714343 0.591497
O O6 0.632588 0.723300 0.424075
O O7 0.526772 0.727191 0.586989
O O8 0.631237 0.000000 0.527793
O O9 0.796053 0.500000 0.315001
O O10 0.767959 0.798565 0.244398
O O11 0.926756 0.713289 0.245080
O O12 0.614458 0.709069 0.254139
O O13 0.575340 0.000000 0.354177
O O14 0.514481 0.500000 0.849918
O O15 0.314521 0.000000 0.837180
#
# Coordination Sequence:
#
# PCOD9171017 Si02
#       6
#     8   8   8   8   8   8
#     4   7  11  21  38  59  80 102 134 174 203 226
#     4   8  15  27  42  62  85 108 137 172 206 239
#     4  10  18  26  39  63  92 112 129 165 213 250
#     4   8  14  27  46  62  78 107 145 175 198 236
#     4   8  13  24  40  56  79 110 141 169 196 235
#     4   9  16  27  45  66  83 104 139 176 205 237
#
# _framework density 28.56429
#
# number of rings (size 3 to 8) (size 9 to 14) (size 15 to 20)
#    0.000    3.667    0.000    3.500    0.000    0.667 
#    0.000    6.667    0.000    4.000    0.000    5.833 
#    0.000    0.000    0.000    0.000    0.000    1.000 
#
# Total GULP energy -134275.595165 kJ/mol
# GULP energy per Si atom -5594.816465 kJ/mol
# Density = 2.849928 g / cm^3
# Si number density = 28.564290 Si / 1000 Ang^3
#
#
#
# Elastic Constant Matrix: (Units=GPa)
#
#
# Indices 1 2 3 4 5 6 
#
# 1 86.8437 22.6166 9.4168 0.0000 -11.3490 0.0000
# 2 22.6166 129.4660 15.4819 0.0000 1.7851 0.0000
# 3 9.4168 15.4819 225.0075 0.0000 5.7655 0.0000
# 4 0.0000 0.0000 0.0000 17.8319 0.0000 2.4601
# 5 -11.3490 1.7851 5.7655 0.0000 70.4821 0.0000
# 6 0.0000 0.0000 0.0000 2.4601 0.0000 27.1426
#
#
#
# Elastic Compliance Matrix: (Units=1/GPa)
#
#
# Indices 1 2 3 4 5 6 
#
# 1 0.012391 -0.002143 -0.000425 0.000000 0.002084 0.000000
# 2 -0.002143 0.008160 -0.000459 0.000000 -0.000514 0.000000
# 3 -0.000425 -0.000459 0.004505 0.000000 -0.000425 0.000000
# 4 0.000000 0.000000 0.000000 0.056789 0.000000 -0.005147
# 5 0.002084 -0.000514 -0.000425 0.000000 0.014571 0.000000
# 6 0.000000 0.000000 0.000000 -0.005147 0.000000 0.037309
#
#
# Mechanical properties :
#
#
# Convention : Reuss Voigt Hill
#
# Bulk Modulus (GPa) = 52.61917 59.59420 56.10669
# Shear Modulus (GPa) = 34.22024 49.34480 41.78252
#
# Velocity S-wave (km/s) = 3.46498 4.16083 3.82875
# Velocity P-wave (km/s) = 5.87107 6.63263 6.26343
#
# Compressibility (1/GPa) = 0.01900448
#
# Stress axis : x y z
#
# Youngs Moduli (GPa) = 80.70147 122.54499 221.99942
#
# Poissons Ratio (x) = 0.26257 0.09425
# Poissons Ratio (y) = 0.17291 0.10182
# Poissons Ratio (z) = 0.03426 0.05620
#
# Static dielectric constant tensor:
#      x y z
#    x 2.382960 0.000000 -0.017090 
#    y 0.000000 2.003530 0.000000 
#    z -0.017090 0.000000 2.234190 
# 
# From -- ./inp_files/280046.got.cif
#   From: 2010.05.17/outbox.cif.g08.bks.cpg/sg12_141_cif.got.tgz:280046.got - 2010.06.03 13:09:07.
