data_PCOD9171317
_publ_section_title
;
Structure prediction by ZEFSAII (Michael W. Deem and Ramdas Pophale) SiO2 
 PCOD9171317
Probable space group: C 2/M
;
_chemical_formula_sum "Si O2"
_cell_formula_units_Z 40
_cell_length_a 9.396935
_cell_length_b 30.468176
_cell_length_c 6.621803
_cell_angle_alpha 90.000000
_cell_angle_beta 129.144322
_cell_angle_gamma 90.000000
_cell_volume 1470.359014
_symmetry_space_group_name_H-M "C 2/M"
_symmetry_group_IT_number 12
_symmetry_cell_setting 'monoclinic'
loop_
_space_group_symop_operation_xyz
x,y,z
-x,y,-z
-x,-y,-z
x,-y,z
1/2+x,1/2+y,z
1/2-x,1/2+y,-z
1/2-x,1/2-y,-z
1/2+x,1/2-y,z
loop_
_atom_site_type_symbol
_atom_site_label
_atom_site_fract_x
_atom_site_fract_y
_atom_site_fract_z
Si Si1 0.732212 0.693083 0.414725
Si Si2 0.239507 0.406024 0.086523
Si Si3 0.338375 0.500000 0.645039
Si Si4 0.500000 0.259211 0.500000
Si Si5 0.847610 0.904222 0.658813
Si Si6 0.764448 0.500000 0.917763
Si Si7 0.000000 0.668167 0.000000
O O1 0.541077 0.710270 0.341319
O O2 0.826960 0.725879 0.342859
O O3 0.721911 0.643104 0.333539
O O4 0.863759 0.693684 0.731946
O O5 0.295879 0.404652 0.373438
O O6 0.430811 0.403538 0.140178
O O7 0.146077 0.453081 0.960382
O O8 0.110563 0.364613 0.951009
O O9 0.280242 0.452120 0.672126
O O10 0.561573 0.500000 0.837539
O O11 0.278428 0.500000 0.358169
#
# Coordination Sequence:
#
# PCOD9171317 Si02
#       7
#     8   8   4   4   8   4   4
#     4  10  20  35  53  73  96 124 160 201 241 284
#     4   8  13  21  37  64  95 127 154 189 233 273
#     4   7  10  18  38  65  87 121 160 185 214 272
#     4  10  22  38  54  68  90 130 168 196 238 290
#     4   8  13  25  44  64  93 126 158 188 225 281
#     4   7  10  17  30  56  95 126 154 184 222 272
#     4  10  18  27  46  72  98 120 150 201 252 280
#
# _framework density 27.204239000000001
#
# number of rings (size 3 to 8) (size 9 to 14) (size 15 to 20)
#    0.000    3.400    0.000    4.800    0.000    1.200 
#    0.000    1.000    0.000    0.600    0.000    0.000 
#    0.000    4.800    0.000    0.000    0.000    1.400 
#
# Total GULP energy -111810.123363 kJ/mol
# GULP energy per Si atom -5590.506168 kJ/mol
# Density = 2.714232 g / cm^3
# Si number density = 27.204239 Si / 1000 Ang^3
#
#
#
# Elastic Constant Matrix: (Units=GPa)
#
#
# Indices 1 2 3 4 5 6 
#
# 1 135.3728 48.1035 23.7186 0.0000 -9.1745 0.0000
# 2 48.1035 219.3286 34.0405 0.0000 0.8997 0.0000
# 3 23.7186 34.0405 71.2253 0.0000 -2.3934 0.0000
# 4 0.0000 0.0000 0.0000 27.2683 0.0000 30.2874
# 5 -9.1745 0.8997 -2.3934 0.0000 32.9371 0.0000
# 6 0.0000 0.0000 0.0000 30.2874 0.0000 54.0623
#
#
#
# Elastic Compliance Matrix: (Units=1/GPa)
#
#
# Indices 1 2 3 4 5 6 
#
# 1 0.008440 -0.001551 -0.001994 0.000000 0.002248 0.000000
# 2 -0.001551 0.005213 -0.001999 0.000000 -0.000720 0.000000
# 3 -0.001994 -0.001999 0.015681 0.000000 0.000639 0.000000
# 4 0.000000 0.000000 0.000000 0.097084 0.000000 -0.054390
# 5 0.002248 -0.000720 0.000639 0.000000 0.031053 0.000000
# 6 0.000000 0.000000 0.000000 -0.054390 0.000000 0.048968
#
#
# Mechanical properties :
#
#
# Convention : Reuss Voigt Hill
#
# Bulk Modulus (GPa) = 54.80662 70.85021 62.82841
# Shear Modulus (GPa) = 22.36052 44.19114 33.27583
#
# Velocity S-wave (km/s) = 2.87008 4.03478 3.50120
# Velocity P-wave (km/s) = 5.58330 6.91421 6.28409
#
# Compressibility (1/GPa) = 0.01824597
#
# Stress axis : x y z
#
# Youngs Moduli (GPa) = 118.48650 191.83901 63.77239
#
# Poissons Ratio (x) = 0.29751 0.12715
# Poissons Ratio (y) = 0.18375 0.12748
# Poissons Ratio (z) = 0.23624 0.38349
#
# Static dielectric constant tensor:
#      x y z
#    x 2.149990 0.000000 -0.013280 
#    y 0.000000 2.095350 0.000000 
#    z -0.013280 0.000000 2.106370 
# 
# From -- ./inp_files/53909.got.cif
#   From: 2010.05.17/outbox.cif.g08.bks.cpg/sg12_27_cif.got.tgz:53909.got - 2010.06.03 13:09:07.
