data_PCOD9171221
_publ_section_title
;
Structure prediction by ZEFSAII (Michael W. Deem and Ramdas Pophale) SiO2 
 PCOD9171221
Probable space group: C 2/M
;
_chemical_formula_sum "Si O2"
_cell_formula_units_Z 56
_cell_length_a 28.446942
_cell_length_b 9.306714
_cell_length_c 18.616309
_cell_angle_alpha 90.000000
_cell_angle_beta 131.092996
_cell_angle_gamma 90.000000
_cell_volume 3714.425344
_symmetry_space_group_name_H-M "C 2/M"
_symmetry_group_IT_number 12
_symmetry_cell_setting 'monoclinic'
loop_
_space_group_symop_operation_xyz
x,y,z
-x,y,-z
-x,-y,-z
x,-y,z
1/2+x,1/2+y,z
1/2-x,1/2+y,-z
1/2-x,1/2-y,-z
1/2+x,1/2-y,z
loop_
_atom_site_type_symbol
_atom_site_label
_atom_site_fract_x
_atom_site_fract_y
_atom_site_fract_z
Si Si1 0.064293 0.335403 0.610903
Si Si2 0.994012 0.828979 0.160712
Si Si3 0.566885 0.834675 0.025977
Si Si4 0.624078 0.328257 0.211774
Si Si5 0.378811 0.172671 0.476318
Si Si6 0.497784 0.671833 0.663880
Si Si7 0.748555 0.672342 0.422250
O O1 0.075378 0.500000 0.645053
O O2 0.114912 0.291275 0.602065
O O3 0.000000 0.334692 0.500000
O O4 0.050976 0.234285 0.664795
O O5 0.064008 0.797788 0.201915
O O6 0.990070 0.793422 0.240676
O O7 0.984295 0.000000 0.142143
O O8 0.946199 0.744376 0.062093
O O9 0.613215 0.752101 0.125862
O O10 0.584803 0.000000 0.034023
O O11 0.500000 0.831415 0.000000
O O12 0.625208 0.500000 0.200602
O O13 0.687200 0.285994 0.315702
O O14 0.433076 0.255264 0.573509
O O15 0.311622 0.204589 0.441863
O O16 0.390094 0.000000 0.493047
O O17 0.493063 0.500000 0.651725
O O18 0.745839 0.500000 0.430402
O O19 0.750000 0.750000 0.500000
#
# Coordination Sequence:
#
# PCOD9171221 Si02
#       7
#     8   8   8   8   8   8   8
#     4   8  15  28  43  59  83 115 146 176 215 261
#     4   9  17  28  42  62  88 114 138 170 215 261
#     4   9  17  28  43  63  84 108 141 177 211 251
#     4   9  17  30  45  60  84 117 146 172 208 253
#     4   9  18  31  44  60  87 121 151 177 210 256
#     4  10  18  27  43  67  90 112 143 182 220 256
#     4  10  20  32  46  65  89 119 152 181 210 248
#
# _framework density 15.076356000000001
#
# number of rings (size 3 to 8) (size 9 to 14) (size 15 to 20)
#    0.000    2.857    0.000    2.571    0.000    7.714 
#    0.000    2.857    0.000    0.000    0.000    1.000 
#    0.000    0.000    0.000    0.000    0.000    0.000 
#
# Total GULP energy -155979.251429 kJ/mol
# GULP energy per Si atom -5570.687551 kJ/mol
# Density = 1.504204 g / cm^3
# Si number density = 15.076356 Si / 1000 Ang^3
#
#
#
# Elastic Constant Matrix: (Units=GPa)
#
#
# Indices 1 2 3 4 5 6 
#
# 1 104.6624 49.4940 68.0737 0.0000 -18.7538 0.0000
# 2 49.4940 52.6511 64.1940 0.0000 -16.6376 0.0000
# 3 68.0737 64.1940 129.4443 0.0000 -19.2836 0.0000
# 4 0.0000 0.0000 0.0000 23.0174 0.0000 -7.5857
# 5 -18.7538 -16.6376 -19.2836 0.0000 23.4178 0.0000
# 6 0.0000 0.0000 0.0000 -7.5857 0.0000 20.1895
#
#
#
# Elastic Compliance Matrix: (Units=1/GPa)
#
#
# Indices 1 2 3 4 5 6 
#
# 1 0.017736 -0.012322 -0.002741 0.000000 0.003192 0.000000
# 2 -0.012322 0.062967 -0.022286 0.000000 0.016517 0.000000
# 3 -0.002741 -0.022286 0.019985 0.000000 -0.001572 0.000000
# 4 0.000000 0.000000 0.000000 0.049585 0.000000 0.018630
# 5 0.003192 0.016517 -0.001572 0.000000 0.055699 0.000000
# 6 0.000000 0.000000 0.000000 0.018630 0.000000 0.056531
#
#
# Mechanical properties :
#
#
# Convention : Reuss Voigt Hill
#
# Bulk Modulus (GPa) = 38.47647 72.25344 55.36495
# Shear Modulus (GPa) = 14.45649 20.32468 17.39059
#
# Velocity S-wave (km/s) = 3.09995 3.67565 3.40001
# Velocity P-wave (km/s) = 6.19591 8.12668 7.22607
#
# Compressibility (1/GPa) = 0.02598991
#
# Stress axis : x y z
#
# Youngs Moduli (GPa) = 56.38134 15.88123 50.03797
#
# Poissons Ratio (x) = 0.19569 0.13716
# Poissons Ratio (y) = 0.69473 1.11516
# Poissons Ratio (z) = 0.15455 0.35393
#
# Static dielectric constant tensor:
#      x y z
#    x 1.509080 0.000000 -0.005470 
#    y 0.000000 1.505380 0.000000 
#    z -0.005470 0.000000 1.474760 
# 
# From -- ./inp_files/291814.got.cif
#   From: 2010.05.17/outbox.cif.g08.bks.cpg/sg12_146_cif.got.tgz:291814.got - 2010.06.03 13:09:07.
