data_PCOD9171662
_publ_section_title
;
Structure prediction by ZEFSAII (Michael W. Deem and Ramdas Pophale) SiO2 
 PCOD9171662
Probable space group: C 2/M
;
_chemical_formula_sum "Si O2"
_cell_formula_units_Z 64
_cell_length_a 27.125928
_cell_length_b 7.364318
_cell_length_c 23.060147
_cell_angle_alpha 90.000000
_cell_angle_beta 40.031347
_cell_angle_gamma 90.000000
_cell_volume 2962.986803
_symmetry_space_group_name_H-M "C 2/M"
_symmetry_group_IT_number 12
_symmetry_cell_setting 'monoclinic'
loop_
_space_group_symop_operation_xyz
x,y,z
-x,y,-z
-x,-y,-z
x,-y,z
1/2+x,1/2+y,z
1/2-x,1/2+y,-z
1/2-x,1/2-y,-z
1/2+x,1/2-y,z
loop_
_atom_site_type_symbol
_atom_site_label
_atom_site_fract_x
_atom_site_fract_y
_atom_site_fract_z
Si Si1 0.169165 0.203544 0.234675
Si Si2 0.283616 0.218154 0.034701
Si Si3 0.782832 0.208041 0.607025
Si Si4 0.470452 0.781603 0.717351
Si Si5 0.089138 0.222545 0.422401
Si Si6 0.377432 0.777510 0.274899
Si Si7 0.545810 0.780082 0.132523
Si Si8 0.638952 0.781400 0.576542
O O1 0.230190 0.288208 0.135066
O O2 0.092420 0.194542 0.265766
O O3 0.138950 0.284056 0.321890
O O4 0.197020 0.000000 0.223763
O O5 0.284114 0.000000 0.039101
O O6 0.250000 0.250000 0.000000
O O7 0.371040 0.283919 0.962830
O O8 0.858092 0.283382 0.571017
O O9 0.697451 0.285592 0.692656
O O10 0.798123 0.210650 0.524169
O O11 0.778413 0.000000 0.630536
O O12 0.457175 0.736411 0.796456
O O13 0.556486 0.728025 0.624837
O O14 0.464045 0.000000 0.717940
O O15 0.000000 0.282771 0.500000
O O16 0.085205 0.000000 0.425169
O O17 0.463819 0.720205 0.180422
O O18 0.364158 0.722230 0.353985
O O19 0.377230 0.000000 0.274472
O O20 0.546234 0.000000 0.127716
O O21 0.644004 0.000000 0.572327
#
# Coordination Sequence:
#
# PCOD9171662 Si02
#       8
#     8   8   8   8   8   8   8   8
#     4  10  19  29  44  67  91 117 153 190 220 256
#     4  10  18  28  46  69  93 119 145 180 226 273
#     4  10  18  29  47  64  81 115 158 190 216 260
#     4   9  16  27  43  62  88 121 147 170 215 277
#     4   9  18  31  44  61  90 123 150 183 227 263
#     4   8  15  27  44  65  86 114 150 179 218 275
#     4   8  14  26  42  62  90 117 137 168 222 276
#     4   9  17  28  43  65  92 115 141 184 231 269
#
# _framework density 21.599826
#
# number of rings (size 3 to 8) (size 9 to 14) (size 15 to 20)
#    0.000    2.875    1.250    2.625    0.000    1.500 
#    0.000    0.625    0.000    4.500    0.000    5.250 
#    0.000    0.000    0.000    3.375    0.000    3.750 
#
# Total GULP energy -178362.322863 kJ/mol
# GULP energy per Si atom -5573.822589 kJ/mol
# Density = 2.155066 g / cm^3
# Si number density = 21.599826 Si / 1000 Ang^3
#
#
#
# Elastic Constant Matrix: (Units=GPa)
#
#
# Indices 1 2 3 4 5 6 
#
# 1 99.2817 3.1262 63.1515 0.0115 -36.9148 -0.0095
# 2 3.1262 75.5806 0.7609 0.0412 -0.0645 -0.0216
# 3 63.1515 0.7609 154.6144 0.0211 -24.6434 -0.0136
# 4 0.0115 0.0412 0.0211 1.7136 -0.0256 0.0591
# 5 -36.9148 -0.0645 -24.6434 -0.0256 38.0440 0.0116
# 6 -0.0095 -0.0216 -0.0136 0.0591 0.0116 3.1567
#
#
#
# Elastic Compliance Matrix: (Units=1/GPa)
#
#
# Indices 1 2 3 4 5 6 
#
# 1 0.019139 -0.000724 -0.005413 0.000182 0.015064 -0.000029
# 2 -0.000724 0.013259 0.000136 -0.000328 -0.000592 0.000097
# 3 -0.005413 0.000136 0.008743 -0.000069 0.000412 0.000022
# 4 0.000182 -0.000328 -0.000069 0.583968 0.000526 -0.010929
# 5 0.015064 -0.000592 0.000412 0.000526 0.041168 -0.000118
# 6 -0.000029 0.000097 0.000022 -0.010929 -0.000118 0.316991
#
#
# Mechanical properties :
#
#
# Convention : Reuss Voigt Hill
#
# Bulk Modulus (GPa) = 34.31711 51.50597 42.91154
# Shear Modulus (GPa) = 4.97520 26.07873 15.52697
#
# Velocity S-wave (km/s) = 1.51933 3.47848 2.68404
# Velocity P-wave (km/s) = 4.35890 6.32696 5.43279
#
# Compressibility (1/GPa) = 0.02913998
#
# Stress axis : x y z
#
# Youngs Moduli (GPa) = 52.24902 75.41933 114.37081
#
# Poissons Ratio (x) = 0.05463 0.61906
# Poissons Ratio (y) = 0.03785 -0.01558
# Poissons Ratio (z) = 0.28281 -0.01028
#
# Static dielectric constant tensor:
#      x y z
#    x 1.793590 -0.000020 -0.026540 
#    y -0.000020 1.836530 0.000010 
#    z -0.026540 0.000010 1.818010 
# 
# From -- ./inp_files/324926.got.cif
#   From: 2010.05.17/outbox.cif.g08.bks.cpg/sg12_163_cif.got.tgz:324926.got - 2010.06.03 13:09:07.
