data_PCOD9171745
_publ_section_title
;
Structure prediction by ZEFSAII (Michael W. Deem and Ramdas Pophale) SiO2 
 PCOD9171745
Probable space group: C 2/M
;
_chemical_formula_sum "Si O2"
_cell_formula_units_Z 64
_cell_length_a 20.453535
_cell_length_b 7.394255
_cell_length_c 15.932531
_cell_angle_alpha 90.000000
_cell_angle_beta 108.878657
_cell_angle_gamma 90.000000
_cell_volume 2279.991620
_symmetry_space_group_name_H-M "C 2/M"
_symmetry_group_IT_number 12
_symmetry_cell_setting 'monoclinic'
loop_
_space_group_symop_operation_xyz
x,y,z
-x,y,-z
-x,-y,-z
x,-y,z
1/2+x,1/2+y,z
1/2-x,1/2+y,-z
1/2-x,1/2-y,-z
1/2+x,1/2-y,z
loop_
_atom_site_type_symbol
_atom_site_label
_atom_site_fract_x
_atom_site_fract_y
_atom_site_fract_z
Si Si1 0.916274 0.706860 0.286492
Si Si2 0.172380 0.280458 0.403576
Si Si3 0.957262 0.278623 0.561992
Si Si4 0.706827 0.218103 0.150964
Si Si5 0.046783 0.788369 0.946026
Si Si6 0.917202 0.282123 0.797663
Si Si7 0.298087 0.282892 0.354937
Si Si8 0.325605 0.707099 0.091476
O O1 0.923015 0.500000 0.261892
O O2 0.992092 0.774924 0.340700
O O3 0.871631 0.708645 0.355019
O O4 0.871087 0.798894 0.196531
O O5 0.176004 0.500000 0.407064
O O6 0.124670 0.231119 0.302962
O O7 0.249837 0.216119 0.412346
O O8 0.121758 0.218634 0.457657
O O9 0.956367 0.500000 0.560562
O O10 0.000000 0.214594 0.500000
O O11 0.630237 0.280505 0.142950
O O12 0.750506 0.259004 0.253387
O O13 0.752655 0.286792 0.092238
O O14 0.705128 0.000000 0.143782
O O15 0.994806 0.779107 0.845110
O O16 0.121082 0.707513 0.952641
O O17 0.057402 0.000000 0.968131
O O18 0.000000 0.705021 0.000000
O O19 0.918158 0.500000 0.797535
O O20 0.303792 0.500000 0.362386
O O21 0.314173 0.500000 0.064437
#
# Coordination Sequence:
#
# PCOD9171745 Si02
#       8
#     8   8   8   8   8   8   8   8
#     4  10  18  28  47  73  95 114 146 195 236 264
#     4   8  14  27  48  69  88 119 160 191 219 268
#     4   9  17  28  42  64  95 127 157 190 228 268
#     4   7  12  25  46  68  85 109 147 184 217 259
#     4  10  21  34  46  65  95 126 152 181 223 274
#     4   9  16  29  50  71  89 112 151 197 229 259
#     4   8  14  27  47  68  91 119 150 183 224 277
#     4   9  17  32  52  68  88 122 156 182 218 274
#
# _framework density 28.070278999999999
#
# number of rings (size 3 to 8) (size 9 to 14) (size 15 to 20)
#    0.000    3.250    0.000    3.375    0.000    1.750 
#    0.000    6.875    0.000    3.000    0.000    0.000 
#    0.000    0.000    0.000    0.000    0.000    0.000 
#
# Total GULP energy -178998.070049 kJ/mol
# GULP energy per Si atom -5593.689689 kJ/mol
# Density = 2.800639 g / cm^3
# Si number density = 28.070279 Si / 1000 Ang^3
#
#
#
# Elastic Constant Matrix: (Units=GPa)
#
#
# Indices 1 2 3 4 5 6 
#
# 1 260.7505 6.8046 38.7824 0.0000 -20.2279 0.0000
# 2 6.8046 108.0035 12.3109 0.0000 3.7705 0.0000
# 3 38.7824 12.3109 93.5551 0.0000 -20.9528 0.0000
# 4 0.0000 0.0000 0.0000 15.8625 0.0000 7.1543
# 5 -20.2279 3.7705 -20.9528 0.0000 68.5040 0.0000
# 6 0.0000 0.0000 0.0000 7.1543 0.0000 10.3580
#
#
#
# Elastic Compliance Matrix: (Units=1/GPa)
#
#
# Indices 1 2 3 4 5 6 
#
# 1 0.004124 -0.000112 -0.001525 0.000000 0.000757 0.000000
# 2 -0.000112 0.009462 -0.001420 0.000000 -0.000988 0.000000
# 3 -0.001525 -0.001420 0.012265 0.000000 0.003379 0.000000
# 4 0.000000 0.000000 0.000000 0.091566 0.000000 -0.063245
# 5 0.000757 -0.000988 0.003379 0.000000 0.015909 0.000000
# 6 0.000000 0.000000 0.000000 -0.063245 0.000000 0.140227
#
#
# Mechanical properties :
#
#
# Convention : Reuss Voigt Hill
#
# Bulk Modulus (GPa) = 50.66859 64.23388 57.45124
# Shear Modulus (GPa) = 17.46746 45.90565 31.68655
#
# Velocity S-wave (km/s) = 2.49725 4.04837 3.36345
# Velocity P-wave (km/s) = 5.13856 6.69219 5.96616
#
# Compressibility (1/GPa) = 0.01973609
#
# Stress axis : x y z
#
# Youngs Moduli (GPa) = 242.50731 105.68153 81.53483
#
# Poissons Ratio (x) = 0.01188 0.12434
# Poissons Ratio (y) = 0.02726 0.11577
# Poissons Ratio (z) = 0.36982 0.15006
#
# Static dielectric constant tensor:
#      x y z
#    x 2.176190 0.000000 -0.061830 
#    y 0.000000 2.024870 0.000000 
#    z -0.061830 0.000000 2.321010 
# 
# From -- ./inp_files/319161.got.cif
#   From: 2010.05.17/outbox.cif.g08.bks.cpg/sg12_160_cif.got.tgz:319161.got - 2010.06.03 13:09:07.
