data_PCOD9171344
_publ_section_title
;
Structure prediction by ZEFSAII (Michael W. Deem and Ramdas Pophale) SiO2 
 PCOD9171344
Probable space group: C 2/M
;
_chemical_formula_sum "Si O2"
_cell_formula_units_Z 48
_cell_length_a 15.036770
_cell_length_b 19.060592
_cell_length_c 16.476010
_cell_angle_alpha 90.000000
_cell_angle_beta 144.965735
_cell_angle_gamma 90.000000
_cell_volume 2710.846827
_symmetry_space_group_name_H-M "C 2/M"
_symmetry_group_IT_number 12
_symmetry_cell_setting 'monoclinic'
loop_
_space_group_symop_operation_xyz
x,y,z
-x,y,-z
-x,-y,-z
x,-y,z
1/2+x,1/2+y,z
1/2-x,1/2+y,-z
1/2-x,1/2-y,-z
1/2+x,1/2-y,z
loop_
_atom_site_type_symbol
_atom_site_label
_atom_site_fract_x
_atom_site_fract_y
_atom_site_fract_z
Si Si1 0.865587 0.708881 0.523647
Si Si2 0.081311 0.182206 0.887410
Si Si3 0.211557 0.740815 0.835818
Si Si4 0.812574 0.286055 0.738721
Si Si5 0.654846 0.417803 0.372565
Si Si6 0.346337 0.418315 0.437693
O O1 0.750000 0.750000 0.500000
O O2 0.828722 0.745563 0.410993
O O3 0.807997 0.629127 0.475908
O O4 0.040887 0.716854 0.681778
O O5 0.183874 0.202433 0.886176
O O6 0.964737 0.247296 0.818835
O O7 0.974950 0.117189 0.781794
O O8 0.189045 0.179442 0.047108
O O9 0.297114 0.773763 0.822669
O O10 0.787670 0.365761 0.691836
O O11 0.674003 0.500000 0.371863
O O12 0.614624 0.407653 0.438094
O O13 0.500000 0.403831 0.500000
O O14 0.304463 0.500000 0.395696
#
# Coordination Sequence:
#
# PCOD9171344 Si02
#       6
#     8   8   8   8   8   8
#     4  11  18  34  55  80 102 134 181 228 257 313
#     4  10  21  35  52  79 109 139 187 218 260 325
#     4  11  20  33  56  80 105 141 179 228 266 303
#     4  11  19  33  56  79 107 139 180 224 271 313
#     4  10  19  34  54  77 110 146 172 217 279 319
#     4  10  18  27  48  82 112 140 177 217 266 327
#
# _framework density 17.706644000000001
#
# number of rings (size 3 to 8) (size 9 to 14) (size 15 to 20)
#    0.000    1.500    5.000    3.000    0.000    0.000 
#    0.000    0.833    0.000   22.000    0.000    0.000 
#    0.000    0.000    0.000    0.000    0.000    0.000 
#
# Total GULP energy -133863.109348 kJ/mol
# GULP energy per Si atom -5577.629556 kJ/mol
# Density = 1.766634 g / cm^3
# Si number density = 17.706644 Si / 1000 Ang^3
#
#
#
# Elastic Constant Matrix: (Units=GPa)
#
#
# Indices 1 2 3 4 5 6 
#
# 1 59.4862 22.9557 16.8142 -0.0013 -11.8791 -0.0008
# 2 22.9557 105.7155 25.6313 -0.0004 -2.2487 -0.0004
# 3 16.8142 25.6313 98.9460 -0.0008 -7.0294 -0.0009
# 4 -0.0013 -0.0004 -0.0008 22.0865 -0.0007 -4.9078
# 5 -11.8791 -2.2487 -7.0294 -0.0007 25.4052 -0.0006
# 6 -0.0008 -0.0004 -0.0009 -4.9078 -0.0006 13.4411
#
#
#
# Elastic Compliance Matrix: (Units=1/GPa)
#
#
# Indices 1 2 3 4 5 6 
#
# 1 0.020567 -0.003823 -0.001882 0.000002 0.008758 0.000002
# 2 -0.003823 0.010805 -0.002253 0.000000 -0.001455 0.000000
# 3 -0.001882 -0.002253 0.011152 0.000001 0.002006 0.000001
# 4 0.000002 0.000000 0.000001 0.049274 0.000003 0.017992
# 5 0.008758 -0.001455 0.002006 0.000003 0.043883 0.000004
# 6 0.000002 0.000000 0.000001 0.017992 0.000004 0.080968
#
#
# Mechanical properties :
#
#
# Convention : Reuss Voigt Hill
#
# Bulk Modulus (GPa) = 37.58333 43.88337 40.73335
# Shear Modulus (GPa) = 20.70943 25.43631 23.07287
#
# Velocity S-wave (km/s) = 3.42363 3.79428 3.61371
# Velocity P-wave (km/s) = 6.07453 6.63572 6.36132
#
# Compressibility (1/GPa) = 0.02660754
#
# Stress axis : x y z
#
# Youngs Moduli (GPa) = 48.62159 92.55164 89.66651
#
# Poissons Ratio (x) = 0.35386 0.16879
# Poissons Ratio (y) = 0.18590 0.20198
# Poissons Ratio (z) = 0.09153 0.20848
#
# Static dielectric constant tensor:
#      x y z
#    x 1.635490 0.000000 -0.013360 
#    y 0.000000 1.597800 0.000000 
#    z -0.013360 0.000000 1.646470 
# 
# From -- ./inp_files/216489.got.cif
#   From: 2010.05.17/outbox.cif.g08.bks.cpg/sg12_109_cif.got.tgz:216489.got - 2010.06.03 13:09:07.
