data_PCOD9171503
_publ_section_title
;
Structure prediction by ZEFSAII (Michael W. Deem and Ramdas Pophale) SiO2 
 PCOD9171503
Probable space group: C 2/M
;
_chemical_formula_sum "Si O2"
_cell_formula_units_Z 48
_cell_length_a 25.000721
_cell_length_b 9.004905
_cell_length_c 14.417989
_cell_angle_alpha 90.000000
_cell_angle_beta 109.919761
_cell_angle_gamma 90.000000
_cell_volume 3051.708591
_symmetry_space_group_name_H-M "C 2/M"
_symmetry_group_IT_number 12
_symmetry_cell_setting 'monoclinic'
loop_
_space_group_symop_operation_xyz
x,y,z
-x,y,-z
-x,-y,-z
x,-y,z
1/2+x,1/2+y,z
1/2-x,1/2+y,-z
1/2-x,1/2-y,-z
1/2+x,1/2-y,z
loop_
_atom_site_type_symbol
_atom_site_label
_atom_site_fract_x
_atom_site_fract_y
_atom_site_fract_z
Si Si1 0.452492 0.677884 0.546630
Si Si2 0.286656 0.676416 0.657862
Si Si3 0.166627 0.676454 0.502284
Si Si4 0.552372 0.171579 0.957129
Si Si5 0.873847 0.678435 0.833149
Si Si6 0.025213 0.176210 0.226466
O O1 0.500000 0.720358 0.500000
O O2 0.443265 0.500000 0.534449
O O3 0.392849 0.760387 0.497601
O O4 0.473423 0.709444 0.663699
O O5 0.296595 0.500000 0.667077
O O6 0.219675 0.703364 0.602551
O O7 0.317266 0.742614 0.584484
O O8 0.314959 0.754335 0.762765
O O9 0.163080 0.500000 0.483402
O O10 0.531589 0.269090 0.859171
O O11 0.559350 0.000000 0.932722
O O12 0.500000 0.175326 0.000000
O O13 0.606083 0.219634 0.050952
O O14 0.873902 0.500000 0.827575
O O15 0.922105 0.741609 0.792162
O O16 0.032159 0.000000 0.217814
#
# Coordination Sequence:
#
# PCOD9171503 Si02
#       6
#     8   8   8   8   8   8
#     4  10  21  35  49  67  94 127 161 196 233 273
#     4  10  19  30  46  69  96 124 153 189 234 281
#     4  10  20  32  47  68  93 123 158 193 232 278
#     4   8  16  28  41  61  91 122 150 184 229 280
#     4  10  18  28  44  67  94 124 153 184 230 282
#     4  10  18  28  44  65  90 122 157 192 230 273
#
# _framework density 15.728894
#
# number of rings (size 3 to 8) (size 9 to 14) (size 15 to 20)
#    0.000    2.333    1.667    3.000    0.000    6.667 
#    0.000    0.000    0.000    0.000    0.000    1.167 
#    0.000    0.000    0.000    0.000    0.000    0.000 
#
# Total GULP energy -133782.635331 kJ/mol
# GULP energy per Si atom -5574.276472 kJ/mol
# Density = 1.569309 g / cm^3
# Si number density = 15.728894 Si / 1000 Ang^3
#
#
#
# Elastic Constant Matrix: (Units=GPa)
#
#
# Indices 1 2 3 4 5 6 
#
# 1 81.5856 42.3427 51.6925 0.0000 14.5455 0.0000
# 2 42.3427 61.2302 55.9246 0.0000 15.1547 0.0000
# 3 51.6925 55.9246 105.8628 0.0000 31.7226 0.0000
# 4 0.0000 0.0000 0.0000 19.0095 0.0000 16.7162
# 5 14.5455 15.1547 31.7226 0.0000 25.6125 0.0000
# 6 0.0000 0.0000 0.0000 16.7162 0.0000 11.9232
#
#
#
# Elastic Compliance Matrix: (Units=1/GPa)
#
#
# Indices 1 2 3 4 5 6 
#
# 1 0.020322 -0.009631 -0.004905 0.000000 0.000233 0.000000
# 2 -0.009631 0.036283 -0.015378 0.000000 0.003048 0.000000
# 3 -0.004905 -0.015378 0.026085 0.000000 -0.020423 0.000000
# 4 0.000000 0.000000 0.000000 -0.225922 0.000000 0.316740
# 5 0.000233 0.003048 -0.020423 0.000000 0.062404 0.000000
# 6 0.000000 0.000000 0.000000 0.316740 0.000000 -0.360195
#
#
# Mechanical properties :
#
#
# Convention : Reuss Voigt Hill
#
# Bulk Modulus (GPa) = 43.74023 60.95534 52.34778
# Shear Modulus (GPa) = -13.38417 17.89029 2.25306
#
# Velocity S-wave (km/s) = -2.92023 3.37622 1.19814
# Velocity P-wave (km/s) = 4.06188 7.35094 5.93865
#
# Compressibility (1/GPa) = 0.02286225
#
# Stress axis : x y z
#
# Youngs Moduli (GPa) = 49.20834 27.56130 38.33594
#
# Poissons Ratio (x) = 0.26543 0.18805
# Poissons Ratio (y) = 0.47390 0.58952
# Poissons Ratio (z) = 0.24138 0.42383
#
# Static dielectric constant tensor:
#      x y z
#    x 1.505140 0.000000 0.038790 
#    y 0.000000 1.525470 0.000000 
#    z 0.038790 0.000000 1.549600 
# 
# From -- ./inp_files/236592.got.cif
#   From: 2010.05.17/outbox.cif.g08.bks.cpg/sg12_119_cif.got.tgz:236592.got - 2010.06.03 13:09:07.
