data_PCOD9171139
_publ_section_title
;
Structure prediction by ZEFSAII (Michael W. Deem and Ramdas Pophale) SiO2 
 PCOD9171139
Probable space group: C 2/M
;
_chemical_formula_sum "Si O2"
_cell_formula_units_Z 64
_cell_length_a 25.807502
_cell_length_b 7.314328
_cell_length_c 20.109731
_cell_angle_alpha 90.000000
_cell_angle_beta 48.492932
_cell_angle_gamma 90.000000
_cell_volume 2842.728610
_symmetry_space_group_name_H-M "C 2/M"
_symmetry_group_IT_number 12
_symmetry_cell_setting 'monoclinic'
loop_
_space_group_symop_operation_xyz
x,y,z
-x,y,-z
-x,-y,-z
x,-y,z
1/2+x,1/2+y,z
1/2-x,1/2+y,-z
1/2-x,1/2-y,-z
1/2+x,1/2-y,z
loop_
_atom_site_type_symbol
_atom_site_label
_atom_site_fract_x
_atom_site_fract_y
_atom_site_fract_z
Si Si1 0.294891 0.719606 0.729304
Si Si2 0.467396 0.721856 0.354590
Si Si3 0.673614 0.716686 0.039564
Si Si4 0.920435 0.222750 0.991202
Si Si5 0.953830 0.222643 0.213847
Si Si6 0.362845 0.715269 0.176261
Si Si7 0.621708 0.277785 0.219746
Si Si8 0.926238 0.223150 0.530245
O O1 0.297298 0.500000 0.728277
O O2 0.217853 0.766323 0.772117
O O3 0.317114 0.784404 0.784108
O O4 0.357995 0.781437 0.628368
O O5 0.464109 0.500000 0.355136
O O6 0.454481 0.785478 0.289955
O O7 0.545818 0.770808 0.308514
O O8 0.422285 0.779231 0.456157
O O9 0.663533 0.500000 0.044833
O O10 0.627640 0.787119 0.139350
O O11 0.750000 0.750000 0.000000
O O12 0.648794 0.782739 0.989567
O O13 0.910388 0.287875 0.075112
O O14 0.924758 0.000000 0.991595
O O15 0.982473 0.276849 0.888990
O O16 0.886966 0.281321 0.227974
O O17 0.957816 0.000000 0.215044
O O18 0.377406 0.500000 0.165572
O O19 0.624809 0.500000 0.215549
O O20 0.000000 0.279227 0.500000
O O21 0.926955 0.000000 0.531898
#
# Coordination Sequence:
#
# PCOD9171139 Si02
#       8
#     8   8   8   8   8   8   8   8
#     4  10  19  31  48  71  98 124 150 188 238 284
#     4   9  14  24  44  71  94 111 146 199 240 265
#     4  10  18  27  41  64  93 122 149 181 227 277
#     4   9  16  28  46  67  91 121 159 197 228 262
#     4   9  16  28  47  69  92 120 159 202 233 260
#     4  10  20  32  47  69  96 126 159 193 228 271
#     4   9  15  25  43  67  93 117 144 186 235 275
#     4   9  15  25  45  72  96 117 149 194 237 276
#
# _framework density 22.513580000000001
#
# number of rings (size 3 to 8) (size 9 to 14) (size 15 to 20)
#    0.000    2.625    2.500    1.125    0.000    1.500 
#    0.000    0.625    0.000    2.625    0.000    0.000 
#    0.000    0.000    0.000    0.000    0.000    0.000 
#
# Total GULP energy -178522.832407 kJ/mol
# GULP energy per Si atom -5578.838513 kJ/mol
# Density = 2.246234 g / cm^3
# Si number density = 22.513580 Si / 1000 Ang^3
#
#
#
# Elastic Constant Matrix: (Units=GPa)
#
#
# Indices 1 2 3 4 5 6 
#
# 1 160.1123 -1.3454 44.9003 0.0023 24.1524 -0.0009
# 2 -1.3454 86.8596 -1.4519 0.0193 5.2115 0.0054
# 3 44.9003 -1.4519 86.3285 -0.0104 22.2198 -0.0044
# 4 0.0023 0.0193 -0.0104 -34.4975 -0.0128 -25.0785
# 5 24.1524 5.2115 22.2198 -0.0128 32.8418 -0.0038
# 6 -0.0009 0.0054 -0.0044 -25.0785 -0.0038 -3.4118
#
#
#
# Elastic Compliance Matrix: (Units=1/GPa)
#
#
# Indices 1 2 3 4 5 6 
#
# 1 0.007646 0.000284 -0.003043 0.000000 -0.003609 0.000003
# 2 0.000284 0.011681 0.000702 0.000002 -0.002537 0.000008
# 3 -0.003043 0.000702 0.015294 -0.000001 -0.008221 0.000000
# 4 0.000000 0.000002 -0.000001 0.006674 -0.000003 -0.049055
# 5 -0.003609 -0.002537 -0.008221 -0.000003 0.039068 -0.000015
# 6 0.000003 0.000008 0.000000 -0.049055 -0.000015 0.067479
#
#
# Mechanical properties :
#
#
# Convention : Reuss Voigt Hill
#
# Bulk Modulus (GPa) = 32.77930 46.38960 39.58445
# Shear Modulus (GPa) = 30.84034 18.39965 24.62000
#
# Velocity S-wave (km/s) = 3.70517 2.86189 3.31049
# Velocity P-wave (km/s) = 5.73548 5.61876 5.67742
#
# Compressibility (1/GPa) = 0.03050706
#
# Stress axis : x y z
#
# Youngs Moduli (GPa) = 130.79148 85.60762 65.38459
#
# Poissons Ratio (x) = -0.02432 0.19896
# Poissons Ratio (y) = -0.03716 -0.04589
# Poissons Ratio (z) = 0.39799 -0.06008
#
# Static dielectric constant tensor:
#      x y z
#    x 1.838420 -0.000040 0.002590 
#    y -0.000040 1.882430 -0.000010 
#    z 0.002590 -0.000010 1.845740 
# 
# From -- ./inp_files/320972.got.cif
#   From: 2010.05.17/outbox.cif.g08.bks.cpg/sg12_161_cif.got.tgz:320972.got - 2010.06.03 13:09:07.
