data_PCOD9171226
_publ_section_title
;
Structure prediction by ZEFSAII (Michael W. Deem and Ramdas Pophale) SiO2 
 PCOD9171226
Probable space group: C 2/M
;
_chemical_formula_sum "Si O2"
_cell_formula_units_Z 64
_cell_length_a 29.121290
_cell_length_b 7.631677
_cell_length_c 21.585604
_cell_angle_alpha 90.000000
_cell_angle_beta 134.850753
_cell_angle_gamma 90.000000
_cell_volume 3401.011723
_symmetry_space_group_name_H-M "C 2/M"
_symmetry_group_IT_number 12
_symmetry_cell_setting 'monoclinic'
loop_
_space_group_symop_operation_xyz
x,y,z
-x,y,-z
-x,-y,-z
x,-y,z
1/2+x,1/2+y,z
1/2-x,1/2+y,-z
1/2-x,1/2-y,-z
1/2+x,1/2-y,z
loop_
_atom_site_type_symbol
_atom_site_label
_atom_site_fract_x
_atom_site_fract_y
_atom_site_fract_z
Si Si1 0.855537 0.787285 0.016575
Si Si2 0.940189 0.796108 0.902650
Si Si3 0.323146 0.293302 0.249773
Si Si4 0.474664 0.785515 0.277301
Si Si5 0.310228 0.288616 0.838430
Si Si6 0.823650 0.797070 0.116068
Si Si7 0.006641 0.295395 0.176979
Si Si8 0.970325 0.704871 0.409288
O O1 0.815067 0.723865 0.038205
O O2 0.929813 0.727844 0.092321
O O3 0.855375 0.000000 0.017812
O O4 0.829918 0.728219 0.926160
O O5 0.868899 0.724947 0.850854
O O6 0.957112 0.787966 0.846511
O O7 0.937071 0.000000 0.918869
O O8 0.000000 0.718719 0.000000
O O9 0.333601 0.500000 0.251086
O O10 0.263845 0.268293 0.240120
O O11 0.303066 0.216716 0.162533
O O12 0.392213 0.217509 0.335169
O O13 0.402147 0.715013 0.197583
O O14 0.516162 0.731399 0.256759
O O15 0.493529 0.726346 0.364248
O O16 0.470751 0.000000 0.272815
O O17 0.308591 0.500000 0.835568
O O18 0.804871 0.000000 0.096603
O O19 0.022575 0.500000 0.190403
O O20 0.988325 0.500000 0.425838
O O21 0.000000 0.783991 0.500000
#
# Coordination Sequence:
#
# PCOD9171226 Si02
#       8
#     8   8   8   8   8   8   8   8
#     4   9  16  29  45  60  83 121 164 197 226 263
#     4  10  19  33  48  63  85 121 168 208 238 269
#     4  10  20  32  45  67  98 124 148 187 235 279
#     4   8  15  27  43  68  97 119 145 184 228 272
#     4  10  20  32  46  62  85 122 164 200 232 269
#     4   8  15  27  43  61  85 120 157 187 220 267
#     4  10  18  27  43  67  94 121 151 195 243 276
#     4   9  17  32  55  77  96 122 154 183 217 274
#
# _framework density 18.81793
#
# number of rings (size 3 to 8) (size 9 to 14) (size 15 to 20)
#    0.000    2.750    1.250    0.750    0.000    3.000 
#    0.000    0.000    0.000    0.000    0.000    0.875 
#    0.000    0.000    0.000    0.000    0.000    0.000 
#
# Total GULP energy -178287.885353 kJ/mol
# GULP energy per Si atom -5571.496417 kJ/mol
# Density = 1.877510 g / cm^3
# Si number density = 18.817930 Si / 1000 Ang^3
#
#
#
# Elastic Constant Matrix: (Units=GPa)
#
#
# Indices 1 2 3 4 5 6 
#
# 1 129.2841 -7.7390 35.2098 0.0000 -8.9340 0.0000
# 2 -7.7390 43.6863 -1.0871 0.0001 -2.9187 -0.0005
# 3 35.2098 -1.0871 75.2310 0.0000 -20.1576 0.0000
# 4 0.0000 0.0001 0.0000 1.6262 0.0000 6.4175
# 5 -8.9340 -2.9187 -20.1576 0.0000 19.3798 0.0000
# 6 0.0000 -0.0005 0.0000 6.4175 0.0000 10.5093
#
#
#
# Elastic Compliance Matrix: (Units=1/GPa)
#
#
# Indices 1 2 3 4 5 6 
#
# 1 0.008960 0.001485 -0.004167 0.000001 0.000020 0.000000
# 2 0.001485 0.023538 0.001079 0.000005 0.005352 -0.000002
# 3 -0.004167 0.001079 0.020500 0.000000 0.019565 0.000000
# 4 0.000001 0.000005 0.000000 -0.436187 0.000001 0.266357
# 5 0.000020 0.005352 0.019565 0.000001 0.072765 -0.000001
# 6 0.000000 -0.000002 0.000000 0.266357 -0.000001 -0.067496
#
#
# Mechanical properties :
#
#
# Convention : Reuss Voigt Hill
#
# Bulk Modulus (GPa) = 20.08304 33.44097 26.76200
# Shear Modulus (GPa) = -13.96190 21.09092 3.56451
#
# Velocity S-wave (km/s) = -2.72682 3.35145 1.37780
# Velocity P-wave (km/s) = 0.88395 5.72588 4.09677
#
# Compressibility (1/GPa) = 0.04979327
#
# Stress axis : x y z
#
# Youngs Moduli (GPa) = 111.60798 42.48456 48.77996
#
# Poissons Ratio (x) = -0.06309 0.20324
# Poissons Ratio (y) = -0.16573 -0.05264
# Poissons Ratio (z) = 0.46502 -0.04585
#
# Static dielectric constant tensor:
#      x y z
#    x 1.703380 0.000000 -0.031100 
#    y 0.000000 1.693940 0.000000 
#    z -0.031100 0.000000 1.673800 
# 
# From -- ./inp_files/326910.got.cif
#   From: 2010.05.17/outbox.cif.g08.bks.cpg/sg12_164_cif.got.tgz:326910.got - 2010.06.03 13:09:07.
