data_PCOD9171109
_publ_section_title
;
Structure prediction by ZEFSAII (Michael W. Deem and Ramdas Pophale) SiO2 
 PCOD9171109
Probable space group: C 2/M
;
_chemical_formula_sum "Si O2"
_cell_formula_units_Z 44
_cell_length_a 17.262864
_cell_length_b 25.325453
_cell_length_c 15.908157
_cell_angle_alpha 90.000000
_cell_angle_beta 26.807952
_cell_angle_gamma 90.000000
_cell_volume 3136.662894
_symmetry_space_group_name_H-M "C 2/M"
_symmetry_group_IT_number 12
_symmetry_cell_setting 'monoclinic'
loop_
_space_group_symop_operation_xyz
x,y,z
-x,y,-z
-x,-y,-z
x,-y,z
1/2+x,1/2+y,z
1/2-x,1/2+y,-z
1/2-x,1/2-y,-z
1/2+x,1/2-y,z
loop_
_atom_site_type_symbol
_atom_site_label
_atom_site_fract_x
_atom_site_fract_y
_atom_site_fract_z
Si Si1 0.337384 0.252600 0.706646
Si Si2 0.613930 0.724223 0.068563
Si Si3 0.500000 0.103394 0.000000
Si Si4 0.853829 0.311682 0.259398
Si Si5 0.004134 0.841730 0.321787
Si Si6 0.137895 0.060585 0.291634
O O1 0.500000 0.227799 0.500000
O O2 0.226774 0.282361 0.743515
O O3 0.412426 0.297803 0.696116
O O4 0.214731 0.216681 0.883085
O O5 0.465934 0.767785 0.197759
O O6 0.543505 0.674320 0.187933
O O7 0.750000 0.750000 0.000000
O O8 0.466405 0.141194 0.112502
O O9 0.326831 0.071828 0.146545
O O10 0.698384 0.335882 0.463691
O O11 0.084574 0.896983 0.272911
O O12 0.000000 0.068523 0.500000
O O13 0.127812 0.000000 0.272834
#
# Coordination Sequence:
#
# PCOD9171109 Si02
#       6
#     8   8   4   8   8   8
#     4   9  16  27  44  61  87 117 149 181 221 275
#     4  10  18  27  40  65  89 120 152 181 228 281
#     4  12  17  30  48  66  90 118 159 190 226 258
#     4  11  17  28  46  64  89 123 152 182 226 281
#     4  10  18  31  43  63  93 119 151 195 232 261
#     4  11  21  33  47  65  88 123 166 196 222 263
#
# _framework density 14.027647
#
# number of rings (size 3 to 8) (size 9 to 14) (size 15 to 20)
#    0.000    1.636    5.455    2.455    0.000    0.000 
#    0.000    0.000    0.000    0.000    0.000    0.000 
#    0.000    3.636    0.000    0.000    0.000   10.545 
#
# Total GULP energy -122559.913600 kJ/mol
# GULP energy per Si atom -5570.905164 kJ/mol
# Density = 1.399572 g / cm^3
# Si number density = 14.027647 Si / 1000 Ang^3
#
#
#
# Elastic Constant Matrix: (Units=GPa)
#
#
# Indices 1 2 3 4 5 6 
#
# 1 33.6849 22.4727 34.2903 0.0210 1.5130 -0.0110
# 2 22.4727 72.7898 44.4594 0.0136 9.2590 -0.0126
# 3 34.2903 44.4594 112.3615 0.0569 4.1128 -0.0419
# 4 0.0210 0.0136 0.0569 6.2780 -0.0224 2.4551
# 5 1.5130 9.2590 4.1128 -0.0224 27.6494 0.0086
# 6 -0.0110 -0.0126 -0.0419 2.4551 0.0086 19.1724
#
#
#
# Elastic Compliance Matrix: (Units=1/GPa)
#
#
# Indices 1 2 3 4 5 6 
#
# 1 0.045982 -0.007652 -0.011067 -0.000031 0.001692 0.000000
# 2 -0.007652 0.020113 -0.005421 0.000012 -0.005510 -0.000002
# 3 -0.011067 -0.005421 0.014412 -0.000094 0.000277 0.000033
# 4 -0.000031 0.000012 -0.000094 0.167684 0.000154 -0.021473
# 5 0.001692 -0.005510 0.000277 0.000154 0.037879 -0.000039
# 6 0.000000 -0.000002 0.000033 -0.021473 -0.000039 0.054908
#
#
# Mechanical properties :
#
#
# Convention : Reuss Voigt Hill
#
# Bulk Modulus (GPa) = 31.03034 46.80901 38.91967
# Shear Modulus (GPa) = 12.50000 18.46087 15.48044
#
# Velocity S-wave (km/s) = 2.98836 3.63165 3.32560
# Velocity P-wave (km/s) = 5.83746 7.14330 6.52314
#
# Compressibility (1/GPa) = 0.03222653
#
# Stress axis : x y z
#
# Youngs Moduli (GPa) = 21.74785 49.71950 69.38527
#
# Poissons Ratio (x) = 0.38044 0.76788
# Poissons Ratio (y) = 0.16641 0.37617
# Poissons Ratio (z) = 0.24068 0.26955
#
# Static dielectric constant tensor:
#      x y z
#    x 1.451150 0.000000 0.001430 
#    y 0.000000 1.454090 0.000000 
#    z 0.001430 0.000000 1.534370 
# 
# From -- ./inp_files/218194.got.cif
#   From: 2010.05.17/outbox.cif.g08.bks.cpg/sg12_110_cif.got.tgz:218194.got - 2010.06.03 13:09:07.
