data_PCOD9171647
_publ_section_title
;
Structure prediction by ZEFSAII (Michael W. Deem and Ramdas Pophale) SiO2 
 PCOD9171647
Probable space group: C 2/M
;
_chemical_formula_sum "Si O2"
_cell_formula_units_Z 64
_cell_length_a 8.707072
_cell_length_b 29.740491
_cell_length_c 16.740998
_cell_angle_alpha 90.000000
_cell_angle_beta 114.348472
_cell_angle_gamma 90.000000
_cell_volume 3949.536396
_symmetry_space_group_name_H-M "C 2/M"
_symmetry_group_IT_number 12
_symmetry_cell_setting 'monoclinic'
loop_
_space_group_symop_operation_xyz
x,y,z
-x,y,-z
-x,-y,-z
x,-y,z
1/2+x,1/2+y,z
1/2-x,1/2+y,-z
1/2-x,1/2-y,-z
1/2+x,1/2-y,z
loop_
_atom_site_type_symbol
_atom_site_label
_atom_site_fract_x
_atom_site_fract_y
_atom_site_fract_z
Si Si1 0.718652 0.863391 0.207804
Si Si2 0.259908 0.284853 0.320089
Si Si3 0.287236 0.049829 0.865755
Si Si4 0.698024 0.948493 0.946167
Si Si5 0.875481 0.774322 0.854886
Si Si6 0.669141 0.853203 0.876353
Si Si7 0.258092 0.194951 0.941638
Si Si8 0.577703 0.224749 0.438002
O O1 0.814768 0.829490 0.285166
O O2 0.780325 0.913632 0.210029
O O3 0.522928 0.860777 0.190535
O O4 0.722058 0.843735 0.119374
O O5 0.160787 0.253234 0.234563
O O6 0.427261 0.258907 0.383181
O O7 0.138614 0.297333 0.368191
O O8 0.492572 0.052296 0.905484
O O9 0.234766 0.000000 0.832839
O O10 0.243249 0.057193 0.949423
O O11 0.746849 0.903127 0.908410
O O12 0.745120 0.000000 0.930467
O O13 0.760782 0.818731 0.837024
O O14 0.837980 0.739143 0.918149
O O15 0.063384 0.791909 0.905207
O O16 0.673089 0.825369 0.961247
O O17 0.500000 0.200102 0.500000
O O18 0.750000 0.250000 0.500000
#
# Coordination Sequence:
#
# PCOD9171647 Si02
#       8
#     8   8   8   8   8   8   8   8
#     4  10  18  28  46  65  88 118 145 193 232 252
#     4  10  18  31  43  65  92 111 140 172 218 264
#     4   8  13  24  41  63  84 111 152 195 232 257
#     4   8  14  25  42  59  79 110 158 209 232 248
#     4  11  22  31  43  59  87 122 146 186 229 257
#     4  11  19  29  42  60  84 118 165 195 221 256
#     4  11  21  32  39  56  84 121 164 191 219 253
#     4   9  18  32  51  66  83 111 137 164 201 261
#
# _framework density 16.204433000000002
#
# number of rings (size 3 to 8) (size 9 to 14) (size 15 to 20)
#    0.000    2.250    1.250    5.625    0.000    2.000 
#    0.000    0.000    0.000    2.250    0.000    0.000 
#    0.000    5.000    0.000    6.750    0.000   10.625 
#
# Total GULP energy -178207.060973 kJ/mol
# GULP energy per Si atom -5568.970655 kJ/mol
# Density = 1.616755 g / cm^3
# Si number density = 16.204433 Si / 1000 Ang^3
#
#
#
# Elastic Constant Matrix: (Units=GPa)
#
#
# Indices 1 2 3 4 5 6 
#
# 1 25.4732 -3.1755 -4.2492 0.0000 -1.1966 0.0000
# 2 -3.1755 100.7451 11.0334 0.0000 -6.3628 0.0000
# 3 -4.2492 11.0334 45.0864 0.0000 -5.7248 0.0000
# 4 0.0000 0.0000 0.0000 7.9723 0.0000 0.4075
# 5 -1.1966 -6.3628 -5.7248 0.0000 22.8714 0.0000
# 6 0.0000 0.0000 0.0000 0.4075 0.0000 9.1572
#
#
#
# Elastic Compliance Matrix: (Units=1/GPa)
#
#
# Indices 1 2 3 4 5 6 
#
# 1 0.040208 0.001047 0.003963 0.000000 0.003387 0.000000
# 2 0.001047 0.010344 -0.002128 0.000000 0.002400 0.000000
# 3 0.003963 -0.002128 0.023781 0.000000 0.005568 0.000000
# 4 0.000000 0.000000 0.000000 0.125721 0.000000 -0.005595
# 5 0.003387 0.002400 0.005568 0.000000 0.045961 0.000000
# 6 0.000000 0.000000 0.000000 -0.005595 0.000000 0.109453
#
#
# Mechanical properties :
#
#
# Convention : Reuss Voigt Hill
#
# Bulk Modulus (GPa) = 12.48482 19.83579 16.16030
# Shear Modulus (GPa) = 13.28371 19.17991 16.23181
#
# Velocity S-wave (km/s) = 2.86625 3.44411 3.16838
# Velocity P-wave (km/s) = 4.32147 5.29938 4.83521
#
# Compressibility (1/GPa) = 0.08009728
#
# Stress axis : x y z
#
# Youngs Moduli (GPa) = 24.87089 96.67770 42.05061
#
# Poissons Ratio (x) = -0.10124 -0.16665
# Poissons Ratio (y) = -0.02605 0.08948
# Poissons Ratio (z) = -0.09857 0.20572
#
# Static dielectric constant tensor:
#      x y z
#    x 1.596010 0.000000 -0.020030 
#    y 0.000000 1.560310 0.000000 
#    z -0.020030 0.000000 1.561020 
# 
# From -- ./inp_files/259967.got.cif
#   From: 2010.05.17/outbox.cif.g08.bks.cpg/sg12_130_cif.got.tgz:259967.got - 2010.06.03 13:09:07.
