data_PCOD9171634
_publ_section_title
;
Structure prediction by ZEFSAII (Michael W. Deem and Ramdas Pophale) SiO2 
 PCOD9171634
Probable space group: C 2/M
;
_chemical_formula_sum "Si O2"
_cell_formula_units_Z 50
_cell_length_a 17.013509
_cell_length_b 13.012079
_cell_length_c 13.908261
_cell_angle_alpha 90.000000
_cell_angle_beta 42.746821
_cell_angle_gamma 90.000000
_cell_volume 2089.919992
_symmetry_space_group_name_H-M "C 2/M"
_symmetry_group_IT_number 12
_symmetry_cell_setting 'monoclinic'
loop_
_space_group_symop_operation_xyz
x,y,z
-x,y,-z
-x,-y,-z
x,-y,z
1/2+x,1/2+y,z
1/2-x,1/2+y,-z
1/2-x,1/2-y,-z
1/2+x,1/2-y,z
loop_
_atom_site_type_symbol
_atom_site_label
_atom_site_fract_x
_atom_site_fract_y
_atom_site_fract_z
Si Si1 0.000000 0.000000 0.500000
Si Si2 0.368448 0.000000 0.004204
Si Si3 0.201641 0.187661 0.155227
Si Si4 0.744815 0.118642 0.383507
Si Si5 0.827443 0.164096 0.588561
Si Si6 0.673515 0.384973 0.911139
Si Si7 0.635684 0.000000 0.757410
Si Si8 0.006905 0.879467 0.780077
O O1 0.063237 0.088750 0.510866
O O2 0.293773 0.900197 0.044126
O O3 0.370387 0.000000 0.120071
O O4 0.501043 0.000000 0.847939
O O5 0.187251 0.172071 0.282383
O O6 0.252413 0.300317 0.101585
O O7 0.081416 0.178398 0.208532
O O8 0.664199 0.219395 0.457960
O O9 0.797065 0.118997 0.227777
O O10 0.857518 0.141905 0.347003
O O11 0.703859 0.000000 0.438118
O O12 0.712100 0.100134 0.659555
O O13 0.703412 0.500000 0.915130
O O14 0.543668 0.364553 0.066024
O O15 0.993151 0.000000 0.773459
#
# Coordination Sequence:
#
# PCOD9171634 Si02
#       8
#     2   4   8   8   8   8   4   8
#     4  10  20  38  62  78  96 116 168 224 280 320
#     4   9  16  26  42  68  99 133 169 207 239 289
#     4  10  18  30  48  72 104 136 179 207 252 292
#     4   9  18  32  50  72 103 137 173 205 243 293
#     4   9  19  34  54  77  95 129 168 220 267 311
#     4   9  18  30  43  66 103 146 179 204 231 281
#     4   8  16  28  44  68  98 130 166 203 252 297
#     4  10  18  28  45  72 105 145 177 203 231 293
#
# _framework density 23.92436
#
# number of rings (size 3 to 8) (size 9 to 14) (size 15 to 20)
#    0.000    2.720    0.800    1.440    2.240    1.920 
#    0.000    0.400    1.760    0.960    0.000    0.000 
#    0.000    0.000    0.000    0.000    0.000    0.000 
#
# Total GULP energy -139325.074712 kJ/mol
# GULP energy per Si atom -5573.002988 kJ/mol
# Density = 2.386991 g / cm^3
# Si number density = 23.924360 Si / 1000 Ang^3
#
#
#
# Elastic Constant Matrix: (Units=GPa)
#
#
# Indices 1 2 3 4 5 6 
#
# 1 93.5742 76.3075 17.3865 0.0000 -23.7028 0.0000
# 2 76.3075 162.4087 42.5676 0.0000 -28.7313 0.0000
# 3 17.3865 42.5676 74.6902 0.0000 -0.7019 0.0000
# 4 0.0000 0.0000 0.0000 19.8906 0.0000 -0.0307
# 5 -23.7028 -28.7313 -0.7019 0.0000 34.0499 0.0000
# 6 0.0000 0.0000 0.0000 -0.0307 0.0000 31.1306
#
#
#
# Elastic Compliance Matrix: (Units=1/GPa)
#
#
# Indices 1 2 3 4 5 6 
#
# 1 0.018475 -0.007548 0.000062 0.000000 0.006493 0.000000
# 2 -0.007548 0.011812 -0.004932 0.000000 0.004611 0.000000
# 3 0.000062 -0.004932 0.016149 0.000000 -0.003785 0.000000
# 4 0.000000 0.000000 0.000000 0.050275 0.000000 0.000050
# 5 0.006493 0.004611 -0.003785 0.000000 0.037701 0.000000
# 6 0.000000 0.000000 0.000000 0.000050 0.000000 0.032123
#
#
# Mechanical properties :
#
#
# Convention : Reuss Voigt Hill
#
# Bulk Modulus (GPa) = 46.29319 67.02180 56.65750
# Shear Modulus (GPa) = 25.17988 29.97499 27.57744
#
# Velocity S-wave (km/s) = 3.24771 3.54348 3.39882
# Velocity P-wave (km/s) = 5.78406 6.69452 6.25587
#
# Compressibility (1/GPa) = 0.02160145
#
# Stress axis : x y z
#
# Youngs Moduli (GPa) = 54.12640 84.65889 61.92261
#
# Poissons Ratio (x) = 0.63902 -0.00385
# Poissons Ratio (y) = 0.40856 0.30538
# Poissons Ratio (z) = -0.00337 0.41750
#
# Static dielectric constant tensor:
#      x y z
#    x 1.963880 0.000000 0.104330 
#    y 0.000000 1.878050 0.000000 
#    z 0.104330 0.000000 2.051500 
# 
# From -- ./inp_files/277594.got.cif
#   From: 2010.05.17/outbox.cif.g08.bks.cpg/sg12_139_cif.got.tgz:277594.got - 2010.06.03 13:09:07.
