data_PCOD9171697
_publ_section_title
;
Structure prediction by ZEFSAII (Michael W. Deem and Ramdas Pophale) SiO2 
 PCOD9171697
Probable space group: C 2/M
;
_chemical_formula_sum "Si O2"
_cell_formula_units_Z 64
_cell_length_a 20.687063
_cell_length_b 8.639505
_cell_length_c 21.070138
_cell_angle_alpha 90.000000
_cell_angle_beta 96.145675
_cell_angle_gamma 90.000000
_cell_volume 3744.138894
_symmetry_space_group_name_H-M "C 2/M"
_symmetry_group_IT_number 12
_symmetry_cell_setting 'monoclinic'
loop_
_space_group_symop_operation_xyz
x,y,z
-x,y,-z
-x,-y,-z
x,-y,z
1/2+x,1/2+y,z
1/2-x,1/2+y,-z
1/2-x,1/2-y,-z
1/2+x,1/2-y,z
loop_
_atom_site_type_symbol
_atom_site_label
_atom_site_fract_x
_atom_site_fract_y
_atom_site_fract_z
Si Si1 0.241775 0.313705 0.322469
Si Si2 0.090722 0.314653 0.333126
Si Si3 0.060761 0.813292 0.465252
Si Si4 0.804555 0.187073 0.458748
Si Si5 0.943325 0.687839 0.947399
Si Si6 0.275800 0.317239 0.811141
Si Si7 0.707776 0.814638 0.053297
Si Si8 0.580023 0.813165 0.193619
O O1 0.242651 0.500000 0.316555
O O2 0.167317 0.271066 0.334012
O O3 0.287852 0.265304 0.385169
O O4 0.258958 0.243025 0.256088
O O5 0.088533 0.500000 0.339843
O O6 0.061501 0.240476 0.392719
O O7 0.056986 0.273621 0.262173
O O8 0.126475 0.760663 0.507007
O O9 0.000000 0.758186 0.500000
O O10 0.060440 0.000000 0.465320
O O11 0.750000 0.250000 0.500000
O O12 0.802594 0.000000 0.459662
O O13 0.942771 0.500000 0.951724
O O14 0.868790 0.737228 0.955271
O O15 0.957802 0.725890 0.874911
O O16 0.000000 0.745239 0.000000
O O17 0.269117 0.500000 0.815810
O O18 0.260632 0.239438 0.876886
O O19 0.350615 0.268304 0.807187
O O20 0.707191 0.000000 0.051219
O O21 0.750000 0.750000 0.000000
O O22 0.590779 0.000000 0.194197
#
# Coordination Sequence:
#
# PCOD9171697 Si02
#       8
#     8   8   8   8   8   8   8   8
#     4   9  17  30  48  71  97 124 156 202 250 288
#     4   9  16  28  47  70  94 123 159 199 240 284
#     4  10  21  34  48  69  97 129 160 195 240 294
#     4  10  19  32  51  73  97 125 160 201 244 288
#     4   8  14  27  50  76  97 125 161 199 239 280
#     4  10  18  28  46  73 100 127 162 203 243 286
#     4  10  19  32  51  74 102 135 167 200 240 290
#     4   8  15  28  46  70  99 125 157 198 242 290
#
# _framework density 17.093381999999998
#
# number of rings (size 3 to 8) (size 9 to 14) (size 15 to 20)
#    0.000    2.750    1.250    3.000    0.000    2.750 
#    0.000    0.000    2.750    9.375    0.000    0.000 
#    0.000    0.000    0.000    0.000    0.000    0.000 
#
# Total GULP energy -178171.166109 kJ/mol
# GULP energy per Si atom -5567.848941 kJ/mol
# Density = 1.705448 g / cm^3
# Si number density = 17.093382 Si / 1000 Ang^3
#
#
#
# Elastic Constant Matrix: (Units=GPa)
#
#
# Indices 1 2 3 4 5 6 
#
# 1 74.6068 15.4322 74.0074 0.0000 -0.1257 0.0000
# 2 15.4322 20.8870 39.4447 0.0000 -1.6065 0.0000
# 3 74.0074 39.4447 199.6328 0.0000 1.3405 0.0000
# 4 0.0000 0.0000 0.0000 28.5974 0.0000 -6.9662
# 5 -0.1257 -1.6065 1.3405 0.0000 27.7720 0.0000
# 6 0.0000 0.0000 0.0000 -6.9662 0.0000 11.3174
#
#
#
# Elastic Compliance Matrix: (Units=1/GPa)
#
#
# Indices 1 2 3 4 5 6 
#
# 1 0.021226 -0.001256 -0.007623 0.000000 0.000391 0.000000
# 2 -0.001256 0.077192 -0.014821 0.000000 0.005175 0.000000
# 3 -0.007623 -0.014821 0.010773 0.000000 -0.001412 0.000000
# 4 0.000000 0.000000 0.000000 0.041136 0.000000 0.025320
# 5 0.000391 0.005175 -0.001412 0.000000 0.036377 0.000000
# 6 0.000000 0.000000 0.000000 0.025320 0.000000 0.103945
#
#
# Mechanical properties :
#
#
# Convention : Reuss Voigt Hill
#
# Bulk Modulus (GPa) = 16.18379 61.43282 38.80831
# Shear Modulus (GPa) = 13.94127 24.62019 19.28073
#
# Velocity S-wave (km/s) = 2.85896 3.79929 3.36216
# Velocity P-wave (km/s) = 4.51516 7.43396 6.15022
#
# Compressibility (1/GPa) = 0.06179021
#
# Stress axis : x y z
#
# Youngs Moduli (GPa) = 47.11158 12.95469 92.82254
#
# Poissons Ratio (x) = 0.01627 0.70762
# Poissons Ratio (y) = 0.05918 1.37574
# Poissons Ratio (z) = 0.35915 0.19200
#
# Static dielectric constant tensor:
#      x y z
#    x 1.573640 0.000000 0.023390 
#    y 0.000000 1.577730 0.000000 
#    z 0.023390 0.000000 1.614310 
# 
# From -- ./inp_files/319177.got.cif
#   From: 2010.05.17/outbox.cif.g08.bks.cpg/sg12_160_cif.got.tgz:319177.got - 2010.06.03 13:09:07.
