data_PCOD9171883
_publ_section_title
;
Structure prediction by ZEFSAII (Michael W. Deem and Ramdas Pophale) SiO2 
 PCOD9171883
Probable space group: C 2/M
;
_chemical_formula_sum "Si O2"
_cell_formula_units_Z 44
_cell_length_a 15.570981
_cell_length_b 20.762981
_cell_length_c 9.324990
_cell_angle_alpha 90.000000
_cell_angle_beta 31.063523
_cell_angle_gamma 90.000000
_cell_volume 1555.584944
_symmetry_space_group_name_H-M "C 2/M"
_symmetry_group_IT_number 12
_symmetry_cell_setting 'monoclinic'
loop_
_space_group_symop_operation_xyz
x,y,z
-x,y,-z
-x,-y,-z
x,-y,z
1/2+x,1/2+y,z
1/2-x,1/2+y,-z
1/2-x,1/2-y,-z
1/2+x,1/2-y,z
loop_
_atom_site_type_symbol
_atom_site_label
_atom_site_fract_x
_atom_site_fract_y
_atom_site_fract_z
Si Si1 0.018416 0.500000 0.137148
Si Si2 0.500000 0.725210 0.500000
Si Si3 0.083665 0.632968 0.080576
Si Si4 0.138555 0.857462 0.547827
Si Si5 0.724790 0.813866 0.351581
Si Si6 0.798173 0.425207 0.815120
Si Si7 0.890060 0.000000 0.515839
O O1 0.215838 0.500000 0.851651
O O2 0.960468 0.569738 0.262595
O O3 0.000000 0.500000 0.000000
O O4 0.486321 0.679143 0.380243
O O5 0.669543 0.767044 0.295150
O O6 0.212549 0.610734 0.017566
O O7 0.960370 0.686416 0.312174
O O8 0.180990 0.645479 0.795116
O O9 0.161478 0.818937 0.665772
O O10 0.100056 0.934394 0.592643
O O11 0.777631 0.878901 0.194383
O O12 0.746665 0.500000 0.885322
O O13 0.000000 0.426139 0.500000
O O14 0.000000 0.000000 0.500000
#
# Coordination Sequence:
#
# PCOD9171883 Si02
#       7
#     4   4   8   8   8   8   4
#     4  10  18  28  54  93 123 142 202 268 303 347
#     4  12  24  43  57  84 126 166 204 244 300 370
#     4  10  18  35  56  88 118 152 199 253 303 354
#     4  11  24  38  65  87 118 159 209 252 294 363
#     4  11  22  39  59  90 120 156 201 252 310 361
#     4   9  17  32  55  85 123 150 180 243 319 365
#     4  10  20  40  59  92 122 161 201 252 313 367
#
# _framework density 28.285181000000001
#
# number of rings (size 3 to 8) (size 9 to 14) (size 15 to 20)
#    0.000    1.636    4.545    3.273    2.545    0.727 
#    0.000    0.000    0.000    0.000    0.000    3.818 
#    0.000    0.000    0.000    0.000    0.000    0.000 
#
# Total GULP energy -122520.128120 kJ/mol
# GULP energy per Si atom -5569.096733 kJ/mol
# Density = 2.822080 g / cm^3
# Si number density = 28.285181 Si / 1000 Ang^3
#
#
#
# Elastic Constant Matrix: (Units=GPa)
#
#
# Indices 1 2 3 4 5 6 
#
# 1 235.0493 76.6273 16.1157 -0.0046 35.8203 0.0046
# 2 76.6273 162.5363 7.2992 -0.0146 7.5882 -0.0007
# 3 16.1157 7.2992 67.8145 -0.0374 7.6842 -0.0044
# 4 -0.0046 -0.0146 -0.0374 13.5459 0.0039 -5.9230
# 5 35.8203 7.5882 7.6842 0.0039 49.7407 -0.0017
# 6 0.0046 -0.0007 -0.0044 -5.9230 -0.0017 45.8172
#
#
#
# Elastic Compliance Matrix: (Units=1/GPa)
#
#
# Indices 1 2 3 4 5 6 
#
# 1 0.005652 -0.002467 -0.000671 -0.000002 -0.003590 -0.000001
# 2 -0.002467 0.007295 -0.000279 0.000007 0.000707 0.000001
# 3 -0.000671 -0.000279 0.015141 0.000045 -0.001813 0.000007
# 4 -0.000002 0.000007 0.000045 0.078246 -0.000012 0.010115
# 5 -0.003590 0.000707 -0.001813 -0.000012 0.022862 -0.000001
# 6 -0.000001 0.000001 0.000007 0.010115 -0.000001 0.023134
#
#
# Mechanical properties :
#
#
# Convention : Reuss Voigt Hill
#
# Bulk Modulus (GPa) = 47.04873 73.94272 60.49572
# Shear Modulus (GPa) = 30.07561 46.17795 38.12678
#
# Velocity S-wave (km/s) = 3.26436 4.04491 3.67542
# Velocity P-wave (km/s) = 5.55679 6.92919 6.28059
#
# Compressibility (1/GPa) = 0.02125456
#
# Stress axis : x y z
#
# Youngs Moduli (GPa) = 176.93796 137.08102 66.04554
#
# Poissons Ratio (x) = 0.33814 0.04430
# Poissons Ratio (y) = 0.43646 0.01843
# Poissons Ratio (z) = 0.11869 0.03825
#
# Static dielectric constant tensor:
#      x y z
#    x 2.234470 0.000000 -0.025520 
#    y 0.000000 2.536860 0.000000 
#    z -0.025520 0.000000 2.202610 
# 
# From -- ./inp_files/65209.got.cif
#   From: 2010.05.17/outbox.cif.g08.bks.cpg/sg12_33_cif.got.tgz:65209.got - 2010.06.03 13:09:07.
