data_PCOD9171733
_publ_section_title
;
Structure prediction by ZEFSAII (Michael W. Deem and Ramdas Pophale) SiO2 
 PCOD9171733
Probable space group: C 2/M
;
_chemical_formula_sum "Si O2"
_cell_formula_units_Z 56
_cell_length_a 18.709204
_cell_length_b 7.572024
_cell_length_c 23.984416
_cell_angle_alpha 90.000000
_cell_angle_beta 53.795609
_cell_angle_gamma 90.000000
_cell_volume 2741.727289
_symmetry_space_group_name_H-M "C 2/M"
_symmetry_group_IT_number 12
_symmetry_cell_setting 'monoclinic'
loop_
_space_group_symop_operation_xyz
x,y,z
-x,y,-z
-x,-y,-z
x,-y,z
1/2+x,1/2+y,z
1/2-x,1/2+y,-z
1/2-x,1/2-y,-z
1/2+x,1/2-y,z
loop_
_atom_site_type_symbol
_atom_site_label
_atom_site_fract_x
_atom_site_fract_y
_atom_site_fract_z
Si Si1 0.654911 0.711648 0.069285
Si Si2 0.047920 0.790456 0.217893
Si Si3 0.377534 0.712053 0.216243
Si Si4 0.261266 0.294884 0.365275
Si Si5 0.507359 0.716550 0.933250
Si Si6 0.419679 0.783369 0.497337
Si Si7 0.923176 0.704817 0.369103
O O1 0.645792 0.500000 0.076543
O O2 0.630881 0.776602 0.142980
O O3 0.579105 0.773527 0.061502
O O4 0.750000 0.750000 0.000000
O O5 0.964604 0.760825 0.214571
O O6 0.014374 0.717006 0.292063
O O7 0.057255 0.000000 0.222029
O O8 0.365704 0.500000 0.217697
O O9 0.296807 0.783786 0.290444
O O10 0.406477 0.775090 0.141831
O O11 0.241078 0.500000 0.363261
O O12 0.173636 0.220955 0.434128
O O13 0.344008 0.290477 0.369894
O O14 0.508395 0.500000 0.932952
O O15 0.500000 0.775581 0.000000
O O16 0.500000 0.728860 0.500000
O O17 0.430206 0.725170 0.428475
O O18 0.419789 0.000000 0.496164
O O19 0.898188 0.500000 0.383904
#
# Coordination Sequence:
#
# PCOD9171733 Si02
#       7
#     8   8   8   8   8   8   8
#     4   9  17  29  46  68  93 121 151 184 224 268
#     4   8  15  29  46  63  88 122 154 181 217 268
#     4   7  11  21  39  61  80 106 145 179 211 253
#     4   9  16  29  49  66  85 117 152 183 219 271
#     4   8  13  23  40  63  89 112 142 186 222 250
#     4   9  18  31  45  65  94 122 146 180 229 276
#     4  10  18  28  47  72  91 109 145 195 231 260
#
# _framework density 20.425080000000001
#
# number of rings (size 3 to 8) (size 9 to 14) (size 15 to 20)
#    0.000    3.429    0.000    3.429    0.000    0.571 
#    0.000    2.143    0.000    9.429    0.000    4.000 
#    0.000    0.000    0.000    0.000    0.000    0.000 
#
# Total GULP energy -155894.266943 kJ/mol
# GULP energy per Si atom -5567.652391 kJ/mol
# Density = 2.037859 g / cm^3
# Si number density = 20.425080 Si / 1000 Ang^3
#
#
#
# Elastic Constant Matrix: (Units=GPa)
#
#
# Indices 1 2 3 4 5 6 
#
# 1 45.8416 -9.1511 82.3891 0.0000 -0.6986 0.0011
# 2 -9.1511 36.9951 7.3442 0.0002 -0.9650 0.0029
# 3 82.3891 7.3442 260.8059 -0.0001 7.2208 0.0000
# 4 0.0000 0.0002 -0.0001 14.3205 -0.0001 -2.3455
# 5 -0.6986 -0.9650 7.2208 -0.0001 27.0462 0.0001
# 6 0.0011 0.0029 0.0000 -2.3455 0.0001 27.3073
#
#
#
# Elastic Compliance Matrix: (Units=1/GPa)
#
#
# Indices 1 2 3 4 5 6 
#
# 1 0.063208 0.019960 -0.020748 -0.000001 0.007884 -0.000005
# 2 0.019960 0.033523 -0.007351 -0.000001 0.003674 -0.000004
# 3 -0.020748 -0.007351 0.010697 0.000000 -0.003654 0.000002
# 4 -0.000001 -0.000001 0.000000 0.070827 0.000000 0.006083
# 5 0.007884 0.003674 -0.003654 0.000000 0.038284 -0.000001
# 6 -0.000005 -0.000004 0.000002 0.006083 -0.000001 0.037143
#
#
# Mechanical properties :
#
#
# Convention : Reuss Voigt Hill
#
# Bulk Modulus (GPa) = 10.97100 56.08968 33.53034
# Shear Modulus (GPa) = 16.64762 31.27214 23.95988
#
# Velocity S-wave (km/s) = 2.85802 3.91713 3.42871
# Velocity P-wave (km/s) = 4.03411 6.92671 5.66804
#
# Compressibility (1/GPa) = 0.09114942
#
# Stress axis : x y z
#
# Youngs Moduli (GPa) = 15.82073 29.83024 93.48627
#
# Poissons Ratio (x) = -0.59540 1.93965
# Poissons Ratio (y) = -0.31578 0.68722
# Poissons Ratio (z) = 0.32825 0.21928
#
# Static dielectric constant tensor:
#      x y z
#    x 1.682280 0.000000 -0.005670 
#    y 0.000000 1.814440 0.000000 
#    z -0.005670 0.000000 1.798110 
# 
# From -- ./inp_files/345486.got.cif
#   From: 2010.05.17/outbox.cif.g08.bks.cpg/sg12_173_cif.got.tgz:345486.got - 2010.06.03 13:09:07.
