data_PCOD9171080
_publ_section_title
;
Structure prediction by ZEFSAII (Michael W. Deem and Ramdas Pophale) SiO2 
 PCOD9171080
Probable space group: C 2/M
;
_chemical_formula_sum "Si O2"
_cell_formula_units_Z 64
_cell_length_a 28.537993
_cell_length_b 8.994473
_cell_length_c 24.851768
_cell_angle_alpha 90.000000
_cell_angle_beta 42.968917
_cell_angle_gamma 90.000000
_cell_volume 4347.974392
_symmetry_space_group_name_H-M "C 2/M"
_symmetry_group_IT_number 12
_symmetry_cell_setting 'monoclinic'
loop_
_space_group_symop_operation_xyz
x,y,z
-x,y,-z
-x,-y,-z
x,-y,z
1/2+x,1/2+y,z
1/2-x,1/2+y,-z
1/2-x,1/2-y,-z
1/2+x,1/2-y,z
loop_
_atom_site_type_symbol
_atom_site_label
_atom_site_fract_x
_atom_site_fract_y
_atom_site_fract_z
Si Si1 0.341102 0.176475 0.665873
Si Si2 0.934814 0.321015 0.020191
Si Si3 0.939808 0.828877 0.505196
Si Si4 0.612855 0.320986 0.167946
Si Si5 0.747026 0.826126 0.096128
Si Si6 0.442661 0.321124 0.668264
Si Si7 0.094515 0.826457 0.066817
Si Si8 0.718312 0.822300 0.821160
O O1 0.379116 0.229486 0.579643
O O2 0.387953 0.240499 0.675514
O O3 0.265683 0.245760 0.736820
O O4 0.338745 0.000000 0.671227
O O5 0.935672 0.500000 0.017453
O O6 0.861954 0.277847 0.108705
O O7 0.934958 0.261189 0.959187
O O8 0.000000 0.269826 0.000000
O O9 0.000000 0.826113 0.500000
O O10 0.980999 0.782547 0.417099
O O11 0.916761 0.000000 0.519700
O O12 0.623810 0.500000 0.156583
O O13 0.685824 0.239590 0.112340
O O14 0.571909 0.287808 0.257287
O O15 0.576692 0.277635 0.142352
O O16 0.751121 0.731978 0.147468
O O17 0.734462 0.000000 0.118734
O O18 0.822368 0.814565 0.006787
O O19 0.434519 0.500000 0.667178
O O20 0.076761 0.000000 0.075246
O O21 0.723326 0.000000 0.812834
#
# Coordination Sequence:
#
# PCOD9171080 Si02
#       8
#     8   8   8   8   8   8   8   8
#     4  11  19  26  39  60  85 110 143 183 214 250
#     4   9  19  35  52  67  83 107 141 180 221 262
#     4   8  15  27  40  54  76 111 150 180 209 248
#     4  10  18  28  42  59  85 119 149 175 205 247
#     4  10  18  27  39  59  86 113 145 181 210 241
#     4   9  17  28  41  56  80 117 153 179 208 245
#     4   9  19  31  43  63  87 112 143 175 212 256
#     4  10  18  29  45  62  83 112 143 176 216 260
#
# _framework density 14.719498
#
# number of rings (size 3 to 8) (size 9 to 14) (size 15 to 20)
#    0.000    2.500    1.250    3.000    0.000    4.000 
#    0.000    0.000    0.000    0.000    0.000    0.000 
#    0.000    1.000    0.000    2.000    0.000    2.750 
#
# Total GULP energy -178277.924235 kJ/mol
# GULP energy per Si atom -5571.185132 kJ/mol
# Density = 1.468600 g / cm^3
# Si number density = 14.719498 Si / 1000 Ang^3
#
#
#
# Elastic Constant Matrix: (Units=GPa)
#
#
# Indices 1 2 3 4 5 6 
#
# 1 75.5997 27.0190 45.8882 -0.0021 0.4613 0.0005
# 2 27.0190 43.7630 37.6601 -0.0051 -1.4841 0.0031
# 3 45.8882 37.6601 85.1430 -0.0040 5.9765 0.0031
# 4 -0.0021 -0.0051 -0.0040 16.2570 0.0008 1.2003
# 5 0.4613 -1.4841 5.9765 0.0008 13.1775 0.0000
# 6 0.0005 0.0031 0.0031 1.2003 0.0000 12.0041
#
#
#
# Elastic Compliance Matrix: (Units=1/GPa)
#
#
# Indices 1 2 3 4 5 6 
#
# 1 0.020428 -0.004621 -0.009171 -0.000001 0.002924 0.000003
# 2 -0.004621 0.039850 -0.015971 0.000008 0.011893 -0.000007
# 3 -0.009171 -0.015971 0.024640 0.000001 -0.012653 -0.000002
# 4 -0.000001 0.000008 0.000001 0.061969 -0.000003 -0.006196
# 5 0.002924 0.011893 -0.012653 -0.000003 0.082862 0.000000
# 6 0.000003 -0.000007 -0.000002 -0.006196 0.000000 0.083924
#
#
# Mechanical properties :
#
#
# Convention : Reuss Voigt Hill
#
# Bulk Modulus (GPa) = 39.38133 47.29337 43.33735
# Shear Modulus (GPa) = 13.10054 14.55030 13.82542
#
# Velocity S-wave (km/s) = 2.98654 3.14746 3.06806
# Velocity P-wave (km/s) = 6.22135 6.73856 6.48511
#
# Compressibility (1/GPa) = 0.02539274
#
# Stress axis : x y z
#
# Youngs Moduli (GPa) = 48.95256 25.09406 40.58434
#
# Poissons Ratio (x) = 0.11595 0.37220
# Poissons Ratio (y) = 0.22620 0.64816
# Poissons Ratio (z) = 0.44895 0.40077
#
# Static dielectric constant tensor:
#      x y z
#    x 1.456110 0.000000 0.007620 
#    y 0.000000 1.493240 0.000000 
#    z 0.007620 0.000000 1.537000 
# 
# From -- ./inp_files/348527.got.cif
#   From: 2010.05.17/outbox.cif.g08.bks.cpg/sg12_175_cif.got.tgz:348527.got - 2010.06.03 13:09:07.
