data_PCOD9171990
_publ_section_title
;
Structure prediction by ZEFSAII (Michael W. Deem and Ramdas Pophale) SiO2 
 PCOD9171990
Probable space group: C 2/M
;
_chemical_formula_sum "Si O2"
_cell_formula_units_Z 64
_cell_length_a 25.519126
_cell_length_b 8.900987
_cell_length_c 19.636459
_cell_angle_alpha 90.000000
_cell_angle_beta 78.216411
_cell_angle_gamma 90.000000
_cell_volume 4366.334131
_symmetry_space_group_name_H-M "C 2/M"
_symmetry_group_IT_number 12
_symmetry_cell_setting 'monoclinic'
loop_
_space_group_symop_operation_xyz
x,y,z
-x,y,-z
-x,-y,-z
x,-y,z
1/2+x,1/2+y,z
1/2-x,1/2+y,-z
1/2-x,1/2-y,-z
1/2+x,1/2-y,z
loop_
_atom_site_type_symbol
_atom_site_label
_atom_site_fract_x
_atom_site_fract_y
_atom_site_fract_z
Si Si1 0.087648 0.322143 0.791457
Si Si2 0.544798 0.178189 0.333822
Si Si3 0.021789 0.821655 0.204658
Si Si4 0.067731 0.820240 0.592514
Si Si5 0.238716 0.820055 0.429032
Si Si6 0.506504 0.821493 0.921276
Si Si7 0.115117 0.179132 0.431188
Si Si8 0.836881 0.179806 0.326623
O O1 0.086924 0.500000 0.776910
O O2 0.039008 0.236956 0.766141
O O3 0.066847 0.302308 0.874729
O O4 0.141317 0.248420 0.749804
O O5 0.555223 0.250623 0.256798
O O6 0.486940 0.236792 0.374881
O O7 0.587885 0.232291 0.377283
O O8 0.543679 0.000000 0.327814
O O9 0.030159 0.759614 0.125779
O O10 0.023912 0.000000 0.205660
O O11 0.085620 0.788045 0.510483
O O12 0.117722 0.782566 0.628515
O O13 0.058468 0.000000 0.601383
O O14 0.250000 0.750000 0.500000
O O15 0.177809 0.786943 0.423769
O O16 0.281710 0.751399 0.365876
O O17 0.244580 0.000000 0.431373
O O18 0.495229 0.000000 0.922247
O O19 0.500000 0.767989 0.000000
O O20 0.109481 0.000000 0.420457
O O21 0.832867 0.000000 0.323982
#
# Coordination Sequence:
#
# PCOD9171990 Si02
#       8
#     8   8   8   8   8   8   8   8
#     4   9  17  29  45  69  96 128 161 192 233 279
#     4  12  23  33  47  69  94 123 160 202 242 289
#     4  10  18  29  45  66  94 129 159 188 228 278
#     4  10  19  33  50  67  90 121 153 194 247 298
#     4  11  22  37  54  70  91 121 161 209 257 300
#     4   8  15  28  46  70 102 133 159 191 230 278
#     4  10  22  38  50  64  88 122 159 200 251 297
#     4  11  20  32  51  72  95 126 162 203 250 293
#
# _framework density 14.657605
#
# number of rings (size 3 to 8) (size 9 to 14) (size 15 to 20)
#    0.750    1.125    2.500    3.375    0.000    3.750 
#    0.000    0.000    0.000    0.000    0.000    0.000 
#    0.000    1.000    0.000    3.000    0.000    4.000 
#
# Total GULP energy -178240.465481 kJ/mol
# GULP energy per Si atom -5570.014546 kJ/mol
# Density = 1.462424 g / cm^3
# Si number density = 14.657605 Si / 1000 Ang^3
#
#
#
# Elastic Constant Matrix: (Units=GPa)
#
#
# Indices 1 2 3 4 5 6 
#
# 1 61.4272 45.3144 45.4297 0.0000 1.7254 0.0000
# 2 45.3144 78.4189 57.9496 0.0000 3.8113 0.0000
# 3 45.4297 57.9496 119.4774 0.0000 -1.1998 0.0000
# 4 0.0000 0.0000 0.0000 21.4535 0.0000 -0.5169
# 5 1.7254 3.8113 -1.1998 0.0000 14.9232 0.0000
# 6 0.0000 0.0000 0.0000 -0.5169 0.0000 22.1059
#
#
#
# Elastic Compliance Matrix: (Units=1/GPa)
#
#
# Indices 1 2 3 4 5 6 
#
# 1 0.029958 -0.013835 -0.004684 0.000000 -0.000307 0.000000
# 2 -0.013835 0.026790 -0.007792 0.000000 -0.005869 0.000000
# 3 -0.004684 -0.007792 0.013967 0.000000 0.003655 0.000000
# 4 0.000000 0.000000 0.000000 0.046639 0.000000 0.001091
# 5 -0.000307 -0.005869 0.003655 0.000000 0.068838 0.000000
# 6 0.000000 0.000000 0.000000 0.001091 0.000000 0.045262
#
#
# Mechanical properties :
#
#
# Convention : Reuss Voigt Hill
#
# Bulk Modulus (GPa) = 55.27081 61.85677 58.56379
# Shear Modulus (GPa) = 17.23498 19.07185 18.15342
#
# Velocity S-wave (km/s) = 3.43277 3.61107 3.52305
# Velocity P-wave (km/s) = 7.31448 7.72523 7.52266
#
# Compressibility (1/GPa) = 0.01809273
#
# Stress axis : x y z
#
# Youngs Moduli (GPa) = 33.37984 37.32710 71.59784
#
# Poissons Ratio (x) = 0.51643 0.33536
# Poissons Ratio (y) = 0.46182 0.55791
# Poissons Ratio (z) = 0.15635 0.29086
#
# Static dielectric constant tensor:
#      x y z
#    x 1.469700 0.000000 -0.007060 
#    y 0.000000 1.488640 0.000000 
#    z -0.007060 0.000000 1.505230 
# 
# From -- ./inp_files/323384.got.cif
#   From: 2010.05.17/outbox.cif.g08.bks.cpg/sg12_162_cif.got.tgz:323384.got - 2010.06.03 13:09:07.
