data_PCOD9171476
_publ_section_title
;
Structure prediction by ZEFSAII (Michael W. Deem and Ramdas Pophale) SiO2 
 PCOD9171476
Probable space group: C 2/M
;
_chemical_formula_sum "Si O2"
_cell_formula_units_Z 64
_cell_length_a 23.229424
_cell_length_b 9.101722
_cell_length_c 21.723932
_cell_angle_alpha 90.000000
_cell_angle_beta 121.666892
_cell_angle_gamma 90.000000
_cell_volume 3909.205370
_symmetry_space_group_name_H-M "C 2/M"
_symmetry_group_IT_number 12
_symmetry_cell_setting 'monoclinic'
loop_
_space_group_symop_operation_xyz
x,y,z
-x,y,-z
-x,-y,-z
x,-y,z
1/2+x,1/2+y,z
1/2-x,1/2+y,-z
1/2-x,1/2-y,-z
1/2+x,1/2-y,z
loop_
_atom_site_type_symbol
_atom_site_label
_atom_site_fract_x
_atom_site_fract_y
_atom_site_fract_z
Si Si1 0.323952 0.827983 0.374814
Si Si2 0.855820 0.168687 0.071159
Si Si3 0.296411 0.823114 0.223782
Si Si4 0.282645 0.831434 0.925965
Si Si5 0.569185 0.824402 0.778494
Si Si6 0.949304 0.158719 0.415010
Si Si7 0.453101 0.331598 0.646815
Si Si8 0.186872 0.177347 0.498716
O O1 0.286998 0.783384 0.290346
O O2 0.400832 0.795173 0.397762
O O3 0.313840 0.737710 0.431737
O O4 0.311977 0.000000 0.379790
O O5 0.785135 0.167497 0.069695
O O6 0.907044 0.256339 0.143505
O O7 0.876748 0.000000 0.074528
O O8 0.838674 0.246981 0.997302
O O9 0.240797 0.749964 0.148920
O O10 0.370808 0.781196 0.237193
O O11 0.292864 0.000000 0.217398
O O12 0.301698 0.000000 0.925341
O O13 0.495233 0.765387 0.718455
O O14 0.569051 0.000000 0.780829
O O15 0.000000 0.154601 0.500000
O O16 0.995429 0.166270 0.381504
O O17 0.911470 0.000000 0.392817
O O18 0.445147 0.500000 0.664753
O O19 0.381440 0.282584 0.577860
O O20 0.250000 0.250000 0.500000
O O21 0.190337 0.000000 0.501625
#
# Coordination Sequence:
#
# PCOD9171476 Si02
#       8
#     8   8   8   8   8   8   8   8
#     4  11  21  33  50  74 100 128 162 204 247 292
#     4   9  16  26  39  57  87 128 165 196 235 281
#     4   9  18  29  41  64  97 128 159 197 239 284
#     4   9  16  25  39  59  85 124 167 200 232 276
#     4  10  18  28  43  67  97 126 162 202 238 282
#     4  10  18  31  48  70  97 127 158 196 245 295
#     4  10  20  33  50  70  97 127 160 200 248 296
#     4  11  24  42  57  72  93 126 166 207 251 300
#
# _framework density 16.371613
#
# number of rings (size 3 to 8) (size 9 to 14) (size 15 to 20)
#    0.000    2.125    2.500    1.875    0.000    5.750 
#    0.000    0.000    0.000    0.000    0.000    0.000 
#    0.000    1.000    0.000   10.500    0.000    5.500 
#
# Total GULP energy -178210.419256 kJ/mol
# GULP energy per Si atom -5569.075602 kJ/mol
# Density = 1.633435 g / cm^3
# Si number density = 16.371613 Si / 1000 Ang^3
#
#
#
# Elastic Constant Matrix: (Units=GPa)
#
#
# Indices 1 2 3 4 5 6 
#
# 1 43.0434 24.8819 39.5038 0.0000 2.6418 0.0000
# 2 24.8819 69.0448 72.7924 0.0000 8.6320 0.0000
# 3 39.5038 72.7924 163.4532 0.0000 12.1962 0.0000
# 4 0.0000 0.0000 0.0000 33.7198 0.0000 0.4119
# 5 2.6418 8.6320 12.1962 0.0000 4.2461 0.0000
# 6 0.0000 0.0000 0.0000 0.4119 0.0000 16.5323
#
#
#
# Elastic Compliance Matrix: (Units=1/GPa)
#
#
# Indices 1 2 3 4 5 6 
#
# 1 0.031491 -0.007116 -0.005167 0.000000 0.009714 0.000000
# 2 -0.007116 0.031408 -0.009970 0.000000 -0.030785 0.000000
# 3 -0.005167 -0.009970 0.012797 0.000000 -0.013275 0.000000
# 4 0.000000 0.000000 0.000000 0.029665 0.000000 -0.000739
# 5 0.009714 -0.030785 -0.013275 0.000000 0.330184 0.000000
# 6 0.000000 0.000000 0.000000 -0.000739 0.000000 0.060506
#
#
# Mechanical properties :
#
#
# Convention : Reuss Voigt Hill
#
# Bulk Modulus (GPa) = 32.06078 61.09973 46.58025
# Shear Modulus (GPa) = 9.07515 20.12388 14.59951
#
# Velocity S-wave (km/s) = 2.35696 3.50979 2.98947
# Velocity P-wave (km/s) = 5.19930 7.33665 6.35842
#
# Compressibility (1/GPa) = 0.03119076
#
# Stress axis : x y z
#
# Youngs Moduli (GPa) = 31.75460 31.83883 78.14056
#
# Poissons Ratio (x) = 0.22656 0.40373
# Poissons Ratio (y) = 0.22596 0.77910
# Poissons Ratio (z) = 0.16407 0.31745
#
# Static dielectric constant tensor:
#      x y z
#    x 1.496050 0.000000 0.017110 
#    y 0.000000 1.592700 0.000000 
#    z 0.017110 0.000000 1.564890 
# 
# From -- ./inp_files/323747.got.cif
#   From: 2010.05.17/outbox.cif.g08.bks.cpg/sg12_162_cif.got.tgz:323747.got - 2010.06.03 13:09:07.
