data_PCOD9171506
_publ_section_title
;
Structure prediction by ZEFSAII (Michael W. Deem and Ramdas Pophale) SiO2 
 PCOD9171506
Probable space group: C 2/M
;
_chemical_formula_sum "Si O2"
_cell_formula_units_Z 64
_cell_length_a 29.376257
_cell_length_b 7.890471
_cell_length_c 15.355048
_cell_angle_alpha 90.000000
_cell_angle_beta 91.651378
_cell_angle_gamma 90.000000
_cell_volume 3557.706807
_symmetry_space_group_name_H-M "C 2/M"
_symmetry_group_IT_number 12
_symmetry_cell_setting 'monoclinic'
loop_
_space_group_symop_operation_xyz
x,y,z
-x,y,-z
-x,-y,-z
x,-y,z
1/2+x,1/2+y,z
1/2-x,1/2+y,-z
1/2-x,1/2-y,-z
1/2+x,1/2-y,z
loop_
_atom_site_type_symbol
_atom_site_label
_atom_site_fract_x
_atom_site_fract_y
_atom_site_fract_z
Si Si1 0.742469 0.299063 0.598842
Si Si2 0.994602 0.707611 0.897845
Si Si3 0.088493 0.296028 0.823453
Si Si4 0.191186 0.200705 0.242863
Si Si5 0.655242 0.207277 0.984731
Si Si6 0.236137 0.303224 0.884074
Si Si7 0.894552 0.702916 0.845522
Si Si8 0.330251 0.298559 0.273152
O O1 0.743022 0.500000 0.602160
O O2 0.750000 0.250000 0.500000
O O3 0.781789 0.239590 0.667380
O O4 0.694065 0.244440 0.638595
O O5 0.995058 0.500000 0.898564
O O6 0.946309 0.764454 0.855628
O O7 0.037678 0.763520 0.842591
O O8 0.000000 0.757785 0.000000
O O9 0.087537 0.500000 0.821527
O O10 0.119852 0.244167 0.907230
O O11 0.116733 0.237455 0.740779
O O12 0.220428 0.277742 0.162555
O O13 0.138960 0.257849 0.235947
O O14 0.192050 0.000000 0.231702
O O15 0.705891 0.269383 0.962155
O O16 0.657141 0.000000 0.986566
O O17 0.633309 0.269461 0.072403
O O18 0.245187 0.500000 0.903016
O O19 0.198535 0.295285 0.803656
O O20 0.897069 0.500000 0.853572
O O21 0.323236 0.500000 0.260875
#
# Coordination Sequence:
#
# PCOD9171506 Si02
#       8
#     8   8   8   8   8   8   8   8
#     4  10  20  35  56  79 100 122 150 185 230 287
#     4   9  15  26  46  69  89 122 174 220 248 275
#     4   9  15  26  45  66  91 125 166 207 242 277
#     4  10  20  33  46  65  97 129 157 192 235 286
#     4   8  13  23  41  62  83 116 162 204 238 270
#     4   8  15  28  44  60  83 121 164 197 227 272
#     4  10  18  28  44  65  91 124 167 211 245 278
#     4   9  17  28  44  70  99 122 147 185 234 284
#
# _framework density 17.989115000000002
#
# number of rings (size 3 to 8) (size 9 to 14) (size 15 to 20)
#    0.000    2.875    1.250    1.875    0.000    2.500 
#    0.000    3.125    0.000    0.750    0.000    0.875 
#    0.000    7.000    0.000    0.000    0.000    0.000 
#
# Total GULP energy -178258.114199 kJ/mol
# GULP energy per Si atom -5570.566069 kJ/mol
# Density = 1.794817 g / cm^3
# Si number density = 17.989115 Si / 1000 Ang^3
#
#
#
# Elastic Constant Matrix: (Units=GPa)
#
#
# Indices 1 2 3 4 5 6 
#
# 1 185.2998 15.5439 65.5746 0.0000 -4.1240 0.0000
# 2 15.5439 30.8936 11.0051 0.0000 -2.8091 0.0000
# 3 65.5746 11.0051 69.8174 0.0000 -10.5717 0.0000
# 4 0.0000 0.0000 0.0000 13.5530 0.0000 1.0356
# 5 -4.1240 -2.8091 -10.5717 0.0000 20.0278 0.0000
# 6 0.0000 0.0000 0.0000 1.0356 0.0000 17.2416
#
#
#
# Elastic Compliance Matrix: (Units=1/GPa)
#
#
# Indices 1 2 3 4 5 6 
#
# 1 0.008277 -0.001584 -0.007934 0.000000 -0.002706 0.000000
# 2 -0.001584 0.034682 -0.003578 0.000000 0.002650 0.000000
# 3 -0.007934 -0.003578 0.023928 0.000000 0.010495 0.000000
# 4 0.000000 0.000000 0.000000 0.074124 0.000000 -0.004452
# 5 -0.002706 0.002650 0.010495 0.000000 0.055285 0.000000
# 6 0.000000 0.000000 0.000000 -0.004452 0.000000 0.058267
#
#
# Mechanical properties :
#
#
# Convention : Reuss Voigt Hill
#
# Bulk Modulus (GPa) = 24.57303 52.25087 38.41195
# Shear Modulus (GPa) = 16.98834 23.09030 20.03932
#
# Velocity S-wave (km/s) = 3.07639 3.58658 3.34124
# Velocity P-wave (km/s) = 5.12918 6.80149 6.02365
#
# Compressibility (1/GPa) = 0.04069503
#
# Stress axis : x y z
#
# Youngs Moduli (GPa) = 120.81564 28.83370 41.79195
#
# Poissons Ratio (x) = 0.04568 0.33158
# Poissons Ratio (y) = 0.19141 0.14951
# Poissons Ratio (z) = 0.95856 0.10315
#
# Static dielectric constant tensor:
#      x y z
#    x 1.686480 0.000000 -0.016310 
#    y 0.000000 1.649320 0.000000 
#    z -0.016310 0.000000 1.605330 
# 
# From -- ./inp_files/248488.got.cif
#   From: 2010.05.17/outbox.cif.g08.bks.cpg/sg12_125_cif.got.tgz:248488.got - 2010.06.03 13:09:07.
