data_PCOD9171690
_publ_section_title
;
Structure prediction by ZEFSAII (Michael W. Deem and Ramdas Pophale) SiO2 
 PCOD9171690
Probable space group: C 2/M
;
_chemical_formula_sum "Si O2"
_cell_formula_units_Z 56
_cell_length_a 17.102628
_cell_length_b 25.283424
_cell_length_c 8.619654
_cell_angle_alpha 90.000000
_cell_angle_beta 136.667977
_cell_angle_gamma 90.000000
_cell_volume 2557.732419
_symmetry_space_group_name_H-M "C 2/M"
_symmetry_group_IT_number 12
_symmetry_cell_setting 'monoclinic'
loop_
_space_group_symop_operation_xyz
x,y,z
-x,y,-z
-x,-y,-z
x,-y,z
1/2+x,1/2+y,z
1/2-x,1/2+y,-z
1/2-x,1/2-y,-z
1/2+x,1/2-y,z
loop_
_atom_site_type_symbol
_atom_site_label
_atom_site_fract_x
_atom_site_fract_y
_atom_site_fract_z
Si Si1 0.817815 0.162972 0.826354
Si Si2 0.886308 0.794635 0.429184
Si Si3 0.920893 0.942562 0.122609
Si Si4 0.008892 0.260708 0.846626
Si Si5 0.842986 0.104105 0.547985
Si Si6 0.742717 0.940860 0.120854
Si Si7 0.320167 0.828463 0.086593
O O1 0.800703 0.141409 0.627447
O O2 0.866896 0.109509 0.972325
O O3 0.910480 0.209589 0.992196
O O4 0.709789 0.178231 0.775981
O O5 0.898278 0.853746 0.510427
O O6 0.780107 0.799944 0.160189
O O7 0.000000 0.781963 0.500000
O O8 0.894065 0.759337 0.596533
O O9 0.869699 0.941566 0.224362
O O10 0.053707 0.935992 0.274614
O O11 0.882467 0.000000 0.006057
O O12 0.069230 0.299818 0.815121
O O13 0.000000 0.288404 0.000000
O O14 0.750594 0.073173 0.313750
O O15 0.680754 0.890849 0.953393
O O16 0.696389 0.000000 0.028926
#
# Coordination Sequence:
#
# PCOD9171690 Si02
#       7
#     8   8   8   8   8   8   8
#     4  11  20  34  49  77 116 150 183 233 279 327
#     4  11  20  34  54  80 111 153 187 224 282 333
#     4  10  18  28  46  72 108 151 192 222 268 342
#     4  12  22  39  58  81 117 149 193 243 281 336
#     4  11  18  29  48  76 109 149 184 226 274 335
#     4   9  19  35  52  77 112 149 190 237 283 337
#     4  10  23  38  59  83 113 155 194 228 288 345
#
# _framework density 21.894394999999999
#
# number of rings (size 3 to 8) (size 9 to 14) (size 15 to 20)
#    0.000    1.429    4.286    3.429    0.000    3.429 
#    0.000    0.000    0.000    0.429    0.000    0.000 
#    0.000    1.714    0.000    0.000    0.000    0.000 
#
# Total GULP energy -156072.754737 kJ/mol
# GULP energy per Si atom -5574.026955 kJ/mol
# Density = 2.184456 g / cm^3
# Si number density = 21.894395 Si / 1000 Ang^3
#
#
#
# Elastic Constant Matrix: (Units=GPa)
#
#
# Indices 1 2 3 4 5 6 
#
# 1 75.0711 38.0729 12.8375 0.0000 -27.1314 0.0000
# 2 38.0729 131.7928 19.6518 0.0000 -8.0689 0.0000
# 3 12.8375 19.6518 41.4151 0.0000 -17.9623 0.0000
# 4 0.0000 0.0000 0.0000 16.3437 0.0000 -0.8424
# 5 -27.1314 -8.0689 -17.9623 0.0000 26.9717 0.0000
# 6 0.0000 0.0000 0.0000 -0.8424 0.0000 26.9798
#
#
#
# Elastic Compliance Matrix: (Units=1/GPa)
#
#
# Indices 1 2 3 4 5 6 
#
# 1 0.026158 -0.006941 0.008011 0.000000 0.029572 0.000000
# 2 -0.006941 0.010008 -0.006084 0.000000 -0.008040 0.000000
# 3 0.008011 -0.006084 0.038325 0.000000 0.031761 0.000000
# 4 0.000000 0.000000 0.000000 0.061284 0.000000 0.001914
# 5 0.029572 -0.008040 0.031761 0.000000 0.085570 0.000000
# 6 0.000000 0.000000 0.000000 0.001914 0.000000 0.037125
#
#
# Mechanical properties :
#
#
# Convention : Reuss Voigt Hill
#
# Bulk Modulus (GPa) = 15.51286 43.26706 29.38996
# Shear Modulus (GPa) = 17.24219 25.90681 21.57450
#
# Velocity S-wave (km/s) = 2.80932 3.44359 3.14250
# Velocity P-wave (km/s) = 4.19806 5.96789 5.15943
#
# Compressibility (1/GPa) = 0.06446264
#
# Stress axis : x y z
#
# Youngs Moduli (GPa) = 38.22859 99.92247 26.09258
#
# Poissons Ratio (x) = 0.69354 -0.20902
# Poissons Ratio (y) = 0.26534 0.15876
# Poissons Ratio (z) = -0.30624 0.60796
#
# Static dielectric constant tensor:
#      x y z
#    x 1.876390 0.000000 -0.052210 
#    y 0.000000 1.792380 0.000000 
#    z -0.052210 0.000000 1.856420 
# 
# From -- ./inp_files/67087.got.cif
#   From: 2010.05.17/outbox.cif.g08.bks.cpg/sg12_34_cif.got.tgz:67087.got - 2010.06.03 13:09:07.
