data_PCOD9171270
_publ_section_title
;
Structure prediction by ZEFSAII (Michael W. Deem and Ramdas Pophale) SiO2 
 PCOD9171270
Probable space group: C 2/M
;
_chemical_formula_sum "Si O2"
_cell_formula_units_Z 64
_cell_length_a 23.455754
_cell_length_b 15.016686
_cell_length_c 9.241648
_cell_angle_alpha 90.000000
_cell_angle_beta 104.411379
_cell_angle_gamma 90.000000
_cell_volume 3152.736543
_symmetry_space_group_name_H-M "C 2/M"
_symmetry_group_IT_number 12
_symmetry_cell_setting 'monoclinic'
loop_
_space_group_symop_operation_xyz
x,y,z
-x,y,-z
-x,-y,-z
x,-y,z
1/2+x,1/2+y,z
1/2-x,1/2+y,-z
1/2-x,1/2-y,-z
1/2+x,1/2-y,z
loop_
_atom_site_type_symbol
_atom_site_label
_atom_site_fract_x
_atom_site_fract_y
_atom_site_fract_z
Si Si1 0.481705 0.100196 0.654974
Si Si2 0.151453 0.603962 0.408723
Si Si3 0.547758 0.601811 0.653370
Si Si4 0.265585 0.599046 0.953216
Si Si5 0.647454 0.899730 0.070383
Si Si6 0.181301 0.097977 0.713492
Si Si7 0.415165 0.224243 0.174095
Si Si8 0.798222 0.286558 0.306555
O O1 0.500000 0.094611 0.500000
O O2 0.415918 0.137479 0.619843
O O3 0.531273 0.158472 0.758838
O O4 0.480052 0.000000 0.715759
O O5 0.151816 0.500000 0.453724
O O6 0.164110 0.608890 0.247494
O O7 0.191760 0.657005 0.544328
O O8 0.500000 0.626480 0.500000
O O9 0.534569 0.500000 0.695063
O O10 0.613181 0.597687 0.626129
O O11 0.557109 0.677833 0.780891
O O12 0.273124 0.500000 0.894401
O O13 0.205956 0.599032 0.010203
O O14 0.314472 0.612289 0.108259
O O15 0.253565 0.673000 0.825530
O O16 0.620075 0.000000 0.034088
O O17 0.610215 0.815139 0.991756
O O18 0.211396 0.183410 0.665782
O O19 0.206589 0.000000 0.700238
O O20 0.360225 0.211223 0.253040
#
# Coordination Sequence:
#
# PCOD9171270 Si02
#       8
#     8   8   8   8   8   8   8   8
#     4  10  18  27  44  70  99 126 160 204 243 284
#     4  10  20  32  46  70 103 134 165 201 241 287
#     4   9  18  31  50  77 103 124 157 210 258 288
#     4   9  17  31  51  73  99 131 164 197 240 293
#     4   9  19  33  48  70 103 138 165 193 239 294
#     4   9  18  31  49  74 100 126 161 206 248 290
#     4  10  18  29  49  71  98 129 166 199 238 293
#     4  10  18  29  50  74  97 127 165 204 243 287
#
# _framework density 20.299824000000001
#
# number of rings (size 3 to 8) (size 9 to 14) (size 15 to 20)
#    0.000    2.500    1.250    1.500    1.750    1.500 
#    0.000    2.500    0.000    0.750    0.000    0.875 
#    0.000    0.000    0.000    0.000    0.000    0.000 
#
# Total GULP energy -178357.352635 kJ/mol
# GULP energy per Si atom -5573.667270 kJ/mol
# Density = 2.025362 g / cm^3
# Si number density = 20.299824 Si / 1000 Ang^3
#
#
#
# Elastic Constant Matrix: (Units=GPa)
#
#
# Indices 1 2 3 4 5 6 
#
# 1 45.0030 18.1908 18.7283 0.0000 20.6790 0.0000
# 2 18.1908 120.8099 58.2117 0.0000 19.5085 0.0000
# 3 18.7283 58.2117 79.3924 0.0000 19.2858 0.0000
# 4 0.0000 0.0000 0.0000 29.4558 0.0000 6.3853
# 5 20.6790 19.5085 19.2858 0.0000 31.0188 0.0000
# 6 0.0000 0.0000 0.0000 6.3853 0.0000 8.8375
#
#
#
# Elastic Compliance Matrix: (Units=1/GPa)
#
#
# Indices 1 2 3 4 5 6 
#
# 1 0.032586 -0.000495 -0.002500 0.000000 -0.019858 0.000000
# 2 -0.000495 0.012989 -0.008837 0.000000 -0.002344 0.000000
# 3 -0.002500 -0.008837 0.021096 0.000000 -0.005892 0.000000
# 4 0.000000 0.000000 0.000000 0.040254 0.000000 -0.029085
# 5 -0.019858 -0.002344 -0.005892 0.000000 0.050615 0.000000
# 6 0.000000 0.000000 0.000000 -0.029085 0.000000 0.134169
#
#
# Mechanical properties :
#
#
# Convention : Reuss Voigt Hill
#
# Bulk Modulus (GPa) = 23.25244 48.38520 35.81882
# Shear Modulus (GPa) = 15.16488 23.86738 19.51613
#
# Velocity S-wave (km/s) = 2.73618 3.43263 3.10400
# Velocity P-wave (km/s) = 4.63267 6.29267 5.52536
#
# Compressibility (1/GPa) = 0.04300624
#
# Stress axis : x y z
#
# Youngs Moduli (GPa) = 30.68789 76.98933 47.40174
#
# Poissons Ratio (x) = 0.03814 0.11849
# Poissons Ratio (y) = 0.01520 0.41890
# Poissons Ratio (z) = 0.07671 0.68038
#
# Static dielectric constant tensor:
#      x y z
#    x 1.740570 0.000000 0.020090 
#    y 0.000000 1.785830 0.000000 
#    z 0.020090 0.000000 1.706160 
# 
# From -- ./inp_files/104663.got.cif
#   From: 2010.05.17/outbox.cif.g08.bks.cpg/sg12_53_cif.got.tgz:104663.got - 2010.06.03 13:09:07.
