data_PCOD9171354
_publ_section_title
;
Structure prediction by ZEFSAII (Michael W. Deem and Ramdas Pophale) SiO2 
 PCOD9171354
Probable space group: C 2/M
;
_chemical_formula_sum "Si O2"
_cell_formula_units_Z 48
_cell_length_a 22.074648
_cell_length_b 31.317573
_cell_length_c 5.354756
_cell_angle_alpha 90.000000
_cell_angle_beta 114.853228
_cell_angle_gamma 90.000000
_cell_volume 3359.033405
_symmetry_space_group_name_H-M "C 2/M"
_symmetry_group_IT_number 12
_symmetry_cell_setting 'monoclinic'
loop_
_space_group_symop_operation_xyz
x,y,z
-x,y,-z
-x,-y,-z
x,-y,z
1/2+x,1/2+y,z
1/2-x,1/2+y,-z
1/2-x,1/2-y,-z
1/2+x,1/2-y,z
loop_
_atom_site_type_symbol
_atom_site_label
_atom_site_fract_x
_atom_site_fract_y
_atom_site_fract_z
Si Si1 0.626839 0.672151 0.284675
Si Si2 0.076996 0.050268 0.849766
Si Si3 0.701511 0.313619 0.912920
Si Si4 0.574114 0.585320 0.342672
Si Si5 0.153018 0.714788 0.822017
Si Si6 0.422225 0.770204 0.809222
O O1 0.680358 0.670379 0.602952
O O2 0.575745 0.634631 0.267381
O O3 0.593924 0.719151 0.225639
O O4 0.661440 0.665995 0.075434
O O5 0.106573 0.075387 0.666059
O O6 0.000886 0.067288 0.752653
O O7 0.075828 0.000000 0.797530
O O8 0.107984 0.060356 0.172421
O O9 0.678809 0.263893 0.870679
O O10 0.780820 0.313724 0.091247
O O11 0.103608 0.711680 0.500162
O O12 0.118032 0.709538 0.028826
O O13 0.500000 0.775750 0.000000
#
# Coordination Sequence:
#
# PCOD9171354 Si02
#       6
#     8   8   8   8   8   8
#     4  10  19  28  40  61  77  99 120 167 216 240
#     4  10  19  31  43  55  74 109 138 157 192 247
#     4   9  17  30  43  54  73  96 136 154 189 252
#     4  10  18  28  41  57  75  96 125 167 202 238
#     4   9  17  30  43  54  70 105 127 157 189 237
#     4  10  19  28  40  59  81  97 124 159 208 256
#
# _framework density 14.289826
#
# number of rings (size 3 to 8) (size 9 to 14) (size 15 to 20)
#    0.000    2.333    0.000    5.000    2.333    4.000 
#    6.000    0.000    0.000    0.000    0.000    0.000 
#    0.000    0.000    0.000    0.000    0.000    0.000 
#
# Total GULP energy -133605.960114 kJ/mol
# GULP energy per Si atom -5566.915005 kJ/mol
# Density = 1.425730 g / cm^3
# Si number density = 14.289826 Si / 1000 Ang^3
#
#
#
# Elastic Constant Matrix: (Units=GPa)
#
#
# Indices 1 2 3 4 5 6 
#
# 1 41.2384 3.4208 32.6016 0.0000 -9.0348 0.0000
# 2 3.4208 17.6069 2.0585 0.0000 -3.2881 0.0000
# 3 32.6016 2.0585 103.9849 0.0000 -17.4893 0.0000
# 4 0.0000 0.0000 0.0000 11.9176 0.0000 -5.8593
# 5 -9.0348 -3.2881 -17.4893 0.0000 33.2215 0.0000
# 6 0.0000 0.0000 0.0000 -5.8593 0.0000 12.1504
#
#
#
# Elastic Compliance Matrix: (Units=1/GPa)
#
#
# Indices 1 2 3 4 5 6 
#
# 1 0.033048 -0.004648 -0.009693 0.000000 0.003425 0.000000
# 2 -0.004648 0.058523 0.001163 0.000000 0.005141 0.000000
# 3 -0.009693 0.001163 0.013395 0.000000 0.004531 0.000000
# 4 0.000000 0.000000 0.000000 0.109986 0.000000 0.053039
# 5 0.003425 0.005141 0.004531 0.000000 0.033926 0.000000
# 6 0.000000 0.000000 0.000000 0.053039 0.000000 0.107878
#
#
# Mechanical properties :
#
#
# Convention : Reuss Voigt Hill
#
# Bulk Modulus (GPa) = 12.72101 26.55468 19.63784
# Shear Modulus (GPa) = 12.21548 19.77452 15.99500
#
# Velocity S-wave (km/s) = 2.92693 3.72401 3.34927
# Velocity P-wave (km/s) = 4.51044 6.09215 5.35996
#
# Compressibility (1/GPa) = 0.07861010
#
# Stress axis : x y z
#
# Youngs Moduli (GPa) = 30.25874 17.08725 74.65552
#
# Poissons Ratio (x) = 0.07942 0.72366
# Poissons Ratio (y) = 0.14065 -0.08685
# Poissons Ratio (z) = 0.29331 -0.01988
#
# Static dielectric constant tensor:
#      x y z
#    x 1.465440 0.000000 -0.047880 
#    y 0.000000 1.467240 0.000000 
#    z -0.047880 0.000000 1.472610 
# 
# From -- ./inp_files/17891.got.cif
#   From: 2010.05.17/outbox.cif.g08.bks.cpg/sg12_9_cif.got.tgz:17891.got - 2010.06.03 13:09:07.
