data_PCOD9171817
_publ_section_title
;
Structure prediction by ZEFSAII (Michael W. Deem and Ramdas Pophale) SiO2 
 PCOD9171817
Probable space group: C 2/M
;
_chemical_formula_sum "Si O2"
_cell_formula_units_Z 40
_cell_length_a 22.944472
_cell_length_b 13.473676
_cell_length_c 16.207162
_cell_angle_alpha 90.000000
_cell_angle_beta 156.346059
_cell_angle_gamma 90.000000
_cell_volume 2010.224593
_symmetry_space_group_name_H-M "C 2/M"
_symmetry_group_IT_number 12
_symmetry_cell_setting 'monoclinic'
loop_
_space_group_symop_operation_xyz
x,y,z
-x,y,-z
-x,-y,-z
x,-y,z
1/2+x,1/2+y,z
1/2-x,1/2+y,-z
1/2-x,1/2-y,-z
1/2+x,1/2-y,z
loop_
_atom_site_type_symbol
_atom_site_label
_atom_site_fract_x
_atom_site_fract_y
_atom_site_fract_z
Si Si1 0.523066 0.116019 0.273126
Si Si2 0.378238 0.879138 0.774567
Si Si3 0.573953 0.114373 0.685130
Si Si4 0.300315 0.313784 0.171593
Si Si5 0.107201 0.881883 0.528680
O O1 0.592552 0.159936 0.280093
O O2 0.541191 0.145314 0.392491
O O3 0.560539 0.000000 0.319744
O O4 0.350387 0.132611 0.039227
O O5 0.218109 0.854848 0.599964
O O6 0.389998 0.000000 0.787465
O O7 0.500000 0.846975 0.000000
O O8 0.500000 0.118529 0.500000
O O9 0.699669 0.196646 0.847617
O O10 0.618492 0.000000 0.757536
O O11 0.437598 0.357775 0.300041
O O12 0.339075 0.330277 0.317745
O O13 0.121318 0.000000 0.560619
#
# Coordination Sequence:
#
# PCOD9171817 Si02
#       5
#     8   8   8   8   8
#     4  10  19  32  54  80 103 131 167 205 250 305
#     4   9  16  28  46  74 109 136 156 191 253 316
#     4  10  21  36  51  71 100 137 179 216 241 279
#     4  11  18  31  51  77 104 128 168 208 254 298
#     4  10  18  28  48  78 111 132 150 199 265 314
#
# _framework density 19.898274000000001
#
# number of rings (size 3 to 8) (size 9 to 14) (size 15 to 20)
#    0.000    2.000    4.000    3.000    0.000    0.000 
#    0.000    1.000    0.000    0.000    0.000    4.200 
#    0.000    1.000    0.000    0.000    0.000    0.000 
#
# Total GULP energy -111463.398504 kJ/mol
# GULP energy per Si atom -5573.169925 kJ/mol
# Density = 1.985298 g / cm^3
# Si number density = 19.898274 Si / 1000 Ang^3
#
#
#
# Elastic Constant Matrix: (Units=GPa)
#
#
# Indices 1 2 3 4 5 6 
#
# 1 199.6193 13.5018 49.0838 0.0000 -0.3141 0.0000
# 2 13.5018 58.1782 -10.5438 0.0000 -5.3246 0.0000
# 3 49.0838 -10.5438 43.4703 0.0000 1.4060 0.0000
# 4 0.0000 0.0000 0.0000 12.2221 0.0000 0.7234
# 5 -0.3141 -5.3246 1.4060 0.0000 31.0632 0.0000
# 6 0.0000 0.0000 0.0000 0.7234 0.0000 14.7418
#
#
#
# Elastic Compliance Matrix: (Units=1/GPa)
#
#
# Indices 1 2 3 4 5 6 
#
# 1 0.007542 -0.003454 -0.009351 0.000000 -0.000092 0.000000
# 2 -0.003454 0.019823 0.008611 0.000000 0.002973 0.000000
# 3 -0.009351 0.008611 0.035659 0.000000 -0.000233 0.000000
# 4 0.000000 0.000000 0.000000 0.082057 0.000000 -0.004027
# 5 -0.000092 0.002973 -0.000233 0.000000 0.032712 0.000000
# 6 0.000000 0.000000 0.000000 -0.004027 0.000000 0.068032
#
#
# Mechanical properties :
#
#
# Convention : Reuss Voigt Hill
#
# Bulk Modulus (GPa) = 18.30231 45.03904 31.67068
# Shear Modulus (GPa) = 18.35379 28.22049 23.28714
#
# Velocity S-wave (km/s) = 3.04037 3.77004 3.42469
# Velocity P-wave (km/s) = 4.64145 6.45249 5.62040
#
# Compressibility (1/GPa) = 0.05463790
#
# Stress axis : x y z
#
# Youngs Moduli (GPa) = 132.58665 50.44686 28.04356
#
# Poissons Ratio (x) = 0.17422 0.26223
# Poissons Ratio (y) = 0.45789 -0.24149
# Poissons Ratio (z) = 1.23980 -0.43442
#
# Static dielectric constant tensor:
#      x y z
#    x 1.768980 0.000000 -0.048620 
#    y 0.000000 1.725730 0.000000 
#    z -0.048620 0.000000 1.707190 
# 
# From -- ./inp_files/154678.got.cif
#   From: 2010.05.17/outbox.cif.g08.bks.cpg/sg12_78_cif.got.tgz:154678.got - 2010.06.03 13:09:07.
