data_PCOD9171624
_publ_section_title
;
Structure prediction by ZEFSAII (Michael W. Deem and Ramdas Pophale) SiO2 
 PCOD9171624
Probable space group: C 2/M
;
_chemical_formula_sum "Si O2"
_cell_formula_units_Z 48
_cell_length_a 26.082107
_cell_length_b 7.853791
_cell_length_c 19.094331
_cell_angle_alpha 90.000000
_cell_angle_beta 26.645949
_cell_angle_gamma 90.000000
_cell_volume 1754.145793
_symmetry_space_group_name_H-M "C 2/M"
_symmetry_group_IT_number 12
_symmetry_cell_setting 'monoclinic'
loop_
_space_group_symop_operation_xyz
x,y,z
-x,y,-z
-x,-y,-z
x,-y,z
1/2+x,1/2+y,z
1/2-x,1/2+y,-z
1/2-x,1/2-y,-z
1/2+x,1/2-y,z
loop_
_atom_site_type_symbol
_atom_site_label
_atom_site_fract_x
_atom_site_fract_y
_atom_site_fract_z
Si Si1 0.438024 0.798022 0.791507
Si Si2 0.606435 0.796053 0.414213
Si Si3 0.394076 0.811856 0.077239
Si Si4 0.077394 0.798809 0.744073
Si Si5 0.729763 0.194232 0.391319
Si Si6 0.286043 0.296086 0.854206
O O1 0.551931 0.735117 0.693238
O O2 0.396233 0.764945 0.763541
O O3 0.440809 0.000000 0.796765
O O4 0.326689 0.726807 0.969308
O O5 0.500000 0.723207 0.500000
O O6 0.631224 0.725529 0.461668
O O7 0.706695 0.765935 0.234336
O O8 0.590649 0.000000 0.441564
O O9 0.319892 0.685960 0.215707
O O10 0.339264 0.000000 0.137683
O O11 0.500000 0.832978 0.000000
O O12 0.463506 0.766375 0.922282
O O13 0.192304 0.726542 0.641523
O O14 0.084097 0.000000 0.746530
O O15 0.698451 0.000000 0.448910
O O16 0.284206 0.500000 0.858718
#
# Coordination Sequence:
#
# PCOD9171624 Si02
#       6
#     8   8   8   8   8   8
#     4  10  20  34  54  80 109 140 171 207 255 312
#     4  10  21  37  56  76 101 137 179 221 262 304
#     4   9  16  25  39  63  96 131 164 199 243 298
#     4  10  18  28  45  71 103 135 166 204 253 308
#     4   9  18  31  47  69  98 132 169 210 257 306
#     4  10  21  36  54  78 107 139 175 214 257 305
#
# _framework density 27.363748000000001
#
# number of rings (size 3 to 8) (size 9 to 14) (size 15 to 20)
#    0.000    2.333    0.000    3.000    0.000    8.333 
#    0.000    0.000    0.000    1.000    0.000    0.000 
#    0.000    0.000    0.000    0.000    0.000    0.000 
#
# Total GULP energy -134005.421701 kJ/mol
# GULP energy per Si atom -5583.559238 kJ/mol
# Density = 2.730147 g / cm^3
# Si number density = 27.363748 Si / 1000 Ang^3
#
#
#
# Elastic Constant Matrix: (Units=GPa)
#
#
# Indices 1 2 3 4 5 6 
#
# 1 258.7508 -5.7692 35.0777 -0.0004 -3.3108 -0.0015
# 2 -5.7692 69.7796 -9.9445 -0.0266 -3.2815 -0.0211
# 3 35.0777 -9.9445 61.6005 -0.0201 -5.3342 -0.0179
# 4 -0.0004 -0.0266 -0.0201 -81.9933 0.0011 -72.1754
# 5 -3.3108 -3.2815 -5.3342 0.0011 60.3088 0.0021
# 6 -0.0015 -0.0211 -0.0179 -72.1754 0.0021 -27.4986
#
#
#
# Elastic Compliance Matrix: (Units=1/GPa)
#
#
# Indices 1 2 3 4 5 6 
#
# 1 0.004188 0.000008 -0.002382 0.000000 0.000020 0.000000
# 2 0.000008 0.014730 0.002462 -0.000005 0.001020 -0.000001
# 3 -0.002382 0.002462 0.018127 -0.000005 0.001606 0.000000
# 4 0.000000 -0.000005 -0.000005 0.009307 0.000000 -0.024428
# 5 0.000020 0.001020 0.001606 0.000000 0.016780 -0.000001
# 6 0.000000 -0.000001 0.000000 -0.024428 -0.000001 0.027751
#
#
# Mechanical properties :
#
#
# Convention : Reuss Voigt Hill
#
# Bulk Modulus (GPa) = 26.86708 47.65099 37.25903
# Shear Modulus (GPa) = 48.48980 14.88116 31.68548
#
# Velocity S-wave (km/s) = 4.21413 2.33454 3.40654
# Velocity P-wave (km/s) = 5.78951 4.97177 5.39615
#
# Compressibility (1/GPa) = 0.03722028
#
# Stress axis : x y z
#
# Youngs Moduli (GPa) = 238.77475 67.88742 55.16782
#
# Poissons Ratio (x) = -0.00052 0.13140
# Poissons Ratio (y) = -0.00185 -0.13582
# Poissons Ratio (z) = 0.56873 -0.16713
#
# Static dielectric constant tensor:
#      x y z
#    x 2.195110 0.000000 -0.098050 
#    y 0.000000 2.078950 0.000010 
#    z -0.098050 0.000010 2.433250 
# 
# From -- ./inp_files/327194.got.cif
#   From: 2010.05.17/outbox.cif.g08.bks.cpg/sg12_164_cif.got.tgz:327194.got - 2010.06.03 13:09:07.
