data_PCOD9171686
_publ_section_title
;
Structure prediction by ZEFSAII (Michael W. Deem and Ramdas Pophale) SiO2 
 PCOD9171686
Probable space group: C 2/M
;
_chemical_formula_sum "Si O2"
_cell_formula_units_Z 32
_cell_length_a 13.166425
_cell_length_b 30.419223
_cell_length_c 10.097115
_cell_angle_alpha 90.000000
_cell_angle_beta 20.511500
_cell_angle_gamma 90.000000
_cell_volume 1417.005891
_symmetry_space_group_name_H-M "C 2/M"
_symmetry_group_IT_number 12
_symmetry_cell_setting 'monoclinic'
loop_
_space_group_symop_operation_xyz
x,y,z
-x,y,-z
-x,-y,-z
x,-y,z
1/2+x,1/2+y,z
1/2-x,1/2+y,-z
1/2-x,1/2-y,-z
1/2+x,1/2-y,z
loop_
_atom_site_type_symbol
_atom_site_label
_atom_site_fract_x
_atom_site_fract_y
_atom_site_fract_z
Si Si1 0.267368 0.818120 0.576511
Si Si2 0.136898 0.049677 0.683895
Si Si3 0.366695 0.099581 0.811418
Si Si4 0.156599 0.779579 0.441857
O O1 0.515459 0.854609 0.274969
O O2 0.117860 0.808855 0.618429
O O3 0.409689 0.771565 0.445338
O O4 0.000000 0.829978 0.000000
O O5 0.467141 0.063335 0.303832
O O6 0.101773 0.000000 0.677512
O O7 0.963083 0.084925 0.807711
O O8 0.000000 0.050793 0.000000
O O9 0.500000 0.098762 0.500000
O O10 0.000000 0.793487 0.500000
O O11 0.500000 0.779781 0.000000
#
# Coordination Sequence:
#
# PCOD9171686 Si02
#       4
#     8   8   8   8
#     4  10  21  36  57  81 108 142 183 222 263 313
#     4   9  17  28  42  65 102 141 168 202 262 323
#     4  10  18  28  46  72 101 135 175 214 255 311
#     4  10  23  39  55  77 110 146 179 220 268 315
#
# _framework density 22.582827999999999
#
# number of rings (size 3 to 8) (size 9 to 14) (size 15 to 20)
#    0.000    2.250    0.000    3.750    0.000   18.000 
#    0.000    0.000    0.000    0.000    0.000    0.000 
#    0.000   20.000    0.000    0.000    0.000    0.500 
#
# Total GULP energy -89447.322010 kJ/mol
# GULP energy per Si atom -5590.457626 kJ/mol
# Density = 2.253143 g / cm^3
# Si number density = 22.582828 Si / 1000 Ang^3
#
#
#
# Elastic Constant Matrix: (Units=GPa)
#
#
# Indices 1 2 3 4 5 6 
#
# 1 171.4550 62.2523 32.3538 0.0006 -22.0334 -0.0009
# 2 62.2523 128.1792 24.6403 -0.0001 -8.3869 0.0001
# 3 32.3538 24.6403 21.7728 0.0005 -9.5216 -0.0010
# 4 0.0006 -0.0001 0.0005 9.7495 -0.0006 -7.9780
# 5 -22.0334 -8.3869 -9.5216 -0.0006 31.8843 0.0010
# 6 -0.0009 0.0001 -0.0010 -7.9780 0.0010 24.0816
#
#
#
# Elastic Compliance Matrix: (Units=1/GPa)
#
#
# Indices 1 2 3 4 5 6 
#
# 1 0.008755 -0.002302 -0.009229 0.000000 0.002689 0.000000
# 2 -0.002302 0.010597 -0.009257 0.000000 -0.001568 0.000000
# 3 -0.009229 -0.009257 0.076219 0.000000 0.013949 0.000002
# 4 0.000000 0.000000 0.000000 0.140716 0.000001 0.046618
# 5 0.002689 -0.001568 0.013949 0.000001 0.036974 -0.000001
# 6 0.000000 0.000000 0.000002 0.046618 -0.000001 0.056969
#
#
# Mechanical properties :
#
#
# Convention : Reuss Voigt Hill
#
# Bulk Modulus (GPa) = 18.52037 62.21110 40.36574
# Shear Modulus (GPa) = 12.82692 26.62046 19.72369
#
# Velocity S-wave (km/s) = 2.38585 3.43708 2.95853
# Velocity P-wave (km/s) = 3.97600 6.58476 5.43910
#
# Compressibility (1/GPa) = 0.05399461
#
# Stress axis : x y z
#
# Youngs Moduli (GPa) = 114.21584 94.37051 13.12010
#
# Poissons Ratio (x) = 0.21725 0.12109
# Poissons Ratio (y) = 0.26294 0.12145
# Poissons Ratio (z) = 1.05411 0.87358
#
# Static dielectric constant tensor:
#      x y z
#    x 1.831350 0.000000 0.029390 
#    y 0.000000 1.896100 0.000000 
#    z 0.029390 0.000000 1.977300 
# 
# From -- ./inp_files/7926.got.cif
#   From: 2010.05.17/outbox.cif.g08.bks.cpg/sg12_4_cif.got.tgz:7926.got - 2010.06.03 13:09:07.
