data_PCOD9171942
_publ_section_title
;
Structure prediction by ZEFSAII (Michael W. Deem and Ramdas Pophale) SiO2 
 PCOD9171942
Probable space group: C 2/M
;
_chemical_formula_sum "Si O2"
_cell_formula_units_Z 60
_cell_length_a 8.364637
_cell_length_b 28.145436
_cell_length_c 18.805713
_cell_angle_alpha 90.000000
_cell_angle_beta 138.246805
_cell_angle_gamma 90.000000
_cell_volume 2948.282352
_symmetry_space_group_name_H-M "C 2/M"
_symmetry_group_IT_number 12
_symmetry_cell_setting 'monoclinic'
loop_
_space_group_symop_operation_xyz
x,y,z
-x,y,-z
-x,-y,-z
x,-y,z
1/2+x,1/2+y,z
1/2-x,1/2+y,-z
1/2-x,1/2-y,-z
1/2+x,1/2-y,z
loop_
_atom_site_type_symbol
_atom_site_label
_atom_site_fract_x
_atom_site_fract_y
_atom_site_fract_z
Si Si1 0.637390 0.552839 0.981548
Si Si2 0.573931 0.395540 0.449206
Si Si3 0.573206 0.118242 0.098896
Si Si4 0.951383 0.943290 0.708064
Si Si5 0.345333 0.947306 0.262717
Si Si6 0.000000 0.741682 0.500000
Si Si7 0.437149 0.859931 0.747092
Si Si8 0.071472 0.313611 0.391781
O O1 0.703527 0.500000 0.029116
O O2 0.430878 0.549803 0.855123
O O3 0.500000 0.578964 0.000000
O O4 0.874961 0.576891 0.034814
O O5 0.500000 0.419126 0.500000
O O6 0.592863 0.430075 0.388902
O O7 0.350443 0.360240 0.358465
O O8 0.800574 0.361877 0.538865
O O9 0.832005 0.092067 0.194006
O O10 0.523789 0.146405 0.156246
O O11 0.500000 0.143251 0.000000
O O12 0.709355 0.934021 0.673811
O O13 0.009519 0.000000 0.733866
O O14 0.476782 0.911668 0.252891
O O15 0.452708 0.000000 0.294265
O O16 0.927461 0.708662 0.409186
O O17 0.220952 0.775475 0.554985
O O18 0.546994 0.825272 0.723749
#
# Coordination Sequence:
#
# PCOD9171942 Si02
#       8
#     8   8   8   8   8   4   8   8
#     4  10  18  29  44  65  98 138 187 235 262 289
#     4   9  19  37  52  72 110 139 173 219 262 315
#     4  11  20  31  49  72 103 147 188 231 269 297
#     4  10  21  32  48  73 104 148 197 228 257 303
#     4  10  20  32  46  71 106 146 189 229 260 297
#     4  10  20  36  68  86 110 124 160 204 276 332
#     4  10  20  34  52  76 113 140 175 219 265 315
#     4  10  20  39  59  91 108 132 159 213 262 333
#
# _framework density 20.350832
#
# number of rings (size 3 to 8) (size 9 to 14) (size 15 to 20)
#    0.000    2.000    4.667    0.400    1.867    2.933 
#    0.000    2.000    0.000    6.400    0.000    0.933 
#    0.000    0.000    0.000    0.000    0.000    0.000 
#
# Total GULP energy -167024.503698 kJ/mol
# GULP energy per Si atom -5567.483457 kJ/mol
# Density = 2.030451 g / cm^3
# Si number density = 20.350832 Si / 1000 Ang^3
#
#
#
# Elastic Constant Matrix: (Units=GPa)
#
#
# Indices 1 2 3 4 5 6 
#
# 1 61.5251 23.6406 28.7454 0.0000 -31.3433 0.0000
# 2 23.6406 41.6078 23.4449 0.0000 -13.4591 0.0000
# 3 28.7454 23.4449 100.9140 0.0000 -40.7402 0.0000
# 4 0.0000 0.0000 0.0000 -5.9455 0.0000 -3.8483
# 5 -31.3433 -13.4591 -40.7402 0.0000 50.5923 0.0000
# 6 0.0000 0.0000 0.0000 -3.8483 0.0000 17.2380
#
#
#
# Elastic Compliance Matrix: (Units=1/GPa)
#
#
# Indices 1 2 3 4 5 6 
#
# 1 0.027847 -0.011432 0.000683 0.000000 0.014760 0.000000
# 2 -0.011432 0.032709 -0.005466 0.000000 -0.002782 0.000000
# 3 0.000683 -0.005466 0.015659 0.000000 0.011579 0.000000
# 4 0.000000 0.000000 0.000000 -0.146960 0.000000 -0.032808
# 5 0.014760 -0.002782 0.011579 0.000000 0.037494 0.000000
# 6 0.000000 0.000000 0.000000 -0.032808 0.000000 0.050687
#
#
# Mechanical properties :
#
#
# Convention : Reuss Voigt Hill
#
# Bulk Modulus (GPa) = 22.83906 39.52318 31.18112
# Shear Modulus (GPa) = 77.56469 20.92469 49.24469
#
# Velocity S-wave (km/s) = 6.18033 3.21003 4.92447
# Velocity P-wave (km/s) = 7.88516 5.76213 6.90572
#
# Compressibility (1/GPa) = 0.04378465
#
# Stress axis : x y z
#
# Youngs Moduli (GPa) = 35.91097 30.57235 63.85969
#
# Poissons Ratio (x) = 0.34950 -0.04360
# Poissons Ratio (y) = 0.41053 0.34906
# Poissons Ratio (z) = -0.02452 0.16711
#
# Static dielectric constant tensor:
#      x y z
#    x 1.812470 0.000000 -0.078180 
#    y 0.000000 1.718910 0.000000 
#    z -0.078180 0.000000 1.833240 
# 
# From -- ./inp_files/260047.got.cif
#   From: 2010.05.17/outbox.cif.g08.bks.cpg/sg12_131_cif.got.tgz:260047.got - 2010.06.03 13:09:07.
