data_PCOD9171156
_publ_section_title
;
Structure prediction by ZEFSAII (Michael W. Deem and Ramdas Pophale) SiO2 
 PCOD9171156
Probable space group: C 2/M
;
_chemical_formula_sum "Si O2"
_cell_formula_units_Z 64
_cell_length_a 22.863882
_cell_length_b 28.577258
_cell_length_c 21.471223
_cell_angle_alpha 90.000000
_cell_angle_beta 159.899153
_cell_angle_gamma 90.000000
_cell_volume 4821.403198
_symmetry_space_group_name_H-M "C 2/M"
_symmetry_group_IT_number 12
_symmetry_cell_setting 'monoclinic'
loop_
_space_group_symop_operation_xyz
x,y,z
-x,y,-z
-x,-y,-z
x,-y,z
1/2+x,1/2+y,z
1/2-x,1/2+y,-z
1/2-x,1/2-y,-z
1/2+x,1/2-y,z
loop_
_atom_site_type_symbol
_atom_site_label
_atom_site_fract_x
_atom_site_fract_y
_atom_site_fract_z
Si Si1 0.250000 0.326737 0.481349
Si Si2 0.750000 0.768724 0.600717
Si Si3 0.546242 0.446117 0.475223
Si Si4 0.546242 0.946117 0.117261
Si Si5 0.058385 0.861712 0.714196
Si Si6 0.948085 0.769245 0.376096
Si Si7 0.941615 0.361712 0.097426
Si Si8 0.948085 0.269245 0.020073
O O1 0.250000 0.278095 0.442172
O O2 0.250000 0.311941 0.553250
O O3 0.416689 0.354157 0.625031
O O4 0.083311 0.354157 0.291654
O O5 0.581353 0.764414 0.474264
O O6 0.918647 0.764414 0.811559
O O7 0.500000 0.433262 0.500000
O O8 0.491326 0.500000 0.410794
O O9 0.750000 0.443859 0.672773
O O10 0.466559 0.410004 0.347396
O O11 0.466559 0.910004 0.085722
O O12 0.491327 0.000000 0.071859
O O13 0.500000 0.933262 0.000000
O O14 0.035141 0.819816 0.640609
O O15 0.250000 0.857976 0.930482
O O16 0.000000 0.773128 0.500000
O O17 0.750000 0.755127 0.172614
O O18 0.964859 0.319817 0.070326
O O19 0.000000 0.273128 0.000000
#
# Coordination Sequence:
#
# PCOD9171156 Si02
#       8
#     8   8   8   8   8   8   8   8
#     4   9  18  32  43  58  80 106 141 173 212 247
#     4   9  18  30  44  58  82 107 130 179 214 245
#     4  10  19  29  41  59  83 109 140 179 218 251
#     4  10  19  29  41  59  83 109 140 179 218 251
#     4  10  19  29  44  60  79 109 143 176 209 249
#     4  10  18  27  42  63  82 105 138 173 213 252
#     4  10  19  29  44  60  79 109 143 176 209 249
#     4  10  18  27  42  63  82 105 138 173 213 252
#
# _framework density 13.274143
#
# number of rings (size 3 to 8) (size 9 to 14) (size 15 to 20)
#    0.000    2.250    2.500    1.500    0.000    4.500 
#    0.000    5.000    0.000    0.000    0.000    0.000 
#    0.000    0.000    0.000    0.000    0.000    5.000 
#
# Total GULP energy -178370.041430 kJ/mol
# GULP energy per Si atom -5574.063795 kJ/mol
# Density = 1.324393 g / cm^3
# Si number density = 13.274143 Si / 1000 Ang^3
#
#
#
# Elastic Constant Matrix: (Units=GPa)
#
#
# Indices 1 2 3 4 5 6 
#
# 1 55.9662 27.5387 47.7679 0.0001 7.0983 0.0000
# 2 27.5387 43.3447 32.2522 0.0000 1.3751 0.0000
# 3 47.7679 32.2522 107.2386 0.0000 7.8597 0.0000
# 4 0.0001 0.0000 0.0000 10.0469 0.0000 -3.3513
# 5 7.0983 1.3751 7.8597 0.0000 16.4871 0.0000
# 6 0.0000 0.0000 0.0000 -3.3513 0.0000 21.5344
#
#
#
# Elastic Compliance Matrix: (Units=1/GPa)
#
#
# Indices 1 2 3 4 5 6 
#
# 1 0.035048 -0.013980 -0.010763 0.000000 -0.008793 0.000000
# 2 -0.013980 0.035353 -0.004798 0.000000 0.005358 0.000000
# 3 -0.010763 -0.004798 0.015743 0.000000 -0.002471 0.000000
# 4 0.000000 0.000000 0.000000 0.104983 0.000000 0.016338
# 5 -0.008793 0.005358 -0.002471 0.000000 0.065170 0.000000
# 6 0.000000 0.000000 0.000000 0.016338 0.000000 0.048980
#
#
# Mechanical properties :
#
#
# Convention : Reuss Voigt Hill
#
# Bulk Modulus (GPa) = 36.95094 46.85189 41.90142
# Shear Modulus (GPa) = 13.39115 16.21307 14.80211
#
# Velocity S-wave (km/s) = 3.17963 3.49865 3.34295
# Velocity P-wave (km/s) = 6.43252 7.18978 6.82166
#
# Compressibility (1/GPa) = 0.02706291
#
# Stress axis : x y z
#
# Youngs Moduli (GPa) = 28.53191 28.28596 63.51942
#
# Poissons Ratio (x) = 0.39545 0.68365
# Poissons Ratio (y) = 0.39889 0.30476
# Poissons Ratio (z) = 0.30708 0.13571
#
# Static dielectric constant tensor:
#      x y z
#    x 1.410670 0.000000 0.014790 
#    y 0.000000 1.417530 0.000000 
#    z 0.014790 0.000000 1.461360 
# 
# From -- ./inp_files/323214.got.cif
#   From: 2010.05.17/outbox.cif.g08.bks.cpg/sg12_162_cif.got.tgz:323214.got - 2010.06.03 13:09:07.
