data_PCOD9171925
_publ_section_title
;
Structure prediction by ZEFSAII (Michael W. Deem and Ramdas Pophale) SiO2 
 PCOD9171925
Probable space group: C 2/M
;
_chemical_formula_sum "Si O2"
_cell_formula_units_Z 56
_cell_length_a 27.196284
_cell_length_b 9.323437
_cell_length_c 17.730926
_cell_angle_alpha 90.000000
_cell_angle_beta 54.503113
_cell_angle_gamma 90.000000
_cell_volume 3660.327028
_symmetry_space_group_name_H-M "C 2/M"
_symmetry_group_IT_number 12
_symmetry_cell_setting 'monoclinic'
loop_
_space_group_symop_operation_xyz
x,y,z
-x,y,-z
-x,-y,-z
x,-y,z
1/2+x,1/2+y,z
1/2-x,1/2+y,-z
1/2-x,1/2-y,-z
1/2+x,1/2-y,z
loop_
_atom_site_type_symbol
_atom_site_label
_atom_site_fract_x
_atom_site_fract_y
_atom_site_fract_z
Si Si1 0.589389 0.835317 0.404029
Si Si2 0.343971 0.172255 0.906951
Si Si3 0.766778 0.332743 0.706364
Si Si4 0.782348 0.171056 0.539916
Si Si5 0.424261 0.330359 0.432793
Si Si6 0.963432 0.670919 0.714817
Si Si7 0.229816 0.827807 0.903162
O O1 0.661994 0.827581 0.336556
O O2 0.568260 0.732606 0.489528
O O3 0.562965 0.803281 0.345715
O O4 0.573401 0.000000 0.438289
O O5 0.410410 0.214408 0.819486
O O6 0.293964 0.205815 0.886839
O O7 0.343194 0.000000 0.917252
O O8 0.320885 0.249709 0.002546
O O9 0.752588 0.500000 0.702268
O O10 0.758740 0.235952 0.640021
O O11 0.732427 0.287337 0.812963
O O12 0.750000 0.250000 0.500000
O O13 0.854653 0.199207 0.472906
O O14 0.773338 0.000000 0.545149
O O15 0.433585 0.500000 0.424423
O O16 0.473603 0.253445 0.336792
O O17 0.972803 0.500000 0.713729
O O18 0.222661 0.000000 0.913481
#
# Coordination Sequence:
#
# PCOD9171925 Si02
#       7
#     8   8   8   8   8   8   8
#     4   9  16  28  44  62  88 125 162 188 215 262
#     4   9  17  28  42  63  93 127 164 199 223 255
#     4   9  16  29  49  69  93 124 157 192 229 272
#     4  10  21  36  52  71  93 116 148 191 238 285
#     4  10  21  32  43  65  93 117 148 191 233 274
#     4  10  18  29  44  63  90 128 165 189 217 264
#     4   9  16  28  44  65  92 125 162 195 229 265
#
# _framework density 15.299179000000001
#
# number of rings (size 3 to 8) (size 9 to 14) (size 15 to 20)
#    0.000    2.571    1.429    1.286    0.000    5.143 
#    0.000    0.000    0.000    0.000    0.000    1.000 
#    0.000    8.000    0.000    0.000    0.000    0.000 
#
# Total GULP energy -156085.302193 kJ/mol
# GULP energy per Si atom -5574.475078 kJ/mol
# Density = 1.526436 g / cm^3
# Si number density = 15.299179 Si / 1000 Ang^3
#
#
#
# Elastic Constant Matrix: (Units=GPa)
#
#
# Indices 1 2 3 4 5 6 
#
# 1 56.0960 44.7397 52.9858 0.0000 10.9106 0.0000
# 2 44.7397 53.4002 66.7027 0.0000 2.0810 0.0000
# 3 52.9858 66.7027 150.8651 0.0000 -2.9598 0.0000
# 4 0.0000 0.0000 0.0000 29.9972 0.0000 -0.5040
# 5 10.9106 2.0810 -2.9598 0.0000 17.9067 0.0000
# 6 0.0000 0.0000 0.0000 -0.5040 0.0000 18.2494
#
#
#
# Elastic Compliance Matrix: (Units=1/GPa)
#
#
# Indices 1 2 3 4 5 6 
#
# 1 0.071953 -0.058897 0.000044 0.000000 -0.036989 0.000000
# 2 -0.058897 0.091194 -0.019200 0.000000 0.022115 0.000000
# 3 0.000044 -0.019200 0.015195 0.000000 0.004716 0.000000
# 4 0.000000 0.000000 0.000000 0.033352 0.000000 0.000921
# 5 -0.036989 0.022115 0.004716 0.000000 0.076592 0.000000
# 6 0.000000 0.000000 0.000000 0.000921 0.000000 0.054822
#
#
# Mechanical properties :
#
#
# Convention : Reuss Voigt Hill
#
# Bulk Modulus (GPa) = 44.97643 65.46863 55.22253
# Shear Modulus (GPa) = 9.86920 19.62622 14.74771
#
# Velocity S-wave (km/s) = 2.54260 3.58554 3.10813
# Velocity P-wave (km/s) = 6.17102 7.74769 7.00386
#
# Compressibility (1/GPa) = 0.02223387
#
# Stress axis : x y z
#
# Youngs Moduli (GPa) = 13.89787 10.96568 65.81235
#
# Poissons Ratio (x) = 0.64585 -0.00289
# Poissons Ratio (y) = 0.81855 1.26362
# Poissons Ratio (z) = -0.00061 0.21055
#
# Static dielectric constant tensor:
#      x y z
#    x 1.491310 0.000000 -0.015030 
#    y 0.000000 1.506680 0.000000 
#    z -0.015030 0.000000 1.516010 
# 
# From -- ./inp_files/291820.got.cif
#   From: 2010.05.17/outbox.cif.g08.bks.cpg/sg12_146_cif.got.tgz:291820.got - 2010.06.03 13:09:07.
