data_PCOD9171431
_publ_section_title
;
Structure prediction by ZEFSAII (Michael W. Deem and Ramdas Pophale) SiO2 
 PCOD9171431
Probable space group: C 2/M
;
_chemical_formula_sum "Si O2"
_cell_formula_units_Z 64
_cell_length_a 24.546574
_cell_length_b 7.358813
_cell_length_c 25.076453
_cell_angle_alpha 90.000000
_cell_angle_beta 43.493072
_cell_angle_gamma 90.000000
_cell_volume 3117.608800
_symmetry_space_group_name_H-M "C 2/M"
_symmetry_group_IT_number 12
_symmetry_cell_setting 'monoclinic'
loop_
_space_group_symop_operation_xyz
x,y,z
-x,y,-z
-x,-y,-z
x,-y,z
1/2+x,1/2+y,z
1/2-x,1/2+y,-z
1/2-x,1/2-y,-z
1/2+x,1/2-y,z
loop_
_atom_site_type_symbol
_atom_site_label
_atom_site_fract_x
_atom_site_fract_y
_atom_site_fract_z
Si Si1 0.017155 0.216894 0.852894
Si Si2 0.987381 0.722423 0.640512
Si Si3 0.719881 0.783351 0.081084
Si Si4 0.958305 0.283072 0.778068
Si Si5 0.875071 0.778035 0.029376
Si Si6 0.847922 0.221601 0.166274
Si Si7 0.918135 0.290418 0.524218
Si Si8 0.169222 0.277655 0.312463
O O1 0.005725 0.250998 0.798645
O O2 0.097392 0.282701 0.823732
O O3 0.016834 0.000000 0.859433
O O4 0.941787 0.284600 0.940587
O O5 0.989387 0.500000 0.636967
O O6 0.994148 0.781847 0.696717
O O7 0.901322 0.775032 0.677747
O O8 0.055385 0.787126 0.551443
O O9 0.631443 0.711415 0.151578
O O10 0.788443 0.716834 0.071620
O O11 0.715595 0.000000 0.092151
O O12 0.750000 0.750000 0.000000
O O13 0.952215 0.500000 0.777125
O O14 0.886509 0.725124 0.082495
O O15 0.875590 0.000000 0.027479
O O16 0.756839 0.280419 0.234379
O O17 0.846011 0.000000 0.168117
O O18 0.894919 0.500000 0.531448
O O19 0.854858 0.214414 0.610891
O O20 0.000000 0.291138 0.500000
O O21 0.168214 0.500000 0.313680
#
# Coordination Sequence:
#
# PCOD9171431 Si02
#       8
#     8   8   8   8   8   8   8   8
#     4  10  19  30  43  59  82 113 144 175 208 239
#     4   8  13  22  37  60  87 110 132 163 208 256
#     4  10  18  28  43  62  83 107 134 166 206 246
#     4  10  19  29  43  62  85 113 142 168 200 248
#     4   9  16  27  42  59  79 104 137 175 212 246
#     4   9  16  25  40  60  79 103 140 180 211 241
#     4   7  10  17  32  55  84 111 128 155 208 259
#     4   8  12  20  36  60  86 106 130 170 214 249
#
# _framework density 20.528554
#
# number of rings (size 3 to 8) (size 9 to 14) (size 15 to 20)
#    0.000    3.125    1.250    2.625    0.000    4.500 
#    0.000    0.000    0.000    3.000    0.000    0.875 
#    0.000    4.500    0.000    0.000    0.000    0.000 
#
# Total GULP energy -178473.819473 kJ/mol
# GULP energy per Si atom -5577.306859 kJ/mol
# Density = 2.048183 g / cm^3
# Si number density = 20.528554 Si / 1000 Ang^3
#
#
#
# Elastic Constant Matrix: (Units=GPa)
#
#
# Indices 1 2 3 4 5 6 
#
# 1 96.3706 -0.4599 57.6216 -0.0048 28.0277 -0.0407
# 2 -0.4599 73.7747 -1.0891 0.0113 -1.0007 -0.0097
# 3 57.6216 -1.0891 140.6200 -0.0008 38.5648 0.0178
# 4 -0.0048 0.0113 -0.0008 -1.4142 0.0047 4.3658
# 5 28.0277 -1.0007 38.5648 0.0047 25.9458 0.0048
# 6 -0.0407 -0.0097 0.0178 4.3658 0.0048 -8.5407
#
#
#
# Elastic Compliance Matrix: (Units=1/GPa)
#
#
# Indices 1 2 3 4 5 6 
#
# 1 0.015865 -0.000117 -0.003040 0.000639 -0.012625 0.000238
# 2 -0.000117 0.013563 -0.000042 -0.000114 0.000713 -0.000073
# 3 -0.003040 -0.000042 0.012588 -0.000088 -0.015428 -0.000013
# 4 0.000639 -0.000114 -0.000088 1.223317 -0.000900 0.625327
# 5 -0.012625 0.000713 -0.015428 -0.000900 0.075139 -0.000391
# 6 0.000238 -0.000073 -0.000013 0.625327 -0.000391 0.202565
#
#
# Mechanical properties :
#
#
# Convention : Reuss Voigt Hill
#
# Bulk Modulus (GPa) = 28.07611 46.99004 37.53308
# Shear Modulus (GPa) = 3.20244 20.17770 11.69007
#
# Velocity S-wave (km/s) = 1.25035 3.13854 2.38891
# Velocity P-wave (km/s) = 3.97377 6.00614 5.09237
#
# Compressibility (1/GPa) = 0.03561747
#
# Stress axis : x y z
#
# Youngs Moduli (GPa) = 63.03011 73.72945 79.44311
#
# Poissons Ratio (x) = 0.00865 0.24148
# Poissons Ratio (y) = 0.00739 0.00337
# Poissons Ratio (z) = 0.19159 0.00313
#
# Static dielectric constant tensor:
#      x y z
#    x 1.701130 -0.000010 0.014890 
#    y -0.000010 1.849970 0.000000 
#    z 0.014890 0.000000 1.744520 
# 
# From -- ./inp_files/320720.got.cif
#   From: 2010.05.17/outbox.cif.g08.bks.cpg/sg12_161_cif.got.tgz:320720.got - 2010.06.03 13:09:07.
