data_PCOD9171049
_publ_section_title
;
Structure prediction by ZEFSAII (Michael W. Deem and Ramdas Pophale) SiO2 
 PCOD9171049
Probable space group: C 2/M
;
_chemical_formula_sum "Si O2"
_cell_formula_units_Z 56
_cell_length_a 27.919608
_cell_length_b 22.130021
_cell_length_c 19.024608
_cell_angle_alpha 90.000000
_cell_angle_beta 17.176615
_cell_angle_gamma 90.000000
_cell_volume 3471.338569
_symmetry_space_group_name_H-M "C 2/M"
_symmetry_group_IT_number 12
_symmetry_cell_setting 'monoclinic'
loop_
_space_group_symop_operation_xyz
x,y,z
-x,y,-z
-x,-y,-z
x,-y,z
1/2+x,1/2+y,z
1/2-x,1/2+y,-z
1/2-x,1/2-y,-z
1/2+x,1/2-y,z
loop_
_atom_site_type_symbol
_atom_site_label
_atom_site_fract_x
_atom_site_fract_y
_atom_site_fract_z
Si Si1 0.496361 0.291446 0.178805
Si Si2 0.575556 0.929112 0.085130
Si Si3 0.667653 0.928209 0.799384
Si Si4 0.307777 0.831193 0.477994
Si Si5 0.561395 0.344424 0.598233
Si Si6 0.602306 0.570032 0.284262
Si Si7 0.326819 0.260557 0.205965
O O1 0.421917 0.224730 0.294775
O O2 0.347526 0.330015 0.355116
O O3 0.537746 0.319084 0.196492
O O4 0.631329 0.284302 0.930061
O O5 0.416625 0.890195 0.321411
O O6 0.536649 0.000000 0.133127
O O7 0.657838 0.910831 0.895341
O O8 0.710979 0.921957 0.955165
O O9 0.815524 0.897609 0.552949
O O10 0.681341 0.000000 0.776413
O O11 0.500000 0.909177 0.000000
O O12 0.241244 0.812907 0.647865
O O13 0.455851 0.377154 0.686267
O O14 0.689469 0.291526 0.396764
O O15 0.500000 0.573446 0.500000
O O16 0.578764 0.500000 0.291104
O O17 0.500000 0.240936 0.000000
#
# Coordination Sequence:
#
# PCOD9171049 Si02
#       7
#     8   8   8   8   8   8   8
#     4   9  18  30  49  77 100 128 160 198 249 299
#     4  10  19  32  51  70  95 130 167 203 240 293
#     4  10  18  26  42  71  99 119 148 199 250 292
#     4   9  17  32  52  73 101 129 161 199 248 303
#     4  11  18  29  50  70  97 131 164 197 238 292
#     4  10  20  34  49  70  99 135 167 198 246 293
#     4   9  18  32  51  74 102 133 160 198 248 299
#
# _framework density 16.132104999999999
#
# number of rings (size 3 to 8) (size 9 to 14) (size 15 to 20)
#    0.000    2.286    1.429    3.429    0.000    0.000 
#    0.000    3.571    0.000    5.571    0.000    2.000 
#    0.000    0.000    0.000    0.000    0.000    0.000 
#
# Total GULP energy -155996.008199 kJ/mol
# GULP energy per Si atom -5571.286007 kJ/mol
# Density = 1.609539 g / cm^3
# Si number density = 16.132105 Si / 1000 Ang^3
#
#
#
# Elastic Constant Matrix: (Units=GPa)
#
#
# Indices 1 2 3 4 5 6 
#
# 1 81.6519 44.8317 27.9135 -0.0028 10.9710 -0.0001
# 2 44.8317 67.4041 34.2816 0.0010 3.9525 0.0015
# 3 27.9135 34.2816 54.9329 -0.0052 16.0484 0.0039
# 4 -0.0028 0.0010 -0.0052 29.8987 0.0070 -9.5632
# 5 10.9710 3.9525 16.0484 0.0070 28.7095 -0.0019
# 6 -0.0001 0.0015 0.0039 -9.5632 -0.0019 27.0822
#
#
#
# Elastic Compliance Matrix: (Units=1/GPa)
#
#
# Indices 1 2 3 4 5 6 
#
# 1 0.020261 -0.012810 -0.000662 0.000004 -0.005608 0.000002
# 2 -0.012810 0.030581 -0.015269 -0.000008 0.009220 -0.000002
# 3 -0.000662 -0.015269 0.032726 0.000009 -0.015938 -0.000002
# 4 0.000004 -0.000008 0.000009 0.037705 -0.000014 0.013314
# 5 -0.005608 0.009220 -0.015938 -0.000014 0.044615 0.000000
# 6 0.000002 -0.000002 -0.000002 0.013314 0.000000 0.041626
#
#
# Mechanical properties :
#
#
# Convention : Reuss Voigt Hill
#
# Bulk Modulus (GPa) = 38.33669 46.44916 42.39293
# Shear Modulus (GPa) = 18.26876 23.60221 20.93548
#
# Velocity S-wave (km/s) = 3.36884 3.82914 3.60634
# Velocity P-wave (km/s) = 6.24082 6.95739 6.60883
#
# Compressibility (1/GPa) = 0.02608467
#
# Stress axis : x y z
#
# Youngs Moduli (GPa) = 49.35708 32.69986 30.55683
#
# Poissons Ratio (x) = 0.41888 0.02024
# Poissons Ratio (y) = 0.63226 0.46658
# Poissons Ratio (z) = 0.03270 0.49930
#
# Static dielectric constant tensor:
#      x y z
#    x 1.576870 0.000000 -0.003840 
#    y 0.000000 1.542690 0.000000 
#    z -0.003840 0.000000 1.538830 
# 
# From -- ./inp_files/184613.got.cif
#   From: 2010.05.17/outbox.cif.g08.bks.cpg/sg12_93_cif.got.tgz:184613.got - 2010.06.03 13:09:07.
