data_PCOD9171137
_publ_section_title
;
Structure prediction by ZEFSAII (Michael W. Deem and Ramdas Pophale) SiO2 
 PCOD9171137
Probable space group: C 2/M
;
_chemical_formula_sum "Si O2"
_cell_formula_units_Z 48
_cell_length_a 25.765749
_cell_length_b 7.576855
_cell_length_c 15.914057
_cell_angle_alpha 90.000000
_cell_angle_beta 121.433305
_cell_angle_gamma 90.000000
_cell_volume 2650.866361
_symmetry_space_group_name_H-M "C 2/M"
_symmetry_group_IT_number 12
_symmetry_cell_setting 'monoclinic'
loop_
_space_group_symop_operation_xyz
x,y,z
-x,y,-z
-x,-y,-z
x,-y,z
1/2+x,1/2+y,z
1/2-x,1/2+y,-z
1/2-x,1/2-y,-z
1/2+x,1/2-y,z
loop_
_atom_site_type_symbol
_atom_site_label
_atom_site_fract_x
_atom_site_fract_y
_atom_site_fract_z
Si Si1 0.654320 0.711617 0.758337
Si Si2 0.296061 0.711515 0.840892
Si Si3 0.296001 0.286990 0.656194
Si Si4 0.837520 0.289763 0.512648
Si Si5 0.434509 0.795227 0.465948
Si Si6 0.179185 0.788448 0.959393
O O1 0.648183 0.500000 0.751625
O O2 0.723777 0.754843 0.790935
O O3 0.607999 0.788354 0.652025
O O4 0.645177 0.775741 0.846892
O O5 0.304048 0.500000 0.847716
O O6 0.314284 0.777524 0.764097
O O7 0.329683 0.780232 0.953242
O O8 0.293413 0.500000 0.657047
O O9 0.227643 0.221162 0.576364
O O10 0.337818 0.239735 0.612525
O O11 0.836130 0.500000 0.496707
O O12 0.893937 0.217069 0.507210
O O13 0.500000 0.714619 0.500000
O O14 0.445946 0.000000 0.498624
O O15 0.171168 0.000000 0.954555
O O16 0.250000 0.750000 0.000000
#
# Coordination Sequence:
#
# PCOD9171137 Si02
#       6
#     8   8   8   8   8   8
#     4  10  18  27  41  64  91 114 141 179 222 253
#     4   9  15  27  44  62  88 119 148 170 203 260
#     4   9  16  26  43  64  86 114 141 170 212 256
#     4   9  17  29  42  61  85 110 142 178 215 253
#     4  10  20  34  49  62  81 116 155 182 211 256
#     4   8  15  25  39  60  86 115 141 171 209 255
#
# _framework density 18.107288
#
# number of rings (size 3 to 8) (size 9 to 14) (size 15 to 20)
#    0.000    2.833    1.667    0.500    0.000    2.333 
#    0.000    0.000    0.000    0.000    0.000    1.167 
#    0.000    9.333    0.000    0.000    0.000    0.000 
#
# Total GULP energy -133627.936048 kJ/mol
# GULP energy per Si atom -5567.830669 kJ/mol
# Density = 1.806608 g / cm^3
# Si number density = 18.107288 Si / 1000 Ang^3
#
#
#
# Elastic Constant Matrix: (Units=GPa)
#
#
# Indices 1 2 3 4 5 6 
#
# 1 106.4429 2.2800 66.6764 0.0000 -28.8308 0.0000
# 2 2.2800 41.3935 -5.0827 0.0000 -5.1205 0.0000
# 3 66.6764 -5.0827 105.6559 0.0000 -38.7528 0.0000
# 4 0.0000 0.0000 0.0000 9.4288 0.0000 -1.7634
# 5 -28.8308 -5.1205 -38.7528 0.0000 25.1601 0.0000
# 6 0.0000 0.0000 0.0000 -1.7634 0.0000 7.8921
#
#
#
# Elastic Compliance Matrix: (Units=1/GPa)
#
#
# Indices 1 2 3 4 5 6 
#
# 1 0.016021 -0.001177 -0.008094 0.000000 0.005652 0.000000
# 2 -0.001177 0.027340 0.008284 0.000000 0.016975 0.000000
# 3 -0.008094 0.008284 0.028013 0.000000 0.035559 0.000000
# 4 0.000000 0.000000 0.000000 0.110683 0.000000 0.024732
# 5 0.005652 0.016975 0.035559 0.000000 0.104446 0.000000
# 6 0.000000 0.000000 0.000000 0.024732 0.000000 0.132236
#
#
# Mechanical properties :
#
#
# Convention : Reuss Voigt Hill
#
# Bulk Modulus (GPa) = 14.40900 42.35999 28.38449
# Shear Modulus (GPa) = 11.26516 21.13744 16.20130
#
# Velocity S-wave (km/s) = 2.49697 3.42035 2.99446
# Velocity P-wave (km/s) = 4.03584 6.24844 5.25980
#
# Compressibility (1/GPa) = 0.06940109
#
# Stress axis : x y z
#
# Youngs Moduli (GPa) = 62.41865 36.57608 35.69725
#
# Poissons Ratio (x) = 0.04305 0.28893
# Poissons Ratio (y) = 0.07347 -0.29573
# Poissons Ratio (z) = 0.50521 -0.30301
#
# Static dielectric constant tensor:
#      x y z
#    x 1.611070 0.000000 -0.048600 
#    y 0.000000 1.703940 0.000000 
#    z -0.048600 0.000000 1.669800 
# 
# From -- ./inp_files/236840.got.cif
#   From: 2010.05.17/outbox.cif.g08.bks.cpg/sg12_119_cif.got.tgz:236840.got - 2010.06.03 13:09:07.
