data_PCOD9171272
_publ_section_title
;
Structure prediction by ZEFSAII (Michael W. Deem and Ramdas Pophale) SiO2 
 PCOD9171272
Probable space group: C 2/M
;
_chemical_formula_sum "Si O2"
_cell_formula_units_Z 64
_cell_length_a 21.101896
_cell_length_b 7.646818
_cell_length_c 29.481580
_cell_angle_alpha 90.000000
_cell_angle_beta 43.597353
_cell_angle_gamma 90.000000
_cell_volume 3280.510844
_symmetry_space_group_name_H-M "C 2/M"
_symmetry_group_IT_number 12
_symmetry_cell_setting 'monoclinic'
loop_
_space_group_symop_operation_xyz
x,y,z
-x,y,-z
-x,-y,-z
x,-y,z
1/2+x,1/2+y,z
1/2-x,1/2+y,-z
1/2-x,1/2-y,-z
1/2+x,1/2-y,z
loop_
_atom_site_type_symbol
_atom_site_label
_atom_site_fract_x
_atom_site_fract_y
_atom_site_fract_z
Si Si1 0.686068 0.209888 0.075592
Si Si2 0.958077 0.710025 0.714119
Si Si3 0.763676 0.711987 0.850889
Si Si4 0.059581 0.707799 0.926987
Si Si5 0.902657 0.296359 0.428876
Si Si6 0.108421 0.791926 0.713296
Si Si7 0.751927 0.213810 0.430707
Si Si8 0.988864 0.707804 0.147271
O O1 0.726660 0.274097 0.102083
O O2 0.584227 0.279418 0.118053
O O3 0.679533 0.000000 0.083524
O O4 0.750000 0.250000 0.000000
O O5 0.953605 0.500000 0.711781
O O6 0.855467 0.773248 0.777309
O O7 0.008712 0.780841 0.642664
O O8 0.024337 0.741933 0.723149
O O9 0.764913 0.500000 0.849996
O O10 0.667156 0.767597 0.880391
O O11 0.041357 0.500000 0.935133
O O12 0.032960 0.779775 0.891259
O O13 0.000000 0.780177 0.000000
O O14 0.922423 0.500000 0.427832
O O15 0.824594 0.282551 0.430243
O O16 0.849063 0.225967 0.500859
O O17 0.202994 0.731794 0.640261
O O18 0.088086 0.731491 0.774506
O O19 0.111006 0.000000 0.712810
O O20 0.752827 0.000000 0.432624
O O21 0.001484 0.500000 0.135591
#
# Coordination Sequence:
#
# PCOD9171272 Si02
#       8
#     8   8   8   8   8   8   8   8
#     4  10  20  34  52  73  96 123 156 196 240 289
#     4   9  16  29  47  68  97 132 164 195 239 290
#     4  10  20  34  52  74 100 127 157 200 246 288
#     4  10  22  39  57  73  93 125 162 202 246 294
#     4   8  13  22  39  60  88 128 163 189 227 283
#     4  10  18  27  44  71 101 129 160 202 242 278
#     4   8  14  23  35  60  95 125 156 195 235 272
#     4  10  20  36  53  70  97 129 161 197 239 295
#
# _framework density 19.509157999999999
#
# number of rings (size 3 to 8) (size 9 to 14) (size 15 to 20)
#    0.000    2.625    1.250    1.125    0.000    3.750 
#    0.000    0.000    0.000    0.000    0.000    0.875 
#    0.000    7.000    0.000    0.000    0.000    0.000 
#
# Total GULP energy -178305.625764 kJ/mol
# GULP energy per Si atom -5572.050805 kJ/mol
# Density = 1.946475 g / cm^3
# Si number density = 19.509158 Si / 1000 Ang^3
#
#
#
# Elastic Constant Matrix: (Units=GPa)
#
#
# Indices 1 2 3 4 5 6 
#
# 1 38.2438 -2.6075 14.3940 0.0006 12.4832 -0.0055
# 2 -2.6075 37.2304 -6.6924 0.0044 2.6375 0.0014
# 3 14.3940 -6.6924 119.8829 0.0002 6.4565 -0.0023
# 4 0.0006 0.0044 0.0002 13.6904 -0.0002 -0.3052
# 5 12.4832 2.6375 6.4565 -0.0002 18.0642 0.0005
# 6 -0.0055 0.0014 -0.0023 -0.3052 0.0005 13.9775
#
#
#
# Elastic Compliance Matrix: (Units=1/GPa)
#
#
# Indices 1 2 3 4 5 6 
#
# 1 0.035231 0.003669 -0.002738 -0.000003 -0.023903 0.000014
# 2 0.003669 0.027893 0.001501 -0.000009 -0.007144 -0.000001
# 3 -0.002738 0.001501 0.008834 -0.000001 -0.001485 0.000000
# 4 -0.000003 -0.000009 -0.000001 0.073079 0.000004 0.001596
# 5 -0.023903 -0.007144 -0.001485 0.000004 0.073450 -0.000012
# 6 0.000014 -0.000001 0.000000 0.001596 -0.000012 0.071578
#
#
# Mechanical properties :
#
#
# Convention : Reuss Voigt Hill
#
# Bulk Modulus (GPa) = 13.01712 22.83836 17.92774
# Shear Modulus (GPa) = 16.08708 21.83064 18.95886
#
# Velocity S-wave (km/s) = 2.87469 3.34877 3.12074
# Velocity P-wave (km/s) = 4.20776 5.16568 4.71113
#
# Compressibility (1/GPa) = 0.07682191
#
# Stress axis : x y z
#
# Youngs Moduli (GPa) = 28.38416 35.85165 113.19929
#
# Poissons Ratio (x) = -0.13153 0.30993
# Poissons Ratio (y) = -0.10413 -0.16996
# Poissons Ratio (z) = 0.07771 -0.05383
#
# Static dielectric constant tensor:
#      x y z
#    x 1.645040 0.000000 -0.007370 
#    y 0.000000 1.746530 0.000000 
#    z -0.007370 0.000000 1.772280 
# 
# From -- ./inp_files/365202.got.cif
#   From: 2010.05.17/outbox.cif.g08.bks.cpg/sg12_183_cif.got.tgz:365202.got - 2010.06.03 13:09:07.
