data_PCOD9171573
_publ_section_title
;
Structure prediction by ZEFSAII (Michael W. Deem and Ramdas Pophale) SiO2 
 PCOD9171573
Probable space group: C 2/M
;
_chemical_formula_sum "Si O2"
_cell_formula_units_Z 64
_cell_length_a 23.112216
_cell_length_b 9.125867
_cell_length_c 21.369865
_cell_angle_alpha 90.000000
_cell_angle_beta 115.355661
_cell_angle_gamma 90.000000
_cell_volume 4073.107802
_symmetry_space_group_name_H-M "C 2/M"
_symmetry_group_IT_number 12
_symmetry_cell_setting 'monoclinic'
loop_
_space_group_symop_operation_xyz
x,y,z
-x,y,-z
-x,-y,-z
x,-y,z
1/2+x,1/2+y,z
1/2-x,1/2+y,-z
1/2-x,1/2-y,-z
1/2+x,1/2-y,z
loop_
_atom_site_type_symbol
_atom_site_label
_atom_site_fract_x
_atom_site_fract_y
_atom_site_fract_z
Si Si1 0.599949 0.174935 0.708660
Si Si2 0.733021 0.825666 0.393858
Si Si3 0.149265 0.825733 0.458668
Si Si4 0.182114 0.324047 0.985550
Si Si5 0.257413 0.174282 0.273981
Si Si6 0.782709 0.331006 0.864759
Si Si7 0.982202 0.675816 0.563134
Si Si8 0.135757 0.169706 0.847834
O O1 0.668117 0.209830 0.707545
O O2 0.541653 0.211394 0.635902
O O3 0.596799 0.257277 0.773369
O O4 0.599947 0.000000 0.719903
O O5 0.799670 0.798369 0.461832
O O6 0.678589 0.751163 0.411017
O O7 0.737251 0.755928 0.327499
O O8 0.723251 0.000000 0.386041
O O9 0.081384 0.758320 0.445239
O O10 0.145209 0.000000 0.447425
O O11 0.186761 0.500000 0.980985
O O12 0.133995 0.257459 0.912264
O O13 0.250000 0.250000 0.000000
O O14 0.173062 0.292153 0.055148
O O15 0.216916 0.228687 0.195375
O O16 0.252285 0.000000 0.279244
O O17 0.794756 0.500000 0.852522
O O18 0.709783 0.324728 0.857818
O O19 0.971553 0.500000 0.561061
O O20 0.000000 0.712759 0.500000
O O21 0.119328 0.000000 0.849398
#
# Coordination Sequence:
#
# PCOD9171573 Si02
#       8
#     8   8   8   8   8   8   8   8
#     4   9  18  30  44  64  91 123 155 187 225 271
#     4  10  20  34  51  68  90 119 149 186 231 276
#     4  10  21  35  51  71  91 115 151 191 229 270
#     4   9  15  23  36  54  79 112 149 186 223 266
#     4  10  18  28  45  67  91 120 154 190 225 265
#     4   8  15  25  36  55  84 116 148 182 222 268
#     4  10  20  34  51  70  94 123 153 186 227 273
#     4   9  16  25  38  56  81 115 152 188 224 264
#
# _framework density 15.712818
#
# number of rings (size 3 to 8) (size 9 to 14) (size 15 to 20)
#    0.000    2.625    0.000    3.375    0.000    7.250 
#    0.000    0.000    0.000    0.000    0.000    0.000 
#    0.000    1.000    0.000   10.500    0.000    7.500 
#
# Total GULP energy -178314.119091 kJ/mol
# GULP energy per Si atom -5572.316222 kJ/mol
# Density = 1.567705 g / cm^3
# Si number density = 15.712818 Si / 1000 Ang^3
#
#
#
# Elastic Constant Matrix: (Units=GPa)
#
#
# Indices 1 2 3 4 5 6 
#
# 1 62.6751 44.5747 58.9284 0.0000 -10.8980 0.0000
# 2 44.5747 73.2867 79.8577 0.0000 -14.9325 0.0000
# 3 58.9284 79.8577 153.8399 0.0000 -19.1643 0.0000
# 4 0.0000 0.0000 0.0000 28.2414 0.0000 -4.0325
# 5 -10.8980 -14.9325 -19.1643 0.0000 17.1151 0.0000
# 6 0.0000 0.0000 0.0000 -4.0325 0.0000 21.8306
#
#
#
# Elastic Compliance Matrix: (Units=1/GPa)
#
#
# Indices 1 2 3 4 5 6 
#
# 1 0.029564 -0.012535 -0.004457 0.000000 0.002898 0.000000
# 2 -0.012535 0.038486 -0.013931 0.000000 0.009998 0.000000
# 3 -0.004457 -0.013931 0.015771 0.000000 0.002667 0.000000
# 4 0.000000 0.000000 0.000000 0.036368 0.000000 0.006718
# 5 0.002898 0.009998 0.002667 0.000000 0.071983 0.000000
# 6 0.000000 0.000000 0.000000 0.006718 0.000000 0.047048
#
#
# Mechanical properties :
#
#
# Convention : Reuss Voigt Hill
#
# Bulk Modulus (GPa) = 45.50319 72.94702 59.22511
# Shear Modulus (GPa) = 16.21309 20.53349 18.37329
#
# Velocity S-wave (km/s) = 3.21571 3.61889 3.42324
# Velocity P-wave (km/s) = 6.54293 7.99924 7.30745
#
# Compressibility (1/GPa) = 0.02197648
#
# Stress axis : x y z
#
# Youngs Moduli (GPa) = 33.82439 25.98315 63.40603
#
# Poissons Ratio (x) = 0.32569 0.28259
# Poissons Ratio (y) = 0.42398 0.88333
# Poissons Ratio (z) = 0.15075 0.36198
#
# Static dielectric constant tensor:
#      x y z
#    x 1.490120 0.000000 0.001730 
#    y 0.000000 1.522670 0.000000 
#    z 0.001730 0.000000 1.545440 
# 
# From -- ./inp_files/323795.got.cif
#   From: 2010.05.17/outbox.cif.g08.bks.cpg/sg12_162_cif.got.tgz:323795.got - 2010.06.03 13:09:07.
