data_PCOD9171627
_publ_section_title
;
Structure prediction by ZEFSAII (Michael W. Deem and Ramdas Pophale) SiO2 
 PCOD9171627
Probable space group: C 2/M
;
_chemical_formula_sum "Si O2"
_cell_formula_units_Z 56
_cell_length_a 26.016572
_cell_length_b 7.552612
_cell_length_c 15.622120
_cell_angle_alpha 90.000000
_cell_angle_beta 73.601727
_cell_angle_gamma 90.000000
_cell_volume 2944.773116
_symmetry_space_group_name_H-M "C 2/M"
_symmetry_group_IT_number 12
_symmetry_cell_setting 'monoclinic'
loop_
_space_group_symop_operation_xyz
x,y,z
-x,y,-z
-x,-y,-z
x,-y,z
1/2+x,1/2+y,z
1/2-x,1/2+y,-z
1/2-x,1/2-y,-z
1/2+x,1/2-y,z
loop_
_atom_site_type_symbol
_atom_site_label
_atom_site_fract_x
_atom_site_fract_y
_atom_site_fract_z
Si Si1 0.824682 0.209440 0.415511
Si Si2 0.814187 0.714749 0.114311
Si Si3 0.213887 0.292799 0.388621
Si Si4 0.624536 0.783061 0.087134
Si Si5 0.105481 0.712418 0.773972
Si Si6 0.505747 0.216255 0.096466
Si Si7 0.307377 0.206928 0.786642
O O1 0.825148 0.279927 0.511769
O O2 0.771032 0.283158 0.393708
O O3 0.874105 0.244253 0.330170
O O4 0.817895 0.000000 0.427259
O O5 0.812758 0.500000 0.116571
O O6 0.850741 0.775616 0.176962
O O7 0.753697 0.779529 0.152057
O O8 0.841967 0.769922 0.012729
O O9 0.224141 0.500000 0.366615
O O10 0.193024 0.215786 0.309225
O O11 0.563018 0.726946 0.105895
O O12 0.653369 0.718462 0.159577
O O13 0.625094 0.000000 0.086787
O O14 0.104502 0.500000 0.782131
O O15 0.046466 0.776416 0.827063
O O16 0.505841 0.000000 0.097182
O O17 0.500000 0.269045 0.000000
O O18 0.322173 0.000000 0.772614
#
# Coordination Sequence:
#
# PCOD9171627 Si02
#       7
#     8   8   8   8   8   8   8
#     4  10  19  31  48  69  94 123 154 193 241 287
#     4  10  18  28  45  71  99 129 159 187 225 280
#     4   9  18  31  46  67  94 122 154 193 237 282
#     4   9  17  29  46  69  97 129 163 193 227 272
#     4  10  18  28  48  73  98 124 155 196 234 272
#     4   9  15  27  47  71  96 124 161 200 229 260
#     4  10  19  31  47  69  99 129 154 191 238 281
#
# _framework density 19.016746000000001
#
# number of rings (size 3 to 8) (size 9 to 14) (size 15 to 20)
#    0.000    2.429    2.857    0.857    0.000    1.143 
#    0.000    0.000    0.000    3.000    0.000    6.000 
#    0.000    0.000    0.000    0.000    0.000    0.000 
#
# Total GULP energy -156247.350262 kJ/mol
# GULP energy per Si atom -5580.262509 kJ/mol
# Density = 1.897346 g / cm^3
# Si number density = 19.016746 Si / 1000 Ang^3
#
#
#
# Elastic Constant Matrix: (Units=GPa)
#
#
# Indices 1 2 3 4 5 6 
#
# 1 134.2030 -6.0712 81.8028 0.0000 7.8334 0.0000
# 2 -6.0712 42.6387 -7.8730 0.0000 5.4126 0.0000
# 3 81.8028 -7.8730 144.9419 0.0000 -5.4791 0.0000
# 4 0.0000 0.0000 0.0000 8.2117 0.0000 -6.3660
# 5 7.8334 5.4126 -5.4791 0.0000 25.4924 0.0000
# 6 0.0000 0.0000 0.0000 -6.3660 0.0000 10.0205
#
#
#
# Elastic Compliance Matrix: (Units=1/GPa)
#
#
# Indices 1 2 3 4 5 6 
#
# 1 0.012055 0.001124 -0.006948 0.000000 -0.005436 0.000000
# 2 0.001124 0.024391 0.000486 0.000000 -0.005420 0.000000
# 3 -0.006948 0.000486 0.011013 0.000000 0.004399 0.000000
# 4 0.000000 0.000000 0.000000 0.239961 0.000000 0.152447
# 5 -0.005436 -0.005420 0.004399 0.000000 0.042994 0.000000
# 6 0.000000 0.000000 0.000000 0.152447 0.000000 0.196645
#
#
# Mechanical properties :
#
#
# Convention : Reuss Voigt Hill
#
# Bulk Modulus (GPa) = 27.18755 50.83340 39.01048
# Shear Modulus (GPa) = 9.09099 25.67325 17.38212
#
# Velocity S-wave (km/s) = 2.18881 3.67827 3.02659
# Velocity P-wave (km/s) = 4.55143 6.69540 5.72468
#
# Compressibility (1/GPa) = 0.03678154
#
# Stress axis : x y z
#
# Youngs Moduli (GPa) = 82.95611 40.99948 90.79972
#
# Poissons Ratio (x) = -0.04607 0.63086
# Poissons Ratio (y) = -0.09321 -0.04412
# Poissons Ratio (z) = 0.57637 -0.01992
#
# Static dielectric constant tensor:
#      x y z
#    x 1.641560 0.000000 0.015690 
#    y 0.000000 1.724260 0.000000 
#    z 0.015690 0.000000 1.665360 
# 
# From -- ./inp_files/237435.got.cif
#   From: 2010.05.17/outbox.cif.g08.bks.cpg/sg12_119_cif.got.tgz:237435.got - 2010.06.03 13:09:07.
