data_PCOD9171742
_publ_section_title
;
Structure prediction by ZEFSAII (Michael W. Deem and Ramdas Pophale) SiO2 
 PCOD9171742
Probable space group: C 2/M
;
_chemical_formula_sum "Si O2"
_cell_formula_units_Z 56
_cell_length_a 18.185601
_cell_length_b 7.614889
_cell_length_c 29.659092
_cell_angle_alpha 90.000000
_cell_angle_beta 139.872424
_cell_angle_gamma 90.000000
_cell_volume 2647.076053
_symmetry_space_group_name_H-M "C 2/M"
_symmetry_group_IT_number 12
_symmetry_cell_setting 'monoclinic'
loop_
_space_group_symop_operation_xyz
x,y,z
-x,y,-z
-x,-y,-z
x,-y,z
1/2+x,1/2+y,z
1/2-x,1/2+y,-z
1/2-x,1/2-y,-z
1/2+x,1/2-y,z
loop_
_atom_site_type_symbol
_atom_site_label
_atom_site_fract_x
_atom_site_fract_y
_atom_site_fract_z
Si Si1 0.416237 0.212044 0.501455
Si Si2 0.382342 0.290633 0.070332
Si Si3 0.802750 0.214981 0.211549
Si Si4 0.551739 0.794524 0.070115
Si Si5 0.030934 0.215258 0.791323
Si Si6 0.116841 0.206925 0.653138
Si Si7 0.781537 0.796171 0.648687
O O1 0.500000 0.269353 0.500000
O O2 0.484299 0.266678 0.577798
O O3 0.291749 0.277512 0.427776
O O4 0.413117 0.000000 0.499752
O O5 0.395877 0.500000 0.076033
O O6 0.460340 0.217875 0.066985
O O7 0.425795 0.226014 0.139396
O O8 0.250000 0.250000 0.000000
O O9 0.673739 0.277553 0.142874
O O10 0.882235 0.267483 0.207245
O O11 0.851070 0.273595 0.282417
O O12 0.803643 0.000000 0.213208
O O13 0.574254 0.000000 0.071073
O O14 0.500000 0.716433 0.000000
O O15 0.903745 0.278878 0.719564
O O16 0.029459 0.000000 0.792052
O O17 0.197374 0.289672 0.652437
O O18 0.140634 0.000000 0.662509
O O19 0.802919 0.000000 0.647699
#
# Coordination Sequence:
#
# PCOD9171742 Si02
#       7
#     8   8   8   8   8   8   8
#     4   8  15  28  46  69  96 127 164 204 246 294
#     4  11  22  36  57  82 107 136 171 212 255 302
#     4   9  18  32  50  74 102 132 168 207 250 301
#     4  10  20  36  58  80 105 138 172 209 255 305
#     4   9  18  34  54  74  98 133 174 208 245 299
#     4  10  18  28  47  73 100 129 161 204 253 300
#     4   9  17  31  52  73  94 126 168 210 247 291
#
# _framework density 21.155418000000001
#
# number of rings (size 3 to 8) (size 9 to 14) (size 15 to 20)
#    0.000    2.571    0.000    3.429    0.000    5.143 
#    0.000    2.143    0.000    6.000    0.000    0.000 
#    0.000    0.000    0.000    0.000    0.000    0.000 
#
# Total GULP energy -156238.513898 kJ/mol
# GULP energy per Si atom -5579.946925 kJ/mol
# Density = 2.110727 g / cm^3
# Si number density = 21.155418 Si / 1000 Ang^3
#
#
#
# Elastic Constant Matrix: (Units=GPa)
#
#
# Indices 1 2 3 4 5 6 
#
# 1 96.3942 -19.9727 94.7930 0.0000 2.9794 0.0000
# 2 -19.9727 40.6219 -1.1929 0.0004 0.4050 -0.0003
# 3 94.7930 -1.1929 257.1641 0.0000 4.5905 0.0000
# 4 0.0000 0.0004 0.0000 42.3160 0.0000 -5.1424
# 5 2.9794 0.4050 4.5905 0.0000 33.9486 0.0001
# 6 0.0000 -0.0003 0.0000 -5.1424 0.0001 11.6209
#
#
#
# Elastic Compliance Matrix: (Units=1/GPa)
#
#
# Indices 1 2 3 4 5 6 
#
# 1 0.019233 0.009258 -0.007031 0.000000 -0.000848 0.000000
# 2 0.009258 0.029081 -0.003265 0.000000 -0.000718 0.000001
# 3 -0.007031 -0.003265 0.006469 0.000000 -0.000219 0.000000
# 4 0.000000 0.000000 0.000000 0.024975 0.000000 0.011052
# 5 -0.000848 -0.000718 -0.000219 0.000000 0.029569 0.000000
# 6 0.000000 0.000001 0.000000 0.011052 0.000000 0.090942
#
#
# Mechanical properties :
#
#
# Convention : Reuss Voigt Hill
#
# Bulk Modulus (GPa) = 18.97282 60.15946 39.56614
# Shear Modulus (GPa) = 22.73616 38.94728 30.84172
#
# Velocity S-wave (km/s) = 3.28185 4.29535 3.82234
# Velocity P-wave (km/s) = 4.83203 7.28688 6.18252
#
# Compressibility (1/GPa) = 0.05270698
#
# Stress axis : x y z
#
# Youngs Moduli (GPa) = 51.99321 34.38711 154.57875
#
# Poissons Ratio (x) = -0.31837 1.08692
# Poissons Ratio (y) = -0.48138 0.50471
# Poissons Ratio (z) = 0.36559 0.11228
#
# Static dielectric constant tensor:
#      x y z
#    x 1.689290 0.000000 0.002630 
#    y 0.000000 1.804760 0.000000 
#    z 0.002630 0.000000 1.795810 
# 
# From -- ./inp_files/363120.got.cif
#   From: 2010.05.17/outbox.cif.g08.bks.cpg/sg12_182_cif.got.tgz:363120.got - 2010.06.03 13:09:07.
