data_PCOD9171342
_publ_section_title
;
Structure prediction by ZEFSAII (Michael W. Deem and Ramdas Pophale) SiO2 
 PCOD9171342
Probable space group: C 2/M
;
_chemical_formula_sum "Si O2"
_cell_formula_units_Z 48
_cell_length_a 15.247770
_cell_length_b 20.684211
_cell_length_c 12.335234
_cell_angle_alpha 90.000000
_cell_angle_beta 154.253968
_cell_angle_gamma 90.000000
_cell_volume 1689.917033
_symmetry_space_group_name_H-M "C 2/M"
_symmetry_group_IT_number 12
_symmetry_cell_setting 'monoclinic'
loop_
_space_group_symop_operation_xyz
x,y,z
-x,y,-z
-x,-y,-z
x,-y,z
1/2+x,1/2+y,z
1/2-x,1/2+y,-z
1/2-x,1/2-y,-z
1/2+x,1/2-y,z
loop_
_atom_site_type_symbol
_atom_site_label
_atom_site_fract_x
_atom_site_fract_y
_atom_site_fract_z
Si Si1 0.541239 0.070332 0.712246
Si Si2 0.049774 0.765739 0.875601
Si Si3 0.994155 0.707073 0.613020
Si Si4 0.892384 0.075407 0.523984
Si Si5 0.016156 0.096242 0.896412
Si Si6 0.684194 0.875380 0.090592
O O1 0.425578 0.133151 0.538307
O O2 0.455269 0.000000 0.593214
O O3 0.762197 0.074677 0.901248
O O4 0.569829 0.081144 0.873321
O O5 0.270567 0.795299 0.091225
O O6 0.093428 0.697017 0.980486
O O7 0.916686 0.753448 0.619726
O O8 0.975867 0.826253 0.860299
O O9 0.000000 0.734002 0.500000
O O10 0.714267 0.100637 0.247402
O O11 0.878111 0.078560 0.638272
O O12 0.087398 0.117594 0.704713
O O13 0.928485 0.000000 0.537736
O O14 0.000000 0.070669 0.000000
#
# Coordination Sequence:
#
# PCOD9171342 Si02
#       6
#     8   8   8   8   8   8
#     4   9  17  30  47  71  99 121 154 196 236 291
#     4   9  19  30  45  71  94 128 164 191 238 286
#     4   9  17  28  48  71  97 122 152 195 247 288
#     4  10  18  27  48  77  97 121 153 194 248 293
#     4  10  20  33  45  66  96 135 165 194 233 280
#     4   9  16  28  47  71  96 117 147 201 247 279
#
# _framework density 28.403759999999998
#
# number of rings (size 3 to 8) (size 9 to 14) (size 15 to 20)
#    0.000    2.667    0.000    6.500    4.667    1.667 
#    0.000    0.833    0.000    0.000    0.000    0.000 
#    0.000    7.667    0.000    0.000    0.000    0.000 
#
# Total GULP energy -134255.811887 kJ/mol
# GULP energy per Si atom -5593.992162 kJ/mol
# Density = 2.833911 g / cm^3
# Si number density = 28.403760 Si / 1000 Ang^3
#
#
#
# Elastic Constant Matrix: (Units=GPa)
#
#
# Indices 1 2 3 4 5 6 
#
# 1 156.1166 44.4964 83.7789 0.0000 -45.3191 0.0000
# 2 44.4964 226.3556 46.9908 0.0000 -27.7466 0.0000
# 3 83.7789 46.9908 134.0363 0.0000 -43.2141 0.0000
# 4 0.0000 0.0000 0.0000 21.1248 0.0000 1.8616
# 5 -45.3191 -27.7466 -43.2141 0.0000 75.0493 0.0000
# 6 0.0000 0.0000 0.0000 1.8616 0.0000 6.8407
#
#
#
# Elastic Compliance Matrix: (Units=1/GPa)
#
#
# Indices 1 2 3 4 5 6 
#
# 1 0.010241 -0.000561 -0.005253 0.000000 0.002952 0.000000
# 2 -0.000561 0.004855 -0.001083 0.000000 0.000833 0.000000
# 3 -0.005253 -0.001083 0.012245 0.000000 0.003478 0.000000
# 4 0.000000 0.000000 0.000000 0.048501 0.000000 -0.013199
# 5 0.002952 0.000833 0.003478 0.000000 0.017418 0.000000
# 6 0.000000 0.000000 0.000000 -0.013199 0.000000 0.149776
#
#
# Mechanical properties :
#
#
# Convention : Reuss Voigt Hill
#
# Bulk Modulus (GPa) = 73.81220 96.33787 85.07504
# Shear Modulus (GPa) = 19.13177 43.35245 31.24211
#
# Velocity S-wave (km/s) = 2.59813 3.91102 3.32012
# Velocity P-wave (km/s) = 5.91976 7.37466 6.68690
#
# Compressibility (1/GPa) = 0.01354790
#
# Stress axis : x y z
#
# Youngs Moduli (GPa) = 97.64489 205.97394 81.66548
#
# Poissons Ratio (x) = 0.11552 0.42897
# Poissons Ratio (y) = 0.05476 0.08845
# Poissons Ratio (z) = 0.51291 0.22309
#
# Static dielectric constant tensor:
#      x y z
#    x 2.399180 0.000000 0.032020 
#    y 0.000000 2.161340 0.000000 
#    z 0.032020 0.000000 2.250640 
# 
# From -- ./inp_files/159324.got.cif
#   From: 2010.05.17/outbox.cif.g08.bks.cpg/sg12_80_cif.got.tgz:159324.got - 2010.06.03 13:09:07.
