data_PCOD9171151
_publ_section_title
;
Structure prediction by ZEFSAII (Michael W. Deem and Ramdas Pophale) SiO2 
 PCOD9171151
Probable space group: C 2/M
;
_chemical_formula_sum "Si O2"
_cell_formula_units_Z 56
_cell_length_a 24.546834
_cell_length_b 9.365144
_cell_length_c 22.722907
_cell_angle_alpha 90.000000
_cell_angle_beta 45.045356
_cell_angle_gamma 90.000000
_cell_volume 3696.599146
_symmetry_space_group_name_H-M "C 2/M"
_symmetry_group_IT_number 12
_symmetry_cell_setting 'monoclinic'
loop_
_space_group_symop_operation_xyz
x,y,z
-x,y,-z
-x,-y,-z
x,-y,z
1/2+x,1/2+y,z
1/2-x,1/2+y,-z
1/2-x,1/2-y,-z
1/2+x,1/2-y,z
loop_
_atom_site_type_symbol
_atom_site_label
_atom_site_fract_x
_atom_site_fract_y
_atom_site_fract_z
Si Si1 0.643447 0.836533 0.040981
Si Si2 0.172303 0.668606 0.487091
Si Si3 0.722718 0.164152 0.110540
Si Si4 0.527774 0.330236 0.543918
Si Si5 0.917944 0.169804 0.737084
Si Si6 0.326706 0.831969 0.372823
Si Si7 0.501819 0.828545 0.779816
O O1 0.683386 0.834018 0.075376
O O2 0.555304 0.796549 0.122361
O O3 0.647319 0.000000 0.016924
O O4 0.693799 0.734175 0.961901
O O5 0.172405 0.500000 0.476007
O O6 0.102702 0.744682 0.507002
O O7 0.254319 0.738455 0.408945
O O8 0.161872 0.690105 0.565580
O O9 0.665399 0.256892 0.194109
O O10 0.726443 0.000000 0.126634
O O11 0.500000 0.291191 0.500000
O O12 0.545089 0.500000 0.531479
O O13 0.460336 0.305624 0.642979
O O14 0.970014 0.242121 0.748129
O O15 0.911781 0.000000 0.752156
O O16 0.408281 0.797668 0.280586
O O17 0.309749 0.000000 0.377158
O O18 0.494532 0.000000 0.773570
#
# Coordination Sequence:
#
# PCOD9171151 Si02
#       7
#     8   8   8   8   8   8   8
#     4   8  14  23  36  55  80 109 141 172 205 247
#     4  10  19  30  46  66  87 113 148 185 221 260
#     4   9  16  25  37  53  79 111 141 173 210 253
#     4  10  21  35  48  63  86 116 150 188 228 265
#     4  10  18  27  42  60  80 109 146 182 217 258
#     4   9  17  29  45  64  90 118 145 178 218 263
#     4   9  16  27  42  61  86 115 144 176 212 254
#
# _framework density 15.14906
#
# number of rings (size 3 to 8) (size 9 to 14) (size 15 to 20)
#    0.000    2.714    1.429    2.143    0.000    5.429 
#    0.000    0.000    0.000    0.000    0.000    0.000 
#    0.000    1.143    0.000   13.143    0.000    5.429 
#
# Total GULP energy -155965.263317 kJ/mol
# GULP energy per Si atom -5570.187976 kJ/mol
# Density = 1.511458 g / cm^3
# Si number density = 15.149060 Si / 1000 Ang^3
#
#
#
# Elastic Constant Matrix: (Units=GPa)
#
#
# Indices 1 2 3 4 5 6 
#
# 1 62.7609 53.9889 57.7454 0.0000 -18.1956 0.0001
# 2 53.9889 81.9492 70.6909 -0.0003 -18.9654 0.0003
# 3 57.7454 70.6909 107.3129 0.0000 -37.8057 0.0000
# 4 0.0000 -0.0003 0.0000 21.7637 0.0000 -8.1510
# 5 -18.1956 -18.9654 -37.8057 0.0000 27.2237 0.0000
# 6 0.0001 0.0003 0.0000 -8.1510 0.0000 19.5701
#
#
#
# Elastic Compliance Matrix: (Units=1/GPa)
#
#
# Indices 1 2 3 4 5 6 
#
# 1 0.040856 -0.018698 -0.009077 0.000000 0.001675 0.000000
# 2 -0.018698 0.039003 -0.020482 0.000000 -0.013769 0.000000
# 3 -0.009077 -0.020482 0.040196 0.000000 0.035485 0.000000
# 4 0.000000 0.000000 0.000000 0.054440 0.000000 0.022674
# 5 0.001675 -0.013769 0.035485 0.000000 0.077538 0.000000
# 6 0.000000 0.000000 0.000000 0.022674 0.000000 0.060542
#
#
# Mechanical properties :
#
#
# Convention : Reuss Voigt Hill
#
# Bulk Modulus (GPa) = 42.48028 68.54150 55.51089
# Shear Modulus (GPa) = 11.99224 18.35136 15.17180
#
# Velocity S-wave (km/s) = 2.81662 3.48427 3.16808
# Velocity P-wave (km/s) = 6.21934 7.84409 7.07849
#
# Compressibility (1/GPa) = 0.02354033
#
# Stress axis : x y z
#
# Youngs Moduli (GPa) = 24.47623 25.63932 24.87806
#
# Poissons Ratio (x) = 0.47942 0.22582
# Poissons Ratio (y) = 0.45767 0.50954
# Poissons Ratio (z) = 0.22217 0.52513
#
# Static dielectric constant tensor:
#      x y z
#    x 1.469200 0.000000 -0.026320 
#    y 0.000000 1.505370 0.000000 
#    z -0.026320 0.000000 1.517220 
# 
# From -- ./inp_files/323543.got.cif
#   From: 2010.05.17/outbox.cif.g08.bks.cpg/sg12_162_cif.got.tgz:323543.got - 2010.06.03 13:09:07.
