data_PCOD9171674
_publ_section_title
;
Structure prediction by ZEFSAII (Michael W. Deem and Ramdas Pophale) SiO2 
 PCOD9171674
Probable space group: C 2/M
;
_chemical_formula_sum "Si O2"
_cell_formula_units_Z 64
_cell_length_a 19.534774
_cell_length_b 8.988998
_cell_length_c 20.717629
_cell_angle_alpha 90.000000
_cell_angle_beta 95.337114
_cell_angle_gamma 90.000000
_cell_volume 3622.203261
_symmetry_space_group_name_H-M "C 2/M"
_symmetry_group_IT_number 12
_symmetry_cell_setting 'monoclinic'
loop_
_space_group_symop_operation_xyz
x,y,z
-x,y,-z
-x,-y,-z
x,-y,z
1/2+x,1/2+y,z
1/2-x,1/2+y,-z
1/2-x,1/2-y,-z
1/2+x,1/2-y,z
loop_
_atom_site_type_symbol
_atom_site_label
_atom_site_fract_x
_atom_site_fract_y
_atom_site_fract_z
Si Si1 0.925583 0.328339 0.029643
Si Si2 0.121212 0.324180 0.325381
Si Si3 0.022054 0.176881 0.702571
Si Si4 0.865033 0.678634 0.893296
Si Si5 0.713108 0.677356 0.222232
Si Si6 0.252978 0.176050 0.570018
Si Si7 0.495610 0.324600 0.147450
Si Si8 0.162902 0.677736 0.673674
O O1 0.912282 0.500000 0.046309
O O2 0.936219 0.230021 0.093672
O O3 0.872272 0.279999 0.969547
O O4 0.000000 0.325300 0.000000
O O5 0.114866 0.500000 0.311106
O O6 0.158180 0.244370 0.268187
O O7 0.172270 0.305063 0.390292
O O8 0.047460 0.251357 0.329415
O O9 0.022241 0.203167 0.779859
O O10 0.089296 0.250005 0.678384
O O11 0.021085 0.000000 0.691710
O O12 0.863927 0.500000 0.889519
O O13 0.802732 0.748810 0.847846
O O14 0.934824 0.737959 0.865535
O O15 0.703873 0.500000 0.217475
O O16 0.787015 0.709135 0.260700
O O17 0.250000 0.250000 0.500000
O O18 0.200010 0.252994 0.614627
O O19 0.238976 0.000000 0.564876
O O20 0.507950 0.500000 0.139630
O O21 0.158161 0.500000 0.666503
#
# Coordination Sequence:
#
# PCOD9171674 Si02
#       8
#     8   8   8   8   8   8   8   8
#     4   8  16  28  41  64  97 133 174 219 270 323
#     4  10  20  34  56  83 110 143 180 216 260 314
#     4  11  22  35  53  80 113 144 179 224 270 317
#     4  10  18  28  46  71 100 135 176 223 272 323
#     4  10  19  32  51  77 105 136 178 226 272 318
#     4  10  21  39  63  89 115 145 179 215 258 310
#     4  10  19  29  45  71 102 137 175 220 273 321
#     4  10  22  38  57  81 111 145 180 220 267 318
#
# _framework density 17.668804000000002
#
# number of rings (size 3 to 8) (size 9 to 14) (size 15 to 20)
#    0.000    2.125    1.250    3.375    0.000    7.250 
#    0.000    0.625    0.000    4.500    0.000    0.000 
#    0.000    0.000    0.000    0.000    0.000    0.000 
#
# Total GULP energy -178586.739044 kJ/mol
# GULP energy per Si atom -5580.835595 kJ/mol
# Density = 1.762859 g / cm^3
# Si number density = 17.668804 Si / 1000 Ang^3
#
#
#
# Elastic Constant Matrix: (Units=GPa)
#
#
# Indices 1 2 3 4 5 6 
#
# 1 96.6686 48.5105 22.8792 0.0000 0.8230 0.0000
# 2 48.5105 82.4164 46.1658 0.0000 5.2985 0.0000
# 3 22.8792 46.1658 66.3865 0.0000 14.4652 0.0000
# 4 0.0000 0.0000 0.0000 32.3867 0.0000 5.4603
# 5 0.8230 5.2985 14.4652 0.0000 14.7694 0.0000
# 6 0.0000 0.0000 0.0000 5.4603 0.0000 23.5879
#
#
#
# Elastic Compliance Matrix: (Units=1/GPa)
#
#
# Indices 1 2 3 4 5 6 
#
# 1 0.014802 -0.009456 0.001163 0.000000 0.001428 0.000000
# 2 -0.009456 0.026718 -0.016969 0.000000 0.007561 0.000000
# 3 0.001163 -0.016969 0.031974 0.000000 -0.025292 0.000000
# 4 0.000000 0.000000 0.000000 0.032131 0.000000 -0.007438
# 5 0.001428 0.007561 -0.025292 0.000000 0.089687 0.000000
# 6 0.000000 0.000000 0.000000 -0.007438 0.000000 0.044116
#
#
# Mechanical properties :
#
#
# Convention : Reuss Voigt Hill
#
# Bulk Modulus (GPa) = 43.53286 53.39804 48.46545
# Shear Modulus (GPa) = 16.80054 22.67653 19.73853
#
# Velocity S-wave (km/s) = 3.08694 3.58637 3.34599
# Velocity P-wave (km/s) = 6.11534 6.88743 6.51284
#
# Compressibility (1/GPa) = 0.02297115
#
# Stress axis : x y z
#
# Youngs Moduli (GPa) = 67.55627 37.42732 31.27568
#
# Poissons Ratio (x) = 0.35392 -0.03638
# Poissons Ratio (y) = 0.63882 0.53071
# Poissons Ratio (z) = -0.07858 0.63510
#
# Static dielectric constant tensor:
#      x y z
#    x 1.593480 0.000000 0.032800 
#    y 0.000000 1.587680 0.000000 
#    z 0.032800 0.000000 1.601900 
# 
# From -- ./inp_files/314186.got.cif
#   From: 2010.05.17/outbox.cif.g08.bks.cpg/sg12_158_cif.got.tgz:314186.got - 2010.06.03 13:09:07.
