data_PCOD9171941
_publ_section_title
;
Structure prediction by ZEFSAII (Michael W. Deem and Ramdas Pophale) SiO2 
 PCOD9171941
Probable space group: C 2/M
;
_chemical_formula_sum "Si O2"
_cell_formula_units_Z 64
_cell_length_a 30.061425
_cell_length_b 14.692351
_cell_length_c 10.181733
_cell_angle_alpha 90.000000
_cell_angle_beta 114.690817
_cell_angle_gamma 90.000000
_cell_volume 4085.859344
_symmetry_space_group_name_H-M "C 2/M"
_symmetry_group_IT_number 12
_symmetry_cell_setting 'monoclinic'
loop_
_space_group_symop_operation_xyz
x,y,z
-x,y,-z
-x,-y,-z
x,-y,z
1/2+x,1/2+y,z
1/2-x,1/2+y,-z
1/2-x,1/2-y,-z
1/2+x,1/2-y,z
loop_
_atom_site_type_symbol
_atom_site_label
_atom_site_fract_x
_atom_site_fract_y
_atom_site_fract_z
Si Si1 0.936533 0.896027 0.558999
Si Si2 0.729289 0.392568 0.066311
Si Si3 0.135647 0.228439 0.878420
Si Si4 0.814302 0.393621 0.955462
Si Si5 0.212910 0.392693 0.594575
Si Si6 0.452600 0.603655 0.262192
Si Si7 0.150325 0.231311 0.584751
Si Si8 0.257171 0.392890 0.366173
O O1 0.943699 0.896114 0.409261
O O2 0.895254 0.821607 0.535855
O O3 0.989901 0.876553 0.685225
O O4 0.922073 0.000000 0.576811
O O5 0.717027 0.500000 0.045561
O O6 0.753441 0.372396 0.237058
O O7 0.681677 0.333485 0.978602
O O8 0.771070 0.375947 0.008624
O O9 0.085496 0.174882 0.843682
O O10 0.139908 0.242226 0.726733
O O11 0.142559 0.324634 0.958003
O O12 0.827620 0.500000 0.981557
O O13 0.789410 0.375952 0.784469
O O14 0.200655 0.500000 0.583341
O O15 0.165845 0.328112 0.545071
O O16 0.242616 0.374661 0.498096
O O17 0.442847 0.500000 0.205529
O O18 0.197613 0.167110 0.624629
O O19 0.269560 0.500000 0.366801
#
# Coordination Sequence:
#
# PCOD9171941 Si02
#       8
#     8   8   8   8   8   8   8   8
#     4   8  15  27  43  65  92 117 146 184 225 267
#     4  10  18  29  44  65  91 119 150 183 222 266
#     4  11  18  26  45  68  91 119 152 183 222 270
#     4  10  19  30  44  64  91 121 153 185 218 262
#     4  10  21  33  43  62  95 126 152 184 219 260
#     4   8  15  27  42  65  94 118 142 182 230 268
#     4  11  18  27  46  67  88 121 155 183 221 268
#     4  10  20  32  45  65  92 121 154 188 219 258
#
# _framework density 15.663779
#
# number of rings (size 3 to 8) (size 9 to 14) (size 15 to 20)
#    0.000    2.250    2.500    3.000    0.000    1.000 
#    0.000    0.000    0.000    0.750    0.000    7.000 
#    0.000   14.000    0.000    0.000    0.000    0.000 
#
# Total GULP energy -178431.898708 kJ/mol
# GULP energy per Si atom -5575.996835 kJ/mol
# Density = 1.562813 g / cm^3
# Si number density = 15.663779 Si / 1000 Ang^3
#
#
#
# Elastic Constant Matrix: (Units=GPa)
#
#
# Indices 1 2 3 4 5 6 
#
# 1 32.3068 31.5646 4.2077 0.0000 21.2709 0.0000
# 2 31.5646 63.9913 10.7973 0.0000 26.0707 0.0000
# 3 4.2077 10.7973 40.4065 0.0000 2.7269 0.0000
# 4 0.0000 0.0000 0.0000 20.9324 0.0000 7.9733
# 5 21.2709 26.0707 2.7269 0.0000 24.3139 0.0000
# 6 0.0000 0.0000 0.0000 7.9733 0.0000 24.6506
#
#
#
# Elastic Compliance Matrix: (Units=1/GPa)
#
#
# Indices 1 2 3 4 5 6 
#
# 1 0.086430 -0.021047 0.000205 0.000000 -0.053068 0.000000
# 2 -0.021047 0.034118 -0.005742 0.000000 -0.017527 0.000000
# 3 0.000205 -0.005742 0.026055 0.000000 0.003056 0.000000
# 4 0.000000 0.000000 0.000000 0.054486 0.000000 -0.017623
# 5 -0.053068 -0.017527 0.003056 0.000000 0.106006 0.000000
# 6 0.000000 0.000000 0.000000 -0.017623 0.000000 0.046267
#
#
# Mechanical properties :
#
#
# Convention : Reuss Voigt Hill
#
# Bulk Modulus (GPa) = 10.70259 25.53819 18.12039
# Shear Modulus (GPa) = 11.42397 19.98837 15.70617
#
# Velocity S-wave (km/s) = 2.70353 3.57611 3.16999
# Velocity P-wave (km/s) = 4.07345 5.77848 4.99919
#
# Compressibility (1/GPa) = 0.09343530
#
# Stress axis : x y z
#
# Youngs Moduli (GPa) = 11.57003 29.30973 38.37971
#
# Poissons Ratio (x) = 0.61688 -0.00787
# Poissons Ratio (y) = 0.24351 0.22040
# Poissons Ratio (z) = -0.00237 0.16831
#
# Static dielectric constant tensor:
#      x y z
#    x 1.498370 0.000000 0.000930 
#    y 0.000000 1.550550 0.000000 
#    z 0.000930 0.000000 1.518990 
# 
# From -- ./inp_files/104680.got.cif
#   From: 2010.05.17/outbox.cif.g08.bks.cpg/sg12_53_cif.got.tgz:104680.got - 2010.06.03 13:09:07.
