data_PCOD9171294
_publ_section_title
;
Structure prediction by ZEFSAII (Michael W. Deem and Ramdas Pophale) SiO2 
 PCOD9171294
Probable space group: C 2/M
;
_chemical_formula_sum "Si O2"
_cell_formula_units_Z 56
_cell_length_a 20.012600
_cell_length_b 8.635687
_cell_length_c 22.438486
_cell_angle_alpha 90.000000
_cell_angle_beta 124.935011
_cell_angle_gamma 90.000000
_cell_volume 3179.091219
_symmetry_space_group_name_H-M "C 2/M"
_symmetry_group_IT_number 12
_symmetry_cell_setting 'monoclinic'
loop_
_space_group_symop_operation_xyz
x,y,z
-x,y,-z
-x,-y,-z
x,-y,z
1/2+x,1/2+y,z
1/2-x,1/2+y,-z
1/2-x,1/2-y,-z
1/2+x,1/2-y,z
loop_
_atom_site_type_symbol
_atom_site_label
_atom_site_fract_x
_atom_site_fract_y
_atom_site_fract_z
Si Si1 0.959997 0.684529 0.312882
Si Si2 0.763993 0.312883 0.598640
Si Si3 0.837726 0.311284 0.761873
Si Si4 0.713793 0.686894 0.796529
Si Si5 0.485527 0.813205 0.187610
Si Si6 0.881469 0.815216 0.555736
Si Si7 0.810904 0.185418 0.080306
O O1 0.954855 0.500000 0.312950
O O2 0.870817 0.756253 0.275304
O O3 0.987058 0.727519 0.258846
O O4 0.029378 0.743517 0.392719
O O5 0.771703 0.500000 0.598642
O O6 0.787008 0.266085 0.677069
O O7 0.828259 0.241460 0.585098
O O8 0.673765 0.271008 0.529515
O O9 0.839351 0.500000 0.763552
O O10 0.790276 0.259417 0.796452
O O11 0.930932 0.260621 0.800652
O O12 0.713081 0.500000 0.796015
O O13 0.714382 0.738114 0.865741
O O14 0.403330 0.743151 0.118831
O O15 0.481072 0.000000 0.181783
O O16 0.888233 0.000000 0.560749
O O17 0.809307 0.000000 0.078306
O O18 0.750000 0.250000 0.000000
#
# Coordination Sequence:
#
# PCOD9171294 Si02
#       7
#     8   8   8   8   8   8   8
#     4  10  18  31  50  71  99 134 172 210 251 299
#     4   9  17  30  47  70  99 133 169 209 256 297
#     4   9  16  32  54  75 100 131 167 208 251 296
#     4   9  19  34  54  77 100 127 166 210 247 290
#     4   9  17  31  54  77  97 129 167 202 243 291
#     4  10  18  27  45  72 100 130 171 216 252 290
#     4  10  20  35  55  79 103 128 160 199 242 292
#
# _framework density 17.615096999999999
#
# number of rings (size 3 to 8) (size 9 to 14) (size 15 to 20)
#    0.000    2.571    1.429    1.286    0.000    1.714 
#    0.000    2.857    0.000    8.571    0.000    0.000 
#    0.000    0.000    0.000    0.000    0.000    0.000 
#
# Total GULP energy -156119.059085 kJ/mol
# GULP energy per Si atom -5575.680682 kJ/mol
# Density = 1.757500 g / cm^3
# Si number density = 17.615097 Si / 1000 Ang^3
#
#
#
# Elastic Constant Matrix: (Units=GPa)
#
#
# Indices 1 2 3 4 5 6 
#
# 1 133.1314 18.4444 65.1401 0.0000 13.4321 0.0000
# 2 18.4444 10.4072 20.2450 0.0000 5.5484 0.0000
# 3 65.1401 20.2450 123.4836 0.0000 24.6809 0.0000
# 4 0.0000 0.0000 0.0000 24.1569 0.0000 8.1657
# 5 13.4321 5.5484 24.6809 0.0000 21.1071 0.0000
# 6 0.0000 0.0000 0.0000 8.1657 0.0000 21.5152
#
#
#
# Elastic Compliance Matrix: (Units=1/GPa)
#
#
# Indices 1 2 3 4 5 6 
#
# 1 0.011091 -0.012332 -0.004001 0.000000 0.000862 0.000000
# 2 -0.012332 0.157628 -0.016474 0.000000 -0.014324 0.000000
# 3 -0.004001 -0.016474 0.015054 0.000000 -0.010726 0.000000
# 4 0.000000 0.000000 0.000000 0.047488 0.000000 -0.018023
# 5 0.000862 -0.014324 -0.010726 0.000000 0.063136 0.000000
# 6 0.000000 0.000000 0.000000 -0.018023 0.000000 0.053319
#
#
# Mechanical properties :
#
#
# Convention : Reuss Voigt Hill
#
# Bulk Modulus (GPa) = 8.46334 52.74235 30.60284
# Shear Modulus (GPa) = 11.04445 24.23535 17.63990
#
# Velocity S-wave (km/s) = 2.50669 3.71324 3.16794
# Velocity P-wave (km/s) = 3.63222 6.95635 5.54904
#
# Compressibility (1/GPa) = 0.11815671
#
# Stress axis : x y z
#
# Youngs Moduli (GPa) = 90.16675 6.34405 66.42942
#
# Poissons Ratio (x) = 0.07824 0.26579
# Poissons Ratio (y) = 1.11195 1.09439
# Poissons Ratio (z) = 0.36076 0.10452
#
# Static dielectric constant tensor:
#      x y z
#    x 1.597220 0.000000 -0.000730 
#    y 0.000000 1.597050 0.000000 
#    z -0.000730 0.000000 1.593710 
# 
# From -- ./inp_files/280418.got.cif
#   From: 2010.05.17/outbox.cif.g08.bks.cpg/sg12_141_cif.got.tgz:280418.got - 2010.06.03 13:09:07.
