data_PCOD9171601
_publ_section_title
;
Structure prediction by ZEFSAII (Michael W. Deem and Ramdas Pophale) SiO2 
 PCOD9171601
Probable space group: C 2/M
;
_chemical_formula_sum "Si O2"
_cell_formula_units_Z 48
_cell_length_a 20.341990
_cell_length_b 7.756450
_cell_length_c 24.266496
_cell_angle_alpha 90.000000
_cell_angle_beta 139.622659
_cell_angle_gamma 90.000000
_cell_volume 2480.372867
_symmetry_space_group_name_H-M "C 2/M"
_symmetry_group_IT_number 12
_symmetry_cell_setting 'monoclinic'
loop_
_space_group_symop_operation_xyz
x,y,z
-x,y,-z
-x,-y,-z
x,-y,z
1/2+x,1/2+y,z
1/2-x,1/2+y,-z
1/2-x,1/2-y,-z
1/2+x,1/2-y,z
loop_
_atom_site_type_symbol
_atom_site_label
_atom_site_fract_x
_atom_site_fract_y
_atom_site_fract_z
Si Si1 0.004065 0.697174 0.942361
Si Si2 0.914436 0.710373 0.772589
Si Si3 0.923287 0.795800 0.219186
Si Si4 0.901685 0.210844 0.593224
Si Si5 0.242917 0.200245 0.587432
Si Si6 0.215916 0.804248 0.039090
O O1 0.966421 0.500000 0.924500
O O2 0.941873 0.772426 0.851165
O O3 0.121038 0.695184 0.998638
O O4 0.000000 0.780734 0.000000
O O5 0.913589 0.500000 0.772124
O O6 0.806604 0.773619 0.679300
O O7 0.003190 0.761475 0.786367
O O8 0.815212 0.710672 0.140311
O O9 0.987251 0.741071 0.313934
O O10 0.906421 0.000000 0.211414
O O11 0.859462 0.269002 0.506787
O O12 0.824871 0.285152 0.590036
O O13 0.894542 0.000000 0.591040
O O14 0.223550 0.000000 0.587690
O O15 0.179820 0.000000 0.014160
O O16 0.250000 0.750000 0.000000
#
# Coordination Sequence:
#
# PCOD9171601 Si02
#       6
#     8   8   8   8   8   8
#     4  10  21  36  52  72 100 132 165 202 244 291
#     4   9  16  27  45  67  93 127 162 196 237 286
#     4  10  18  28  45  69  96 126 157 196 241 288
#     4   8  14  23  36  59  91 121 150 187 234 281
#     4   8  13  22  37  59  88 121 154 188 229 281
#     4  12  23  35  52  73  97 128 165 205 246 291
#
# _framework density 19.351929999999999
#
# number of rings (size 3 to 8) (size 9 to 14) (size 15 to 20)
#    0.000    2.500    1.667    2.000    0.000    1.000 
#    0.000    0.000    0.000    0.000    0.000    1.167 
#    0.000    9.333    0.000    0.000    0.000    0.000 
#
# Total GULP energy -133656.407814 kJ/mol
# GULP energy per Si atom -5569.016992 kJ/mol
# Density = 1.930788 g / cm^3
# Si number density = 19.351930 Si / 1000 Ang^3
#
#
#
# Elastic Constant Matrix: (Units=GPa)
#
#
# Indices 1 2 3 4 5 6 
#
# 1 40.2194 -6.2083 36.0565 0.0000 -15.7651 0.0000
# 2 -6.2083 45.8845 -1.2462 0.0000 -1.1075 0.0000
# 3 36.0565 -1.2462 203.3151 0.0000 -22.8652 0.0000
# 4 0.0000 0.0000 0.0000 14.3173 0.0000 2.0263
# 5 -15.7651 -1.1075 -22.8652 0.0000 18.4258 0.0000
# 6 0.0000 0.0000 0.0000 2.0263 0.0000 7.3736
#
#
#
# Elastic Compliance Matrix: (Units=1/GPa)
#
#
# Indices 1 2 3 4 5 6 
#
# 1 0.041437 0.006254 -0.003813 0.000000 0.031098 0.000000
# 2 0.006254 0.022788 -0.000248 0.000000 0.006412 0.000000
# 3 -0.003813 -0.000248 0.006072 0.000000 0.004258 0.000000
# 4 0.000000 0.000000 0.000000 0.072672 0.000000 -0.019970
# 5 0.031098 0.006412 0.004258 0.000000 0.086548 0.000000
# 6 0.000000 0.000000 0.000000 -0.019970 0.000000 0.141107
#
#
# Mechanical properties :
#
#
# Convention : Reuss Voigt Hill
#
# Bulk Modulus (GPa) = 13.39018 38.51366 25.95192
# Shear Modulus (GPa) = 12.78340 25.41115 19.09727
#
# Velocity S-wave (km/s) = 2.57295 3.62761 3.14481
# Velocity P-wave (km/s) = 3.97003 6.12299 5.16004
#
# Compressibility (1/GPa) = 0.07468159
#
# Stress axis : x y z
#
# Youngs Moduli (GPa) = 24.13316 43.88274 164.69130
#
# Poissons Ratio (x) = -0.27442 0.62795
# Poissons Ratio (y) = -0.15092 0.04088
# Poissons Ratio (z) = 0.09202 0.01089
#
# Static dielectric constant tensor:
#      x y z
#    x 1.688350 0.000000 0.015100 
#    y 0.000000 1.678440 0.000000 
#    z 0.015100 0.000000 1.796030 
# 
# From -- ./inp_files/313580.got.cif
#   From: 2010.05.17/outbox.cif.g08.bks.cpg/sg12_157_cif.got.tgz:313580.got - 2010.06.03 13:09:07.
