data_PCOD9171513
_publ_section_title
;
Structure prediction by ZEFSAII (Michael W. Deem and Ramdas Pophale) SiO2 
 PCOD9171513
Probable space group: C 2/M
;
_chemical_formula_sum "Si O2"
_cell_formula_units_Z 64
_cell_length_a 19.236225
_cell_length_b 7.340674
_cell_length_c 18.679888
_cell_angle_alpha 90.000000
_cell_angle_beta 86.572078
_cell_angle_gamma 90.000000
_cell_volume 2633.008865
_symmetry_space_group_name_H-M "C 2/M"
_symmetry_group_IT_number 12
_symmetry_cell_setting 'monoclinic'
loop_
_space_group_symop_operation_xyz
x,y,z
-x,y,-z
-x,-y,-z
x,-y,z
1/2+x,1/2+y,z
1/2-x,1/2+y,-z
1/2-x,1/2-y,-z
1/2+x,1/2-y,z
loop_
_atom_site_type_symbol
_atom_site_label
_atom_site_fract_x
_atom_site_fract_y
_atom_site_fract_z
Si Si1 0.799979 0.708463 0.391427
Si Si2 0.852374 0.723033 0.532504
Si Si3 0.262643 0.290298 0.102084
Si Si4 0.220983 0.779235 0.265604
Si Si5 0.882786 0.722066 0.930651
Si Si6 0.918447 0.295649 0.078307
Si Si7 0.986889 0.277826 0.801923
Si Si8 0.069468 0.292010 0.339089
O O1 0.822061 0.500000 0.379291
O O2 0.850595 0.783754 0.449820
O O3 0.721975 0.713230 0.430862
O O4 0.783050 0.785596 0.314633
O O5 0.850976 0.500000 0.533557
O O6 0.913138 0.784169 0.582937
O O7 0.274713 0.500000 0.083042
O O8 0.236569 0.280824 0.185216
O O9 0.196804 0.215977 0.062627
O O10 0.335764 0.193137 0.092599
O O11 0.146554 0.708739 0.297958
O O12 0.218195 0.000000 0.269035
O O13 0.880938 0.500000 0.932413
O O14 0.920145 0.773142 0.854667
O O15 0.924069 0.785417 0.998270
O O16 0.948683 0.500000 0.072035
O O17 0.951054 0.217461 0.148988
O O18 0.988707 0.500000 0.795877
O O19 0.979031 0.211693 0.720763
O O20 0.046314 0.500000 0.352376
#
# Coordination Sequence:
#
# PCOD9171513 Si02
#       8
#     8   8   8   8   8   8   8   8
#     4   8  14  23  35  57  89 119 147 183 224 264
#     4   8  13  21  36  59  88 120 148 178 221 270
#     4  11  21  34  50  68  95 124 154 194 236 280
#     4  10  18  28  44  66  92 122 157 193 228 270
#     4   9  17  31  52  73  91 119 156 192 230 276
#     4  10  20  33  51  72  94 121 156 193 230 276
#     4   9  16  29  50  74  96 121 155 191 226 271
#     4   9  15  26  45  68  94 123 154 186 226 274
#
# _framework density 24.306792000000002
#
# number of rings (size 3 to 8) (size 9 to 14) (size 15 to 20)
#    0.000    2.750    1.250    1.500    0.000    2.000 
#    0.000    1.250    0.000    0.750    0.000    0.875 
#    0.000    7.000    0.000    0.000    0.000    0.000 
#
# Total GULP energy -178474.457851 kJ/mol
# GULP energy per Si atom -5577.326808 kJ/mol
# Density = 2.425147 g / cm^3
# Si number density = 24.306792 Si / 1000 Ang^3
#
#
#
# Elastic Constant Matrix: (Units=GPa)
#
#
# Indices 1 2 3 4 5 6 
#
# 1 73.9825 -0.6748 30.0403 0.0000 38.3569 0.0000
# 2 -0.6748 108.2925 1.3495 0.0000 4.1864 0.0000
# 3 30.0403 1.3495 160.5263 0.0000 76.6668 0.0000
# 4 0.0000 0.0000 0.0000 1.5716 0.0000 -1.3760
# 5 38.3569 4.1864 76.6668 0.0000 48.8811 0.0000
# 6 0.0000 0.0000 0.0000 -1.3760 0.0000 3.9250
#
#
#
# Elastic Compliance Matrix: (Units=1/GPa)
#
#
# Indices 1 2 3 4 5 6 
#
# 1 0.048112 0.003526 0.036433 0.000000 -0.095198 0.000000
# 2 0.003526 0.009582 0.003878 0.000000 -0.009669 0.000000
# 3 0.036433 0.003878 0.052573 0.000000 -0.111378 0.000000
# 4 0.000000 0.000000 0.000000 0.918125 0.000000 0.321867
# 5 -0.095198 -0.009669 -0.111378 0.000000 0.270677 0.000000
# 6 0.000000 0.000000 0.000000 0.321867 0.000000 0.367613
#
#
# Mechanical properties :
#
#
# Convention : Reuss Voigt Hill
#
# Bulk Modulus (GPa) = 5.05204 44.91458 24.98331
# Shear Modulus (GPa) = 3.03954 31.68128 17.36041
#
# Velocity S-wave (km/s) = 1.11947 3.61417 2.67539
# Velocity P-wave (km/s) = 1.93750 5.99455 4.45469
#
# Compressibility (1/GPa) = 0.19793975
#
# Stress axis : x y z
#
# Youngs Moduli (GPa) = 20.78497 104.36562 19.02132
#
# Poissons Ratio (x) = -0.36799 -0.69301
# Poissons Ratio (y) = -0.07329 -0.07376
# Poissons Ratio (z) = -0.75727 -0.40469
#
# Static dielectric constant tensor:
#      x y z
#    x 1.921970 0.000000 0.053640 
#    y 0.000000 1.862940 0.000000 
#    z 0.053640 0.000000 1.993230 
# 
# From -- ./inp_files/319236.got.cif
#   From: 2010.05.17/outbox.cif.g08.bks.cpg/sg12_160_cif.got.tgz:319236.got - 2010.06.03 13:09:07.
