data_PCOD9171103
_publ_section_title
;
Structure prediction by ZEFSAII (Michael W. Deem and Ramdas Pophale) SiO2 
 PCOD9171103
Probable space group: C 2/M
;
_chemical_formula_sum "Si O2"
_cell_formula_units_Z 56
_cell_length_a 28.082979
_cell_length_b 8.456314
_cell_length_c 16.753459
_cell_angle_alpha 90.000000
_cell_angle_beta 114.056934
_cell_angle_gamma 90.000000
_cell_volume 3633.009465
_symmetry_space_group_name_H-M "C 2/M"
_symmetry_group_IT_number 12
_symmetry_cell_setting 'monoclinic'
loop_
_space_group_symop_operation_xyz
x,y,z
-x,y,-z
-x,-y,-z
x,-y,z
1/2+x,1/2+y,z
1/2-x,1/2+y,-z
1/2-x,1/2-y,-z
1/2+x,1/2-y,z
loop_
_atom_site_type_symbol
_atom_site_label
_atom_site_fract_x
_atom_site_fract_y
_atom_site_fract_z
Si Si1 0.669428 0.811050 0.966248
Si Si2 0.062780 0.190970 0.955815
Si Si3 0.850721 0.191589 0.691528
Si Si4 0.241717 0.810531 0.690242
Si Si5 0.695502 0.690701 0.499366
Si Si6 0.238689 0.311035 0.865024
Si Si7 0.054903 0.192643 0.134622
O O1 0.610420 0.757543 0.938081
O O2 0.695872 0.757568 0.901117
O O3 0.672570 0.000000 0.971515
O O4 0.705680 0.742856 0.061518
O O5 0.004729 0.241263 0.889638
O O6 0.064730 0.000000 0.954557
O O7 0.068431 0.238685 0.052869
O O8 0.798127 0.246514 0.700302
O O9 0.846549 0.242646 0.595641
O O10 0.901658 0.248275 0.773544
O O11 0.850996 0.000000 0.693519
O O12 0.199174 0.758487 0.594194
O O13 0.230002 0.754045 0.771004
O O14 0.244239 0.000000 0.691123
O O15 0.694786 0.500000 0.498855
O O16 0.750000 0.750000 0.500000
O O17 0.238146 0.500000 0.861395
O O18 0.055097 0.000000 0.135773
#
# Coordination Sequence:
#
# PCOD9171103 Si02
#       7
#     8   8   8   8   8   8   8
#     4  10  20  32  45  63  85 107 136 174 209 243
#     4   9  16  28  44  62  86 113 140 169 202 242
#     4   9  15  26  43  61  85 118 148 170 202 248
#     4  10  18  27  40  62  89 112 139 176 212 244
#     4   8  15  25  38  58  84 112 140 172 207 244
#     4  10  20  32  45  61  82 111 142 168 203 252
#     4   8  15  26  42  63  84 111 145 171 194 239
#
# _framework density 15.414218
#
# number of rings (size 3 to 8) (size 9 to 14) (size 15 to 20)
#    0.000    2.857    0.000    3.000    0.000    3.429 
#    0.000    2.143    0.000    0.000    0.000    1.000 
#    0.000    8.000    0.000    0.000    0.000    0.000 
#
# Total GULP energy -155902.597271 kJ/mol
# GULP energy per Si atom -5567.949903 kJ/mol
# Density = 1.537913 g / cm^3
# Si number density = 15.414218 Si / 1000 Ang^3
#
#
#
# Elastic Constant Matrix: (Units=GPa)
#
#
# Indices 1 2 3 4 5 6 
#
# 1 75.5019 9.0959 52.1762 0.0000 8.6110 0.0000
# 2 9.0959 9.9636 19.5275 0.0000 0.9285 0.0000
# 3 52.1762 19.5275 152.9394 0.0000 9.8195 0.0000
# 4 0.0000 0.0000 0.0000 14.6917 0.0000 -0.6135
# 5 8.6110 0.9285 9.8195 0.0000 22.7060 0.0000
# 6 0.0000 0.0000 0.0000 -0.6135 0.0000 19.5500
#
#
#
# Elastic Compliance Matrix: (Units=1/GPa)
#
#
# Indices 1 2 3 4 5 6 
#
# 1 0.017985 -0.006050 -0.005082 0.000000 -0.004375 0.000000
# 2 -0.006050 0.135984 -0.015520 0.000000 0.003445 0.000000
# 3 -0.005082 -0.015520 0.010378 0.000000 -0.001926 0.000000
# 4 0.000000 0.000000 0.000000 0.068155 0.000000 0.002139
# 5 -0.004375 0.003445 -0.001926 0.000000 0.046393 0.000000
# 6 0.000000 0.000000 0.000000 0.002139 0.000000 0.051218
#
#
# Mechanical properties :
#
#
# Convention : Reuss Voigt Hill
#
# Bulk Modulus (GPa) = 9.00559 44.44491 26.72525
# Shear Modulus (GPa) = 11.89258 21.89655 16.89456
#
# Velocity S-wave (km/s) = 2.78066 3.77310 3.31424
# Velocity P-wave (km/s) = 4.02051 6.91939 5.65873
#
# Compressibility (1/GPa) = 0.11104214
#
# Stress axis : x y z
#
# Youngs Moduli (GPa) = 55.60298 7.35380 96.36136
#
# Poissons Ratio (x) = 0.04449 0.48973
# Poissons Ratio (y) = 0.33640 1.49551
# Poissons Ratio (z) = 0.28258 0.11413
#
# Static dielectric constant tensor:
#      x y z
#    x 1.488270 0.000000 0.004970 
#    y 0.000000 1.528770 0.000000 
#    z 0.004970 0.000000 1.549000 
# 
# From -- ./inp_files/243257.got.cif
#   From: 2010.05.17/outbox.cif.g08.bks.cpg/sg12_122_cif.got.tgz:243257.got - 2010.06.03 13:09:07.
