data_PCOD9171225
_publ_section_title
;
Structure prediction by ZEFSAII (Michael W. Deem and Ramdas Pophale) SiO2 
 PCOD9171225
Probable space group: C 2/M
;
_chemical_formula_sum "Si O2"
_cell_formula_units_Z 52
_cell_length_a 25.741544
_cell_length_b 23.997956
_cell_length_c 10.761163
_cell_angle_alpha 90.000000
_cell_angle_beta 147.785686
_cell_angle_gamma 90.000000
_cell_volume 3543.779450
_symmetry_space_group_name_H-M "C 2/M"
_symmetry_group_IT_number 12
_symmetry_cell_setting 'monoclinic'
loop_
_space_group_symop_operation_xyz
x,y,z
-x,y,-z
-x,-y,-z
x,-y,z
1/2+x,1/2+y,z
1/2-x,1/2+y,-z
1/2-x,1/2-y,-z
1/2+x,1/2-y,z
loop_
_atom_site_type_symbol
_atom_site_label
_atom_site_fract_x
_atom_site_fract_y
_atom_site_fract_z
Si Si1 0.422067 0.437190 0.158500
Si Si2 0.854341 0.936349 0.304062
Si Si3 0.627811 0.675086 0.052891
Si Si4 0.000000 0.763221 0.000000
Si Si5 0.277049 0.681553 0.202604
Si Si6 0.898950 0.247213 0.240185
Si Si7 0.690880 0.761117 0.506622
O O1 0.404393 0.500000 0.079032
O O2 0.370024 0.430492 0.187259
O O3 0.537426 0.431029 0.418600
O O4 0.386679 0.389998 0.994534
O O5 0.791462 0.884548 0.224854
O O6 0.820226 0.000000 0.259275
O O7 0.586997 0.705837 0.847468
O O8 0.565754 0.699135 0.041859
O O9 0.742072 0.691780 0.293435
O O10 0.921077 0.728993 0.758622
O O11 0.346389 0.711291 0.241199
O O12 0.303577 0.708286 0.389551
O O13 0.170322 0.703421 0.948035
O O14 0.000000 0.267707 0.500000
O O15 0.750000 0.750000 0.500000
#
# Coordination Sequence:
#
# PCOD9171225 Si02
#       7
#     8   8   8   4   8   8   8
#     4   9  16  26  42  63  90 118 144 178 218 260
#     4   9  16  26  42  65  90 119 148 174 215 265
#     4  10  18  29  43  63  91 118 146 179 218 263
#     4  10  18  30  45  60  87 120 148 180 220 262
#     4  10  18  28  45  67  90 117 147 179 223 265
#     4  10  18  27  43  67  93 115 142 184 223 265
#     4   9  19  30  43  63  87 116 146 178 219 262
#
# _framework density 14.6736
#
# number of rings (size 3 to 8) (size 9 to 14) (size 15 to 20)
#    0.000    2.462    1.538    3.692    0.000    0.000 
#    0.000    0.385    0.000    4.154    0.000    0.538 
#    0.000    0.000    0.000    1.846    0.000    0.000 
#
# Total GULP energy -144777.298971 kJ/mol
# GULP energy per Si atom -5568.357653 kJ/mol
# Density = 1.464020 g / cm^3
# Si number density = 14.673600 Si / 1000 Ang^3
#
#
#
# Elastic Constant Matrix: (Units=GPa)
#
#
# Indices 1 2 3 4 5 6 
#
# 1 53.2924 25.3655 12.9757 0.0000 -7.1230 0.0000
# 2 25.3655 91.8367 29.8473 0.0000 4.0949 0.0000
# 3 12.9757 29.8473 97.3734 0.0000 7.6756 0.0000
# 4 0.0000 0.0000 0.0000 10.1109 0.0000 2.6937
# 5 -7.1230 4.0949 7.6756 0.0000 19.4886 0.0000
# 6 0.0000 0.0000 0.0000 2.6937 0.0000 14.5752
#
#
#
# Elastic Compliance Matrix: (Units=1/GPa)
#
#
# Indices 1 2 3 4 5 6 
#
# 1 0.023747 -0.006371 -0.002066 0.000000 0.010832 0.000000
# 2 -0.006371 0.013826 -0.003072 0.000000 -0.004024 0.000000
# 3 -0.002066 -0.003072 0.011864 0.000000 -0.004782 0.000000
# 4 0.000000 0.000000 0.000000 0.104025 0.000000 -0.019225
# 5 0.010832 -0.004024 -0.004782 0.000000 0.058000 0.000000
# 6 0.000000 0.000000 0.000000 -0.019225 0.000000 0.072162
#
#
# Mechanical properties :
#
#
# Convention : Reuss Voigt Hill
#
# Bulk Modulus (GPa) = 37.84908 42.09773 39.97341
# Shear Modulus (GPa) = 15.85048 20.45588 18.15318
#
# Velocity S-wave (km/s) = 3.29021 3.73776 3.52110
# Velocity P-wave (km/s) = 6.34697 6.88328 6.62056
#
# Compressibility (1/GPa) = 0.02642072
#
# Stress axis : x y z
#
# Youngs Moduli (GPa) = 42.10994 72.32579 84.29156
#
# Poissons Ratio (x) = 0.46077 0.17411
# Poissons Ratio (y) = 0.26827 0.25894
# Poissons Ratio (z) = 0.08698 0.22218
#
# Static dielectric constant tensor:
#      x y z
#    x 1.494310 0.000000 -0.006290 
#    y 0.000000 1.474520 0.000000 
#    z -0.006290 0.000000 1.514240 
# 
# From -- ./inp_files/190320.got.cif
#   From: 2010.05.17/outbox.cif.g08.bks.cpg/sg12_96_cif.got.tgz:190320.got - 2010.06.03 13:09:07.
