data_PCOD9171214
_publ_section_title
;
Structure prediction by ZEFSAII (Michael W. Deem and Ramdas Pophale) SiO2 
 PCOD9171214
Probable space group: C 2/M
;
_chemical_formula_sum "Si O2"
_cell_formula_units_Z 48
_cell_length_a 25.630295
_cell_length_b 7.758956
_cell_length_c 14.794268
_cell_angle_alpha 90.000000
_cell_angle_beta 69.381502
_cell_angle_gamma 90.000000
_cell_volume 2753.601688
_symmetry_space_group_name_H-M "C 2/M"
_symmetry_group_IT_number 12
_symmetry_cell_setting 'monoclinic'
loop_
_space_group_symop_operation_xyz
x,y,z
-x,y,-z
-x,-y,-z
x,-y,z
1/2+x,1/2+y,z
1/2-x,1/2+y,-z
1/2-x,1/2-y,-z
1/2+x,1/2-y,z
loop_
_atom_site_type_symbol
_atom_site_label
_atom_site_fract_x
_atom_site_fract_y
_atom_site_fract_z
Si Si1 0.165779 0.295873 0.497875
Si Si2 0.445488 0.299788 0.967872
Si Si3 0.457724 0.205222 0.451122
Si Si4 0.376999 0.292341 0.171208
Si Si5 0.979817 0.209475 0.233533
Si Si6 0.221927 0.295214 0.648013
O O1 0.158379 0.500000 0.516609
O O2 0.105515 0.223716 0.508556
O O3 0.189546 0.224092 0.578583
O O4 0.215104 0.271398 0.395776
O O5 0.431217 0.500000 0.958925
O O6 0.468567 0.226946 0.859731
O O7 0.500000 0.299286 0.000000
O O8 0.397004 0.225171 0.060980
O O9 0.500000 0.277285 0.500000
O O10 0.479886 0.232357 0.336243
O O11 0.453672 0.000000 0.470178
O O12 0.381359 0.500000 0.165170
O O13 0.422693 0.233574 0.217984
O O14 0.315992 0.246712 0.243104
O O15 0.980200 0.000000 0.231255
O O16 0.225329 0.500000 0.637225
#
# Coordination Sequence:
#
# PCOD9171214 Si02
#       6
#     8   8   8   8   8   8
#     4   9  18  31  43  59  85 117 149 178 214 262
#     4   7  12  23  39  61  87 115 144 172 208 259
#     4  10  20  33  47  63  87 119 151 182 218 259
#     4   9  15  25  43  65  90 119 145 171 213 265
#     4   9  16  27  44  64  88 116 148 183 213 250
#     4  10  18  27  43  65  89 115 144 180 219 259
#
# _framework density 17.431716000000002
#
# number of rings (size 3 to 8) (size 9 to 14) (size 15 to 20)
#    0.000    3.000    1.667    2.500    0.000    1.667 
#    0.000    0.833    0.000    3.000    0.000    1.167 
#    0.000    0.000    0.000    0.000    0.000    0.000 
#
# Total GULP energy -133617.634065 kJ/mol
# GULP energy per Si atom -5567.401419 kJ/mol
# Density = 1.739204 g / cm^3
# Si number density = 17.431716 Si / 1000 Ang^3
#
#
#
# Elastic Constant Matrix: (Units=GPa)
#
#
# Indices 1 2 3 4 5 6 
#
# 1 92.5365 6.4434 72.5201 0.0000 -11.8755 0.0000
# 2 6.4434 20.1748 -16.0996 0.0000 4.1404 0.0000
# 3 72.5201 -16.0996 119.8117 0.0000 -26.7411 0.0000
# 4 0.0000 0.0000 0.0000 31.1539 0.0000 19.2081
# 5 -11.8755 4.1404 -26.7411 0.0000 24.3225 0.0000
# 6 0.0000 0.0000 0.0000 19.2081 0.0000 36.7584
#
#
#
# Elastic Compliance Matrix: (Units=1/GPa)
#
#
# Indices 1 2 3 4 5 6 
#
# 1 0.030033 -0.026803 -0.023176 0.000000 -0.006254 0.000000
# 2 -0.026803 0.079491 0.027781 0.000000 0.003925 0.000000
# 3 -0.023176 0.027781 0.029852 0.000000 0.016775 0.000000
# 4 0.000000 0.000000 0.000000 0.047356 0.000000 -0.024746
# 5 -0.006254 0.003925 0.016775 0.000000 0.055836 0.000000
# 6 0.000000 0.000000 0.000000 -0.024746 0.000000 0.040136
#
#
# Mechanical properties :
#
#
# Convention : Reuss Voigt Hill
#
# Bulk Modulus (GPa) = 10.52859 39.80563 25.16711
# Shear Modulus (GPa) = 13.93692 29.75757 21.84725
#
# Velocity S-wave (km/s) = 2.83064 4.13618 3.54404
# Velocity P-wave (km/s) = 4.09101 6.75984 5.58712
#
# Compressibility (1/GPa) = 0.09497951
#
# Stress axis : x y z
#
# Youngs Moduli (GPa) = 33.29649 12.58007 33.49883
#
# Poissons Ratio (x) = 0.33718 0.77638
# Poissons Ratio (y) = 0.89245 -0.93063
# Poissons Ratio (z) = 0.77169 -0.34949
#
# Static dielectric constant tensor:
#      x y z
#    x 1.588120 0.000000 -0.031090 
#    y 0.000000 1.637350 0.000000 
#    z -0.031090 0.000000 1.629520 
# 
# From -- ./inp_files/230444.got.cif
#   From: 2010.05.17/outbox.cif.g08.bks.cpg/sg12_116_cif.got.tgz:230444.got - 2010.06.03 13:09:07.
