data_PCOD9171822
_publ_section_title
;
Structure prediction by ZEFSAII (Michael W. Deem and Ramdas Pophale) SiO2 
 PCOD9171822
Probable space group: C 2/M
;
_chemical_formula_sum "Si O2"
_cell_formula_units_Z 56
_cell_length_a 8.467652
_cell_length_b 20.118264
_cell_length_c 15.838486
_cell_angle_alpha 90.000000
_cell_angle_beta 97.064927
_cell_angle_gamma 90.000000
_cell_volume 2677.670716
_symmetry_space_group_name_H-M "C 2/M"
_symmetry_group_IT_number 12
_symmetry_cell_setting 'monoclinic'
loop_
_space_group_symop_operation_xyz
x,y,z
-x,y,-z
-x,-y,-z
x,-y,z
1/2+x,1/2+y,z
1/2-x,1/2+y,-z
1/2-x,1/2-y,-z
1/2+x,1/2-y,z
loop_
_atom_site_type_symbol
_atom_site_label
_atom_site_fract_x
_atom_site_fract_y
_atom_site_fract_z
Si Si1 0.336958 0.080367 0.532204
Si Si2 0.151760 0.654250 0.766798
Si Si3 0.663215 0.420590 0.355071
Si Si4 0.427527 0.921997 0.873219
Si Si5 0.305129 0.579507 0.302778
Si Si6 0.479725 0.729187 0.819474
Si Si7 0.715669 0.807911 0.065150
O O1 0.500000 0.105055 0.500000
O O2 0.196351 0.092600 0.455615
O O3 0.289015 0.105945 0.621389
O O4 0.354521 0.000000 0.540822
O O5 0.190898 0.610263 0.688163
O O6 0.324129 0.685815 0.797096
O O7 0.085162 0.608936 0.838889
O O8 0.037765 0.719126 0.751586
O O9 0.669315 0.500000 0.342745
O O10 0.488015 0.395679 0.315010
O O11 0.299596 0.912112 0.787671
O O12 0.347148 0.883255 0.947631
O O13 0.446359 0.000000 0.890382
O O14 0.320343 0.500000 0.315375
O O15 0.428778 0.778341 0.891011
O O16 0.628220 0.689791 0.866092
O O17 0.750000 0.750000 0.000000
#
# Coordination Sequence:
#
# PCOD9171822 Si02
#       7
#     8   8   8   8   8   8   8
#     4   9  16  26  42  70 110 153 191 225 273 341
#     4  10  19  34  54  79 108 143 188 234 276 331
#     4  10  18  28  48  79 113 146 181 230 289 339
#     4  10  20  34  55  85 117 146 180 232 291 338
#     4   9  17  29  46  75 116 152 184 226 281 344
#     4   9  20  35  55  80 104 141 191 229 264 329
#     4  10  19  35  60  85 110 143 184 225 271 337
#
# _framework density 20.913699000000001
#
# number of rings (size 3 to 8) (size 9 to 14) (size 15 to 20)
#    0.000    2.429    0.000    3.000    0.000    4.000 
#    0.000    0.714    0.000   20.571    0.000   45.000 
#    0.000    0.000    0.000    0.000    0.000    0.000 
#
# Total GULP energy -155905.809833 kJ/mol
# GULP energy per Si atom -5568.064637 kJ/mol
# Density = 2.086610 g / cm^3
# Si number density = 20.913699 Si / 1000 Ang^3
#
#
#
# Elastic Constant Matrix: (Units=GPa)
#
#
# Indices 1 2 3 4 5 6 
#
# 1 120.7745 46.5245 22.2125 0.0000 -10.0628 0.0000
# 2 46.5245 85.3392 23.4263 0.0000 -7.4015 0.0000
# 3 22.2125 23.4263 63.0195 0.0000 -16.2114 0.0000
# 4 0.0000 0.0000 0.0000 19.4508 0.0000 -12.2049
# 5 -10.0628 -7.4015 -16.2114 0.0000 32.3639 0.0000
# 6 0.0000 0.0000 0.0000 -12.2049 0.0000 36.2217
#
#
#
# Elastic Compliance Matrix: (Units=1/GPa)
#
#
# Indices 1 2 3 4 5 6 
#
# 1 0.010711 -0.005324 -0.001438 0.000000 0.001392 0.000000
# 2 -0.005324 0.015707 -0.003976 0.000000 -0.000055 0.000000
# 3 -0.001438 -0.003976 0.020093 0.000000 0.008708 0.000000
# 4 0.000000 0.000000 0.000000 0.065196 0.000000 0.021968
# 5 0.001392 -0.000055 0.008708 0.000000 0.035681 0.000000
# 6 0.000000 0.000000 0.000000 0.021968 0.000000 0.035010
#
#
# Mechanical properties :
#
#
# Convention : Reuss Voigt Hill
#
# Bulk Modulus (GPa) = 39.94444 50.38443 45.16444
# Shear Modulus (GPa) = 23.56038 29.40528 26.48283
#
# Velocity S-wave (km/s) = 3.36006 3.75377 3.56236
# Velocity P-wave (km/s) = 5.84760 6.55223 6.20991
#
# Compressibility (1/GPa) = 0.02503477
#
# Stress axis : x y z
#
# Youngs Moduli (GPa) = 93.35943 63.66504 49.76767
#
# Poissons Ratio (x) = 0.33895 0.07157
# Poissons Ratio (y) = 0.49704 0.19790
# Poissons Ratio (z) = 0.13426 0.25316
#
# Static dielectric constant tensor:
#      x y z
#    x 1.770230 0.000000 0.022510 
#    y 0.000000 1.863690 0.000000 
#    z 0.022510 0.000000 1.829090 
# 
# From -- ./inp_files/197531.got.cif
#   From: 2010.05.17/outbox.cif.g08.bks.cpg/sg12_99_cif.got.tgz:197531.got - 2010.06.03 13:09:07.
