data_PCOD9171764
_publ_section_title
;
Structure prediction by ZEFSAII (Michael W. Deem and Ramdas Pophale) SiO2 
 PCOD9171764
Probable space group: C 2/M
;
_chemical_formula_sum "Si O2"
_cell_formula_units_Z 56
_cell_length_a 19.022219
_cell_length_b 7.733677
_cell_length_c 30.479980
_cell_angle_alpha 90.000000
_cell_angle_beta 140.982999
_cell_angle_gamma 90.000000
_cell_volume 2822.882333
_symmetry_space_group_name_H-M "C 2/M"
_symmetry_group_IT_number 12
_symmetry_cell_setting 'monoclinic'
loop_
_space_group_symop_operation_xyz
x,y,z
-x,y,-z
-x,-y,-z
x,-y,z
1/2+x,1/2+y,z
1/2-x,1/2+y,-z
1/2-x,1/2-y,-z
1/2+x,1/2-y,z
loop_
_atom_site_type_symbol
_atom_site_label
_atom_site_fract_x
_atom_site_fract_y
_atom_site_fract_z
Si Si1 0.164737 0.292007 0.997251
Si Si2 0.553398 0.696751 0.717309
Si Si3 0.791479 0.300400 0.285661
Si Si4 0.035914 0.208572 0.565096
Si Si5 0.254603 0.787674 0.868440
Si Si6 0.412822 0.791495 0.864570
Si Si7 0.621265 0.291723 0.431882
O O1 0.157392 0.500000 0.997065
O O2 0.039512 0.227644 0.926789
O O3 0.250000 0.250000 0.000000
O O4 0.209366 0.229782 0.066024
O O5 0.528050 0.500000 0.718508
O O6 0.636695 0.694108 0.715338
O O7 0.632352 0.774272 0.793177
O O8 0.440787 0.775458 0.642230
O O9 0.813322 0.500000 0.286488
O O10 0.842309 0.259502 0.357737
O O11 0.662621 0.263588 0.213268
O O12 0.000000 0.272625 0.500000
O O13 0.948773 0.270212 0.559913
O O14 0.032082 0.000000 0.562289
O O15 0.345222 0.735893 0.875529
O O16 0.251791 0.000000 0.866563
O O17 0.414648 0.000000 0.865887
O O18 0.610209 0.500000 0.425203
O O19 0.750000 0.250000 0.500000
#
# Coordination Sequence:
#
# PCOD9171764 Si02
#       7
#     8   8   8   8   8   8   8
#     4  10  20  33  50  72  99 129 158 194 243 293
#     4   8  15  30  50  69  91 123 163 200 236 283
#     4  10  18  28  47  75 101 122 152 201 250 282
#     4   9  18  34  53  70  94 131 168 197 232 285
#     4   8  14  29  54  75  88 115 165 209 233 271
#     4   9  17  32  53  72  92 124 165 200 232 283
#     4   9  17  29  47  71  96 124 156 192 236 281
#
# _framework density 19.837879999999998
#
# number of rings (size 3 to 8) (size 9 to 14) (size 15 to 20)
#    0.000    3.000    0.000    3.429    0.000    4.857 
#    0.000    4.286    0.000    7.714    0.000    0.000 
#    0.000    0.000    0.000    0.000    0.000    0.000 
#
# Total GULP energy -156013.576810 kJ/mol
# GULP energy per Si atom -5571.913458 kJ/mol
# Density = 1.979273 g / cm^3
# Si number density = 19.837880 Si / 1000 Ang^3
#
#
#
# Elastic Constant Matrix: (Units=GPa)
#
#
# Indices 1 2 3 4 5 6 
#
# 1 65.0245 3.4054 87.0898 -0.0001 1.5072 0.0005
# 2 3.4054 39.9579 6.8703 -0.0002 -1.2608 0.0008
# 3 87.0898 6.8703 258.3316 0.0000 4.0809 0.0001
# 4 -0.0001 -0.0002 0.0000 13.1951 0.0000 6.9096
# 5 1.5072 -1.2608 4.0809 0.0000 28.8837 -0.0002
# 6 0.0005 0.0008 0.0001 6.9096 -0.0002 13.0233
#
#
#
# Elastic Compliance Matrix: (Units=1/GPa)
#
#
# Indices 1 2 3 4 5 6 
#
# 1 0.028063 -0.000774 -0.009438 0.000001 -0.000165 -0.000001
# 2 -0.000774 0.025204 -0.000428 0.000002 0.001201 -0.000002
# 3 -0.009438 -0.000428 0.007072 0.000000 -0.000525 0.000000
# 4 0.000001 0.000002 0.000000 0.104941 0.000000 -0.055677
# 5 -0.000165 0.001201 -0.000525 0.000000 0.034757 0.000001
# 6 -0.000001 -0.000002 0.000000 -0.055677 0.000001 0.106326
#
#
# Mechanical properties :
#
#
# Convention : Reuss Voigt Hill
#
# Bulk Modulus (GPa) = 25.60208 62.00500 43.80354
# Shear Modulus (GPa) = 14.67724 28.75032 21.71378
#
# Velocity S-wave (km/s) = 2.72299 3.81105 3.31201
# Velocity P-wave (km/s) = 4.77702 7.11963 6.06255
#
# Compressibility (1/GPa) = 0.03905933
#
# Stress axis : x y z
#
# Youngs Moduli (GPa) = 35.63364 39.67652 141.39593
#
# Poissons Ratio (x) = 0.03072 1.33444
# Poissons Ratio (y) = 0.02759 0.06056
# Poissons Ratio (z) = 0.33630 0.01699
#
# Static dielectric constant tensor:
#      x y z
#    x 1.658350 0.000000 -0.001590 
#    y 0.000000 1.748170 0.000000 
#    z -0.001590 0.000000 1.757200 
# 
# From -- ./inp_files/377763.got.cif
#   From: 2010.05.17/outbox.cif.g08.bks.cpg/sg12_189_cif.got.tgz:377763.got - 2010.06.03 13:09:07.
