data_PCOD9171806
_publ_section_title
;
Structure prediction by ZEFSAII (Michael W. Deem and Ramdas Pophale) SiO2 
 PCOD9171806
Probable space group: C 2/M
;
_chemical_formula_sum "Si O2"
_cell_formula_units_Z 56
_cell_length_a 18.750322
_cell_length_b 9.054676
_cell_length_c 30.334006
_cell_angle_alpha 90.000000
_cell_angle_beta 38.660067
_cell_angle_gamma 90.000000
_cell_volume 3217.228653
_symmetry_space_group_name_H-M "C 2/M"
_symmetry_group_IT_number 12
_symmetry_cell_setting 'monoclinic'
loop_
_space_group_symop_operation_xyz
x,y,z
-x,y,-z
-x,-y,-z
x,-y,z
1/2+x,1/2+y,z
1/2-x,1/2+y,-z
1/2-x,1/2-y,-z
1/2+x,1/2-y,z
loop_
_atom_site_type_symbol
_atom_site_label
_atom_site_fract_x
_atom_site_fract_y
_atom_site_fract_z
Si Si1 0.528634 0.822295 0.217196
Si Si2 0.210687 0.324469 0.063640
Si Si3 0.081637 0.677942 0.500520
Si Si4 0.673668 0.824379 0.627355
Si Si5 0.812122 0.824088 0.785368
Si Si6 0.131253 0.823116 0.928293
Si Si7 0.486981 0.177313 0.641751
O O1 0.583929 0.786580 0.143287
O O2 0.398527 0.790765 0.293273
O O3 0.604534 0.735133 0.216028
O O4 0.545625 0.000000 0.216104
O O5 0.214528 0.500000 0.055563
O O6 0.296802 0.287885 0.062221
O O7 0.250000 0.250000 0.000000
O O8 0.088139 0.500000 0.496934
O O9 0.207972 0.741216 0.433843
O O10 0.028050 0.721032 0.573433
O O11 0.000000 0.725599 0.500000
O O12 0.588430 0.788706 0.627755
O O13 0.694096 0.000000 0.616133
O O14 0.690167 0.758851 0.858837
O O15 0.871875 0.757116 0.713251
O O16 0.809670 0.000000 0.785017
O O17 0.139945 0.000000 0.917120
O O18 0.000000 0.784658 0.000000
O O19 0.469606 0.000000 0.651784
#
# Coordination Sequence:
#
# PCOD9171806 Si02
#       7
#     8   8   8   8   8   8   8
#     4   8  16  32  50  69  96 130 164 196 239 292
#     4   9  17  30  49  72  98 128 161 197 238 285
#     4  10  21  35  50  71 100 131 160 195 241 289
#     4   9  17  31  53  75  93 122 163 203 242 284
#     4  10  18  28  48  77 101 121 156 207 249 279
#     4   9  18  34  53  70  95 134 170 197 236 292
#     4   9  18  34  53  71  96 129 162 196 238 291
#
# _framework density 17.406283999999999
#
# number of rings (size 3 to 8) (size 9 to 14) (size 15 to 20)
#    0.000    2.857    0.000    3.429    0.000    5.714 
#    0.000    1.429    0.000    5.143    0.000    0.000 
#    0.000    0.000    0.000    0.000    0.000    0.000 
#
# Total GULP energy -155968.092631 kJ/mol
# GULP energy per Si atom -5570.289023 kJ/mol
# Density = 1.736667 g / cm^3
# Si number density = 17.406284 Si / 1000 Ang^3
#
#
#
# Elastic Constant Matrix: (Units=GPa)
#
#
# Indices 1 2 3 4 5 6 
#
# 1 46.7874 24.9530 69.9113 0.0000 0.8280 0.0002
# 2 24.9530 33.6235 65.7446 0.0000 -4.0220 0.0001
# 3 69.9113 65.7446 225.9101 0.0000 0.4769 0.0001
# 4 0.0000 0.0000 0.0000 35.2185 0.0000 -1.9939
# 5 0.8280 -4.0220 0.4769 0.0000 25.4909 -0.0001
# 6 0.0002 0.0001 0.0001 -1.9939 -0.0001 13.3641
#
#
#
# Elastic Compliance Matrix: (Units=1/GPa)
#
#
# Indices 1 2 3 4 5 6 
#
# 1 0.042513 -0.014524 -0.008922 0.000000 -0.003506 0.000000
# 2 -0.014524 0.077367 -0.018048 0.000000 0.013016 0.000000
# 3 -0.008922 -0.018048 0.012446 0.000000 -0.002791 0.000000
# 4 0.000000 0.000000 0.000000 0.028636 0.000000 0.004273
# 5 -0.003506 0.013016 -0.002791 0.000000 0.041449 0.000000
# 6 0.000000 0.000000 0.000000 0.004273 0.000000 0.075465
#
#
# Mechanical properties :
#
#
# Convention : Reuss Voigt Hill
#
# Bulk Modulus (GPa) = 20.26872 69.72655 44.99764
# Shear Modulus (GPa) = 13.25170 24.52885 18.89027
#
# Velocity S-wave (km/s) = 2.76219 3.75800 3.29790
# Velocity P-wave (km/s) = 4.67362 7.67954 6.35681
#
# Compressibility (1/GPa) = 0.04933711
#
# Stress axis : x y z
#
# Youngs Moduli (GPa) = 23.52215 12.92546 80.34773
#
# Poissons Ratio (x) = 0.18773 0.71687
# Poissons Ratio (y) = 0.34164 1.45013
# Poissons Ratio (z) = 0.20987 0.23328
#
# Static dielectric constant tensor:
#      x y z
#    x 1.583970 0.000000 0.004150 
#    y 0.000000 1.579050 0.000000 
#    z 0.004150 0.000000 1.625150 
# 
# From -- ./inp_files/280432.got.cif
#   From: 2010.05.17/outbox.cif.g08.bks.cpg/sg12_141_cif.got.tgz:280432.got - 2010.06.03 13:09:07.
