data_PCOD9171683
_publ_section_title
;
Structure prediction by ZEFSAII (Michael W. Deem and Ramdas Pophale) SiO2 
 PCOD9171683
Probable space group: C 2/M
;
_chemical_formula_sum "Si O2"
_cell_formula_units_Z 64
_cell_length_a 25.905604
_cell_length_b 8.624537
_cell_length_c 24.367184
_cell_angle_alpha 90.000000
_cell_angle_beta 46.731668
_cell_angle_gamma 90.000000
_cell_volume 3964.210670
_symmetry_space_group_name_H-M "C 2/M"
_symmetry_group_IT_number 12
_symmetry_cell_setting 'monoclinic'
loop_
_space_group_symop_operation_xyz
x,y,z
-x,y,-z
-x,-y,-z
x,-y,z
1/2+x,1/2+y,z
1/2-x,1/2+y,-z
1/2-x,1/2-y,-z
1/2+x,1/2-y,z
loop_
_atom_site_type_symbol
_atom_site_label
_atom_site_fract_x
_atom_site_fract_y
_atom_site_fract_z
Si Si1 0.282639 0.312685 0.919762
Si Si2 0.944881 0.814246 0.809878
Si Si3 0.664646 0.812858 0.919902
Si Si4 0.079364 0.314031 0.657586
Si Si5 0.373641 0.685694 0.168676
Si Si6 0.974774 0.313959 0.909372
Si Si7 0.311988 0.312350 0.329886
Si Si8 0.804063 0.686721 0.506319
O O1 0.280726 0.500000 0.923339
O O2 0.364510 0.264430 0.855456
O O3 0.232575 0.263218 0.906008
O O4 0.250000 0.250000 0.000000
O O5 0.966065 0.749460 0.854187
O O6 0.002522 0.755684 0.724480
O O7 0.947284 0.000000 0.810546
O O8 0.660814 0.744893 0.862104
O O9 0.664896 0.000000 0.916244
O O10 0.593717 0.767409 0.005053
O O11 0.075269 0.500000 0.662261
O O12 0.130147 0.257949 0.670484
O O13 0.118924 0.264767 0.572251
O O14 0.377201 0.500000 0.165507
O O15 0.452997 0.751479 0.117070
O O16 0.330586 0.734512 0.254611
O O17 0.977446 0.500000 0.905508
O O18 0.318052 0.500000 0.328768
O O19 0.233715 0.267562 0.409214
O O20 0.803681 0.500000 0.504900
O O21 0.750000 0.750000 0.500000
#
# Coordination Sequence:
#
# PCOD9171683 Si02
#       8
#     8   8   8   8   8   8   8   8
#     4  10  21  37  55  73  94 125 164 207 253 294
#     4  11  21  32  50  74 100 129 161 202 250 293
#     4  10  22  38  52  69  95 129 167 206 247 288
#     4  10  18  28  46  71  98 129 164 196 237 292
#     4  11  22  33  49  74 102 132 165 200 241 291
#     4  11  21  34  52  71  97 131 166 203 243 288
#     4   9  17  30  46  67  99 131 160 197 242 286
#     4   8  15  27  43  65  94 128 160 193 234 287
#
# _framework density 16.144449999999999
#
# number of rings (size 3 to 8) (size 9 to 14) (size 15 to 20)
#    0.000    2.000    2.500    1.875    0.000    4.500 
#    0.000    0.000    0.000    0.000    0.000    0.875 
#    0.000    7.000    0.000    0.000    0.000    0.000 
#
# Total GULP energy -178448.132294 kJ/mol
# GULP energy per Si atom -5576.504134 kJ/mol
# Density = 1.610770 g / cm^3
# Si number density = 16.144450 Si / 1000 Ang^3
#
#
#
# Elastic Constant Matrix: (Units=GPa)
#
#
# Indices 1 2 3 4 5 6 
#
# 1 108.7944 21.0083 60.5289 -0.0018 -8.9768 0.0027
# 2 21.0083 16.9680 25.3623 -0.0024 -2.4255 0.0090
# 3 60.5289 25.3623 130.9731 0.0007 -24.0408 -0.0003
# 4 -0.0018 -0.0024 0.0007 21.1301 -0.0001 -1.4332
# 5 -8.9768 -2.4255 -24.0408 -0.0001 15.2739 -0.0021
# 6 0.0027 0.0090 -0.0003 -1.4332 -0.0021 17.2134
#
#
#
# Elastic Compliance Matrix: (Units=1/GPa)
#
#
# Indices 1 2 3 4 5 6 
#
# 1 0.013578 -0.010359 -0.004368 0.000000 -0.000540 0.000003
# 2 -0.010359 0.094118 -0.016612 0.000007 -0.017288 -0.000050
# 3 -0.004368 -0.016612 0.016756 -0.000002 0.021169 0.000012
# 4 0.000000 0.000007 -0.000002 0.047595 -0.000001 0.003963
# 5 -0.000540 -0.017288 0.021169 -0.000001 0.095728 0.000021
# 6 0.000003 -0.000050 0.000012 0.003963 0.000021 0.058424
#
#
# Mechanical properties :
#
#
# Convention : Reuss Voigt Hill
#
# Bulk Modulus (GPa) = 16.18777 52.28161 34.23469
# Shear Modulus (GPa) = 12.21098 20.71253 16.46176
#
# Velocity S-wave (km/s) = 2.75318 3.58572 3.19667
# Velocity P-wave (km/s) = 4.48946 7.04252 5.90561
#
# Compressibility (1/GPa) = 0.06177503
#
# Stress axis : x y z
#
# Youngs Moduli (GPa) = 73.65060 10.62494 59.67900
#
# Poissons Ratio (x) = 0.11006 0.26069
# Poissons Ratio (y) = 0.76293 0.99136
# Poissons Ratio (z) = 0.32172 0.17650
#
# Static dielectric constant tensor:
#      x y z
#    x 1.504490 0.000000 -0.013830 
#    y 0.000000 1.551950 0.000000 
#    z -0.013830 0.000000 1.578670 
# 
# From -- ./inp_files/287766.got.cif
#   From: 2010.05.17/outbox.cif.g08.bks.cpg/sg12_144_cif.got.tgz:287766.got - 2010.06.03 13:09:07.
