data_PCOD9171136
_publ_section_title
;
Structure prediction by ZEFSAII (Michael W. Deem and Ramdas Pophale) SiO2 
 PCOD9171136
Probable space group: C 2/M
;
_chemical_formula_sum "Si O2"
_cell_formula_units_Z 64
_cell_length_a 24.843598
_cell_length_b 7.662703
_cell_length_c 17.469093
_cell_angle_alpha 90.000000
_cell_angle_beta 83.600661
_cell_angle_gamma 90.000000
_cell_volume 3304.854758
_symmetry_space_group_name_H-M "C 2/M"
_symmetry_group_IT_number 12
_symmetry_cell_setting 'monoclinic'
loop_
_space_group_symop_operation_xyz
x,y,z
-x,y,-z
-x,-y,-z
x,-y,z
1/2+x,1/2+y,z
1/2-x,1/2+y,-z
1/2-x,1/2-y,-z
1/2+x,1/2-y,z
loop_
_atom_site_type_symbol
_atom_site_label
_atom_site_fract_x
_atom_site_fract_y
_atom_site_fract_z
Si Si1 0.453023 0.705047 0.751631
Si Si2 0.441354 0.289883 0.037944
Si Si3 0.186272 0.791871 0.735932
Si Si4 0.568139 0.714334 0.785293
Si Si5 0.735390 0.293305 0.415863
Si Si6 0.646182 0.713385 0.321551
Si Si7 0.873935 0.707391 0.903316
Si Si8 0.724918 0.797670 0.168499
O O1 0.460069 0.500000 0.735386
O O2 0.512796 0.778678 0.755101
O O3 0.414059 0.774121 0.690506
O O4 0.418144 0.720715 0.835736
O O5 0.443819 0.500000 0.038725
O O6 0.431735 0.231965 0.125886
O O7 0.500000 0.225362 0.000000
O O8 0.395367 0.241491 0.984573
O O9 0.124947 0.727645 0.740658
O O10 0.220092 0.765483 0.653119
O O11 0.220226 0.719976 0.803801
O O12 0.183560 0.000000 0.748523
O O13 0.566371 0.500000 0.784032
O O14 0.733983 0.500000 0.410616
O O15 0.750000 0.250000 0.500000
O O16 0.676570 0.231475 0.394200
O O17 0.646537 0.500000 0.316671
O O18 0.684292 0.784675 0.247630
O O19 0.872528 0.500000 0.890734
O O20 0.813636 0.776807 0.892298
O O21 0.736159 0.000000 0.147603
#
# Coordination Sequence:
#
# PCOD9171136 Si02
#       8
#     8   8   8   8   8   8   8   8
#     4   9  15  28  47  67  90 119 154 194 231 267
#     4  10  18  30  45  63  89 121 160 201 236 274
#     4   9  17  32  51  70  93 122 154 188 226 275
#     4   9  17  29  48  69  89 120 159 193 232 277
#     4  10  19  32  51  77 100 121 148 182 225 271
#     4   8  15  26  45  70  93 114 147 190 225 260
#     4  10  18  27  41  64  90 118 154 197 239 275
#     4   8  15  27  43  62  88 119 150 186 230 275
#
# _framework density 19.365451
#
# number of rings (size 3 to 8) (size 9 to 14) (size 15 to 20)
#    0.000    2.875    1.250    0.750    0.000    1.250 
#    0.000    1.875    0.000    0.750    0.000    5.250 
#    0.000    0.000    0.000    0.000    0.000    0.000 
#
# Total GULP energy -178191.045145 kJ/mol
# GULP energy per Si atom -5568.470161 kJ/mol
# Density = 1.932137 g / cm^3
# Si number density = 19.365451 Si / 1000 Ang^3
#
#
#
# Elastic Constant Matrix: (Units=GPa)
#
#
# Indices 1 2 3 4 5 6 
#
# 1 186.1217 7.3382 72.1657 0.0000 33.9412 0.0000
# 2 7.3382 34.5870 -1.9327 0.0000 1.1124 0.0000
# 3 72.1657 -1.9327 69.5483 0.0000 27.7876 0.0000
# 4 0.0000 0.0000 0.0000 11.4817 0.0000 4.2818
# 5 33.9412 1.1124 27.7876 0.0000 32.9012 0.0000
# 6 0.0000 0.0000 0.0000 4.2818 0.0000 12.6712
#
#
#
# Elastic Compliance Matrix: (Units=1/GPa)
#
#
# Indices 1 2 3 4 5 6 
#
# 1 0.009282 -0.002404 -0.008912 0.000000 -0.001967 0.000000
# 2 -0.002404 0.029717 0.004122 0.000000 -0.002006 0.000000
# 3 -0.008912 0.004122 0.030372 0.000000 -0.016597 0.000000
# 4 0.000000 0.000000 0.000000 0.099654 0.000000 -0.033675
# 5 -0.001967 -0.002006 -0.016597 0.000000 0.046508 0.000000
# 6 0.000000 0.000000 0.000000 -0.033675 0.000000 0.090298
#
#
# Mechanical properties :
#
#
# Convention : Reuss Voigt Hill
#
# Bulk Modulus (GPa) = 18.18766 49.48881 33.83824
# Shear Modulus (GPa) = 14.76900 25.58988 20.17944
#
# Velocity S-wave (km/s) = 2.76460 3.63908 3.23156
# Velocity P-wave (km/s) = 4.42752 6.57783 5.60673
#
# Compressibility (1/GPa) = 0.05498232
#
# Stress axis : x y z
#
# Youngs Moduli (GPa) = 107.73766 33.65027 32.92548
#
# Poissons Ratio (x) = 0.08090 0.29343
# Poissons Ratio (y) = 0.25900 -0.13571
# Poissons Ratio (z) = 0.96016 -0.13870
#
# Static dielectric constant tensor:
#      x y z
#    x 1.753540 0.000000 0.046460 
#    y 0.000000 1.739810 0.000000 
#    z 0.046460 0.000000 1.615250 
# 
# From -- ./inp_files/287529.got.cif
#   From: 2010.05.17/outbox.cif.g08.bks.cpg/sg12_144_cif.got.tgz:287529.got - 2010.06.03 13:09:07.
