data_PCOD9171676
_publ_section_title
;
Structure prediction by ZEFSAII (Michael W. Deem and Ramdas Pophale) SiO2 
 PCOD9171676
Probable space group: C 2/M
;
_chemical_formula_sum "Si O2"
_cell_formula_units_Z 48
_cell_length_a 28.006062
_cell_length_b 8.962449
_cell_length_c 26.710369
_cell_angle_alpha 90.000000
_cell_angle_beta 154.054514
_cell_angle_gamma 90.000000
_cell_volume 2933.272188
_symmetry_space_group_name_H-M "C 2/M"
_symmetry_group_IT_number 12
_symmetry_cell_setting 'monoclinic'
loop_
_space_group_symop_operation_xyz
x,y,z
-x,y,-z
-x,-y,-z
x,-y,z
1/2+x,1/2+y,z
1/2-x,1/2+y,-z
1/2-x,1/2-y,-z
1/2+x,1/2-y,z
loop_
_atom_site_type_symbol
_atom_site_label
_atom_site_fract_x
_atom_site_fract_y
_atom_site_fract_z
Si Si1 0.636131 0.322010 0.908722
Si Si2 0.319339 0.175279 0.742698
Si Si3 0.870838 0.827813 0.892269
Si Si4 0.423856 0.824933 0.042899
Si Si5 0.748925 0.823236 0.578149
Si Si6 0.424563 0.823168 0.669377
O O1 0.641027 0.500000 0.911256
O O2 0.607058 0.267151 0.937249
O O3 0.538671 0.260115 0.782116
O O4 0.750000 0.250000 0.000000
O O5 0.311222 0.251238 0.789288
O O6 0.446451 0.190224 0.845528
O O7 0.249800 0.255456 0.634212
O O8 0.294934 0.000000 0.722503
O O9 0.838340 0.000000 0.867792
O O10 0.862981 0.737721 0.936498
O O11 0.000000 0.826308 0.000000
O O12 0.400948 0.000000 0.028811
O O13 0.637854 0.801586 0.442030
O O14 0.843129 0.741853 0.634805
O O15 0.772326 0.000000 0.601898
O O16 0.439016 0.000000 0.691613
#
# Coordination Sequence:
#
# PCOD9171676 Si02
#       6
#     8   8   8   8   8   8
#     4  12  24  37  54  73  98 133 173 212 252 296
#     4  10  18  28  46  71 102 134 165 202 247 299
#     4   9  17  28  44  67  97 130 166 202 244 299
#     4  10  19  32  48  69  99 131 166 207 250 295
#     4  10  19  30  49  73 101 134 166 203 249 300
#     4  10  20  34  49  71 100 131 168 208 250 297
#
# _framework density 16.363976999999998
#
# number of rings (size 3 to 8) (size 9 to 14) (size 15 to 20)
#    0.000    1.833    1.667    4.000    0.000    5.333 
#    0.000    0.000    0.000    0.000    0.000    1.167 
#    0.000    9.333    0.000    0.000    0.000    0.000 
#
# Total GULP energy -133960.124319 kJ/mol
# GULP energy per Si atom -5581.671847 kJ/mol
# Density = 1.632673 g / cm^3
# Si number density = 16.363977 Si / 1000 Ang^3
#
#
#
# Elastic Constant Matrix: (Units=GPa)
#
#
# Indices 1 2 3 4 5 6 
#
# 1 36.2203 46.3200 41.3501 0.0000 -20.3424 0.0000
# 2 46.3200 152.0141 74.4783 0.0000 -17.3615 0.0000
# 3 41.3501 74.4783 95.6354 0.0000 -20.5820 0.0000
# 4 0.0000 0.0000 0.0000 27.2908 0.0000 -7.2874
# 5 -20.3424 -17.3615 -20.5820 0.0000 35.0738 0.0000
# 6 0.0000 0.0000 0.0000 -7.2874 0.0000 27.6258
#
#
#
# Elastic Compliance Matrix: (Units=1/GPa)
#
#
# Indices 1 2 3 4 5 6 
#
# 1 0.082685 -0.011986 -0.019883 0.000000 0.030355 0.000000
# 2 -0.011986 0.012381 -0.005307 0.000000 -0.003937 0.000000
# 3 -0.019883 -0.005307 0.023050 0.000000 -0.000633 0.000000
# 4 0.000000 0.000000 0.000000 0.039419 0.000000 0.010398
# 5 0.030355 -0.003937 -0.000633 0.000000 0.043797 0.000000
# 6 0.000000 0.000000 0.000000 0.010398 0.000000 0.038941
#
#
# Mechanical properties :
#
#
# Convention : Reuss Voigt Hill
#
# Bulk Modulus (GPa) = 22.85023 67.57408 45.21216
# Shear Modulus (GPa) = 15.18771 26.11282 20.65026
#
# Velocity S-wave (km/s) = 3.04981 3.99902 3.55623
# Velocity P-wave (km/s) = 5.13769 7.91877 6.67468
#
# Compressibility (1/GPa) = 0.04376324
#
# Stress axis : x y z
#
# Youngs Moduli (GPa) = 12.09408 80.76865 43.38390
#
# Poissons Ratio (x) = 0.96812 0.86261
# Poissons Ratio (y) = 0.14496 0.23023
# Poissons Ratio (z) = 0.24047 0.42863
#
# Static dielectric constant tensor:
#      x y z
#    x 1.529200 0.000000 -0.021090 
#    y 0.000000 1.544040 0.000000 
#    z -0.021090 0.000000 1.548540 
# 
# From -- ./inp_files/179224.got.cif
#   From: 2010.05.17/outbox.cif.g08.bks.cpg/sg12_90_cif.got.tgz:179224.got - 2010.06.03 13:09:07.
