data_PCOD9171415
_publ_section_title
;
Structure prediction by ZEFSAII (Michael W. Deem and Ramdas Pophale) SiO2 
 PCOD9171415
Probable space group: C 2/M
;
_chemical_formula_sum "Si O2"
_cell_formula_units_Z 56
_cell_length_a 27.789779
_cell_length_b 8.701498
_cell_length_c 15.055594
_cell_angle_alpha 90.000000
_cell_angle_beta 76.487405
_cell_angle_gamma 90.000000
_cell_volume 3539.856014
_symmetry_space_group_name_H-M "C 2/M"
_symmetry_group_IT_number 12
_symmetry_cell_setting 'monoclinic'
loop_
_space_group_symop_operation_xyz
x,y,z
-x,y,-z
-x,-y,-z
x,-y,z
1/2+x,1/2+y,z
1/2-x,1/2+y,-z
1/2-x,1/2-y,-z
1/2+x,1/2-y,z
loop_
_atom_site_type_symbol
_atom_site_label
_atom_site_fract_x
_atom_site_fract_y
_atom_site_fract_z
Si Si1 0.934595 0.684729 0.220315
Si Si2 0.126697 0.179797 0.206924
Si Si3 0.804415 0.316987 0.966398
Si Si4 0.036726 0.179536 0.106434
Si Si5 0.435686 0.314637 0.602724
Si Si6 0.955468 0.314590 0.406886
Si Si7 0.610521 0.185676 0.936043
O O1 0.933841 0.500000 0.222673
O O2 0.931487 0.735789 0.323867
O O3 0.894363 0.734900 0.164369
O O4 0.987461 0.737716 0.159757
O O5 0.169538 0.268959 0.137090
O O6 0.077894 0.192319 0.166122
O O7 0.108472 0.230887 0.311795
O O8 0.140429 0.000000 0.204927
O O9 0.801966 0.500000 0.972342
O O10 0.750000 0.250000 0.000000
O O11 0.841436 0.261855 0.029376
O O12 0.026691 0.000000 0.095419
O O13 0.062667 0.253044 0.009548
O O14 0.440085 0.500000 0.602829
O O15 0.487664 0.243787 0.614230
O O16 0.429944 0.256052 0.504868
O O17 0.955487 0.500000 0.412920
O O18 0.609690 0.000000 0.939897
#
# Coordination Sequence:
#
# PCOD9171415 Si02
#       7
#     8   8   8   8   8   8   8
#     4  10  19  30  43  61  91 127 159 187 220 265
#     4   9  18  31  47  67  93 123 155 188 227 274
#     4  10  20  34  53  72  92 116 147 189 235 280
#     4  10  18  28  42  64  92 122 156 191 223 260
#     4  10  18  30  45  63  91 126 158 193 230 266
#     4  10  19  28  42  64  91 125 162 197 223 258
#     4   9  19  33  46  63  88 122 155 183 224 278
#
# _framework density 15.819853
#
# number of rings (size 3 to 8) (size 9 to 14) (size 15 to 20)
#    0.000    2.286    1.429    3.000    0.000    5.143 
#    0.000    0.000    0.000    0.000    0.000    1.000 
#    0.000    0.000    0.000    0.000    0.000    0.000 
#
# Total GULP energy -156091.956945 kJ/mol
# GULP energy per Si atom -5574.712748 kJ/mol
# Density = 1.578385 g / cm^3
# Si number density = 15.819853 Si / 1000 Ang^3
#
#
#
# Elastic Constant Matrix: (Units=GPa)
#
#
# Indices 1 2 3 4 5 6 
#
# 1 58.9027 16.2317 60.5137 0.0000 -2.3652 0.0000
# 2 16.2317 23.4418 32.7517 0.0000 0.0804 0.0000
# 3 60.5137 32.7517 146.2332 0.0000 11.6377 0.0000
# 4 0.0000 0.0000 0.0000 21.9083 0.0000 -5.0639
# 5 -2.3652 0.0804 11.6377 0.0000 20.8656 0.0000
# 6 0.0000 0.0000 0.0000 -5.0639 0.0000 16.4943
#
#
#
# Elastic Compliance Matrix: (Units=1/GPa)
#
#
# Indices 1 2 3 4 5 6 
#
# 1 0.032178 -0.003605 -0.013394 0.000000 0.011132 0.000000
# 2 -0.003605 0.063750 -0.013325 0.000000 0.006778 0.000000
# 3 -0.013394 -0.013325 0.016202 0.000000 -0.010503 0.000000
# 4 0.000000 0.000000 0.000000 0.049131 0.000000 0.015084
# 5 0.011132 0.006778 -0.010503 0.000000 0.055020 0.000000
# 6 0.000000 0.000000 0.000000 0.015084 0.000000 0.065258
#
#
# Mechanical properties :
#
#
# Convention : Reuss Voigt Hill
#
# Bulk Modulus (GPa) = 19.42527 49.73022 34.57775
# Shear Modulus (GPa) = 13.91408 19.79234 16.85321
#
# Velocity S-wave (km/s) = 2.96891 3.54094 3.26747
# Velocity P-wave (km/s) = 4.90492 6.94415 6.01163
#
# Compressibility (1/GPa) = 0.05147933
#
# Stress axis : x y z
#
# Youngs Moduli (GPa) = 31.07670 15.68639 61.72235
#
# Poissons Ratio (x) = 0.05655 0.82674
# Poissons Ratio (y) = 0.11204 0.82247
# Poissons Ratio (z) = 0.41625 0.20903
#
# Static dielectric constant tensor:
#      x y z
#    x 1.515260 0.000000 0.039770 
#    y 0.000000 1.533110 0.000000 
#    z 0.039770 0.000000 1.556730 
# 
# From -- ./inp_files/242994.got.cif
#   From: 2010.05.17/outbox.cif.g08.bks.cpg/sg12_122_cif.got.tgz:242994.got - 2010.06.03 13:09:07.
