data_PCOD9171326
_publ_section_title
;
Structure prediction by ZEFSAII (Michael W. Deem and Ramdas Pophale) SiO2 
 PCOD9171326
Probable space group: C 2/M
;
_chemical_formula_sum "Si O2"
_cell_formula_units_Z 64
_cell_length_a 20.786652
_cell_length_b 8.423228
_cell_length_c 21.133828
_cell_angle_alpha 90.000000
_cell_angle_beta 96.563301
_cell_angle_gamma 90.000000
_cell_volume 3676.085594
_symmetry_space_group_name_H-M "C 2/M"
_symmetry_group_IT_number 12
_symmetry_cell_setting 'monoclinic'
loop_
_space_group_symop_operation_xyz
x,y,z
-x,y,-z
-x,-y,-z
x,-y,z
1/2+x,1/2+y,z
1/2-x,1/2+y,-z
1/2-x,1/2-y,-z
1/2+x,1/2-y,z
loop_
_atom_site_type_symbol
_atom_site_label
_atom_site_fract_x
_atom_site_fract_y
_atom_site_fract_z
Si Si1 0.962210 0.690946 0.691575
Si Si2 0.056310 0.191138 0.959238
Si Si3 0.694822 0.188854 0.446880
Si Si4 0.045887 0.307380 0.449023
Si Si5 0.190699 0.191807 0.034648
Si Si6 0.341555 0.692500 0.829487
Si Si7 0.681980 0.313851 0.309661
Si Si8 0.489060 0.810984 0.830566
O O1 0.948441 0.500000 0.691684
O O2 0.984917 0.727868 0.623374
O O3 0.894917 0.782993 0.692391
O O4 0.003471 0.728035 0.758546
O O5 0.038296 0.241150 0.886662
O O6 0.056316 0.000000 0.961752
O O7 0.124643 0.247279 0.993696
O O8 0.000000 0.248872 0.000000
O O9 0.750000 0.250000 0.500000
O O10 0.621363 0.247139 0.455851
O O11 0.710137 0.234367 0.375754
O O12 0.692594 0.000000 0.450694
O O13 0.048499 0.500000 0.454838
O O14 0.000000 0.247387 0.500000
O O15 0.190039 0.243835 0.107985
O O16 0.190475 0.000000 0.035223
O O17 0.250000 0.250000 0.000000
O O18 0.343172 0.500000 0.828136
O O19 0.305685 0.745417 0.760749
O O20 0.416250 0.749355 0.836652
O O21 0.696770 0.500000 0.314174
O O22 0.488654 0.000000 0.836908
#
# Coordination Sequence:
#
# PCOD9171326 Si02
#       8
#     8   8   8   8   8   8   8   8
#     4   8  15  27  43  69 101 126 153 195 245 283
#     4  10  19  34  53  71  96 129 163 199 243 294
#     4  10  19  31  49  73 101 129 160 203 246 285
#     4   8  14  27  49  72  93 123 161 195 229 278
#     4  10  21  36  53  72  97 130 164 202 246 295
#     4   9  17  32  51  71  97 130 164 198 243 299
#     4   9  16  27  48  73  95 123 163 202 238 287
#     4  10  18  27  46  76 103 123 155 207 250 281
#
# _framework density 17.409822999999999
#
# number of rings (size 3 to 8) (size 9 to 14) (size 15 to 20)
#    0.000    2.750    1.250    1.875    0.000    2.250 
#    0.000    0.000    2.750    9.375    0.000    0.000 
#    0.000    0.000    0.000    0.000    0.000    0.000 
#
# Total GULP energy -178135.795384 kJ/mol
# GULP energy per Si atom -5566.743606 kJ/mol
# Density = 1.737020 g / cm^3
# Si number density = 17.409823 Si / 1000 Ang^3
#
#
#
# Elastic Constant Matrix: (Units=GPa)
#
#
# Indices 1 2 3 4 5 6 
#
# 1 78.4612 12.8973 77.8992 0.0000 -5.2605 0.0000
# 2 12.8973 10.3263 23.9398 0.0000 1.7865 0.0000
# 3 77.8992 23.9398 196.8174 0.0000 -1.3326 0.0000
# 4 0.0000 0.0000 0.0000 24.7430 0.0000 3.9518
# 5 -5.2605 1.7865 -1.3326 0.0000 27.7513 0.0000
# 6 0.0000 0.0000 0.0000 3.9518 0.0000 17.2336
#
#
#
# Elastic Compliance Matrix: (Units=1/GPa)
#
#
# Indices 1 2 3 4 5 6 
#
# 1 0.022279 -0.011494 -0.007389 0.000000 0.004608 0.000000
# 2 -0.011494 0.143339 -0.012967 0.000000 -0.012029 0.000000
# 3 -0.007389 -0.012967 0.009582 0.000000 -0.000106 0.000000
# 4 0.000000 0.000000 0.000000 0.041952 0.000000 -0.009620
# 5 0.004608 -0.012029 -0.000106 0.000000 0.037677 0.000000
# 6 0.000000 0.000000 0.000000 -0.009620 0.000000 0.060232
#
#
# Mechanical properties :
#
#
# Convention : Reuss Voigt Hill
#
# Bulk Modulus (GPa) = 8.96862 57.23086 33.09974
# Shear Modulus (GPa) = 12.02133 25.33683 18.67908
#
# Velocity S-wave (km/s) = 2.63057 3.81900 3.27908
# Velocity P-wave (km/s) = 3.79331 7.23813 5.77839
#
# Compressibility (1/GPa) = 0.11149983
#
# Stress axis : x y z
#
# Youngs Moduli (GPa) = 44.88461 6.97649 104.36438
#
# Poissons Ratio (x) = 0.08019 0.77112
# Poissons Ratio (y) = 0.51591 1.35330
# Poissons Ratio (z) = 0.33164 0.09046
#
# Static dielectric constant tensor:
#      x y z
#    x 1.565380 0.000000 -0.006640 
#    y 0.000000 1.604520 0.000000 
#    z -0.006640 0.000000 1.644590 
# 
# From -- ./inp_files/319250.got.cif
#   From: 2010.05.17/outbox.cif.g08.bks.cpg/sg12_160_cif.got.tgz:319250.got - 2010.06.03 13:09:07.
