data_PCOD9171983
_publ_section_title
;
Structure prediction by ZEFSAII (Michael W. Deem and Ramdas Pophale) SiO2 
 PCOD9171983
Probable space group: C 2/M
;
_chemical_formula_sum "Si O2"
_cell_formula_units_Z 56
_cell_length_a 35.800125
_cell_length_b 8.510064
_cell_length_c 15.003290
_cell_angle_alpha 90.000000
_cell_angle_beta 130.575700
_cell_angle_gamma 90.000000
_cell_volume 3471.831701
_symmetry_space_group_name_H-M "C 2/M"
_symmetry_group_IT_number 12
_symmetry_cell_setting 'monoclinic'
loop_
_space_group_symop_operation_xyz
x,y,z
-x,y,-z
-x,-y,-z
x,-y,z
1/2+x,1/2+y,z
1/2-x,1/2+y,-z
1/2-x,1/2-y,-z
1/2+x,1/2-y,z
loop_
_atom_site_type_symbol
_atom_site_label
_atom_site_fract_x
_atom_site_fract_y
_atom_site_fract_z
Si Si1 0.461473 0.310171 0.314223
Si Si2 0.116308 0.809606 0.663831
Si Si3 0.563345 0.814274 0.020621
Si Si4 0.455259 0.311803 0.816974
Si Si5 0.067717 0.807991 0.415068
Si Si6 0.377083 0.687790 0.041309
Si Si7 0.195131 0.313144 0.926001
O O1 0.465175 0.500000 0.324149
O O2 0.433831 0.262481 0.361585
O O3 0.515416 0.252384 0.373941
O O4 0.423489 0.270722 0.176723
O O5 0.109621 0.761784 0.550659
O O6 0.161149 0.742541 0.790495
O O7 0.119584 0.000000 0.673454
O O8 0.513307 0.731266 0.907734
O O9 0.609297 0.760187 0.032569
O O10 0.556460 0.000000 0.002807
O O11 0.567257 0.765843 0.129954
O O12 0.451456 0.500000 0.818653
O O13 0.431074 0.259953 0.686183
O O14 0.066863 0.000000 0.413341
O O15 0.374547 0.500000 0.030599
O O16 0.330199 0.748857 0.022904
O O17 0.195238 0.500000 0.929210
O O18 0.250000 0.250000 0.000000
#
# Coordination Sequence:
#
# PCOD9171983 Si02
#       7
#     8   8   8   8   8   8   8
#     4   8  13  23  42  67  93 123 161 197 228 273
#     4   9  17  29  48  71  96 126 162 200 241 288
#     4  11  20  30  43  66  98 132 168 209 251 287
#     4  10  18  29  45  65  94 135 178 211 237 279
#     4   9  15  25  44  70  95 128 170 204 234 277
#     4  10  18  32  53  73  95 127 165 203 245 291
#     4  11  22  37  54  75 100 125 157 199 246 293
#
# _framework density 16.129812999999999
#
# number of rings (size 3 to 8) (size 9 to 14) (size 15 to 20)
#    0.000    2.286    1.429    5.571    0.000    1.714 
#    0.000    1.429    0.000    1.714    0.000    1.000 
#    0.000    0.000    0.000    0.000    0.000    0.000 
#
# Total GULP energy -156078.860344 kJ/mol
# GULP energy per Si atom -5574.245012 kJ/mol
# Density = 1.609310 g / cm^3
# Si number density = 16.129813 Si / 1000 Ang^3
#
#
#
# Elastic Constant Matrix: (Units=GPa)
#
#
# Indices 1 2 3 4 5 6 
#
# 1 106.1096 19.7315 56.5158 0.0000 -11.5778 0.0000
# 2 19.7315 37.1638 8.8961 0.0000 -0.0103 0.0000
# 3 56.5158 8.8961 68.8580 0.0000 -16.9148 0.0000
# 4 0.0000 0.0000 0.0000 10.6972 0.0000 1.1898
# 5 -11.5778 -0.0103 -16.9148 0.0000 25.7962 0.0000
# 6 0.0000 0.0000 0.0000 1.1898 0.0000 20.6761
#
#
#
# Elastic Compliance Matrix: (Units=1/GPa)
#
#
# Indices 1 2 3 4 5 6 
#
# 1 0.018076 -0.006160 -0.014361 0.000000 -0.001306 0.000000
# 2 -0.006160 0.030035 0.000595 0.000000 -0.002362 0.000000
# 3 -0.014361 0.000595 0.029382 0.000000 0.012821 0.000000
# 4 0.000000 0.000000 0.000000 0.094085 0.000000 -0.005414
# 5 -0.001306 -0.002362 0.012821 0.000000 0.046585 0.000000
# 6 0.000000 0.000000 0.000000 -0.005414 0.000000 0.048677
#
#
# Mechanical properties :
#
#
# Convention : Reuss Voigt Hill
#
# Bulk Modulus (GPa) = 26.56641 42.49092 34.52866
# Shear Modulus (GPa) = 15.66223 19.89976 17.78100
#
# Velocity S-wave (km/s) = 3.11949 3.51625 3.32380
# Velocity P-wave (km/s) = 5.42965 6.54871 6.01526
#
# Compressibility (1/GPa) = 0.03764152
#
# Stress axis : x y z
#
# Youngs Moduli (GPa) = 55.32152 33.29420 34.03416
#
# Poissons Ratio (x) = 0.20509 0.48877
# Poissons Ratio (y) = 0.34077 -0.02025
# Poissons Ratio (z) = 0.79448 -0.01981
#
# Static dielectric constant tensor:
#      x y z
#    x 1.548680 0.000000 -0.031960 
#    y 0.000000 1.547010 0.000000 
#    z -0.031960 0.000000 1.545600 
# 
# From -- ./inp_files/249279.got.cif
#   From: 2010.05.17/outbox.cif.g08.bks.cpg/sg12_125_cif.got.tgz:249279.got - 2010.06.03 13:09:07.
