data_PCOD9171962
_publ_section_title
;
Structure prediction by ZEFSAII (Michael W. Deem and Ramdas Pophale) SiO2 
 PCOD9171962
Probable space group: C 2/M
;
_chemical_formula_sum "Si O2"
_cell_formula_units_Z 48
_cell_length_a 25.178956
_cell_length_b 8.896841
_cell_length_c 14.767299
_cell_angle_alpha 90.000000
_cell_angle_beta 111.030183
_cell_angle_gamma 90.000000
_cell_volume 3087.723928
_symmetry_space_group_name_H-M "C 2/M"
_symmetry_group_IT_number 12
_symmetry_cell_setting 'monoclinic'
loop_
_space_group_symop_operation_xyz
x,y,z
-x,y,-z
-x,-y,-z
x,-y,z
1/2+x,1/2+y,z
1/2-x,1/2+y,-z
1/2-x,1/2-y,-z
1/2+x,1/2-y,z
loop_
_atom_site_type_symbol
_atom_site_label
_atom_site_fract_x
_atom_site_fract_y
_atom_site_fract_z
Si Si1 0.980681 0.182248 0.773582
Si Si2 0.621821 0.178329 0.172134
Si Si3 0.459317 0.683089 0.555624
Si Si4 0.282237 0.678887 0.656738
Si Si5 0.670928 0.680470 0.515728
Si Si6 0.441426 0.326350 0.022823
O O1 0.926315 0.252733 0.790553
O O2 0.980642 0.226275 0.668741
O O3 0.037101 0.223328 0.865131
O O4 0.975067 0.000000 0.776311
O O5 0.681557 0.243881 0.242491
O O6 0.621255 0.000000 0.178640
O O7 0.603585 0.229960 0.060434
O O8 0.500000 0.735850 0.500000
O O9 0.459403 0.500000 0.554191
O O10 0.393554 0.728994 0.504685
O O11 0.282362 0.500000 0.668391
O O12 0.313604 0.712942 0.579853
O O13 0.218652 0.740739 0.605550
O O14 0.674995 0.500000 0.529422
O O15 0.422689 0.500000 0.014526
O O16 0.500000 0.322592 0.000000
#
# Coordination Sequence:
#
# PCOD9171962 Si02
#       6
#     8   8   8   8   8   8
#     4   9  16  29  44  62  89 121 152 181 217 263
#     4  11  19  26  41  65  91 117 148 183 225 269
#     4   9  16  28  48  70  91 118 152 186 217 255
#     4  10  18  29  45  63  89 121 149 180 223 270
#     4   9  17  29  44  65  90 116 150 185 217 260
#     4   8  15  26  41  59  86 119 148 178 217 268
#
# _framework density 15.545432
#
# number of rings (size 3 to 8) (size 9 to 14) (size 15 to 20)
#    0.000    2.667    1.667    3.000    0.000    3.667 
#    0.000    0.000    0.000    2.000    0.000    1.167 
#    0.000    0.000    0.000    0.000    0.000    0.000 
#
# Total GULP energy -133703.919293 kJ/mol
# GULP energy per Si atom -5570.996637 kJ/mol
# Density = 1.551005 g / cm^3
# Si number density = 15.545432 Si / 1000 Ang^3
#
#
#
# Elastic Constant Matrix: (Units=GPa)
#
#
# Indices 1 2 3 4 5 6 
#
# 1 79.7085 22.9649 66.3006 0.0000 11.2512 0.0000
# 2 22.9649 36.0761 46.3833 0.0000 14.8085 0.0000
# 3 66.3006 46.3833 144.9746 0.0000 29.8263 0.0000
# 4 0.0000 0.0000 0.0000 18.1114 0.0000 9.4620
# 5 11.2512 14.8085 29.8263 0.0000 24.0881 0.0000
# 6 0.0000 0.0000 0.0000 9.4620 0.0000 15.0641
#
#
#
# Elastic Compliance Matrix: (Units=1/GPa)
#
#
# Indices 1 2 3 4 5 6 
#
# 1 0.020507 -0.002555 -0.009277 0.000000 0.003479 0.000000
# 2 -0.002555 0.051101 -0.012027 0.000000 -0.015330 0.000000
# 3 -0.009277 -0.012027 0.016874 0.000000 -0.009167 0.000000
# 4 0.000000 0.000000 0.000000 0.082182 0.000000 -0.051620
# 5 0.003479 -0.015330 -0.009167 0.000000 0.060664 0.000000
# 6 0.000000 0.000000 0.000000 -0.051620 0.000000 0.098806
#
#
# Mechanical properties :
#
#
# Convention : Reuss Voigt Hill
#
# Bulk Modulus (GPa) = 24.53078 59.11742 41.82410
# Shear Modulus (GPa) = 12.77332 19.79341 16.28336
#
# Velocity S-wave (km/s) = 2.86960 3.57215 3.23997
# Velocity P-wave (km/s) = 5.17627 7.42462 6.39995
#
# Compressibility (1/GPa) = 0.04076511
#
# Stress axis : x y z
#
# Youngs Moduli (GPa) = 48.76387 19.56890 59.26244
#
# Poissons Ratio (x) = 0.05000 0.54975
# Poissons Ratio (y) = 0.12460 0.71275
# Poissons Ratio (z) = 0.45236 0.23536
#
# Static dielectric constant tensor:
#      x y z
#    x 1.492600 0.000000 0.012790 
#    y 0.000000 1.516710 0.000000 
#    z 0.012790 0.000000 1.544700 
# 
# From -- ./inp_files/236848.got.cif
#   From: 2010.05.17/outbox.cif.g08.bks.cpg/sg12_119_cif.got.tgz:236848.got - 2010.06.03 13:09:07.
