data_PCOD9171909
_publ_section_title
;
Structure prediction by ZEFSAII (Michael W. Deem and Ramdas Pophale) SiO2 
 PCOD9171909
Probable space group: C 2/M
;
_chemical_formula_sum "Si O2"
_cell_formula_units_Z 56
_cell_length_a 29.848329
_cell_length_b 9.017321
_cell_length_c 30.112781
_cell_angle_alpha 90.000000
_cell_angle_beta 153.575763
_cell_angle_gamma 90.000000
_cell_volume 3606.800582
_symmetry_space_group_name_H-M "C 2/M"
_symmetry_group_IT_number 12
_symmetry_cell_setting 'monoclinic'
loop_
_space_group_symop_operation_xyz
x,y,z
-x,y,-z
-x,-y,-z
x,-y,z
1/2+x,1/2+y,z
1/2-x,1/2+y,-z
1/2-x,1/2-y,-z
1/2+x,1/2-y,z
loop_
_atom_site_type_symbol
_atom_site_label
_atom_site_fract_x
_atom_site_fract_y
_atom_site_fract_z
Si Si1 0.985876 0.676231 0.373813
Si Si2 0.393007 0.677086 0.594754
Si Si3 0.138604 0.327313 0.244106
Si Si4 0.818186 0.322335 0.289831
Si Si5 0.124885 0.827676 0.570194
Si Si6 0.908673 0.821695 0.888037
Si Si7 0.836433 0.321141 0.635077
O O1 0.995946 0.500000 0.377232
O O2 0.021596 0.756752 0.361059
O O3 0.059280 0.732701 0.478102
O O4 0.874378 0.709566 0.293595
O O5 0.400565 0.500000 0.603354
O O6 0.282874 0.714024 0.475909
O O7 0.391159 0.746145 0.642163
O O8 0.109299 0.500000 0.215775
O O9 0.258835 0.320505 0.342235
O O10 0.087789 0.240332 0.158747
O O11 0.123931 0.273283 0.281476
O O12 0.826248 0.500000 0.304848
O O13 0.874386 0.237956 0.379665
O O14 0.700635 0.281222 0.188567
O O15 0.093703 0.000000 0.541597
O O16 0.912489 0.000000 0.889409
O O17 0.000000 0.769287 0.000000
O O18 0.844743 0.500000 0.639680
#
# Coordination Sequence:
#
# PCOD9171909 Si02
#       7
#     8   8   8   8   8   8   8
#     4  11  20  29  42  61  90 126 157 184 220 265
#     4  10  19  30  44  64  91 122 159 193 220 258
#     4   9  17  30  47  67  93 121 150 185 224 271
#     4   9  19  32  44  63  89 119 153 185 224 276
#     4  10  18  29  43  63  90 121 155 188 220 258
#     4   9  18  33  51  70  91 115 148 191 233 273
#     4   9  17  31  45  63  91 122 155 188 224 264
#
# _framework density 15.526225
#
# number of rings (size 3 to 8) (size 9 to 14) (size 15 to 20)
#    0.000    2.429    1.429    1.714    0.000    4.857 
#    0.000    0.000    0.000    0.000    0.000    1.000 
#    0.000    0.000    0.000    0.000    0.000    0.000 
#
# Total GULP energy -156101.388783 kJ/mol
# GULP energy per Si atom -5575.049599 kJ/mol
# Density = 1.549089 g / cm^3
# Si number density = 15.526225 Si / 1000 Ang^3
#
#
#
# Elastic Constant Matrix: (Units=GPa)
#
#
# Indices 1 2 3 4 5 6 
#
# 1 146.6169 43.2207 46.8756 0.0000 -16.1743 0.0000
# 2 43.2207 29.3568 22.9833 0.0000 -3.9863 0.0000
# 3 46.8756 22.9833 69.8549 0.0000 -15.5685 0.0000
# 4 0.0000 0.0000 0.0000 14.4386 0.0000 -4.1692
# 5 -16.1743 -3.9863 -15.5685 0.0000 16.0849 0.0000
# 6 0.0000 0.0000 0.0000 -4.1692 0.0000 26.7905
#
#
#
# Elastic Compliance Matrix: (Units=1/GPa)
#
#
# Indices 1 2 3 4 5 6 
#
# 1 0.013226 -0.017263 -0.001511 0.000000 0.007559 0.000000
# 2 -0.017263 0.068631 -0.014120 0.000000 -0.014018 0.000000
# 3 -0.001511 -0.014120 0.024043 0.000000 0.018252 0.000000
# 4 0.000000 0.000000 0.000000 0.072517 0.000000 0.011285
# 5 0.007559 -0.014018 0.018252 0.000000 0.083964 0.000000
# 6 0.000000 0.000000 0.000000 0.011285 0.000000 0.039083
#
#
# Mechanical properties :
#
#
# Convention : Reuss Voigt Hill
#
# Bulk Modulus (GPa) = 24.93059 52.44307 38.68683
# Shear Modulus (GPa) = 13.13631 20.31272 16.72451
#
# Velocity S-wave (km/s) = 2.91189 3.62095 3.28560
# Velocity P-wave (km/s) = 5.23425 7.16464 6.27413
#
# Compressibility (1/GPa) = 0.04011136
#
# Stress axis : x y z
#
# Youngs Moduli (GPa) = 75.60587 14.57065 41.59232
#
# Poissons Ratio (x) = 0.25154 0.06284
# Poissons Ratio (y) = 1.30522 0.58729
# Poissons Ratio (z) = 0.11423 0.20574
#
# Static dielectric constant tensor:
#      x y z
#    x 1.535890 0.000000 0.012870 
#    y 0.000000 1.516710 0.000000 
#    z 0.012870 0.000000 1.497690 
# 
# From -- ./inp_files/243041.got.cif
#   From: 2010.05.17/outbox.cif.g08.bks.cpg/sg12_122_cif.got.tgz:243041.got - 2010.06.03 13:09:07.
