data_PCOD9171386
_publ_section_title
;
Structure prediction by ZEFSAII (Michael W. Deem and Ramdas Pophale) SiO2 
 PCOD9171386
Probable space group: C 2/M
;
_chemical_formula_sum "Si O2"
_cell_formula_units_Z 50
_cell_length_a 33.476680
_cell_length_b 9.467019
_cell_length_c 18.387469
_cell_angle_alpha 90.000000
_cell_angle_beta 157.709209
_cell_angle_gamma 90.000000
_cell_volume 2210.390238
_symmetry_space_group_name_H-M "C 2/M"
_symmetry_group_IT_number 12
_symmetry_cell_setting 'monoclinic'
loop_
_space_group_symop_operation_xyz
x,y,z
-x,y,-z
-x,-y,-z
x,-y,z
1/2+x,1/2+y,z
1/2-x,1/2+y,-z
1/2-x,1/2-y,-z
1/2+x,1/2-y,z
loop_
_atom_site_type_symbol
_atom_site_label
_atom_site_fract_x
_atom_site_fract_y
_atom_site_fract_z
Si Si1 0.087934 0.164267 0.914625
Si Si2 0.396396 0.349449 0.437710
Si Si3 0.467938 0.834936 0.828506
Si Si4 0.500000 0.500000 0.500000
Si Si5 0.290931 0.160353 0.364993
Si Si6 0.788777 0.665274 0.994692
Si Si7 0.673397 0.163381 0.280607
O O1 0.190085 0.165477 0.140394
O O2 0.122381 0.252864 0.901910
O O3 0.065402 0.000000 0.859887
O O4 0.997766 0.239931 0.810047
O O5 0.370551 0.500000 0.432162
O O6 0.499009 0.379108 0.563083
O O7 0.383038 0.228531 0.472472
O O8 0.309734 0.339494 0.227493
O O9 0.372180 0.785715 0.718806
O O10 0.452813 0.000000 0.784341
O O11 0.571340 0.833586 0.055013
O O12 0.258730 0.244641 0.382458
O O13 0.312195 0.000000 0.418246
O O14 0.814628 0.500000 0.054389
O O15 0.750000 0.750000 0.000000
O O16 0.705931 0.000000 0.342728
#
# Coordination Sequence:
#
# PCOD9171386 Si02
#       7
#     8   8   8   2   8   8   8
#     4   9  16  24  34  50  75 106 138 170 201 244
#     4   8  16  29  45  59  77 107 142 172 206 249
#     4   8  13  21  31  45  67 100 140 171 197 233
#     4   8  16  32  50  60  76 106 154 170 208 246
#     4   9  15  22  34  54  77 100 133 172 207 242
#     4  10  18  28  42  61  82 107 139 174 212 247
#     4   8  13  20  31  46  68 100 137 170 197 236
#
# _framework density 22.620439000000001
#
# number of rings (size 3 to 8) (size 9 to 14) (size 15 to 20)
#    0.480    2.880    0.000    2.400    0.000    5.120 
#    0.000    3.600    0.000    0.000    0.000    0.000 
#    0.000    0.000    0.000    1.440    3.200    0.800 
#
# Total GULP energy -139244.665824 kJ/mol
# GULP energy per Si atom -5569.786633 kJ/mol
# Density = 2.256895 g / cm^3
# Si number density = 22.620439 Si / 1000 Ang^3
#
#
#
# Elastic Constant Matrix: (Units=GPa)
#
#
# Indices 1 2 3 4 5 6 
#
# 1 216.5274 133.5787 45.5896 0.0000 33.8498 0.0000
# 2 133.5787 167.9620 14.6415 0.0000 37.6111 0.0000
# 3 45.5896 14.6415 67.9376 0.0000 -5.2012 0.0000
# 4 0.0000 0.0000 0.0000 -17.9702 0.0000 16.7682
# 5 33.8498 37.6111 -5.2012 0.0000 46.8583 0.0000
# 6 0.0000 0.0000 0.0000 16.7682 0.0000 42.9886
#
#
#
# Elastic Compliance Matrix: (Units=1/GPa)
#
#
# Indices 1 2 3 4 5 6 
#
# 1 0.010967 -0.007665 -0.005893 0.000000 -0.002424 0.000000
# 2 -0.007665 0.012904 0.002011 0.000000 -0.004597 0.000000
# 3 -0.005893 0.002011 0.018601 0.000000 0.004707 0.000000
# 4 0.000000 0.000000 0.000000 -0.040798 0.000000 0.015914
# 5 -0.002424 -0.004597 0.004707 0.000000 0.027304 0.000000
# 6 0.000000 0.000000 0.000000 0.015914 0.000000 0.017055
#
#
# Mechanical properties :
#
#
# Convention : Reuss Voigt Hill
#
# Bulk Modulus (GPa) = 51.60751 93.33852 72.47301
# Shear Modulus (GPa) = 66.14983 31.61649 48.88316
#
# Velocity S-wave (km/s) = 5.41358 3.74263 4.65372
# Velocity P-wave (km/s) = 7.87019 7.74783 7.80925
#
# Compressibility (1/GPa) = 0.01937703
#
# Stress axis : x y z
#
# Youngs Moduli (GPa) = 91.18323 77.49494 53.76108
#
# Poissons Ratio (x) = 0.59403 0.31681
# Poissons Ratio (y) = 0.69896 -0.10811
# Poissons Ratio (z) = 0.53733 -0.15584
#
# Static dielectric constant tensor:
#      x y z
#    x 1.812290 0.000000 -0.006730 
#    y 0.000000 1.793470 0.000000 
#    z -0.006730 0.000000 1.985980 
# 
# From -- ./inp_files/352664.got.cif
#   From: 2010.05.17/outbox.cif.g08.bks.cpg/sg12_177_cif.got.tgz:352664.got - 2010.06.03 13:09:07.
