data_PCOD9171937
_publ_section_title
;
Structure prediction by ZEFSAII (Michael W. Deem and Ramdas Pophale) SiO2 
 PCOD9171937
Probable space group: C 2/M
;
_chemical_formula_sum "Si O2"
_cell_formula_units_Z 64
_cell_length_a 26.579435
_cell_length_b 8.006321
_cell_length_c 21.932219
_cell_angle_alpha 90.000000
_cell_angle_beta 53.585107
_cell_angle_gamma 90.000000
_cell_volume 3755.922718
_symmetry_space_group_name_H-M "C 2/M"
_symmetry_group_IT_number 12
_symmetry_cell_setting 'monoclinic'
loop_
_space_group_symop_operation_xyz
x,y,z
-x,y,-z
-x,-y,-z
x,-y,z
1/2+x,1/2+y,z
1/2-x,1/2+y,-z
1/2-x,1/2-y,-z
1/2+x,1/2-y,z
loop_
_atom_site_type_symbol
_atom_site_label
_atom_site_fract_x
_atom_site_fract_y
_atom_site_fract_z
Si Si1 0.019649 0.296054 0.082329
Si Si2 0.287268 0.200284 0.912588
Si Si3 0.429739 0.200014 0.824946
Si Si4 0.401604 0.795918 0.092307
Si Si5 0.861834 0.200718 0.662603
Si Si6 0.738144 0.800092 0.816501
Si Si7 0.557561 0.801059 0.500235
Si Si8 0.022607 0.801313 0.336959
O O1 0.019093 0.500000 0.083847
O O2 0.040835 0.235778 0.133245
O O3 0.951235 0.243068 0.108053
O O4 0.068845 0.247758 0.994260
O O5 0.358967 0.263026 0.865208
O O6 0.254915 0.267616 0.874877
O O7 0.288368 0.000000 0.907607
O O8 0.250000 0.250000 0.000000
O O9 0.470835 0.237927 0.736165
O O10 0.424981 0.000000 0.834318
O O11 0.330863 0.734811 0.149212
O O12 0.400603 0.000000 0.093634
O O13 0.795441 0.265252 0.734284
O O14 0.881048 0.243609 0.579754
O O15 0.917414 0.264884 0.667256
O O16 0.861567 0.000000 0.668021
O O17 0.736150 0.000000 0.809363
O O18 0.500000 0.733261 0.500000
O O19 0.539561 0.746235 0.581002
O O20 0.556151 0.000000 0.499494
O O21 0.027047 0.000000 0.332687
#
# Coordination Sequence:
#
# PCOD9171937 Si02
#       8
#     8   8   8   8   8   8   8   8
#     4   8  14  26  44  67  89 115 153 198 233 261
#     4  11  22  32  44  63  91 125 156 187 225 273
#     4  10  19  30  45  66  92 120 154 191 228 268
#     4   8  14  26  46  67  89 116 153 195 233 266
#     4   9  17  28  42  63  92 122 149 180 220 271
#     4  10  18  30  47  68  93 121 152 187 227 273
#     4   9  17  28  44  64  88 119 153 185 218 261
#     4  10  18  29  44  64  92 123 151 181 223 273
#
# _framework density 17.039755
#
# number of rings (size 3 to 8) (size 9 to 14) (size 15 to 20)
#    0.000    2.625    1.250    2.625    0.000    5.000 
#    0.000    0.000    0.000    0.750    0.000    3.500 
#    0.000    0.000    0.000    0.000    0.000    0.000 
#
# Total GULP energy -178364.686222 kJ/mol
# GULP energy per Si atom -5573.896444 kJ/mol
# Density = 1.700097 g / cm^3
# Si number density = 17.039755 Si / 1000 Ang^3
#
#
#
# Elastic Constant Matrix: (Units=GPa)
#
#
# Indices 1 2 3 4 5 6 
#
# 1 77.2099 3.5616 45.9234 -0.0242 -13.0848 0.0273
# 2 3.5616 8.5717 -4.3522 -0.0176 -3.2075 0.0146
# 3 45.9234 -4.3522 109.0491 -0.0261 -13.2032 0.0262
# 4 -0.0242 -0.0176 -0.0261 21.8450 -0.0039 4.4092
# 5 -13.0848 -3.2075 -13.2032 -0.0039 18.6790 0.0028
# 6 0.0273 0.0146 0.0262 4.4092 0.0028 8.0482
#
#
#
# Elastic Compliance Matrix: (Units=1/GPa)
#
#
# Indices 1 2 3 4 5 6 
#
# 1 0.018975 -0.009384 -0.007602 0.000012 0.006308 -0.000031
# 2 -0.009384 0.136542 0.012515 0.000194 0.025720 -0.000372
# 3 -0.007602 0.012515 0.013655 0.000031 0.006476 -0.000061
# 4 0.000012 0.000194 0.000031 0.051469 0.000079 -0.028198
# 5 0.006308 0.025720 0.006476 0.000079 0.066949 -0.000156
# 6 -0.000031 -0.000372 -0.000061 -0.028198 -0.000156 0.139701
#
#
# Mechanical properties :
#
#
# Convention : Reuss Voigt Hill
#
# Bulk Modulus (GPa) = 6.24096 31.67737 18.95917
# Shear Modulus (GPa) = 10.21158 19.69430 14.95294
#
# Velocity S-wave (km/s) = 2.45067 3.40337 2.96553
# Velocity P-wave (km/s) = 3.41735 5.83734 4.78293
#
# Compressibility (1/GPa) = 0.16023173
#
# Stress axis : x y z
#
# Youngs Moduli (GPa) = 52.70130 7.32377 73.23315
#
# Poissons Ratio (x) = 0.06872 0.55669
# Poissons Ratio (y) = 0.49453 -0.91653
# Poissons Ratio (z) = 0.40061 -0.09166
#
# Static dielectric constant tensor:
#      x y z
#    x 1.573460 0.000000 -0.015640 
#    y 0.000000 1.603590 0.000000 
#    z -0.015640 0.000000 1.589240 
# 
# From -- ./inp_files/326830.got.cif
#   From: 2010.05.17/outbox.cif.g08.bks.cpg/sg12_164_cif.got.tgz:326830.got - 2010.06.03 13:09:07.
