data_PCOD9171015
_publ_section_title
;
Structure prediction by ZEFSAII (Michael W. Deem and Ramdas Pophale) SiO2 
 PCOD9171015
Probable space group: C 2/M
;
_chemical_formula_sum "Si O2"
_cell_formula_units_Z 56
_cell_length_a 21.168214
_cell_length_b 9.219999
_cell_length_c 22.519673
_cell_angle_alpha 90.000000
_cell_angle_beta 53.389013
_cell_angle_gamma 90.000000
_cell_volume 3528.028844
_symmetry_space_group_name_H-M "C 2/M"
_symmetry_group_IT_number 12
_symmetry_cell_setting 'monoclinic'
loop_
_space_group_symop_operation_xyz
x,y,z
-x,y,-z
-x,-y,-z
x,-y,z
1/2+x,1/2+y,z
1/2-x,1/2+y,-z
1/2-x,1/2-y,-z
1/2+x,1/2-y,z
loop_
_atom_site_type_symbol
_atom_site_label
_atom_site_fract_x
_atom_site_fract_y
_atom_site_fract_z
Si Si1 0.983333 0.667307 0.647914
Si Si2 0.260248 0.675390 0.191698
Si Si3 0.382709 0.326941 0.796797
Si Si4 0.834428 0.826262 0.955355
Si Si5 0.330997 0.166557 0.645352
Si Si6 0.412749 0.676214 0.034558
Si Si7 0.076774 0.833415 0.500478
O O1 0.000060 0.500000 0.652243
O O2 0.052519 0.741497 0.571591
O O3 0.955334 0.755855 0.721031
O O4 0.907079 0.669314 0.646658
O O5 0.249586 0.500000 0.191656
O O6 0.195904 0.755014 0.186901
O O7 0.239986 0.711345 0.271398
O O8 0.346609 0.714320 0.120209
O O9 0.381477 0.500000 0.787475
O O10 0.380498 0.298521 0.868294
O O11 0.822095 0.000000 0.966497
O O12 0.750000 0.750000 0.000000
O O13 0.881218 0.778246 0.987675
O O14 0.353050 0.265074 0.577387
O O15 0.320238 0.000000 0.632371
O O16 0.416025 0.500000 0.031817
O O17 0.500000 0.729987 0.000000
O O18 0.000000 0.829882 0.500000
O O19 0.091595 0.000000 0.507422
#
# Coordination Sequence:
#
# PCOD9171015 Si02
#       7
#     8   8   8   8   8   8   8
#     4   9  16  25  37  53  78 112 144 177 215 260
#     4   9  16  27  43  61  83 113 149 185 221 263
#     4  10  18  26  39  62  87 112 144 184 224 264
#     4  10  19  30  47  68  90 117 152 191 229 270
#     4   8  14  22  33  51  75 106 142 176 210 256
#     4   9  17  30  48  68  90 118 154 193 229 267
#     4   9  15  22  33  51  77 109 141 174 213 259
#
# _framework density 15.872885
#
# number of rings (size 3 to 8) (size 9 to 14) (size 15 to 20)
#    0.000    2.857    1.429    2.143    0.000    5.714 
#    0.000    0.000    0.000    1.714    0.000    0.000 
#    0.000    1.143    0.000    2.000    0.000    3.714 
#
# Total GULP energy -155900.518593 kJ/mol
# GULP energy per Si atom -5567.875664 kJ/mol
# Density = 1.583676 g / cm^3
# Si number density = 15.872885 Si / 1000 Ang^3
#
#
#
# Elastic Constant Matrix: (Units=GPa)
#
#
# Indices 1 2 3 4 5 6 
#
# 1 51.1804 19.5664 49.1417 0.0000 -2.7034 0.0001
# 2 19.5664 62.9875 69.9525 0.0000 3.9332 0.0001
# 3 49.1417 69.9525 179.2346 0.0000 2.7356 0.0000
# 4 0.0000 0.0000 0.0000 26.5941 0.0000 2.1827
# 5 -2.7034 3.9332 2.7356 0.0000 9.5238 0.0000
# 6 0.0001 0.0001 0.0000 2.1827 0.0000 7.7948
#
#
#
# Elastic Compliance Matrix: (Units=1/GPa)
#
#
# Indices 1 2 3 4 5 6 
#
# 1 0.027480 -0.001129 -0.007252 0.000000 0.010350 0.000000
# 2 -0.001129 0.028765 -0.010778 0.000000 -0.009104 0.000000
# 3 -0.007252 -0.010778 0.011789 0.000000 -0.000994 0.000000
# 4 0.000000 0.000000 0.000000 0.038487 0.000000 -0.010777
# 5 0.010350 -0.009104 -0.000994 0.000000 0.111984 0.000000
# 6 0.000000 0.000000 0.000000 -0.010777 0.000000 0.131308
#
#
# Mechanical properties :
#
#
# Convention : Reuss Voigt Hill
#
# Bulk Modulus (GPa) = 33.65116 63.41376 48.53246
# Shear Modulus (GPa) = 12.56167 19.09867 15.83017
#
# Velocity S-wave (km/s) = 2.81622 3.47252 3.16145
# Velocity P-wave (km/s) = 5.64103 7.49103 6.63087
#
# Compressibility (1/GPa) = 0.02971666
#
# Stress axis : x y z
#
# Youngs Moduli (GPa) = 36.39040 34.76395 84.82346
#
# Poissons Ratio (x) = 0.03925 0.61510
# Poissons Ratio (y) = 0.04109 0.91424
# Poissons Ratio (z) = 0.26389 0.37469
#
# Static dielectric constant tensor:
#      x y z
#    x 1.494040 0.000000 0.002770 
#    y 0.000000 1.531410 0.000000 
#    z 0.002770 0.000000 1.557590 
# 
# From -- ./inp_files/319316.got.cif
#   From: 2010.05.17/outbox.cif.g08.bks.cpg/sg12_160_cif.got.tgz:319316.got - 2010.06.03 13:09:07.
