data_PCOD9171737
_publ_section_title
;
Structure prediction by ZEFSAII (Michael W. Deem and Ramdas Pophale) SiO2 
 PCOD9171737
Probable space group: C 2/M
;
_chemical_formula_sum "Si O2"
_cell_formula_units_Z 48
_cell_length_a 28.959838
_cell_length_b 8.881584
_cell_length_c 27.373659
_cell_angle_alpha 90.000000
_cell_angle_beta 154.670782
_cell_angle_gamma 90.000000
_cell_volume 3012.168895
_symmetry_space_group_name_H-M "C 2/M"
_symmetry_group_IT_number 12
_symmetry_cell_setting 'monoclinic'
loop_
_space_group_symop_operation_xyz
x,y,z
-x,y,-z
-x,-y,-z
x,-y,z
1/2+x,1/2+y,z
1/2-x,1/2+y,-z
1/2-x,1/2-y,-z
1/2+x,1/2-y,z
loop_
_atom_site_type_symbol
_atom_site_label
_atom_site_fract_x
_atom_site_fract_y
_atom_site_fract_z
Si Si1 0.126869 0.173388 0.106191
Si Si2 0.238302 0.178687 0.568288
Si Si3 0.427350 0.178865 0.042983
Si Si4 0.912736 0.179643 0.662824
Si Si5 0.662654 0.680555 0.247044
Si Si6 0.146134 0.180108 0.926280
O O1 0.185101 0.221337 0.211955
O O2 0.154584 0.000000 0.121022
O O3 0.135253 0.274256 0.066327
O O4 0.000000 0.174663 0.000000
O O5 0.133123 0.213194 0.434914
O O6 0.338434 0.231935 0.630252
O O7 0.250150 0.263260 0.630768
O O8 0.244420 0.000000 0.581866
O O9 0.548271 0.246109 0.153058
O O10 0.373338 0.251019 0.038839
O O11 0.433588 0.000000 0.053547
O O12 0.037315 0.213619 0.791387
O O13 0.896398 0.000000 0.655676
O O14 0.650490 0.500000 0.237427
O O15 0.156391 0.000000 0.939602
O O16 0.250000 0.250000 0.000000
#
# Coordination Sequence:
#
# PCOD9171737 Si02
#       6
#     8   8   8   8   8   8
#     4   8  16  29  44  63  92 128 159 188 234 290
#     4  10  18  28  47  72  96 125 161 195 234 287
#     4  11  20  30  46  69  95 124 161 201 240 282
#     4   9  19  33  47  66  95 129 159 195 241 286
#     4  10  18  29  45  68  98 131 159 189 238 290
#     4  11  22  36  52  69  95 129 166 202 240 282
#
# _framework density 15.935361
#
# number of rings (size 3 to 8) (size 9 to 14) (size 15 to 20)
#    0.000    2.167    1.667    4.000    0.000    5.000 
#    0.000    0.000    0.000    0.000    0.000    1.167 
#    0.000    9.333    0.000    0.000    0.000    0.000 
#
# Total GULP energy -133823.764801 kJ/mol
# GULP energy per Si atom -5575.990200 kJ/mol
# Density = 1.589909 g / cm^3
# Si number density = 15.935361 Si / 1000 Ang^3
#
#
#
# Elastic Constant Matrix: (Units=GPa)
#
#
# Indices 1 2 3 4 5 6 
#
# 1 92.7893 53.1721 66.8074 0.0000 -22.6183 0.0000
# 2 53.1721 77.6946 52.9336 0.0000 -13.0947 0.0000
# 3 66.8074 52.9336 94.9940 0.0000 -25.9472 0.0000
# 4 0.0000 0.0000 0.0000 22.1173 0.0000 -5.7091
# 5 -22.6183 -13.0947 -25.9472 0.0000 32.2359 0.0000
# 6 0.0000 0.0000 0.0000 -5.7091 0.0000 26.2662
#
#
#
# Elastic Compliance Matrix: (Units=1/GPa)
#
#
# Indices 1 2 3 4 5 6 
#
# 1 0.025250 -0.008490 -0.011702 0.000000 0.004848 0.000000
# 2 -0.008490 0.023634 -0.007952 0.000000 -0.002757 0.000000
# 3 -0.011702 -0.007952 0.025717 0.000000 0.009259 0.000000
# 4 0.000000 0.000000 0.000000 0.047901 0.000000 0.010412
# 5 0.004848 -0.002757 0.009259 0.000000 0.040756 0.000000
# 6 0.000000 0.000000 0.000000 0.010412 0.000000 0.040335
#
#
# Mechanical properties :
#
#
# Convention : Reuss Voigt Hill
#
# Bulk Modulus (GPa) = 54.60830 67.92267 61.26548
# Shear Modulus (GPa) = 18.79801 22.29487 20.54644
#
# Velocity S-wave (km/s) = 3.43832 3.74449 3.59466
# Velocity P-wave (km/s) = 7.07854 7.83654 7.46716
#
# Compressibility (1/GPa) = 0.01831223
#
# Stress axis : x y z
#
# Youngs Moduli (GPa) = 39.60434 42.31124 38.88474
#
# Poissons Ratio (x) = 0.35924 0.45504
# Poissons Ratio (y) = 0.33625 0.30921
# Poissons Ratio (z) = 0.46346 0.33645
#
# Static dielectric constant tensor:
#      x y z
#    x 1.518560 0.000000 -0.047550 
#    y 0.000000 1.530390 0.000000 
#    z -0.047550 0.000000 1.550330 
# 
# From -- ./inp_files/172447.got.cif
#   From: 2010.05.17/outbox.cif.g08.bks.cpg/sg12_87_cif.got.tgz:172447.got - 2010.06.03 13:09:07.
