data_PCOD9171707
_publ_section_title
;
Structure prediction by ZEFSAII (Michael W. Deem and Ramdas Pophale) SiO2 
 PCOD9171707
Probable space group: C 2/M
;
_chemical_formula_sum "Si O2"
_cell_formula_units_Z 64
_cell_length_a 21.096503
_cell_length_b 7.562501
_cell_length_c 24.977975
_cell_angle_alpha 90.000000
_cell_angle_beta 54.130403
_cell_angle_gamma 90.000000
_cell_volume 3229.291231
_symmetry_space_group_name_H-M "C 2/M"
_symmetry_group_IT_number 12
_symmetry_cell_setting 'monoclinic'
loop_
_space_group_symop_operation_xyz
x,y,z
-x,y,-z
-x,-y,-z
x,-y,z
1/2+x,1/2+y,z
1/2-x,1/2+y,-z
1/2-x,1/2-y,-z
1/2+x,1/2-y,z
loop_
_atom_site_type_symbol
_atom_site_label
_atom_site_fract_x
_atom_site_fract_y
_atom_site_fract_z
Si Si1 0.142021 0.712263 0.294092
Si Si2 0.680375 0.212102 0.492998
Si Si3 0.197027 0.210713 0.148893
Si Si4 0.181035 0.288273 0.991632
Si Si5 0.560952 0.206477 0.133022
Si Si6 0.917753 0.712465 0.270229
Si Si7 0.535251 0.216765 0.633794
Si Si8 0.236199 0.287623 0.350152
O O1 0.137867 0.500000 0.300791
O O2 0.184206 0.750775 0.217150
O O3 0.189227 0.780267 0.321965
O O4 0.052591 0.776248 0.335041
O O5 0.750000 0.250000 0.500000
O O6 0.599451 0.276152 0.558942
O O7 0.702758 0.280988 0.423259
O O8 0.673963 0.000000 0.492009
O O9 0.279685 0.275002 0.083020
O O10 0.125242 0.285224 0.149067
O O11 0.193861 0.000000 0.142657
O O12 0.170958 0.500000 0.992389
O O13 0.250000 0.250000 0.000000
O O14 0.103180 0.216799 0.059171
O O15 0.480947 0.282897 0.196302
O O16 0.546301 0.000000 0.128767
O O17 0.926842 0.500000 0.267044
O O18 0.938860 0.775062 0.319663
O O19 0.828318 0.751228 0.301317
O O20 0.535535 0.000000 0.633794
O O21 0.227386 0.500000 0.355348
#
# Coordination Sequence:
#
# PCOD9171707 Si02
#       8
#     8   8   8   8   8   8   8   8
#     4  10  20  36  52  70 100 135 170 202 243 299
#     4  10  19  33  52  75  99 126 161 203 249 291
#     4  10  18  28  46  74 103 130 161 205 251 288
#     4   8  15  26  42  68 100 128 160 200 243 289
#     4   9  16  29  49  72  99 133 167 200 242 293
#     4  10  18  31  53  76  98 130 168 203 242 294
#     4   9  17  31  53  75  94 126 168 202 237 289
#     4  10  22  35  51  75 101 130 164 207 251 293
#
# _framework density 19.81859
#
# number of rings (size 3 to 8) (size 9 to 14) (size 15 to 20)
#    0.000    2.500    2.500    0.375    0.000    2.000 
#    0.000    3.125    0.000    0.750    0.000    7.875 
#    0.000    0.000    0.000    0.000    0.000    0.000 
#
# Total GULP energy -178447.864616 kJ/mol
# GULP energy per Si atom -5576.495769 kJ/mol
# Density = 1.977348 g / cm^3
# Si number density = 19.818590 Si / 1000 Ang^3
#
#
#
# Elastic Constant Matrix: (Units=GPa)
#
#
# Indices 1 2 3 4 5 6 
#
# 1 127.1273 -1.9227 104.7140 -0.0022 -10.1812 -0.0025
# 2 -1.9227 46.8581 1.7961 -0.0177 -5.8291 -0.0026
# 3 104.7140 1.7961 226.7401 -0.0006 -30.3146 -0.0002
# 4 -0.0022 -0.0177 -0.0006 6.2108 -0.0005 -0.0867
# 5 -10.1812 -5.8291 -30.3146 -0.0005 25.5029 -0.0001
# 6 -0.0025 -0.0026 -0.0002 -0.0867 -0.0001 16.8694
#
#
#
# Elastic Compliance Matrix: (Units=1/GPa)
#
#
# Indices 1 2 3 4 5 6 
#
# 1 0.012817 0.000496 -0.006211 0.000005 -0.002153 0.000002
# 2 0.000496 0.022052 0.000353 0.000064 0.005657 0.000004
# 3 -0.006211 0.000353 0.008269 0.000000 0.007431 -0.000001
# 4 0.000005 0.000064 0.000000 0.161021 0.000020 0.000828
# 5 -0.002153 0.005657 0.007431 0.000020 0.048478 0.000001
# 6 0.000002 0.000004 -0.000001 0.000828 0.000001 0.059283
#
#
# Mechanical properties :
#
#
# Convention : Reuss Voigt Hill
#
# Bulk Modulus (GPa) = 30.85109 67.76668 49.30889
# Shear Modulus (GPa) = 14.99481 29.45917 22.22699
#
# Velocity S-wave (km/s) = 2.75363 3.85962 3.35255
# Velocity P-wave (km/s) = 5.07055 7.35731 6.31825
#
# Compressibility (1/GPa) = 0.03241377
#
# Stress axis : x y z
#
# Youngs Moduli (GPa) = 78.02002 45.34802 120.92773
#
# Poissons Ratio (x) = -0.02250 0.75109
# Poissons Ratio (y) = -0.03872 -0.04263
# Poissons Ratio (z) = 0.48458 -0.01599
#
# Static dielectric constant tensor:
#      x y z
#    x 1.647300 0.000000 -0.023920 
#    y 0.000000 1.223850 0.000000 
#    z -0.023920 0.000000 1.743080 
# 
# From -- ./inp_files/319955.got.cif
#   From: 2010.05.17/outbox.cif.g08.bks.cpg/sg12_160_cif.got.tgz:319955.got - 2010.06.03 13:09:07.
