data_PCOD9171807
_publ_section_title
;
Structure prediction by ZEFSAII (Michael W. Deem and Ramdas Pophale) SiO2 
 PCOD9171807
Probable space group: C 2/M
;
_chemical_formula_sum "Si O2"
_cell_formula_units_Z 64
_cell_length_a 24.973747
_cell_length_b 9.060177
_cell_length_c 16.413854
_cell_angle_alpha 90.000000
_cell_angle_beta 91.690876
_cell_angle_gamma 90.000000
_cell_volume 3712.289275
_symmetry_space_group_name_H-M "C 2/M"
_symmetry_group_IT_number 12
_symmetry_cell_setting 'monoclinic'
loop_
_space_group_symop_operation_xyz
x,y,z
-x,y,-z
-x,-y,-z
x,-y,z
1/2+x,1/2+y,z
1/2-x,1/2+y,-z
1/2-x,1/2-y,-z
1/2+x,1/2-y,z
loop_
_atom_site_type_symbol
_atom_site_label
_atom_site_fract_x
_atom_site_fract_y
_atom_site_fract_z
Si Si1 0.408461 0.677698 0.634393
Si Si2 0.916579 0.825416 0.446117
Si Si3 0.317103 0.674139 0.327879
Si Si4 0.221821 0.175302 0.112904
Si Si5 0.329917 0.674909 0.054513
Si Si6 0.206571 0.823484 0.301333
Si Si7 0.513198 0.824122 0.688810
Si Si8 0.889471 0.323790 0.193163
O O1 0.412115 0.500000 0.640638
O O2 0.417615 0.718059 0.540245
O O3 0.349128 0.721132 0.660042
O O4 0.455283 0.750468 0.689024
O O5 0.857213 0.806225 0.405808
O O6 0.956818 0.736584 0.390436
O O7 0.929994 0.000000 0.440680
O O8 0.313651 0.500000 0.310036
O O9 0.258661 0.741490 0.337771
O O10 0.345879 0.755937 0.253708
O O11 0.274384 0.267335 0.091657
O O12 0.204649 0.205738 0.204196
O O13 0.235016 0.000000 0.107545
O O14 0.177257 0.205614 0.041959
O O15 0.334742 0.500000 0.066482
O O16 0.376891 0.756919 0.104612
O O17 0.213328 0.000000 0.312554
O O18 0.552839 0.786717 0.765520
O O19 0.508740 0.000000 0.684048
O O20 0.883418 0.500000 0.191795
#
# Coordination Sequence:
#
# PCOD9171807 Si02
#       8
#     8   8   8   8   8   8   8   8
#     4  10  21  36  53  72  97 135 173 203 246 299
#     4   9  19  35  53  74 101 129 163 210 254 294
#     4  10  19  31  49  74 101 131 166 203 246 294
#     4   9  18  31  47  71 105 136 161 199 244 292
#     4  10  18  28  48  77 102 128 165 202 244 295
#     4  10  20  34  51  71 102 139 168 197 242 300
#     4  10  21  35  53  76  99 126 166 214 257 294
#     4  10  19  32  50  73 102 131 160 204 257 299
#
# _framework density 17.240034999999999
#
# number of rings (size 3 to 8) (size 9 to 14) (size 15 to 20)
#    0.000    2.250    1.250    1.875    0.000    5.500 
#    0.000    0.000    0.000    0.750    0.000    5.250 
#    0.000    0.000    0.000    0.000    0.000    0.000 
#
# Total GULP energy -178550.961001 kJ/mol
# GULP energy per Si atom -5579.717531 kJ/mol
# Density = 1.720080 g / cm^3
# Si number density = 17.240035 Si / 1000 Ang^3
#
#
#
# Elastic Constant Matrix: (Units=GPa)
#
#
# Indices 1 2 3 4 5 6 
#
# 1 92.9743 30.3095 10.6910 0.0000 19.1849 0.0000
# 2 30.3095 36.0660 17.3957 0.0000 13.3405 0.0000
# 3 10.6910 17.3957 36.0006 0.0000 21.1240 0.0000
# 4 0.0000 0.0000 0.0000 17.7467 0.0000 5.1537
# 5 19.1849 13.3405 21.1240 0.0000 21.7004 0.0000
# 6 0.0000 0.0000 0.0000 5.1537 0.0000 30.2933
#
#
#
# Elastic Compliance Matrix: (Units=1/GPa)
#
#
# Indices 1 2 3 4 5 6 
#
# 1 0.017976 -0.014051 0.013311 0.000000 -0.020212 0.000000
# 2 -0.014051 0.048569 -0.021140 0.000000 0.003142 0.000000
# 3 0.013311 -0.021140 0.077699 0.000000 -0.074406 0.000000
# 4 0.000000 0.000000 0.000000 0.059277 0.000000 -0.010085
# 5 -0.020212 0.003142 -0.074406 0.000000 0.134449 0.000000
# 6 0.000000 0.000000 0.000000 -0.010085 0.000000 0.034726
#
#
# Mechanical properties :
#
#
# Convention : Reuss Voigt Hill
#
# Bulk Modulus (GPa) = 9.95190 31.31482 20.63336
# Shear Modulus (GPa) = 11.11229 21.05772 16.08501
#
# Velocity S-wave (km/s) = 2.54158 3.49871 3.05782
# Velocity P-wave (km/s) = 3.79446 5.87577 4.94584
#
# Compressibility (1/GPa) = 0.10048337
#
# Stress axis : x y z
#
# Youngs Moduli (GPa) = 55.62880 20.58908 12.87026
#
# Poissons Ratio (x) = 0.28930 -0.17131
# Poissons Ratio (y) = 0.78164 0.27208
# Poissons Ratio (z) = -0.74045 0.43525
#
# Static dielectric constant tensor:
#      x y z
#    x 1.574820 0.000000 0.031690 
#    y 0.000000 1.575730 0.000000 
#    z 0.031690 0.000000 1.591910 
# 
# From -- ./inp_files/281383.got.cif
#   From: 2010.05.17/outbox.cif.g08.bks.cpg/sg12_141_cif.got.tgz:281383.got - 2010.06.03 13:09:07.
