data_PCOD9171913
_publ_section_title
;
Structure prediction by ZEFSAII (Michael W. Deem and Ramdas Pophale) SiO2 
 PCOD9171913
Probable space group: C 2/M
;
_chemical_formula_sum "Si O2"
_cell_formula_units_Z 40
_cell_length_a 12.546805
_cell_length_b 10.034339
_cell_length_c 12.354268
_cell_angle_alpha 90.000000
_cell_angle_beta 92.773298
_cell_angle_gamma 90.000000
_cell_volume 1553.567007
_symmetry_space_group_name_H-M "C 2/M"
_symmetry_group_IT_number 12
_symmetry_cell_setting 'monoclinic'
loop_
_space_group_symop_operation_xyz
x,y,z
-x,y,-z
-x,-y,-z
x,-y,z
1/2+x,1/2+y,z
1/2-x,1/2+y,-z
1/2-x,1/2-y,-z
1/2+x,1/2-y,z
loop_
_atom_site_type_symbol
_atom_site_label
_atom_site_fract_x
_atom_site_fract_y
_atom_site_fract_z
Si Si1 0.627257 0.781073 0.457538
Si Si2 0.142261 0.000000 0.488469
Si Si3 0.500000 0.270280 0.000000
Si Si4 0.172024 0.000000 0.956567
Si Si5 0.246532 0.000000 0.181398
Si Si6 0.574818 0.730365 0.229079
Si Si7 0.900230 0.000000 0.266857
Si Si8 0.371405 0.000000 0.384895
O O1 0.750000 0.750000 0.500000
O O2 0.585590 0.631677 0.447568
O O3 0.610026 0.823951 0.332035
O O4 0.585474 0.867581 0.556409
O O5 0.150315 0.000000 0.617414
O O6 0.253662 0.000000 0.431916
O O7 0.402334 0.371300 0.023302
O O8 0.538665 0.202677 0.113619
O O9 0.190596 0.000000 0.830180
O O10 0.261283 0.000000 0.053202
O O11 0.175027 0.129567 0.210401
O O12 0.353330 0.000000 0.257727
O O13 0.475233 0.629854 0.250685
#
# Coordination Sequence:
#
# PCOD9171913 Si02
#       8
#     8   4   4   4   4   8   4   4
#     4  10  18  29  43  66  92 120 150 183 219 262
#     4  10  18  30  46  69  96 116 140 187 234 266
#     4   7  12  20  38  63  88 112 140 182 228 250
#     4   7  12  21  38  64  90 113 133 182 225 259
#     4   9  12  24  43  64  90 112 149 178 216 253
#     4   9  14  25  42  68  92 111 143 188 228 261
#     4   9  17  26  44  72  97 108 139 188 242 269
#     4  10  19  31  45  67  90 124 154 179 214 264
#
# _framework density 25.747198999999998
#
# number of rings (size 3 to 8) (size 9 to 14) (size 15 to 20)
#    0.000    3.000    4.000    3.000    0.000    1.600 
#    0.000    0.000    0.000    4.200    0.000    0.000 
#    0.000    0.000    0.000    0.000    0.000    0.900 
#
# Total GULP energy -111453.349045 kJ/mol
# GULP energy per Si atom -5572.667452 kJ/mol
# Density = 2.568860 g / cm^3
# Si number density = 25.747199 Si / 1000 Ang^3
#
#
#
# Elastic Constant Matrix: (Units=GPa)
#
#
# Indices 1 2 3 4 5 6 
#
# 1 50.0114 -23.4337 28.4765 0.0000 20.5712 0.0000
# 2 -23.4337 72.3216 14.7653 0.0000 13.0529 0.0000
# 3 28.4765 14.7653 303.7337 0.0000 66.2635 0.0000
# 4 0.0000 0.0000 0.0000 17.5103 0.0000 1.9420
# 5 20.5712 13.0529 66.2635 0.0000 47.7980 0.0000
# 6 0.0000 0.0000 0.0000 1.9420 0.0000 -16.6248
#
#
#
# Elastic Compliance Matrix: (Units=1/GPa)
#
#
# Indices 1 2 3 4 5 6 
#
# 1 0.034634 0.014645 0.000237 0.000000 -0.019234 0.000000
# 2 0.014645 0.020748 0.000329 0.000000 -0.012425 0.000000
# 3 0.000237 0.000329 0.004725 0.000000 -0.006742 0.000000
# 4 0.000000 0.000000 0.000000 0.056379 0.000000 0.006586
# 5 -0.019234 -0.012425 -0.006742 0.000000 0.041939 0.000000
# 6 0.000000 0.000000 0.000000 0.006586 0.000000 -0.059382
#
#
# Mechanical properties :
#
#
# Convention : Reuss Voigt Hill
#
# Bulk Modulus (GPa) = 11.04612 51.74253 31.39433
# Shear Modulus (GPa) = 50.60863 36.82062 43.71462
#
# Velocity S-wave (km/s) = 4.43832 3.78575 4.12496
# Velocity P-wave (km/s) = 5.52851 6.26492 5.90820
#
# Compressibility (1/GPa) = 0.09052952
#
# Stress axis : x y z
#
# Youngs Moduli (GPa) = 28.87321 48.19787 211.63724
#
# Poissons Ratio (x) = -0.70587 -0.05017
# Poissons Ratio (y) = -0.42285 -0.06963
# Poissons Ratio (z) = -0.00684 -0.01586
#
# Static dielectric constant tensor:
#      x y z
#    x 1.287530 0.000000 -0.298750 
#    y 0.000000 2.154310 0.000000 
#    z -0.298750 0.000000 1.979680 
# 
# From -- ./inp_files/152914.got.cif
#   From: 2010.05.17/outbox.cif.g08.bks.cpg/sg12_77_cif.got.tgz:152914.got - 2010.06.03 13:09:07.
