data_PCOD9171978
_publ_section_title
;
Structure prediction by ZEFSAII (Michael W. Deem and Ramdas Pophale) SiO2 
 PCOD9171978
Probable space group: C 2/M
;
_chemical_formula_sum "Si O2"
_cell_formula_units_Z 64
_cell_length_a 25.252340
_cell_length_b 7.428530
_cell_length_c 16.706973
_cell_angle_alpha 90.000000
_cell_angle_beta 99.017475
_cell_angle_gamma 90.000000
_cell_volume 3095.289022
_symmetry_space_group_name_H-M "C 2/M"
_symmetry_group_IT_number 12
_symmetry_cell_setting 'monoclinic'
loop_
_space_group_symop_operation_xyz
x,y,z
-x,y,-z
-x,-y,-z
x,-y,z
1/2+x,1/2+y,z
1/2-x,1/2+y,-z
1/2-x,1/2-y,-z
1/2+x,1/2-y,z
loop_
_atom_site_type_symbol
_atom_site_label
_atom_site_fract_x
_atom_site_fract_y
_atom_site_fract_z
Si Si1 0.889026 0.281500 0.277114
Si Si2 0.444532 0.717434 0.721603
Si Si3 0.226742 0.701409 0.762726
Si Si4 0.152013 0.220049 0.198721
Si Si5 0.299714 0.711760 0.068035
Si Si6 0.985431 0.710615 0.410208
Si Si7 0.038996 0.787019 0.857867
Si Si8 0.100051 0.781665 0.018922
O O1 0.887489 0.500000 0.278058
O O2 0.828928 0.215843 0.282841
O O3 0.933770 0.215619 0.350478
O O4 0.911996 0.233127 0.194255
O O5 0.446808 0.500000 0.723083
O O6 0.385499 0.769530 0.735703
O O7 0.465510 0.775850 0.640372
O O8 0.487507 0.784651 0.798082
O O9 0.231846 0.500000 0.729197
O O10 0.286535 0.783295 0.777114
O O11 0.210939 0.689972 0.852215
O O12 0.155026 0.000000 0.193356
O O13 0.119649 0.279511 0.111013
O O14 0.303503 0.500000 0.087304
O O15 0.350640 0.761471 0.027909
O O16 0.250000 0.750000 0.000000
O O17 0.973269 0.500000 0.419790
O O18 0.000000 0.788636 0.500000
O O19 0.051381 0.717724 0.950174
O O20 0.030240 0.000000 0.865709
O O21 0.094439 0.000000 0.024498
#
# Coordination Sequence:
#
# PCOD9171978 Si02
#       8
#     8   8   8   8   8   8   8   8
#     4   9  17  28  46  71  92 115 149 188 232 277
#     4   9  18  31  49  70  93 120 152 186 225 273
#     4  10  18  29  45  65  92 123 156 194 231 272
#     4   9  17  29  43  63  92 127 159 188 222 265
#     4  11  19  28  42  62  89 123 165 208 239 264
#     4   9  18  34  55  75  94 115 141 181 234 286
#     4   9  16  27  43  65  90 119 154 196 234 262
#     4   9  16  25  40  61  88 121 157 193 228 259
#
# _framework density 20.676583000000001
#
# number of rings (size 3 to 8) (size 9 to 14) (size 15 to 20)
#    0.000    2.625    2.500    0.375    0.000    0.750 
#    0.000    3.125    0.000    0.750    0.000    3.500 
#    0.000    0.000    0.000    0.000    0.000    0.000 
#
# Total GULP energy -178336.245202 kJ/mol
# GULP energy per Si atom -5573.007663 kJ/mol
# Density = 2.062952 g / cm^3
# Si number density = 20.676583 Si / 1000 Ang^3
#
#
#
# Elastic Constant Matrix: (Units=GPa)
#
#
# Indices 1 2 3 4 5 6 
#
# 1 103.4218 -1.1337 73.1018 0.0000 -7.1183 0.0000
# 2 -1.1337 53.0375 -2.5235 0.0000 -1.1406 0.0000
# 3 73.1018 -2.5235 116.0669 0.0000 11.5907 0.0000
# 4 0.0000 0.0000 0.0000 33.8874 0.0000 2.9130
# 5 -7.1183 -1.1406 11.5907 0.0000 17.2886 0.0000
# 6 0.0000 0.0000 0.0000 2.9130 0.0000 9.4373
#
#
#
# Elastic Compliance Matrix: (Units=1/GPa)
#
#
# Indices 1 2 3 4 5 6 
#
# 1 0.022477 0.000144 -0.016160 0.000000 0.020098 0.000000
# 2 0.000144 0.018892 0.000203 0.000000 0.001169 0.000000
# 3 -0.016160 0.000203 0.020858 0.000000 -0.020624 0.000000
# 4 0.000000 0.000000 0.000000 0.030314 0.000000 -0.009357
# 5 0.020098 0.001169 -0.020624 0.000000 0.080020 0.000000
# 6 0.000000 0.000000 0.000000 -0.009357 0.000000 0.108850
#
#
# Mechanical properties :
#
#
# Convention : Reuss Voigt Hill
#
# Bulk Modulus (GPa) = 32.67881 45.71281 39.19581
# Shear Modulus (GPa) = 15.46851 25.66145 20.56498
#
# Velocity S-wave (km/s) = 2.73814 3.52673 3.15715
# Velocity P-wave (km/s) = 5.08287 6.22417 5.68225
#
# Compressibility (1/GPa) = 0.03060087
#
# Stress axis : x y z
#
# Youngs Moduli (GPa) = 44.49088 52.93108 47.94378
#
# Poissons Ratio (x) = -0.00761 0.77478
# Poissons Ratio (y) = -0.00640 -0.00975
# Poissons Ratio (z) = 0.71898 -0.01077
#
# Static dielectric constant tensor:
#      x y z
#    x 1.791570 0.000000 0.041180 
#    y 0.000000 1.776860 0.000000 
#    z 0.041180 0.000000 1.723300 
# 
# From -- ./inp_files/287638.got.cif
#   From: 2010.05.17/outbox.cif.g08.bks.cpg/sg12_144_cif.got.tgz:287638.got - 2010.06.03 13:09:07.
