data_PCOD9171306
_publ_section_title
;
Structure prediction by ZEFSAII (Michael W. Deem and Ramdas Pophale) SiO2 
 PCOD9171306
Probable space group: C 2/M
;
_chemical_formula_sum "Si O2"
_cell_formula_units_Z 48
_cell_length_a 19.751090
_cell_length_b 21.601870
_cell_length_c 8.157868
_cell_angle_alpha 90.000000
_cell_angle_beta 43.227674
_cell_angle_gamma 90.000000
_cell_volume 2383.887179
_symmetry_space_group_name_H-M "C 2/M"
_symmetry_group_IT_number 12
_symmetry_cell_setting 'monoclinic'
loop_
_space_group_symop_operation_xyz
x,y,z
-x,y,-z
-x,-y,-z
x,-y,z
1/2+x,1/2+y,z
1/2-x,1/2+y,-z
1/2-x,1/2-y,-z
1/2+x,1/2-y,z
loop_
_atom_site_type_symbol
_atom_site_label
_atom_site_fract_x
_atom_site_fract_y
_atom_site_fract_z
Si Si1 0.068957 0.830394 0.010523
Si Si2 0.743300 0.425519 0.667203
Si Si3 0.210049 0.430226 0.778685
Si Si4 0.447985 0.432879 0.412794
Si Si5 0.388950 0.272227 0.752182
Si Si6 0.206284 0.355625 0.089178
O O1 0.114359 0.778173 0.045346
O O2 0.995257 0.875185 0.239504
O O3 0.150150 0.879484 0.807498
O O4 0.000000 0.799444 0.000000
O O5 0.722811 0.500000 0.711675
O O6 0.802802 0.415459 0.391682
O O7 0.783839 0.401748 0.772830
O O8 0.174014 0.500000 0.866926
O O9 0.329001 0.431405 0.609010
O O10 0.164440 0.387444 0.999988
O O11 0.500000 0.432964 0.500000
O O12 0.476770 0.500000 0.287002
O O13 0.500000 0.282596 0.500000
O O14 0.352946 0.205815 0.756193
O O15 0.312738 0.326978 0.845457
#
# Coordination Sequence:
#
# PCOD9171306 Si02
#       6
#     8   8   8   8   8   8
#     4  11  19  30  49  78 113 147 175 222 268 334
#     4  10  20  33  54  84 112 145 181 220 281 340
#     4  10  19  32  53  79 109 141 177 226 281 333
#     4  10  18  27  45  74 109 147 177 211 268 337
#     4  10  22  39  56  77 108 148 195 229 268 322
#     4  10  21  39  57  80 112 149 185 232 274 321
#
# _framework density 20.135182
#
# number of rings (size 3 to 8) (size 9 to 14) (size 15 to 20)
#    0.000    1.833    1.667    4.500    0.000    2.000 
#    3.000    2.500    0.000    2.500    0.000    2.333 
#    0.000    0.000    0.000    0.000    0.000    0.000 
#
# Total GULP energy -133612.950739 kJ/mol
# GULP energy per Si atom -5567.206281 kJ/mol
# Density = 2.008935 g / cm^3
# Si number density = 20.135182 Si / 1000 Ang^3
#
#
#
# Elastic Constant Matrix: (Units=GPa)
#
#
# Indices 1 2 3 4 5 6 
#
# 1 45.6831 38.3434 11.6613 0.0000 21.6527 0.0000
# 2 38.3434 63.0760 19.4387 0.0000 20.3940 0.0000
# 3 11.6613 19.4387 31.3885 0.0000 15.3859 0.0000
# 4 0.0000 0.0000 0.0000 2.6347 0.0000 2.7373
# 5 21.6527 20.3940 15.3859 0.0000 24.4856 0.0000
# 6 0.0000 0.0000 0.0000 2.7373 0.0000 14.9958
#
#
#
# Elastic Compliance Matrix: (Units=1/GPa)
#
#
# Indices 1 2 3 4 5 6 
#
# 1 0.060798 -0.028836 0.014237 0.000000 -0.038693 0.000000
# 2 -0.028836 0.036368 -0.013672 0.000000 0.003800 0.000000
# 3 0.014237 -0.013672 0.051483 0.000000 -0.033553 0.000000
# 4 0.000000 0.000000 0.000000 0.468376 0.000000 -0.085496
# 5 -0.038693 0.003800 -0.033553 0.000000 0.092975 0.000000
# 6 0.000000 0.000000 0.000000 -0.085496 0.000000 0.082291
#
#
# Mechanical properties :
#
#
# Convention : Reuss Voigt Hill
#
# Bulk Modulus (GPa) = 10.85698 31.00381 20.93039
# Shear Modulus (GPa) = 5.68481 13.13684 9.41082
#
# Velocity S-wave (km/s) = 1.68210 2.55705 2.16425
# Velocity P-wave (km/s) = 3.02925 4.91419 4.08201
#
# Compressibility (1/GPa) = 0.09210668
#
# Stress axis : x y z
#
# Youngs Moduli (GPa) = 16.44783 27.49687 19.42374
#
# Poissons Ratio (x) = 0.79290 -0.27653
# Poissons Ratio (y) = 0.47429 0.26557
# Poissons Ratio (z) = -0.23416 0.37594
#
# Static dielectric constant tensor:
#      x y z
#    x 1.818870 0.000000 0.021770 
#    y 0.000000 1.704540 0.000000 
#    z 0.021770 0.000000 1.755430 
# 
# From -- ./inp_files/89418.got.cif
#   From: 2010.05.17/outbox.cif.g08.bks.cpg/sg12_45_cif.got.tgz:89418.got - 2010.06.03 13:09:07.
