data_PCOD9171748
_publ_section_title
;
Structure prediction by ZEFSAII (Michael W. Deem and Ramdas Pophale) SiO2 
 PCOD9171748
Probable space group: C 2/M
;
_chemical_formula_sum "Si O2"
_cell_formula_units_Z 56
_cell_length_a 14.468705
_cell_length_b 13.558081
_cell_length_c 15.737520
_cell_angle_alpha 90.000000
_cell_angle_beta 62.733714
_cell_angle_gamma 90.000000
_cell_volume 2744.168123
_symmetry_space_group_name_H-M "C 2/M"
_symmetry_group_IT_number 12
_symmetry_cell_setting 'monoclinic'
loop_
_space_group_symop_operation_xyz
x,y,z
-x,y,-z
-x,-y,-z
x,-y,z
1/2+x,1/2+y,z
1/2-x,1/2+y,-z
1/2-x,1/2-y,-z
1/2+x,1/2-y,z
loop_
_atom_site_type_symbol
_atom_site_label
_atom_site_fract_x
_atom_site_fract_y
_atom_site_fract_z
Si Si1 0.909082 0.694015 0.752049
Si Si2 0.114700 0.383923 0.057585
Si Si3 0.155788 0.825380 0.470706
Si Si4 0.878457 0.388607 0.580230
Si Si5 0.638955 0.116054 0.683576
Si Si6 0.962524 0.887049 0.650445
Si Si7 0.864080 0.615858 0.133710
O O1 0.030768 0.664157 0.705236
O O2 0.909541 0.810712 0.736405
O O3 0.860756 0.664666 0.862626
O O4 0.869538 0.637118 0.684647
O O5 0.139746 0.500000 0.053490
O O6 0.989176 0.378720 0.096404
O O7 0.159861 0.342584 0.949590
O O8 0.164050 0.708977 0.448173
O O9 0.269927 0.869542 0.421305
O O10 0.080665 0.852568 0.579989
O O11 0.097860 0.872934 0.413220
O O12 0.838699 0.500000 0.580612
O O13 0.000000 0.389085 0.500000
O O14 0.678021 0.155935 0.759249
O O15 0.618159 0.000000 0.701972
O O16 0.959211 0.000000 0.678199
O O17 0.835839 0.500000 0.140995
#
# Coordination Sequence:
#
# PCOD9171748 Si02
#       7
#     8   8   8   8   8   8   8
#     4  10  18  29  46  71  91 116 150 187 228 270
#     4   8  12  22  41  65  93 115 137 175 225 275
#     4  10  18  33  48  66  85 122 157 181 222 270
#     4  10  18  32  48  64  89 121 154 185 214 263
#     4  10  18  28  47  73  96 114 144 192 232 263
#     4  10  19  33  46  60  86 123 159 187 213 263
#     4   7  12  22  38  65  94 115 135 173 230 274
#
# _framework density 20.406914
#
# number of rings (size 3 to 8) (size 9 to 14) (size 15 to 20)
#    0.000    2.714    2.857    4.714    0.000    0.571 
#    0.000    0.714    0.000    3.429    0.000   11.000 
#    0.000    0.000    0.000    0.000    0.000    0.000 
#
# Total GULP energy -156126.067778 kJ/mol
# GULP energy per Si atom -5575.930992 kJ/mol
# Density = 2.036047 g / cm^3
# Si number density = 20.406914 Si / 1000 Ang^3
#
#
#
# Elastic Constant Matrix: (Units=GPa)
#
#
# Indices 1 2 3 4 5 6 
#
# 1 23.9180 2.2171 5.5944 0.0000 -4.8391 0.0000
# 2 2.2171 127.3034 19.8910 0.0000 11.3360 0.0000
# 3 5.5944 19.8910 81.9554 0.0000 27.2787 0.0000
# 4 0.0000 0.0000 0.0000 9.5734 0.0000 28.2300
# 5 -4.8391 11.3360 27.2787 0.0000 21.0527 0.0000
# 6 0.0000 0.0000 0.0000 28.2300 0.0000 -98.0715
#
#
#
# Elastic Compliance Matrix: (Units=1/GPa)
#
#
# Indices 1 2 3 4 5 6 
#
# 1 0.050803 -0.001473 -0.012768 0.000000 0.029014 0.000000
# 2 -0.001473 0.008333 -0.000555 0.000000 -0.004107 0.000000
# 3 -0.012768 -0.000555 0.024767 0.000000 -0.034727 0.000000
# 4 0.000000 0.000000 0.000000 0.056499 0.000000 0.016263
# 5 0.029014 -0.004107 -0.034727 0.000000 0.101378 0.000000
# 6 0.000000 0.000000 0.000000 0.016263 0.000000 -0.005515
#
#
# Mechanical properties :
#
#
# Convention : Reuss Voigt Hill
#
# Bulk Modulus (GPa) = 18.41263 32.06466 25.23864
# Shear Modulus (GPa) = 17.60811 0.20920 8.90865
#
# Velocity S-wave (km/s) = 2.94062 0.32053 2.09165
# Velocity P-wave (km/s) = 4.53563 3.98544 4.26941
#
# Compressibility (1/GPa) = 0.05431055
#
# Stress axis : x y z
#
# Youngs Moduli (GPa) = 19.68403 120.00004 40.37648
#
# Poissons Ratio (x) = 0.17682 0.51551
# Poissons Ratio (y) = 0.02900 0.02241
# Poissons Ratio (z) = 0.25132 0.06661
#
# Static dielectric constant tensor:
#      x y z
#    x 1.775890 0.000000 0.029300 
#    y 0.000000 1.736510 0.000000 
#    z 0.029300 0.000000 1.799590 
# 
# From -- ./inp_files/224296.got.cif
#   From: 2010.05.17/outbox.cif.g08.bks.cpg/sg12_113_cif.got.tgz:224296.got - 2010.06.03 13:09:07.
