data_PCOD9171093
_publ_section_title
;
Structure prediction by ZEFSAII (Michael W. Deem and Ramdas Pophale) SiO2 
 PCOD9171093
Probable space group: C 2/M
;
_chemical_formula_sum "Si O2"
_cell_formula_units_Z 56
_cell_length_a 16.442283
_cell_length_b 15.752715
_cell_length_c 17.580998
_cell_angle_alpha 90.000000
_cell_angle_beta 136.405501
_cell_angle_gamma 90.000000
_cell_volume 3139.979624
_symmetry_space_group_name_H-M "C 2/M"
_symmetry_group_IT_number 12
_symmetry_cell_setting 'monoclinic'
loop_
_space_group_symop_operation_xyz
x,y,z
-x,y,-z
-x,-y,-z
x,-y,z
1/2+x,1/2+y,z
1/2-x,1/2+y,-z
1/2-x,1/2-y,-z
1/2+x,1/2-y,z
loop_
_atom_site_type_symbol
_atom_site_label
_atom_site_fract_x
_atom_site_fract_y
_atom_site_fract_z
Si Si1 0.941738 0.772216 0.247290
Si Si2 0.550361 0.738388 0.164352
Si Si3 0.443054 0.403851 0.379239
Si Si4 0.325671 0.171276 0.971042
Si Si5 0.160854 0.406158 0.182489
Si Si6 0.133469 0.907392 0.121129
Si Si7 0.146204 0.403372 0.841402
O O1 0.973869 0.829861 0.340697
O O2 0.807530 0.797308 0.132001
O O3 0.934688 0.670189 0.250333
O O4 0.026291 0.790007 0.233506
O O5 0.603321 0.832283 0.192697
O O6 0.632996 0.672896 0.176339
O O7 0.420405 0.752245 0.039048
O O8 0.500000 0.390217 0.500000
O O9 0.475697 0.500000 0.375062
O O10 0.301290 0.403563 0.289983
O O11 0.357835 0.115373 0.919363
O O12 0.334924 0.122724 0.057542
O O13 0.116023 0.500000 0.169909
O O14 0.230305 0.900666 0.120654
O O15 0.153781 0.000000 0.172495
O O16 0.000000 0.909168 0.000000
O O17 0.101704 0.500000 0.806810
#
# Coordination Sequence:
#
# PCOD9171093 Si02
#       7
#     8   8   8   8   8   8   8
#     4  10  20  33  50  73  99 132 167 201 243 294
#     4  11  20  30  45  71 105 133 158 194 237 291
#     4   9  19  38  61  78  92 117 160 214 262 300
#     4  10  19  31  47  68 103 140 172 203 235 281
#     4  10  20  32  50  75 100 129 165 206 252 295
#     4  10  18  27  40  59  89 130 167 196 226 265
#     4  10  19  30  45  67  99 137 170 197 231 284
#
# _framework density 17.834510999999999
#
# number of rings (size 3 to 8) (size 9 to 14) (size 15 to 20)
#    0.000    2.000    0.000    6.857    0.000    4.571 
#    0.000    0.714    0.000    0.429    0.000    0.000 
#    0.000    0.000    0.000    0.000    0.000    0.000 
#
# Total GULP energy -156201.011339 kJ/mol
# GULP energy per Si atom -5578.607548 kJ/mol
# Density = 1.779392 g / cm^3
# Si number density = 17.834511 Si / 1000 Ang^3
#
#
#
# Elastic Constant Matrix: (Units=GPa)
#
#
# Indices 1 2 3 4 5 6 
#
# 1 78.7407 35.8225 25.0853 0.0000 -11.2879 0.0000
# 2 35.8225 142.4921 42.0087 0.0000 -22.0307 0.0000
# 3 25.0853 42.0087 57.9707 0.0000 -21.0545 0.0000
# 4 0.0000 0.0000 0.0000 16.6523 0.0000 -0.1842
# 5 -11.2879 -22.0307 -21.0545 0.0000 12.0851 0.0000
# 6 0.0000 0.0000 0.0000 -0.1842 0.0000 25.0447
#
#
#
# Elastic Compliance Matrix: (Units=1/GPa)
#
#
# Indices 1 2 3 4 5 6 
#
# 1 0.015432 -0.002173 -0.003558 0.000000 0.004254 0.000000
# 2 -0.002173 0.010138 -0.001174 0.000000 0.014405 0.000000
# 3 -0.003558 -0.001174 0.048076 0.000000 0.078293 0.000000
# 4 0.000000 0.000000 0.000000 0.060057 0.000000 0.000442
# 5 0.004254 0.014405 0.078293 0.000000 0.249381 0.000000
# 6 0.000000 0.000000 0.000000 0.000442 0.000000 0.039932
#
#
# Mechanical properties :
#
#
# Convention : Reuss Voigt Hill
#
# Bulk Modulus (GPa) = 16.71257 53.89294 35.30276
# Shear Modulus (GPa) = 10.94643 22.50890 16.72767
#
# Velocity S-wave (km/s) = 2.48014 3.55646 3.06590
# Velocity P-wave (km/s) = 4.19437 6.86647 5.68952
#
# Compressibility (1/GPa) = 0.05983520
#
# Stress axis : x y z
#
# Youngs Moduli (GPa) = 64.80120 98.64340 20.80039
#
# Poissons Ratio (x) = 0.21434 0.07401
# Poissons Ratio (y) = 0.14080 0.02442
# Poissons Ratio (z) = 0.23057 0.11581
#
# Static dielectric constant tensor:
#      x y z
#    x 1.621950 0.000000 0.006480 
#    y 0.000000 1.673310 0.000000 
#    z 0.006480 0.000000 1.585870 
# 
# From -- ./inp_files/277892.got.cif
#   From: 2010.05.17/outbox.cif.g08.bks.cpg/sg12_139_cif.got.tgz:277892.got - 2010.06.03 13:09:07.
