data_PCOD9171908
_publ_section_title
;
Structure prediction by ZEFSAII (Michael W. Deem and Ramdas Pophale) SiO2 
 PCOD9171908
Probable space group: C 2/M
;
_chemical_formula_sum "Si O2"
_cell_formula_units_Z 44
_cell_length_a 5.576609
_cell_length_b 19.033579
_cell_length_c 19.853725
_cell_angle_alpha 90.000000
_cell_angle_beta 73.686999
_cell_angle_gamma 90.000000
_cell_volume 2022.492722
_symmetry_space_group_name_H-M "C 2/M"
_symmetry_group_IT_number 12
_symmetry_cell_setting 'monoclinic'
loop_
_space_group_symop_operation_xyz
x,y,z
-x,y,-z
-x,-y,-z
x,-y,z
1/2+x,1/2+y,z
1/2-x,1/2+y,-z
1/2-x,1/2-y,-z
1/2+x,1/2-y,z
loop_
_atom_site_type_symbol
_atom_site_label
_atom_site_fract_x
_atom_site_fract_y
_atom_site_fract_z
Si Si1 0.000000 0.795098 0.000000
Si Si2 0.685222 0.500000 0.314776
Si Si3 0.688549 0.000000 0.311449
Si Si4 0.789167 0.324960 0.210833
Si Si5 0.921428 0.628246 0.578573
Si Si6 0.126956 0.844942 0.373043
Si Si7 0.344664 0.334868 0.155336
O O1 0.071630 0.839201 0.928370
O O2 0.250000 0.750000 0.000000
O O3 0.479636 0.500000 0.273026
O O4 0.637740 0.430226 0.362258
O O5 0.974309 0.500000 0.273026
O O6 0.637848 0.067935 0.362150
O O7 0.705641 0.314941 0.294360
O O8 0.562297 0.360789 0.188090
O O9 0.825930 0.248731 0.174071
O O10 0.061524 0.360789 0.188090
O O11 0.662267 0.669984 0.589880
O O12 0.000000 0.598554 0.500000
O O13 0.157975 0.669984 0.589880
#
# Coordination Sequence:
#
# PCOD9171908 Si02
#       7
#     4   4   4   8   8   8   8
#     4  12  16  30  48  74 104 120 130 172 228 260
#     4   8  16  28  41  62  88 115 146 178 222 262
#     4   8  15  26  42  60  84 108 138 181 236 287
#     4  10  18  30  44  67  94 121 149 172 215 266
#     4  10  18  29  43  63  84 113 149 191 237 274
#     4  10  19  30  45  64  90 119 148 188 222 269
#     4  10  19  30  48  72  95 118 142 174 212 271
#
# _framework density 21.755331999999999
#
# number of rings (size 3 to 8) (size 9 to 14) (size 15 to 20)
#    0.000    2.182    3.636    1.909    0.000    0.000 
#    0.000    5.455    0.000    0.000    0.000   50.909 
#    0.000    8.000    0.000    0.000    0.000    0.000 
#
# Total GULP energy -122650.650156 kJ/mol
# GULP energy per Si atom -5575.029553 kJ/mol
# Density = 2.170582 g / cm^3
# Si number density = 21.755332 Si / 1000 Ang^3
#
#
#
# Elastic Constant Matrix: (Units=GPa)
#
#
# Indices 1 2 3 4 5 6 
#
# 1 292.9281 -6.8293 31.0006 0.0000 -0.8584 0.0000
# 2 -6.8293 69.3230 -2.7187 0.0000 0.0171 0.0000
# 3 31.0006 -2.7187 97.6980 0.0000 0.0427 0.0000
# 4 0.0000 0.0000 0.0000 9.7601 0.0000 0.1052
# 5 -0.8584 0.0171 0.0427 0.0000 28.2592 0.0000
# 6 0.0000 0.0000 0.0000 0.1052 0.0000 -15.4992
#
#
#
# Elastic Compliance Matrix: (Units=1/GPa)
#
#
# Indices 1 2 3 4 5 6 
#
# 1 0.003539 0.000305 -0.001115 0.000000 0.000109 0.000000
# 2 0.000305 0.014467 0.000306 0.000000 0.000000 0.000000
# 3 -0.001115 0.000306 0.010598 0.000000 -0.000050 0.000000
# 4 0.000000 0.000000 0.000000 0.102450 0.000000 0.000695
# 5 0.000109 0.000000 -0.000050 0.000000 0.035390 0.000000
# 6 0.000000 0.000000 0.000000 0.000695 0.000000 -0.064515
#
#
# Mechanical properties :
#
#
# Convention : Reuss Voigt Hill
#
# Bulk Modulus (GPa) = 36.23635 55.87272 46.05454
# Shear Modulus (GPa) = 44.58857 33.73713 39.16285
#
# Velocity S-wave (km/s) = 4.53210 3.94223 4.24742
# Velocity P-wave (km/s) = 6.63921 6.81613 6.72825
#
# Compressibility (1/GPa) = 0.02759660
#
# Stress axis : x y z
#
# Youngs Moduli (GPa) = 282.55041 69.12163 94.35902
#
# Poissons Ratio (x) = -0.02108 0.10517
# Poissons Ratio (y) = -0.08616 -0.02886
# Poissons Ratio (z) = 0.31493 -0.02114
#
# Static dielectric constant tensor:
#      x y z
#    x 1.929590 0.000000 -0.000850 
#    y 0.000000 1.737220 0.000000 
#    z -0.000850 0.000000 1.727070 
# 
# From -- ./inp_files/191954.got.cif
#   From: 2010.05.17/outbox.cif.g08.bks.cpg/sg12_96_cif.got.tgz:191954.got - 2010.06.03 13:09:07.
