data_PCOD9171035
_publ_section_title
;
Structure prediction by ZEFSAII (Michael W. Deem and Ramdas Pophale) SiO2 
 PCOD9171035
Probable space group: C 2/M
;
_chemical_formula_sum "Si O2"
_cell_formula_units_Z 48
_cell_length_a 13.720555
_cell_length_b 14.116181
_cell_length_c 17.191699
_cell_angle_alpha 90.000000
_cell_angle_beta 43.286162
_cell_angle_gamma 90.000000
_cell_volume 2282.997654
_symmetry_space_group_name_H-M "C 2/M"
_symmetry_group_IT_number 12
_symmetry_cell_setting 'monoclinic'
loop_
_space_group_symop_operation_xyz
x,y,z
-x,y,-z
-x,-y,-z
x,-y,z
1/2+x,1/2+y,z
1/2-x,1/2+y,-z
1/2-x,1/2-y,-z
1/2+x,1/2-y,z
loop_
_atom_site_type_symbol
_atom_site_label
_atom_site_fract_x
_atom_site_fract_y
_atom_site_fract_z
Si Si1 0.996562 0.609581 0.606632
Si Si2 0.209113 0.615638 0.047860
Si Si3 0.256050 0.721265 0.406192
Si Si4 0.402658 0.108651 0.270136
Si Si5 0.701581 0.615016 0.832300
Si Si6 0.506210 0.614130 0.181766
O O1 0.988394 0.500000 0.589910
O O2 0.113920 0.659614 0.486059
O O3 0.046080 0.609298 0.669183
O O4 0.837464 0.649388 0.704342
O O5 0.207629 0.500000 0.048877
O O6 0.042699 0.641323 0.140653
O O7 0.271584 0.646124 0.095381
O O8 0.328533 0.644431 0.915959
O O9 0.250000 0.750000 0.500000
O O10 0.275719 0.815955 0.343279
O O11 0.399056 0.661904 0.304650
O O12 0.366542 0.000000 0.270938
O O13 0.706837 0.500000 0.832354
O O14 0.562761 0.636563 0.862951
O O15 0.500488 0.500000 0.194643
#
# Coordination Sequence:
#
# PCOD9171035 Si02
#       6
#     8   8   8   8   8   8
#     4   8  14  26  42  60  84 110 133 161 202 249
#     4   8  14  26  43  63  87 110 131 161 204 252
#     4  10  19  28  38  55  81 114 148 175 197 228
#     4   8  15  28  43  56  76 110 144 172 203 236
#     4   8  14  25  42  64  90 114 129 151 199 260
#     4  10  18  26  41  66  90 110 133 163 202 249
#
# _framework density 21.024986999999999
#
# number of rings (size 3 to 8) (size 9 to 14) (size 15 to 20)
#    0.000    3.333    0.000    3.000    0.000    4.000 
#    0.000    2.500    0.000    0.000    0.000    2.333 
#    0.000    5.333    0.000    0.000    0.000    4.667 
#
# Total GULP energy -133686.331448 kJ/mol
# GULP energy per Si atom -5570.263810 kJ/mol
# Density = 2.097713 g / cm^3
# Si number density = 21.024987 Si / 1000 Ang^3
#
#
#
# Elastic Constant Matrix: (Units=GPa)
#
#
# Indices 1 2 3 4 5 6 
#
# 1 12.5886 6.8722 8.4553 0.0000 -4.6770 0.0000
# 2 6.8722 85.5705 52.7071 0.0000 -21.0956 0.0000
# 3 8.4553 52.7071 172.0749 0.0000 -35.5546 0.0000
# 4 0.0000 0.0000 0.0000 26.3795 0.0000 6.2736
# 5 -4.6770 -21.0956 -35.5546 0.0000 27.7116 0.0000
# 6 0.0000 0.0000 0.0000 6.2736 0.0000 2.7798
#
#
#
# Elastic Compliance Matrix: (Units=1/GPa)
#
#
# Indices 1 2 3 4 5 6 
#
# 1 0.085996 -0.003763 -0.000906 0.000000 0.010487 0.000000
# 2 -0.003763 0.015714 -0.003113 0.000000 0.007333 0.000000
# 3 -0.000906 -0.003113 0.008557 0.000000 0.008455 0.000000
# 4 0.000000 0.000000 0.000000 0.081829 0.000000 -0.184678
# 5 0.010487 0.007333 0.008455 0.000000 0.054287 0.000000
# 6 0.000000 0.000000 0.000000 -0.184678 0.000000 0.776540
#
#
# Mechanical properties :
#
#
# Convention : Reuss Voigt Hill
#
# Bulk Modulus (GPa) = 10.55945 45.14481 27.85213
# Shear Modulus (GPa) = 4.67266 24.85411 14.76338
#
# Velocity S-wave (km/s) = 1.49240 3.44193 2.65275
# Velocity P-wave (km/s) = 2.82894 6.10855 4.76011
#
# Compressibility (1/GPa) = 0.09470189
#
# Stress axis : x y z
#
# Youngs Moduli (GPa) = 11.62843 63.63837 116.86864
#
# Poissons Ratio (x) = 0.23947 0.10591
# Poissons Ratio (y) = 0.04376 0.36383
# Poissons Ratio (z) = 0.01054 0.19812
#
# Static dielectric constant tensor:
#      x y z
#    x 1.776400 0.000000 0.007710 
#    y 0.000000 1.816630 0.000000 
#    z 0.007710 0.000000 1.807680 
# 
# From -- ./inp_files/143019.got.cif
#   From: 2010.05.17/outbox.cif.g08.bks.cpg/sg12_72_cif.got.tgz:143019.got - 2010.06.03 13:09:07.
