data_PCOD9171894
_publ_section_title
;
Structure prediction by ZEFSAII (Michael W. Deem and Ramdas Pophale) SiO2 
 PCOD9171894
Probable space group: C 2/M
;
_chemical_formula_sum "Si O2"
_cell_formula_units_Z 56
_cell_length_a 27.899480
_cell_length_b 29.467976
_cell_length_c 5.505873
_cell_angle_alpha 90.000000
_cell_angle_beta 54.737188
_cell_angle_gamma 90.000000
_cell_volume 3696.029528
_symmetry_space_group_name_H-M "C 2/M"
_symmetry_group_IT_number 12
_symmetry_cell_setting 'monoclinic'
loop_
_space_group_symop_operation_xyz
x,y,z
-x,y,-z
-x,-y,-z
x,-y,z
1/2+x,1/2+y,z
1/2-x,1/2+y,-z
1/2-x,1/2-y,-z
1/2+x,1/2-y,z
loop_
_atom_site_type_symbol
_atom_site_label
_atom_site_fract_x
_atom_site_fract_y
_atom_site_fract_z
Si Si1 0.427225 0.603642 0.511421
Si Si2 0.575163 0.551191 0.980928
Si Si3 0.352734 0.685461 0.215005
Si Si4 0.796051 0.790433 0.880582
Si Si5 0.702665 0.415883 0.615889
Si Si6 0.489415 0.692302 0.779011
Si Si7 0.716588 0.392472 0.075457
O O1 0.439700 0.573373 0.236395
O O2 0.465079 0.649660 0.369042
O O3 0.440189 0.579452 0.731106
O O4 0.356073 0.610457 0.715068
O O5 0.553054 0.500000 0.063642
O O6 0.646260 0.552009 0.777742
O O7 0.335899 0.709032 0.519373
O O8 0.322339 0.636128 0.310093
O O9 0.330894 0.710651 0.035014
O O10 0.421906 0.677302 0.988424
O O11 0.750000 0.750000 0.000000
O O12 0.764777 0.839976 0.974643
O O13 0.734657 0.418189 0.778563
O O14 0.734624 0.418320 0.266160
O O15 0.500000 0.718753 0.500000
O O16 0.500000 0.717210 0.000000
#
# Coordination Sequence:
#
# PCOD9171894 Si02
#       7
#     8   8   8   8   8   8   8
#     4  10  19  30  43  57  73  97 126 158 191 228
#     4  10  18  29  43  56  72  94 123 160 200 233
#     4  10  19  30  43  59  74  94 120 144 179 228
#     4  10  18  29  43  60  78  92 108 139 181 228
#     4   8  14  25  38  49  66  88 113 142 173 216
#     4  12  20  30  48  61  72  95 126 157 183 217
#     4   8  14  25  38  54  71  90 115 140 174 222
#
# _framework density 15.151393000000001
#
# number of rings (size 3 to 8) (size 9 to 14) (size 15 to 20)
#    0.000    2.286    0.000    7.714    0.000    0.000 
#    0.000    0.000    0.000   22.286    0.000    0.000 
#    0.000    0.000    0.000    0.000    0.000    0.000 
#
# Total GULP energy -156057.508943 kJ/mol
# GULP energy per Si atom -5573.482462 kJ/mol
# Density = 1.511691 g / cm^3
# Si number density = 15.151393 Si / 1000 Ang^3
#
#
#
# Elastic Constant Matrix: (Units=GPa)
#
#
# Indices 1 2 3 4 5 6 
#
# 1 59.9517 10.4498 43.7457 0.0000 35.2735 0.0000
# 2 10.4498 26.4706 21.0012 0.0000 -1.6669 0.0000
# 3 43.7457 21.0012 79.3598 0.0000 40.7502 0.0000
# 4 0.0000 0.0000 0.0000 11.2918 0.0000 -0.4709
# 5 35.2735 -1.6669 40.7502 0.0000 40.4321 0.0000
# 6 0.0000 0.0000 0.0000 -0.4709 0.0000 14.3544
#
#
#
# Elastic Compliance Matrix: (Units=1/GPa)
#
#
# Indices 1 2 3 4 5 6 
#
# 1 0.042387 -0.023046 0.004580 0.000000 -0.042545 0.000000
# 2 -0.023046 0.089653 -0.048175 0.000000 0.072356 0.000000
# 3 0.004580 -0.048175 0.053675 0.000000 -0.060078 0.000000
# 4 0.000000 0.000000 0.000000 0.088681 0.000000 0.002909
# 5 -0.042545 0.072356 -0.060078 0.000000 0.125384 0.000000
# 6 0.000000 0.000000 0.000000 0.002909 0.000000 0.069761
#
#
# Mechanical properties :
#
#
# Convention : Reuss Voigt Hill
#
# Bulk Modulus (GPa) = 19.07228 35.13062 27.10145
# Shear Modulus (GPa) = 8.06060 19.25469 13.65765
#
# Velocity S-wave (km/s) = 2.30902 3.56872 3.00561
# Velocity P-wave (km/s) = 4.44116 6.34175 5.47456
#
# Compressibility (1/GPa) = 0.05243212
#
# Stress axis : x y z
#
# Youngs Moduli (GPa) = 23.59196 11.15408 18.63079
#
# Poissons Ratio (x) = 0.25706 -0.08532
# Poissons Ratio (y) = 0.54370 0.89755
# Poissons Ratio (z) = -0.10805 0.53735
#
# Static dielectric constant tensor:
#      x y z
#    x 1.583710 0.000000 0.076540 
#    y 0.000000 1.491970 0.000000 
#    z 0.076540 0.000000 1.574760 
# 
# From -- ./inp_files/32611.got.cif
#   From: 2010.05.17/outbox.cif.g08.bks.cpg/sg12_17_cif.got.tgz:32611.got - 2010.06.03 13:09:07.
