data_PCOD9171944
_publ_section_title
;
Structure prediction by ZEFSAII (Michael W. Deem and Ramdas Pophale) SiO2 
 PCOD9171944
Probable space group: C 2/M
;
_chemical_formula_sum "Si O2"
_cell_formula_units_Z 64
_cell_length_a 24.487559
_cell_length_b 8.891689
_cell_length_c 22.195930
_cell_angle_alpha 90.000000
_cell_angle_beta 51.420842
_cell_angle_gamma 90.000000
_cell_volume 3778.065923
_symmetry_space_group_name_H-M "C 2/M"
_symmetry_group_IT_number 12
_symmetry_cell_setting 'monoclinic'
loop_
_space_group_symop_operation_xyz
x,y,z
-x,y,-z
-x,-y,-z
x,-y,z
1/2+x,1/2+y,z
1/2-x,1/2+y,-z
1/2-x,1/2-y,-z
1/2+x,1/2-y,z
loop_
_atom_site_type_symbol
_atom_site_label
_atom_site_fract_x
_atom_site_fract_y
_atom_site_fract_z
Si Si1 0.426595 0.316402 0.768082
Si Si2 0.073721 0.182922 0.713826
Si Si3 0.774610 0.182447 0.920442
Si Si4 0.618327 0.325868 0.328301
Si Si5 0.168540 0.679394 0.410707
Si Si6 0.675320 0.680339 0.533894
Si Si7 0.278149 0.826538 0.168585
Si Si8 0.823036 0.819627 0.255481
O O1 0.426307 0.500000 0.766417
O O2 0.494938 0.265357 0.756602
O O3 0.354045 0.271774 0.849331
O O4 0.426684 0.269502 0.697591
O O5 0.120612 0.221324 0.623679
O O6 0.113991 0.235877 0.745810
O O7 0.071954 0.000000 0.718066
O O8 0.726534 0.230321 0.896667
O O9 0.772961 0.000000 0.923476
O O10 0.750000 0.250000 0.000000
O O11 0.600724 0.500000 0.353342
O O12 0.620621 0.233023 0.388157
O O13 0.697681 0.323538 0.247461
O O14 0.165712 0.500000 0.419081
O O15 0.152471 0.758332 0.484714
O O16 0.248723 0.721662 0.337519
O O17 0.681250 0.500000 0.528102
O O18 0.750000 0.750000 0.500000
O O19 0.321978 0.739213 0.188205
O O20 0.300311 0.000000 0.152656
O O21 0.824764 0.000000 0.253035
#
# Coordination Sequence:
#
# PCOD9171944 Si02
#       8
#     8   8   8   8   8   8   8   8
#     4   8  15  30  51  71  94 122 156 193 230 276
#     4   9  17  30  47  68  93 122 157 199 237 273
#     4   9  17  30  51  77  99 120 148 185 229 275
#     4   8  14  27  47  68  86 115 156 195 234 274
#     4  10  18  29  44  66  93 121 155 199 243 278
#     4  11  20  31  46  66  93 123 159 201 242 280
#     4   8  15  27  43  67  95 118 147 186 226 269
#     4   9  16  27  44  67  91 117 155 196 233 267
#
# _framework density 16.939883999999999
#
# number of rings (size 3 to 8) (size 9 to 14) (size 15 to 20)
#    0.000    3.000    1.250    2.250    0.000    1.000 
#    0.000    2.500    0.000    9.000    0.000    5.250 
#    0.000    0.000    0.000    0.000    0.000    0.000 
#
# Total GULP energy -178219.643873 kJ/mol
# GULP energy per Si atom -5569.363871 kJ/mol
# Density = 1.690133 g / cm^3
# Si number density = 16.939884 Si / 1000 Ang^3
#
#
#
# Elastic Constant Matrix: (Units=GPa)
#
#
# Indices 1 2 3 4 5 6 
#
# 1 142.4857 24.8812 62.3541 0.0000 28.3267 0.0001
# 2 24.8812 17.8221 22.3854 -0.0003 9.2236 0.0008
# 3 62.3541 22.3854 82.3657 0.0000 29.6023 0.0001
# 4 0.0000 -0.0003 0.0000 22.8451 0.0002 9.6649
# 5 28.3267 9.2236 29.6023 0.0002 29.7794 -0.0003
# 6 0.0001 0.0008 0.0001 9.6649 -0.0003 20.8075
#
#
#
# Elastic Compliance Matrix: (Units=1/GPa)
#
#
# Indices 1 2 3 4 5 6 
#
# 1 0.011294 -0.007329 -0.005466 0.000000 -0.003040 0.000000
# 2 -0.007329 0.090478 -0.017854 0.000003 -0.003304 -0.000005
# 3 -0.005466 -0.017854 0.026877 0.000000 -0.015989 0.000001
# 4 0.000000 0.000003 0.000000 0.054479 -0.000001 -0.025305
# 5 -0.003040 -0.003304 -0.015989 -0.000001 0.053389 0.000001
# 6 0.000000 -0.000005 0.000001 -0.025305 0.000001 0.059814
#
#
# Mechanical properties :
#
#
# Convention : Reuss Voigt Hill
#
# Bulk Modulus (GPa) = 14.84750 51.32387 33.08568
# Shear Modulus (GPa) = 13.15514 23.55659 18.35586
#
# Velocity S-wave (km/s) = 2.78974 3.73312 3.29536
# Velocity P-wave (km/s) = 4.37729 6.99607 5.83548
#
# Compressibility (1/GPa) = 0.06735143
#
# Stress axis : x y z
#
# Youngs Moduli (GPa) = 88.53961 11.05245 37.20595
#
# Poissons Ratio (x) = 0.08101 0.20336
# Poissons Ratio (y) = 0.64894 0.66427
# Poissons Ratio (z) = 0.48393 0.19733
#
# Static dielectric constant tensor:
#      x y z
#    x 1.600320 0.000000 0.009990 
#    y 0.000000 1.574100 0.000000 
#    z 0.009990 0.000000 1.555710 
# 
# From -- ./inp_files/326865.got.cif
#   From: 2010.05.17/outbox.cif.g08.bks.cpg/sg12_164_cif.got.tgz:326865.got - 2010.06.03 13:09:07.
