data_PCOD9171341
_publ_section_title
;
Structure prediction by ZEFSAII (Michael W. Deem and Ramdas Pophale) SiO2 
 PCOD9171341
Probable space group: C 2/M
;
_chemical_formula_sum "Si O2"
_cell_formula_units_Z 58
_cell_length_a 22.360914
_cell_length_b 13.350404
_cell_length_c 8.369853
_cell_angle_alpha 90.000000
_cell_angle_beta 108.741466
_cell_angle_gamma 90.000000
_cell_volume 2366.146759
_symmetry_space_group_name_H-M "C 2/M"
_symmetry_group_IT_number 12
_symmetry_cell_setting 'monoclinic'
loop_
_space_group_symop_operation_xyz
x,y,z
-x,y,-z
-x,-y,-z
x,-y,z
1/2+x,1/2+y,z
1/2-x,1/2+y,-z
1/2-x,1/2-y,-z
1/2+x,1/2-y,z
loop_
_atom_site_type_symbol
_atom_site_label
_atom_site_fract_x
_atom_site_fract_y
_atom_site_fract_z
Si Si1 0.179854 0.887733 0.728436
Si Si2 0.425846 0.115013 0.290448
Si Si3 0.881026 0.726589 0.512965
Si Si4 0.028633 0.200416 0.871147
Si Si5 0.747364 0.110694 0.550142
Si Si6 0.195616 0.617078 0.025895
Si Si7 0.859974 0.208836 0.825639
Si Si8 0.500000 0.500000 0.000000
O O1 0.125461 0.812274 0.627962
O O2 0.221217 0.891342 0.598603
O O3 0.229964 0.853771 0.907435
O O4 0.157367 0.000000 0.743470
O O5 0.421642 0.137540 0.474991
O O6 0.444986 0.000000 0.271217
O O7 0.462772 0.209718 0.246835
O O8 0.352179 0.124673 0.164160
O O9 0.810460 0.685859 0.485532
O O10 0.900106 0.773552 0.697565
O O11 0.099517 0.168284 0.992954
O O12 0.997183 0.090148 0.857913
O O13 0.000000 0.257580 0.000000
O O14 0.801955 0.140594 0.721404
O O15 0.723827 0.000000 0.567110
O O16 0.196691 0.500000 0.070173
O O17 0.163866 0.684292 0.133826
#
# Coordination Sequence:
#
# PCOD9171341 Si02
#       8
#     8   8   8   8   8   8   8   2
#     4   9  16  29  44  68 105 154 195 227 258 311
#     4  10  22  36  55  84 118 149 181 234 287 338
#     4  11  19  32  49  81 119 153 184 226 274 331
#     4   9  21  42  66  85 107 139 185 243 291 348
#     4  10  18  27  48  77 116 155 192 231 264 320
#     4   9  16  30  49  69 104 148 193 224 267 317
#     4  10  18  33  56  83 107 149 200 229 271 333
#     4   8  20  44  74  86 104 136 184 244 292 332
#
# _framework density 24.512428
#
# number of rings (size 3 to 8) (size 9 to 14) (size 15 to 20)
#    0.414    1.931    2.759    1.241    0.966    1.379 
#    1.241    0.690    0.000    1.655    0.000    0.000 
#    0.000    0.000    0.000    0.000    0.000    0.000 
#
# Total GULP energy -161441.022916 kJ/mol
# GULP energy per Si atom -5566.931825 kJ/mol
# Density = 2.445664 g / cm^3
# Si number density = 24.512428 Si / 1000 Ang^3
#
#
#
# Elastic Constant Matrix: (Units=GPa)
#
#
# Indices 1 2 3 4 5 6 
#
# 1 34.3137 15.2771 13.6791 0.0000 -7.2840 0.0000
# 2 15.2771 153.8506 35.4663 0.0000 -4.0005 0.0000
# 3 13.6791 35.4663 74.0613 0.0000 12.9477 0.0000
# 4 0.0000 0.0000 0.0000 30.2861 0.0000 -5.3763
# 5 -7.2840 -4.0005 12.9477 0.0000 37.7781 0.0000
# 6 0.0000 0.0000 0.0000 -5.3763 0.0000 12.6236
#
#
#
# Elastic Compliance Matrix: (Units=1/GPa)
#
#
# Indices 1 2 3 4 5 6 
#
# 1 0.034617 -0.001537 -0.007229 0.000000 0.008989 0.000000
# 2 -0.001537 0.007534 -0.003629 0.000000 0.001745 0.000000
# 3 -0.007229 -0.003629 0.017963 0.000000 -0.007935 0.000000
# 4 0.000000 0.000000 0.000000 0.035719 0.000000 0.015212
# 5 0.008989 0.001745 -0.007935 0.000000 0.031108 0.000000
# 6 0.000000 0.000000 0.000000 0.015212 0.000000 0.085695
#
#
# Mechanical properties :
#
#
# Convention : Reuss Voigt Hill
#
# Bulk Modulus (GPa) = 28.31010 43.45230 35.88120
# Shear Modulus (GPa) = 20.06398 29.32443 24.69421
#
# Velocity S-wave (km/s) = 2.86409 3.46252 3.17742
# Velocity P-wave (km/s) = 4.74465 5.80952 5.30388
#
# Compressibility (1/GPa) = 0.03532308
#
# Stress axis : x y z
#
# Youngs Moduli (GPa) = 28.88718 132.72323 55.67087
#
# Poissons Ratio (x) = 0.20402 0.40246
# Poissons Ratio (y) = 0.04440 0.20205
# Poissons Ratio (z) = 0.20883 0.48169
#
# Static dielectric constant tensor:
#      x y z
#    x 2.075780 0.000000 0.060940 
#    y 0.000000 1.904730 0.000000 
#    z 0.060940 0.000000 2.043390 
# 
# From -- ./inp_files/96392.got.cif
#   From: 2010.05.17/outbox.cif.g08.bks.cpg/sg12_49_cif.got.tgz:96392.got - 2010.06.03 13:09:07.
