data_PCOD9171994
_publ_section_title
;
Structure prediction by ZEFSAII (Michael W. Deem and Ramdas Pophale) SiO2 
 PCOD9171994
Probable space group: C 2/M
;
_chemical_formula_sum "Si O2"
_cell_formula_units_Z 48
_cell_length_a 14.689113
_cell_length_b 28.247350
_cell_length_c 5.549724
_cell_angle_alpha 90.000000
_cell_angle_beta 113.495429
_cell_angle_gamma 90.000000
_cell_volume 2111.823011
_symmetry_space_group_name_H-M "C 2/M"
_symmetry_group_IT_number 12
_symmetry_cell_setting 'monoclinic'
loop_
_space_group_symop_operation_xyz
x,y,z
-x,y,-z
-x,-y,-z
x,-y,z
1/2+x,1/2+y,z
1/2-x,1/2+y,-z
1/2-x,1/2-y,-z
1/2+x,1/2-y,z
loop_
_atom_site_type_symbol
_atom_site_label
_atom_site_fract_x
_atom_site_fract_y
_atom_site_fract_z
Si Si1 0.667732 0.173589 0.197881
Si Si2 0.397324 0.676578 0.456924
Si Si3 0.289145 0.557269 0.804354
Si Si4 0.150575 0.784226 0.092161
Si Si5 0.383197 0.446533 0.403681
Si Si6 0.160202 0.644495 0.690290
O O1 0.784022 0.156341 0.336821
O O2 0.674621 0.230052 0.175194
O O3 0.614189 0.161133 0.390864
O O4 0.616983 0.151378 0.909956
O O5 0.500000 0.648818 0.500000
O O6 0.408676 0.697435 0.736389
O O7 0.392432 0.712425 0.223620
O O8 0.275461 0.500000 0.791868
O O9 0.355063 0.571008 0.640548
O O10 0.192702 0.590139 0.690441
O O11 0.341531 0.573101 0.108474
O O12 0.245474 0.819134 0.191888
O O13 0.500000 0.450105 0.500000
O O14 0.341381 0.500000 0.362317
#
# Coordination Sequence:
#
# PCOD9171994 Si02
#       6
#     8   8   8   8   8   8
#     4  10  19  33  50  64  85 117 157 183 209 264
#     4  10  18  29  45  67  93 115 143 185 229 257
#     4  10  19  30  42  59  83 106 135 181 229 262
#     4  10  19  33  48  64  87 119 155 181 211 264
#     4   9  17  30  44  55  73 108 149 182 217 262
#     4  10  18  30  46  64  80 108 151 185 213 260
#
# _framework density 22.729178000000001
#
# number of rings (size 3 to 8) (size 9 to 14) (size 15 to 20)
#    0.000    2.167    0.000    7.000    0.000    2.000 
#    0.000   20.000    0.000    0.000    0.000    0.000 
#    0.000    0.000    0.000    0.000    0.000  162.500 
#
# Total GULP energy -133689.794135 kJ/mol
# GULP energy per Si atom -5570.408089 kJ/mol
# Density = 2.267745 g / cm^3
# Si number density = 22.729178 Si / 1000 Ang^3
#
#
#
# Elastic Constant Matrix: (Units=GPa)
#
#
# Indices 1 2 3 4 5 6 
#
# 1 35.2689 -1.8397 19.1539 0.0000 6.4557 0.0000
# 2 -1.8397 92.9654 32.2956 0.0000 1.1800 0.0000
# 3 19.1539 32.2956 212.4599 0.0000 -42.7017 0.0000
# 4 0.0000 0.0000 0.0000 -4.1898 0.0000 86.9277
# 5 6.4557 1.1800 -42.7017 0.0000 24.4033 0.0000
# 6 0.0000 0.0000 0.0000 86.9277 0.0000 -249.5494
#
#
#
# Elastic Compliance Matrix: (Units=1/GPa)
#
#
# Indices 1 2 3 4 5 6 
#
# 1 0.038906 0.004497 -0.009723 0.000000 -0.027523 0.000000
# 2 0.004497 0.012377 -0.004082 0.000000 -0.008930 0.000000
# 3 -0.009723 -0.004082 0.010428 0.000000 0.021016 0.000000
# 4 0.000000 0.000000 0.000000 0.038328 0.000000 0.013351
# 5 -0.027523 -0.008930 0.021016 0.000000 0.085466 0.000000
# 6 0.000000 0.000000 0.000000 0.013351 0.000000 0.000644
#
#
# Mechanical properties :
#
#
# Convention : Reuss Voigt Hill
#
# Bulk Modulus (GPa) = 23.20411 48.87933 36.04172
# Shear Modulus (GPa) = 22.81758 -26.46154 -1.82198
#
# Velocity S-wave (km/s) = 3.17186 -3.41575 -0.89630
# Velocity P-wave (km/s) = 4.86265 2.44853 3.84972
#
# Compressibility (1/GPa) = 0.04309582
#
# Stress axis : x y z
#
# Youngs Moduli (GPa) = 25.70270 80.79509 95.89767
#
# Poissons Ratio (x) = -0.36333 0.93241
# Poissons Ratio (y) = -0.11558 0.39143
# Poissons Ratio (z) = 0.24991 0.32978
#
# Static dielectric constant tensor:
#      x y z
#    x 1.878240 0.000000 -0.028500 
#    y 0.000000 1.886820 0.000000 
#    z -0.028500 0.000000 1.923690 
# 
# From -- ./inp_files/17176.got.cif
#   From: 2010.05.17/outbox.cif.g08.bks.cpg/sg12_9_cif.got.tgz:17176.got - 2010.06.03 13:09:07.
