data_PCOD9171486
_publ_section_title
;
Structure prediction by ZEFSAII (Michael W. Deem and Ramdas Pophale) SiO2 
 PCOD9171486
Probable space group: C 2/M
;
_chemical_formula_sum "Si O2"
_cell_formula_units_Z 60
_cell_length_a 34.496411
_cell_length_b 7.304654
_cell_length_c 13.851633
_cell_angle_alpha 90.000000
_cell_angle_beta 49.322497
_cell_angle_gamma 90.000000
_cell_volume 2647.081554
_symmetry_space_group_name_H-M "C 2/M"
_symmetry_group_IT_number 12
_symmetry_cell_setting 'monoclinic'
loop_
_space_group_symop_operation_xyz
x,y,z
-x,y,-z
-x,-y,-z
x,-y,z
1/2+x,1/2+y,z
1/2-x,1/2+y,-z
1/2-x,1/2-y,-z
1/2+x,1/2-y,z
loop_
_atom_site_type_symbol
_atom_site_label
_atom_site_fract_x
_atom_site_fract_y
_atom_site_fract_z
Si Si1 0.859323 0.222451 0.245224
Si Si2 0.098043 0.776661 0.217240
Si Si3 0.967959 0.223029 0.144166
Si Si4 0.832486 0.779480 0.074315
Si Si5 0.750000 0.750000 0.500000
Si Si6 0.224534 0.213680 0.325627
Si Si7 0.880724 0.776659 0.600635
Si Si8 0.513026 0.723134 0.670877
O O1 0.910100 0.278469 0.217877
O O2 0.857102 0.279429 0.136719
O O3 0.809945 0.287090 0.381681
O O4 0.857597 0.000000 0.249973
O O5 0.117628 0.720421 0.290415
O O6 0.039279 0.719635 0.295881
O O7 0.098012 0.000000 0.215997
O O8 0.134706 0.716570 0.070349
O O9 0.987844 0.280765 0.215993
O O10 0.969533 0.000000 0.142396
O O11 0.000000 0.283444 0.000000
O O12 0.772754 0.725679 0.175036
O O13 0.833852 0.000000 0.071274
O O14 0.757604 0.700525 0.603304
O O15 0.171467 0.280927 0.367414
O O16 0.217332 0.000000 0.365535
O O17 0.933596 0.719315 0.464042
O O18 0.880033 0.000000 0.599573
O O19 0.513338 0.500000 0.668018
#
# Coordination Sequence:
#
# PCOD9171486 Si02
#       8
#     8   8   8   8   4   8   8   8
#     4   9  16  26  39  58  86 117 149 185 226 271
#     4   9  16  27  43  64  93 127 160 196 240 286
#     4   9  15  22  35  56  84 117 149 184 229 280
#     4   9  18  31  47  68  96 130 164 197 234 279
#     4  10  18  28  44  62  88 120 152 186 226 270
#     4  10  20  33  49  71  98 127 160 196 237 285
#     4   9  17  28  43  65  94 126 158 196 242 288
#     4   9  15  23  38  62  92 124 156 191 238 291
#
# _framework density 22.666471000000001
#
# number of rings (size 3 to 8) (size 9 to 14) (size 15 to 20)
#    0.000    2.800    0.000    2.400    0.000    8.000 
#    0.000    0.000    0.000    0.000    0.000    0.933 
#    0.000   66.667    0.000    0.000    0.000    0.000 
#
# Total GULP energy -167131.877276 kJ/mol
# GULP energy per Si atom -5571.062576 kJ/mol
# Density = 2.261488 g / cm^3
# Si number density = 22.666471 Si / 1000 Ang^3
#
#
#
# Elastic Constant Matrix: (Units=GPa)
#
#
# Indices 1 2 3 4 5 6 
#
# 1 141.1126 -2.2453 32.4332 0.0000 -24.3707 0.0000
# 2 -2.2453 91.1968 -6.6606 0.0000 -0.5517 -0.0001
# 3 32.4332 -6.6606 73.4457 0.0000 -8.4060 0.0000
# 4 0.0000 0.0000 0.0000 -0.8336 0.0000 -19.8048
# 5 -24.3707 -0.5517 -8.4060 0.0000 31.7796 0.0000
# 6 0.0000 -0.0001 0.0000 -19.8048 0.0000 -8.6733
#
#
#
# Elastic Compliance Matrix: (Units=1/GPa)
#
#
# Indices 1 2 3 4 5 6 
#
# 1 0.008854 0.000018 -0.003229 0.000000 0.005936 0.000000
# 2 0.000018 0.011045 0.001049 0.000000 0.000483 0.000000
# 3 -0.003229 0.001049 0.015319 0.000000 0.001594 0.000000
# 4 0.000000 0.000000 0.000000 0.022528 0.000000 -0.051441
# 5 0.005936 0.000483 0.001594 0.000000 0.036449 0.000000
# 6 0.000000 0.000000 0.000000 -0.051441 0.000000 0.002165
#
#
# Mechanical properties :
#
#
# Convention : Reuss Voigt Hill
#
# Bulk Modulus (GPa) = 32.36807 39.20109 35.78458
# Shear Modulus (GPa) = 45.05207 23.26972 34.16090
#
# Velocity S-wave (km/s) = 4.46310 3.20756 3.88636
# Velocity P-wave (km/s) = 6.39298 5.57227 5.99668
#
# Compressibility (1/GPa) = 0.03089465
#
# Stress axis : x y z
#
# Youngs Moduli (GPa) = 112.94126 90.53647 65.27872
#
# Poissons Ratio (x) = -0.00164 0.21078
# Poissons Ratio (y) = -0.00204 -0.06848
# Poissons Ratio (z) = 0.36468 -0.09497
#
# Static dielectric constant tensor:
#      x y z
#    x 1.778760 0.000000 -0.004220 
#    y 0.000000 1.965960 0.000000 
#    z -0.004220 0.000000 1.815180 
# 
# From -- ./inp_files/188722.got.cif
#   From: 2010.05.17/outbox.cif.g08.bks.cpg/sg12_95_cif.got.tgz:188722.got - 2010.06.03 13:09:07.
