data_PCOD9171659
_publ_section_title
;
Structure prediction by ZEFSAII (Michael W. Deem and Ramdas Pophale) SiO2 
 PCOD9171659
Probable space group: C 2/M
;
_chemical_formula_sum "Si O2"
_cell_formula_units_Z 64
_cell_length_a 31.545855
_cell_length_b 7.722153
_cell_length_c 15.477585
_cell_angle_alpha 90.000000
_cell_angle_beta 77.965910
_cell_angle_gamma 90.000000
_cell_volume 3687.510725
_symmetry_space_group_name_H-M "C 2/M"
_symmetry_group_IT_number 12
_symmetry_cell_setting 'monoclinic'
loop_
_space_group_symop_operation_xyz
x,y,z
-x,y,-z
-x,-y,-z
x,-y,z
1/2+x,1/2+y,z
1/2-x,1/2+y,-z
1/2-x,1/2-y,-z
1/2+x,1/2-y,z
loop_
_atom_site_type_symbol
_atom_site_label
_atom_site_fract_x
_atom_site_fract_y
_atom_site_fract_z
Si Si1 0.397611 0.787364 0.578312
Si Si2 0.625740 0.796105 0.741185
Si Si3 0.462164 0.794065 0.697898
Si Si4 0.208497 0.202632 0.612700
Si Si5 0.195754 0.299189 0.425716
Si Si6 0.562998 0.291162 0.914282
Si Si7 0.059543 0.711758 0.621677
Si Si8 0.469261 0.291192 0.888880
O O1 0.425726 0.727686 0.647907
O O2 0.348005 0.723928 0.595951
O O3 0.421551 0.738132 0.479221
O O4 0.396259 0.000000 0.579175
O O5 0.672749 0.719873 0.701615
O O6 0.604582 0.765789 0.843186
O O7 0.591387 0.727903 0.684514
O O8 0.629905 0.000000 0.725283
O O9 0.510469 0.726115 0.656881
O O10 0.453106 0.764820 0.802494
O O11 0.464196 0.000000 0.682415
O O12 0.191536 0.289577 0.531764
O O13 0.256379 0.273915 0.613957
O O14 0.213737 0.000000 0.588958
O O15 0.197007 0.500000 0.398613
O O16 0.562319 0.500000 0.914421
O O17 0.518962 0.231801 0.884127
O O18 0.558045 0.233769 0.015756
O O19 0.058932 0.500000 0.624984
O O20 0.469990 0.500000 0.889737
#
# Coordination Sequence:
#
# PCOD9171659 Si02
#       8
#     8   8   8   8   8   8   8   8
#     4   9  16  28  46  65  90 123 158 192 221 258
#     4  11  19  29  47  69  93 122 153 188 229 269
#     4  10  18  28  46  69  90 120 160 191 219 260
#     4  10  19  29  45  67  92 120 153 191 232 275
#     4   9  17  31  47  65  89 121 158 193 227 265
#     4   9  18  32  48  65  89 122 154 183 226 277
#     4   9  16  26  41  64  92 121 152 184 216 254
#     4   9  18  32  47  64  91 123 150 185 230 273
#
# _framework density 17.355882999999999
#
# number of rings (size 3 to 8) (size 9 to 14) (size 15 to 20)
#    0.000    2.500    2.500    1.875    0.000    2.500 
#    0.000    1.875    0.000    0.750    0.000    0.875 
#    0.000    0.000    0.000    0.000    0.000    0.000 
#
# Total GULP energy -178446.508576 kJ/mol
# GULP energy per Si atom -5576.453393 kJ/mol
# Density = 1.731638 g / cm^3
# Si number density = 17.355883 Si / 1000 Ang^3
#
#
#
# Elastic Constant Matrix: (Units=GPa)
#
#
# Indices 1 2 3 4 5 6 
#
# 1 125.6203 5.1425 71.8633 0.0000 -8.4212 0.0000
# 2 5.1425 27.1932 -5.8295 0.0000 1.2269 0.0000
# 3 71.8633 -5.8295 101.5980 0.0000 -9.0517 0.0000
# 4 0.0000 0.0000 0.0000 0.4746 0.0000 0.0779
# 5 -8.4212 1.2269 -9.0517 0.0000 26.0471 0.0000
# 6 0.0000 0.0000 0.0000 0.0779 0.0000 8.4586
#
#
#
# Elastic Compliance Matrix: (Units=1/GPa)
#
#
# Indices 1 2 3 4 5 6 
#
# 1 0.014008 -0.004866 -0.010075 0.000000 0.001257 0.000000
# 2 -0.004866 0.038949 0.005544 0.000000 -0.001481 0.000000
# 3 -0.010075 0.005544 0.017516 0.000000 0.002569 0.000000
# 4 0.000000 0.000000 0.000000 2.110298 0.000000 -0.019438
# 5 0.001257 -0.001481 0.002569 0.000000 0.039761 0.000000
# 6 0.000000 0.000000 0.000000 -0.019438 0.000000 0.118402
#
#
# Mechanical properties :
#
#
# Convention : Reuss Voigt Hill
#
# Bulk Modulus (GPa) = 19.34960 44.08488 31.71724
# Shear Modulus (GPa) = 2.10530 19.21174 10.65852
#
# Velocity S-wave (km/s) = 1.10257 3.33066 2.48082
# Velocity P-wave (km/s) = 3.57684 6.34403 5.14979
#
# Compressibility (1/GPa) = 0.05168064
#
# Stress axis : x y z
#
# Youngs Moduli (GPa) = 71.38966 25.67430 57.09000
#
# Poissons Ratio (x) = 0.12492 0.57519
# Poissons Ratio (y) = 0.34735 -0.31653
# Poissons Ratio (z) = 0.71927 -0.14235
#
# Static dielectric constant tensor:
#      x y z
#    x 1.607120 0.000000 -0.009680 
#    y 0.000000 1.655100 0.000000 
#    z -0.009680 0.000000 1.571740 
# 
# From -- ./inp_files/248319.got.cif
#   From: 2010.05.17/outbox.cif.g08.bks.cpg/sg12_125_cif.got.tgz:248319.got - 2010.06.03 13:09:07.
