data_PCOD9171721
_publ_section_title
;
Structure prediction by ZEFSAII (Michael W. Deem and Ramdas Pophale) SiO2 
 PCOD9171721
Probable space group: C 2/M
;
_chemical_formula_sum "Si O2"
_cell_formula_units_Z 56
_cell_length_a 11.607404
_cell_length_b 13.025089
_cell_length_c 24.241609
_cell_angle_alpha 90.000000
_cell_angle_beta 39.073921
_cell_angle_gamma 90.000000
_cell_volume 2310.149369
_symmetry_space_group_name_H-M "C 2/M"
_symmetry_group_IT_number 12
_symmetry_cell_setting 'monoclinic'
loop_
_space_group_symop_operation_xyz
x,y,z
-x,y,-z
-x,-y,-z
x,-y,z
1/2+x,1/2+y,z
1/2-x,1/2+y,-z
1/2-x,1/2-y,-z
1/2+x,1/2-y,z
loop_
_atom_site_type_symbol
_atom_site_label
_atom_site_fract_x
_atom_site_fract_y
_atom_site_fract_z
Si Si1 0.989389 0.664145 0.441681
Si Si2 0.784928 0.124372 0.015090
Si Si3 0.721003 0.378196 0.863719
Si Si4 0.784176 0.119202 0.895396
Si Si5 0.278710 0.619220 0.769954
Si Si6 0.199656 0.824046 0.754741
Si Si7 0.079011 0.113185 0.572119
O O1 0.986293 0.788467 0.437573
O O2 0.797154 0.622897 0.491156
O O3 0.000000 0.630955 0.500000
O O4 0.167134 0.635513 0.341435
O O5 0.003362 0.141651 0.938079
O O6 0.710569 0.159414 0.982721
O O7 0.761984 0.000000 0.022782
O O8 0.714086 0.162563 0.101048
O O9 0.741132 0.500000 0.859623
O O10 0.799861 0.346875 0.775738
O O11 0.002999 0.125571 0.821403
O O12 0.749617 0.152301 0.844759
O O13 0.727582 0.000000 0.915596
O O14 0.219745 0.500000 0.786940
O O15 0.179668 0.700562 0.767012
O O16 0.486230 0.623322 0.667971
O O17 0.023662 0.000000 0.572647
#
# Coordination Sequence:
#
# PCOD9171721 Si02
#       7
#     8   8   8   8   8   8   8
#     4  10  20  32  47  68  91 115 148 188 224 262
#     4   7  11  21  39  63  90 116 141 173 215 262
#     4   8  13  23  40  65  93 115 139 178 224 262
#     4   9  16  28  48  71  92 116 147 182 221 263
#     4   9  18  32  47  64  90 122 152 181 215 261
#     4  10  18  28  47  69  90 115 149 186 223 261
#     4   9  19  34  48  64  90 121 149 180 222 268
#
# _framework density 24.240856999999998
#
# number of rings (size 3 to 8) (size 9 to 14) (size 15 to 20)
#    0.000    3.143    0.000    3.000    0.000    1.714 
#    0.000    0.714    0.000    1.714    0.000    8.000 
#    0.000    0.000    0.000    0.000    0.000    0.000 
#
# Total GULP energy -156183.329623 kJ/mol
# GULP energy per Si atom -5577.976058 kJ/mol
# Density = 2.418568 g / cm^3
# Si number density = 24.240857 Si / 1000 Ang^3
#
#
#
# Elastic Constant Matrix: (Units=GPa)
#
#
# Indices 1 2 3 4 5 6 
#
# 1 34.8468 8.5305 48.1823 0.0003 0.5124 0.0000
# 2 8.5305 79.4001 15.8284 0.0002 7.4306 0.0000
# 3 48.1823 15.8284 140.7063 0.0008 22.4627 -0.0002
# 4 0.0003 0.0002 0.0008 23.0425 -0.0005 17.3197
# 5 0.5124 7.4306 22.4627 -0.0005 37.1410 0.0000
# 6 0.0000 0.0000 -0.0002 17.3197 0.0000 6.1742
#
#
#
# Elastic Compliance Matrix: (Units=1/GPa)
#
#
# Indices 1 2 3 4 5 6 
#
# 1 0.060290 -0.003261 -0.022414 -0.000001 0.013376 0.000001
# 2 -0.003261 0.013180 0.000053 0.000000 -0.002624 0.000000
# 3 -0.022414 0.000053 0.016303 0.000001 -0.009561 -0.000001
# 4 -0.000001 0.000000 0.000001 -0.039151 -0.000001 0.109826
# 5 0.013376 -0.002624 -0.009561 -0.000001 0.033047 0.000002
# 6 0.000001 0.000000 -0.000001 0.109826 0.000002 -0.146114
#
#
# Mechanical properties :
#
#
# Convention : Reuss Voigt Hill
#
# Bulk Modulus (GPa) = 25.95472 44.44839 35.20156
# Shear Modulus (GPa) = 3047.59862 25.43233 1536.51548
#
# Velocity S-wave (km/s) = 35.49570 3.24257 25.20376
# Velocity P-wave (km/s) = 41.11760 5.69166 29.35176
#
# Compressibility (1/GPa) = 0.03852863
#
# Stress axis : x y z
#
# Youngs Moduli (GPa) = 16.58649 75.87368 61.33990
#
# Poissons Ratio (x) = 0.24742 1.37486
# Poissons Ratio (y) = 0.05409 -0.00325
# Poissons Ratio (z) = 0.37177 -0.00401
#
# Static dielectric constant tensor:
#      x y z
#    x 1.889390 0.000000 0.040570 
#    y 0.000000 2.015480 0.000000 
#    z 0.040570 0.000000 1.968530 
# 
# From -- ./inp_files/339900.got.cif
#   From: 2010.05.17/outbox.cif.g08.bks.cpg/sg12_170_cif.got.tgz:339900.got - 2010.06.03 13:09:07.
