data_PCOD9171845
_publ_section_title
;
Structure prediction by ZEFSAII (Michael W. Deem and Ramdas Pophale) SiO2 
 PCOD9171845
Probable space group: C 2/M
;
_chemical_formula_sum "Si O2"
_cell_formula_units_Z 58
_cell_length_a 20.760552
_cell_length_b 7.947827
_cell_length_c 19.476511
_cell_angle_alpha 90.000000
_cell_angle_beta 117.668618
_cell_angle_gamma 90.000000
_cell_volume 2846.162261
_symmetry_space_group_name_H-M "C 2/M"
_symmetry_group_IT_number 12
_symmetry_cell_setting 'monoclinic'
loop_
_space_group_symop_operation_xyz
x,y,z
-x,y,-z
-x,-y,-z
x,-y,z
1/2+x,1/2+y,z
1/2-x,1/2+y,-z
1/2-x,1/2-y,-z
1/2+x,1/2-y,z
loop_
_atom_site_type_symbol
_atom_site_label
_atom_site_fract_x
_atom_site_fract_y
_atom_site_fract_z
Si Si1 0.420914 0.803406 0.946458
Si Si2 0.000000 0.500000 0.500000
Si Si3 0.067084 0.190809 0.604333
Si Si4 0.347797 0.303494 0.777594
Si Si5 0.269468 0.797935 0.932385
Si Si6 0.832548 0.803623 0.480232
Si Si7 0.807036 0.698377 0.241693
Si Si8 0.669691 0.196839 0.376449
O O1 0.400733 0.788209 0.856432
O O2 0.350277 0.733841 0.951392
O O3 0.575315 0.000000 0.032188
O O4 0.500000 0.727140 0.000000
O O5 0.015328 0.349122 0.565565
O O6 0.120260 0.209144 0.564356
O O7 0.120641 0.212482 0.695525
O O8 0.035595 0.000000 0.589124
O O9 0.349047 0.500000 0.796125
O O10 0.265054 0.242000 0.751954
O O11 0.366002 0.280762 0.707023
O O12 0.213836 0.727725 0.847825
O O13 0.268905 0.000000 0.925157
O O14 0.250000 0.750000 0.000000
O O15 0.752174 0.732783 0.424754
O O16 0.863121 0.721021 0.564360
O O17 0.824208 0.000000 0.492359
O O18 0.815883 0.500000 0.259713
O O19 0.674233 0.000000 0.362992
#
# Coordination Sequence:
#
# PCOD9171845 Si02
#       8
#     8   2   8   8   8   8   8   8
#     4   9  19  36  58  81 113 152 192 235 294 362
#     4  12  26  40  60  82 112 156 204 250 304 356
#     4  11  22  39  61  83 112 152 202 253 301 354
#     4  10  19  30  51  82 114 145 186 234 286 352
#     4  10  20  35  59  90 120 151 195 253 306 367
#     4   9  19  32  50  77 109 142 178 231 286 335
#     4  10  19  34  58  86 113 146 191 251 307 354
#     4  10  18  28  49  79 111 142 178 222 281 342
#
# _framework density 20.378319000000001
#
# number of rings (size 3 to 8) (size 9 to 14) (size 15 to 20)
#    0.000    2.069    2.069    1.862    0.966    2.483 
#    0.000    0.000    3.034    0.000    0.000    0.000 
#    0.000    0.000    0.000    0.000    0.000    0.000 
#
# Total GULP energy -161533.920673 kJ/mol
# GULP energy per Si atom -5570.135196 kJ/mol
# Density = 2.033194 g / cm^3
# Si number density = 20.378319 Si / 1000 Ang^3
#
#
#
# Elastic Constant Matrix: (Units=GPa)
#
#
# Indices 1 2 3 4 5 6 
#
# 1 41.2122 17.5909 42.4975 0.0000 0.1634 0.0000
# 2 17.5909 69.1153 9.8911 0.0000 9.0594 0.0000
# 3 42.4975 9.8911 135.9484 0.0000 2.5197 0.0000
# 4 0.0000 0.0000 0.0000 32.3340 0.0000 -2.4814
# 5 0.1634 9.0594 2.5197 0.0000 34.0701 0.0000
# 6 0.0000 0.0000 0.0000 -2.4814 0.0000 8.9932
#
#
#
# Elastic Compliance Matrix: (Units=1/GPa)
#
#
# Indices 1 2 3 4 5 6 
#
# 1 0.040547 -0.008996 -0.012078 0.000000 0.003091 0.000000
# 2 -0.008996 0.017129 0.001652 0.000000 -0.004634 0.000000
# 3 -0.012078 0.001652 0.011033 0.000000 -0.001197 0.000000
# 4 0.000000 0.000000 0.000000 0.031596 0.000000 0.008718
# 5 0.003091 -0.004634 -0.001197 0.000000 0.030657 0.000000
# 6 0.000000 0.000000 0.000000 0.008718 0.000000 0.113601
#
#
# Mechanical properties :
#
#
# Convention : Reuss Voigt Hill
#
# Bulk Modulus (GPa) = 33.48421 42.91500 38.19961
# Shear Modulus (GPa) = 17.04376 26.83256 21.93816
#
# Velocity S-wave (km/s) = 2.89514 3.63260 3.28463
# Velocity P-wave (km/s) = 5.25764 6.22087 5.75943
#
# Compressibility (1/GPa) = 0.02986482
#
# Stress axis : x y z
#
# Youngs Moduli (GPa) = 24.66293 58.37955 90.63550
#
# Poissons Ratio (x) = 0.52521 1.09466
# Poissons Ratio (y) = 0.22188 -0.14972
# Poissons Ratio (z) = 0.29787 -0.09644
#
# Static dielectric constant tensor:
#      x y z
#    x 1.776990 0.000000 0.017340 
#    y 0.000000 1.751640 0.000000 
#    z 0.017340 0.000000 1.715720 
# 
# From -- ./inp_files/282205.got.cif
#   From: 2010.05.17/outbox.cif.g08.bks.cpg/sg12_142_cif.got.tgz:282205.got - 2010.06.03 13:09:07.
