data_PCOD9171996
_publ_section_title
;
Structure prediction by ZEFSAII (Michael W. Deem and Ramdas Pophale) SiO2 
 PCOD9171996
Probable space group: C 2/M
;
_chemical_formula_sum "Si O2"
_cell_formula_units_Z 56
_cell_length_a 27.684434
_cell_length_b 8.648832
_cell_length_c 16.623292
_cell_angle_alpha 90.000000
_cell_angle_beta 65.642898
_cell_angle_gamma 90.000000
_cell_volume 3625.976970
_symmetry_space_group_name_H-M "C 2/M"
_symmetry_group_IT_number 12
_symmetry_cell_setting 'monoclinic'
loop_
_space_group_symop_operation_xyz
x,y,z
-x,y,-z
-x,-y,-z
x,-y,z
1/2+x,1/2+y,z
1/2-x,1/2+y,-z
1/2-x,1/2-y,-z
1/2+x,1/2-y,z
loop_
_atom_site_type_symbol
_atom_site_label
_atom_site_fract_x
_atom_site_fract_y
_atom_site_fract_z
Si Si1 0.851981 0.686317 0.304299
Si Si2 0.759563 0.815054 0.866815
Si Si3 0.555546 0.315577 0.868718
Si Si4 0.940833 0.684004 0.955349
Si Si5 0.758616 0.313842 0.691561
Si Si6 0.665445 0.315427 0.036027
Si Si7 0.695229 0.185804 0.501891
O O1 0.853266 0.500000 0.297211
O O2 0.901993 0.757212 0.224776
O O3 0.798085 0.747133 0.299053
O O4 0.848163 0.731579 0.401708
O O5 0.770744 0.751132 0.770909
O O6 0.705688 0.741965 0.939184
O O7 0.753460 0.000000 0.868646
O O8 0.805556 0.777495 0.899727
O O9 0.556850 0.500000 0.874477
O O10 0.496093 0.259607 0.889907
O O11 0.568656 0.243281 0.947005
O O12 0.946338 0.500000 0.952488
O O13 0.890937 0.735801 0.937048
O O14 0.754911 0.500000 0.696959
O O15 0.802207 0.268822 0.593538
O O16 0.659601 0.500000 0.034300
O O17 0.750000 0.250000 0.500000
O O18 0.697011 0.000000 0.502279
#
# Coordination Sequence:
#
# PCOD9171996 Si02
#       7
#     8   8   8   8   8   8   8
#     4  10  18  30  46  66  93 123 155 188 224 266
#     4  10  20  32  47  68  92 121 155 187 223 267
#     4  11  21  33  48  68  93 121 153 185 223 268
#     4  11  21  34  50  68  91 119 152 188 226 266
#     4  10  18  29  45  67  94 123 154 187 226 268
#     4  10  20  34  49  66  91 121 153 189 226 265
#     4   8  16  28  43  63  89 120 151 185 223 266
#
# _framework density 15.444113
#
# number of rings (size 3 to 8) (size 9 to 14) (size 15 to 20)
#    0.000    2.000    0.000    6.000    0.000    2.857 
#    0.000    0.000    0.000    0.000    0.000    1.000 
#    0.000    8.000    0.000    0.000    0.000    0.000 
#
# Total GULP energy -156160.380447 kJ/mol
# GULP energy per Si atom -5577.156445 kJ/mol
# Density = 1.540896 g / cm^3
# Si number density = 15.444113 Si / 1000 Ang^3
#
#
#
# Elastic Constant Matrix: (Units=GPa)
#
#
# Indices 1 2 3 4 5 6 
#
# 1 57.2562 17.4852 35.8895 0.0000 -6.6699 0.0000
# 2 17.4852 58.4656 27.9087 0.0000 -1.7183 0.0000
# 3 35.8895 27.9087 133.2020 0.0000 -8.8547 0.0000
# 4 0.0000 0.0000 0.0000 20.5821 0.0000 0.6603
# 5 -6.6699 -1.7183 -8.8547 0.0000 21.3548 0.0000
# 6 0.0000 0.0000 0.0000 0.6603 0.0000 22.6446
#
#
#
# Elastic Compliance Matrix: (Units=1/GPa)
#
#
# Indices 1 2 3 4 5 6 
#
# 1 0.022319 -0.004239 -0.004817 0.000000 0.004633 0.000000
# 2 -0.004239 0.019810 -0.003075 0.000000 -0.001005 0.000000
# 3 -0.004817 -0.003075 0.009598 0.000000 0.002228 0.000000
# 4 0.000000 0.000000 0.000000 0.048631 0.000000 -0.001418
# 5 0.004633 -0.001005 0.002228 0.000000 0.049118 0.000000
# 6 0.000000 0.000000 0.000000 -0.001418 0.000000 0.044202
#
#
# Mechanical properties :
#
#
# Convention : Reuss Voigt Hill
#
# Bulk Modulus (GPa) = 36.41200 45.72117 41.06658
# Shear Modulus (GPa) = 22.01702 24.09233 23.05467
#
# Velocity S-wave (km/s) = 3.77980 3.95393 3.86784
# Velocity P-wave (km/s) = 6.53276 7.10727 6.82606
#
# Compressibility (1/GPa) = 0.02746348
#
# Stress axis : x y z
#
# Youngs Moduli (GPa) = 44.80426 50.47865 104.19024
#
# Poissons Ratio (x) = 0.21399 0.50193
# Poissons Ratio (y) = 0.18993 0.32042
# Poissons Ratio (z) = 0.21584 0.15524
#
# Static dielectric constant tensor:
#      x y z
#    x 1.488190 0.000000 0.003410 
#    y 0.000000 1.518020 0.000000 
#    z 0.003410 0.000000 1.535830 
# 
# From -- ./inp_files/243066.got.cif
#   From: 2010.05.17/outbox.cif.g08.bks.cpg/sg12_122_cif.got.tgz:243066.got - 2010.06.03 13:09:07.
