data_PCOD9171504
_publ_section_title
;
Structure prediction by ZEFSAII (Michael W. Deem and Ramdas Pophale) SiO2 
 PCOD9171504
Probable space group: C 2/M
;
_chemical_formula_sum "Si O2"
_cell_formula_units_Z 64
_cell_length_a 30.788659
_cell_length_b 8.849061
_cell_length_c 14.401062
_cell_angle_alpha 90.000000
_cell_angle_beta 87.730669
_cell_angle_gamma 90.000000
_cell_volume 3920.502602
_symmetry_space_group_name_H-M "C 2/M"
_symmetry_group_IT_number 12
_symmetry_cell_setting 'monoclinic'
loop_
_space_group_symop_operation_xyz
x,y,z
-x,y,-z
-x,-y,-z
x,-y,z
1/2+x,1/2+y,z
1/2-x,1/2+y,-z
1/2-x,1/2-y,-z
1/2+x,1/2-y,z
loop_
_atom_site_type_symbol
_atom_site_label
_atom_site_fract_x
_atom_site_fract_y
_atom_site_fract_z
Si Si1 0.660176 0.823827 0.839861
Si Si2 0.370257 0.819144 0.611946
Si Si3 0.390955 0.817755 0.326166
Si Si4 0.739092 0.823176 0.685425
Si Si5 0.298343 0.319795 0.986994
Si Si6 0.827508 0.182046 0.781549
Si Si7 0.684182 0.321964 0.540697
Si Si8 0.547753 0.182869 0.520262
O O1 0.617954 0.783709 0.781028
O O2 0.700352 0.810123 0.764146
O O3 0.672461 0.727640 0.928042
O O4 0.657246 0.000000 0.867094
O O5 0.364787 0.756323 0.715996
O O6 0.330226 0.757085 0.553258
O O7 0.414485 0.769568 0.555270
O O8 0.368922 0.000000 0.611687
O O9 0.355085 0.726832 0.387271
O O10 0.435511 0.783953 0.376543
O O11 0.382581 0.000000 0.337570
O O12 0.782402 0.775507 0.734455
O O13 0.725880 0.734559 0.594248
O O14 0.742720 0.000000 0.660440
O O15 0.293037 0.500000 0.983991
O O16 0.250000 0.250000 0.000000
O O17 0.321426 0.271883 0.888895
O O18 0.831707 0.000000 0.777591
O O19 0.685933 0.500000 0.526538
O O20 0.500000 0.241700 0.500000
O O21 0.546285 0.000000 0.513930
#
# Coordination Sequence:
#
# PCOD9171504 Si02
#       8
#     8   8   8   8   8   8   8   8
#     4   9  16  29  46  66  93 124 157 198 240 275
#     4  10  20  33  48  68  93 122 153 189 232 281
#     4   8  15  28  46  69  98 126 152 187 232 279
#     4   9  17  31  46  61  87 123 160 197 235 272
#     4  11  21  33  48  67  90 122 164 206 243 275
#     4  10  21  35  47  62  89 124 159 198 239 276
#     4  10  18  28  44  65  90 122 158 193 228 271
#     4   8  14  28  52  78  99 120 148 183 228 284
#
# _framework density 16.324437
#
# number of rings (size 3 to 8) (size 9 to 14) (size 15 to 20)
#    0.000    2.625    1.250    3.375    0.000    4.000 
#    0.000    0.000    0.000    9.375    0.000    0.875 
#    0.000    7.000    0.000    0.000    0.000    0.000 
#
# Total GULP energy -178274.679302 kJ/mol
# GULP energy per Si atom -5571.083728 kJ/mol
# Density = 1.628728 g / cm^3
# Si number density = 16.324437 Si / 1000 Ang^3
#
#
#
# Elastic Constant Matrix: (Units=GPa)
#
#
# Indices 1 2 3 4 5 6 
#
# 1 83.7221 17.4693 48.1087 0.0000 17.5616 0.0000
# 2 17.4693 35.1526 41.3986 0.0000 3.9335 0.0000
# 3 48.1087 41.3986 123.7200 0.0000 14.3657 0.0000
# 4 0.0000 0.0000 0.0000 25.5861 0.0000 3.2110
# 5 17.5616 3.9335 14.3657 0.0000 16.1510 0.0000
# 6 0.0000 0.0000 0.0000 3.2110 0.0000 11.2573
#
#
#
# Elastic Compliance Matrix: (Units=1/GPa)
#
#
# Indices 1 2 3 4 5 6 
#
# 1 0.018213 -0.001795 -0.004720 0.000000 -0.015168 0.000000
# 2 -0.001795 0.047242 -0.015613 0.000000 0.004333 0.000000
# 3 -0.004720 -0.015613 0.015730 0.000000 -0.005056 0.000000
# 4 0.000000 0.000000 0.000000 0.040535 0.000000 -0.011562
# 5 -0.015168 0.004333 -0.005056 0.000000 0.081850 0.000000
# 6 0.000000 0.000000 0.000000 -0.011562 0.000000 0.092129
#
#
# Mechanical properties :
#
#
# Convention : Reuss Voigt Hill
#
# Bulk Modulus (GPa) = 27.07967 50.72753 38.90360
# Shear Modulus (GPa) = 14.19396 19.64010 16.91703
#
# Velocity S-wave (km/s) = 2.95191 3.47235 3.22266
# Velocity P-wave (km/s) = 5.31440 6.87156 6.14252
#
# Compressibility (1/GPa) = 0.03692807
#
# Stress axis : x y z
#
# Youngs Moduli (GPa) = 54.90660 21.16776 63.57403
#
# Poissons Ratio (x) = 0.03799 0.30009
# Poissons Ratio (y) = 0.09854 0.99258
# Poissons Ratio (z) = 0.25918 0.33049
#
# Static dielectric constant tensor:
#      x y z
#    x 1.568480 0.000000 0.004500 
#    y 0.000000 1.547930 0.000000 
#    z 0.004500 0.000000 1.575900 
# 
# From -- ./inp_files/248240.got.cif
#   From: 2010.05.17/outbox.cif.g08.bks.cpg/sg12_125_cif.got.tgz:248240.got - 2010.06.03 13:09:07.
