data_PCOD9171245
_publ_section_title
;
Structure prediction by ZEFSAII (Michael W. Deem and Ramdas Pophale) SiO2 
 PCOD9171245
Probable space group: C 2/M
;
_chemical_formula_sum "Si O2"
_cell_formula_units_Z 64
_cell_length_a 26.101049
_cell_length_b 7.602819
_cell_length_c 18.339636
_cell_angle_alpha 90.000000
_cell_angle_beta 76.729574
_cell_angle_gamma 90.000000
_cell_volume 3542.166136
_symmetry_space_group_name_H-M "C 2/M"
_symmetry_group_IT_number 12
_symmetry_cell_setting 'monoclinic'
loop_
_space_group_symop_operation_xyz
x,y,z
-x,y,-z
-x,-y,-z
x,-y,z
1/2+x,1/2+y,z
1/2-x,1/2+y,-z
1/2-x,1/2-y,-z
1/2+x,1/2-y,z
loop_
_atom_site_type_symbol
_atom_site_label
_atom_site_fract_x
_atom_site_fract_y
_atom_site_fract_z
Si Si1 0.310320 0.789195 0.502149
Si Si2 0.790927 0.788844 0.824523
Si Si3 0.655889 0.793383 0.660009
Si Si4 0.014411 0.209752 0.075695
Si Si5 0.872823 0.792788 0.913528
Si Si6 0.274947 0.790146 0.663791
Si Si7 0.905148 0.712452 0.181507
Si Si8 0.176712 0.286683 0.916151
O O1 0.250000 0.750000 0.500000
O O2 0.343502 0.718433 0.422562
O O3 0.312186 0.725889 0.585117
O O4 0.317935 0.000000 0.500502
O O5 0.838663 0.718809 0.858031
O O6 0.794757 0.751642 0.737697
O O7 0.734370 0.724971 0.872625
O O8 0.789812 0.000000 0.833388
O O9 0.715690 0.780988 0.671200
O O10 0.617377 0.719623 0.734259
O O11 0.643475 0.000000 0.657393
O O12 0.069284 0.282257 0.088772
O O13 0.964650 0.239095 0.143693
O O14 0.021827 0.000000 0.064451
O O15 0.000000 0.281224 0.000000
O O16 0.880037 0.000000 0.895913
O O17 0.839331 0.774174 0.998486
O O18 0.270451 0.000000 0.658206
O O19 0.901552 0.500000 0.183756
O O20 0.866891 0.772677 0.128401
O O21 0.176608 0.500000 0.916365
#
# Coordination Sequence:
#
# PCOD9171245 Si02
#       8
#     8   8   8   8   8   8   8   8
#     4   8  15  26  42  64  92 124 151 181 219 269
#     4  10  20  34  48  65  93 127 158 187 225 278
#     4   9  16  30  47  65  95 127 154 183 224 275
#     4  10  20  34  49  66  89 118 153 195 238 271
#     4  10  21  35  50  66  87 122 162 193 230 276
#     4  10  18  27  43  70  97 122 154 186 225 269
#     4  10  19  30  48  71  91 120 155 185 225 275
#     4  10  19  31  47  68  93 119 153 191 228 270
#
# _framework density 18.068041000000001
#
# number of rings (size 3 to 8) (size 9 to 14) (size 15 to 20)
#    0.000    2.375    2.500    0.750    0.000    2.750 
#    0.000    0.000    0.000    0.000    0.000    0.875 
#    0.000    7.000    0.000    0.000    0.000    0.000 
#
# Total GULP energy -178410.689041 kJ/mol
# GULP energy per Si atom -5575.334033 kJ/mol
# Density = 1.802692 g / cm^3
# Si number density = 18.068041 Si / 1000 Ang^3
#
#
#
# Elastic Constant Matrix: (Units=GPa)
#
#
# Indices 1 2 3 4 5 6 
#
# 1 98.9110 2.9272 83.4249 0.0000 13.0973 0.0000
# 2 2.9272 33.6372 -14.2731 0.0000 0.6776 0.0000
# 3 83.4249 -14.2731 171.5228 0.0000 -0.8798 0.0000
# 4 0.0000 0.0000 0.0000 5.3117 0.0000 -6.4929
# 5 13.0973 0.6776 -0.8798 0.0000 13.0079 0.0000
# 6 0.0000 0.0000 0.0000 -6.4929 0.0000 2.2139
#
#
#
# Elastic Compliance Matrix: (Units=1/GPa)
#
#
# Indices 1 2 3 4 5 6 
#
# 1 0.024019 -0.006846 -0.012379 0.000000 -0.024665 0.000000
# 2 -0.006846 0.032795 0.006087 0.000000 0.005596 0.000000
# 3 -0.012379 0.006087 0.012424 0.000000 0.012987 0.000000
# 4 0.000000 0.000000 0.000000 -0.072829 0.000000 -0.213596
# 5 -0.024665 0.005596 0.012987 0.000000 0.102297 0.000000
# 6 0.000000 0.000000 0.000000 -0.213596 0.000000 -0.174739
#
#
# Mechanical properties :
#
#
# Convention : Reuss Voigt Hill
#
# Bulk Modulus (GPa) = 23.27531 49.80321 36.53926
# Shear Modulus (GPa) = -141.09530 19.57284 -60.76123
#
# Velocity S-wave (km/s) = -8.84650 3.29490 -5.80535
# Velocity P-wave (km/s) = 9.56230 6.48839 4.96680
#
# Compressibility (1/GPa) = 0.04296398
#
# Stress axis : x y z
#
# Youngs Moduli (GPa) = 41.63329 30.49244 80.48940
#
# Poissons Ratio (x) = 0.20875 0.99635
# Poissons Ratio (y) = 0.28502 -0.48997
# Poissons Ratio (z) = 0.51536 -0.18562
#
# Static dielectric constant tensor:
#      x y z
#    x 1.595980 0.000000 0.003470 
#    y 0.000000 1.645830 0.000000 
#    z 0.003470 0.000000 1.659520 
# 
# From -- ./inp_files/287520.got.cif
#   From: 2010.05.17/outbox.cif.g08.bks.cpg/sg12_144_cif.got.tgz:287520.got - 2010.06.03 13:09:07.
