data_PCOD9171319
_publ_section_title
;
Structure prediction by ZEFSAII (Michael W. Deem and Ramdas Pophale) SiO2 
 PCOD9171319
Probable space group: C 2/M
;
_chemical_formula_sum "Si O2"
_cell_formula_units_Z 48
_cell_length_a 20.864147
_cell_length_b 14.243578
_cell_length_c 10.083714
_cell_angle_alpha 90.000000
_cell_angle_beta 104.355342
_cell_angle_gamma 90.000000
_cell_volume 2903.112983
_symmetry_space_group_name_H-M "C 2/M"
_symmetry_group_IT_number 12
_symmetry_cell_setting 'monoclinic'
loop_
_space_group_symop_operation_xyz
x,y,z
-x,y,-z
-x,-y,-z
x,-y,z
1/2+x,1/2+y,z
1/2-x,1/2+y,-z
1/2-x,1/2-y,-z
1/2+x,1/2-y,z
loop_
_atom_site_type_symbol
_atom_site_label
_atom_site_fract_x
_atom_site_fract_y
_atom_site_fract_z
Si Si1 0.710314 0.000000 0.913802
Si Si2 0.298785 0.699768 0.361212
Si Si3 0.843213 0.796181 0.667663
Si Si4 0.639879 0.000000 0.143864
Si Si5 0.741520 0.000000 0.410367
Si Si6 0.576207 0.199586 0.072209
Si Si7 0.697462 0.500000 0.284045
Si Si8 0.179707 0.282803 0.900666
O O1 0.774679 0.000000 0.851429
O O2 0.680708 0.895358 0.869082
O O3 0.702054 0.000000 0.070874
O O4 0.229384 0.757026 0.327348
O O5 0.343420 0.724263 0.511110
O O6 0.277994 0.592549 0.375745
O O7 0.330563 0.724346 0.238156
O O8 0.899880 0.746837 0.779802
O O9 0.842297 0.905845 0.703392
O O10 0.596396 0.090854 0.095331
O O11 0.669960 0.000000 0.306196
O O12 0.744666 0.000000 0.572191
O O13 0.500000 0.212282 0.000000
O O14 0.623427 0.236970 0.979319
O O15 0.250000 0.250000 0.000000
#
# Coordination Sequence:
#
# PCOD9171319 Si02
#       8
#     4   8   8   4   4   8   4   8
#     4  10  18  27  46  74 104 132 164 212 256 300
#     4  10  18  31  53  80 104 132 169 220 263 301
#     4  10  19  32  52  77 105 135 174 213 260 306
#     4  10  19  32  50  74 106 140 172 204 255 315
#     4  10  18  29  52  83 108 128 167 217 266 307
#     4  11  22  36  52  75 108 144 174 211 259 316
#     4  10  18  30  51  81 108 132 164 221 267 301
#     4  11  19  33  52  77 104 134 176 218 260 306
#
# _framework density 16.533975999999999
#
# number of rings (size 3 to 8) (size 9 to 14) (size 15 to 20)
#    0.000    1.667    5.000    1.250    0.000    0.000 
#    0.000    1.250    0.000    0.000    0.000   10.500 
#    0.000    0.000    0.000    0.000    0.000    0.000 
#
# Total GULP energy -133660.728276 kJ/mol
# GULP energy per Si atom -5569.197012 kJ/mol
# Density = 1.649634 g / cm^3
# Si number density = 16.533976 Si / 1000 Ang^3
#
#
#
# Elastic Constant Matrix: (Units=GPa)
#
#
# Indices 1 2 3 4 5 6 
#
# 1 80.2996 17.2014 60.2985 0.0000 12.7509 0.0000
# 2 17.2014 87.0433 33.9390 0.0000 6.1236 0.0000
# 3 60.2985 33.9390 121.2084 0.0000 15.1655 0.0000
# 4 0.0000 0.0000 0.0000 35.0304 0.0000 -0.8544
# 5 12.7509 6.1236 15.1655 0.0000 19.4740 0.0000
# 6 0.0000 0.0000 0.0000 -0.8544 0.0000 14.7452
#
#
#
# Elastic Compliance Matrix: (Units=1/GPa)
#
#
# Indices 1 2 3 4 5 6 
#
# 1 0.020509 0.000063 -0.009459 0.000000 -0.006082 0.000000
# 2 0.000063 0.012930 -0.003477 0.000000 -0.001400 0.000000
# 3 -0.009459 -0.003477 0.014423 0.000000 -0.003945 0.000000
# 4 0.000000 0.000000 0.000000 0.028587 0.000000 0.001657
# 5 -0.006082 -0.001400 -0.003945 0.000000 0.058845 0.000000
# 6 0.000000 0.000000 0.000000 0.001657 0.000000 0.067915
#
#
# Mechanical properties :
#
#
# Convention : Reuss Voigt Hill
#
# Bulk Modulus (GPa) = 45.21578 56.82544 51.02061
# Shear Modulus (GPa) = 21.15710 25.65742 23.40726
#
# Velocity S-wave (km/s) = 3.58105 3.94356 3.76667
# Velocity P-wave (km/s) = 6.67122 7.42826 7.05989
#
# Compressibility (1/GPa) = 0.02211617
#
# Stress axis : x y z
#
# Youngs Moduli (GPa) = 48.75949 77.33857 69.33235
#
# Poissons Ratio (x) = -0.00489 0.65585
# Poissons Ratio (y) = -0.00308 0.24106
# Poissons Ratio (z) = 0.46124 0.26889
#
# Static dielectric constant tensor:
#      x y z
#    x 1.521220 0.000000 -0.018880 
#    y 0.000000 1.583160 0.000000 
#    z -0.018880 0.000000 1.592050 
# 
# From -- ./inp_files/85774.got.cif
#   From: 2010.05.17/outbox.cif.g08.bks.cpg/sg12_43_cif.got.tgz:85774.got - 2010.06.03 13:09:07.
