data_PCOD9171066
_publ_section_title
;
Structure prediction by ZEFSAII (Michael W. Deem and Ramdas Pophale) SiO2 
 PCOD9171066
Probable space group: C 2/M
;
_chemical_formula_sum "Si O2"
_cell_formula_units_Z 48
_cell_length_a 9.996008
_cell_length_b 32.373416
_cell_length_c 6.960444
_cell_angle_alpha 90.000000
_cell_angle_beta 93.503002
_cell_angle_gamma 90.000000
_cell_volume 2248.225510
_symmetry_space_group_name_H-M "C 2/M"
_symmetry_group_IT_number 12
_symmetry_cell_setting 'monoclinic'
loop_
_space_group_symop_operation_xyz
x,y,z
-x,y,-z
-x,-y,-z
x,-y,z
1/2+x,1/2+y,z
1/2-x,1/2+y,-z
1/2-x,1/2-y,-z
1/2+x,1/2-y,z
loop_
_atom_site_type_symbol
_atom_site_label
_atom_site_fract_x
_atom_site_fract_y
_atom_site_fract_z
Si Si1 0.279836 0.147894 0.173021
Si Si2 0.591912 0.000000 0.815353
Si Si3 0.838259 0.709794 0.466022
Si Si4 0.095560 0.000000 0.193310
Si Si5 0.756648 0.867591 0.284288
Si Si6 0.467675 0.591322 0.767832
Si Si7 0.504127 0.085164 0.232343
O O1 0.298461 0.193872 0.249974
O O2 0.156591 0.122570 0.252158
O O3 0.410559 0.124069 0.261516
O O4 0.264703 0.144372 0.942735
O O5 0.750503 0.000000 0.865719
O O6 0.555933 0.042162 0.705871
O O7 0.500000 0.000000 0.000000
O O8 0.750000 0.750000 0.500000
O O9 0.784806 0.672379 0.597273
O O10 0.000000 0.715398 0.500000
O O11 0.067813 0.044132 0.293696
O O12 0.000000 0.000000 0.000000
O O13 0.651716 0.904454 0.312808
O O14 0.903738 0.887170 0.316310
O O15 0.500000 0.588585 0.000000
O O16 0.500000 0.082746 0.000000
#
# Coordination Sequence:
#
# PCOD9171066 Si02
#       7
#     8   4   8   4   8   8   8
#     4  10  20  41  65  89 124 165 201 247 304 363
#     4  10  18  26  50  89 127 169 214 254 295 346
#     4  12  28  45  67  94 120 153 200 256 318 378
#     4  10  18  28  48  89 132 162 213 260 291 350
#     4  10  22  41  64  92 123 163 207 248 304 371
#     4   9  19  33  59  91 127 168 208 248 300 356
#     4   9  17  31  56  85 121 164 206 244 294 344
#
# _framework density 21.350169999999999
#
# number of rings (size 3 to 8) (size 9 to 14) (size 15 to 20)
#    0.000    2.000    3.333    0.000    9.333    0.667 
#    0.000    0.000    0.000    6.000    0.000    0.000 
#    0.000    0.000    0.000    0.000    0.000    0.000 
#
# Total GULP energy -133983.426936 kJ/mol
# GULP energy per Si atom -5582.642789 kJ/mol
# Density = 2.130158 g / cm^3
# Si number density = 21.350170 Si / 1000 Ang^3
#
#
#
# Elastic Constant Matrix: (Units=GPa)
#
#
# Indices 1 2 3 4 5 6 
#
# 1 179.0169 65.8585 20.3906 0.0000 -4.9485 0.0000
# 2 65.8585 145.8668 14.5744 0.0000 -2.7343 0.0000
# 3 20.3906 14.5744 74.1365 0.0000 -4.6976 0.0000
# 4 0.0000 0.0000 0.0000 -5.2598 0.0000 2.8238
# 5 -4.9485 -2.7343 -4.6976 0.0000 19.8363 0.0000
# 6 0.0000 0.0000 0.0000 2.8238 0.0000 35.5653
#
#
#
# Elastic Compliance Matrix: (Units=1/GPa)
#
#
# Indices 1 2 3 4 5 6 
#
# 1 0.006838 -0.002945 -0.001238 0.000000 0.001007 0.000000
# 2 -0.002945 0.008269 -0.000802 0.000000 0.000215 0.000000
# 3 -0.001238 -0.000802 0.014173 0.000000 0.002937 0.000000
# 4 0.000000 0.000000 0.000000 -0.182347 0.000000 0.014478
# 5 0.001007 0.000215 0.002937 0.000000 0.051389 0.000000
# 6 0.000000 0.000000 0.000000 0.014478 0.000000 0.026968
#
#
# Mechanical properties :
#
#
# Convention : Reuss Voigt Hill
#
# Bulk Modulus (GPa) = 51.78525 66.74081 59.26303
# Shear Modulus (GPa) = -85.75961 29.90813 -27.92574
#
# Velocity S-wave (km/s) = -6.34471 3.74684 -3.62053
# Velocity P-wave (km/s) = 5.41903 7.07434 3.21562
#
# Compressibility (1/GPa) = 0.01931052
#
# Stress axis : x y z
#
# Youngs Moduli (GPa) = 146.23480 120.92834 70.55700
#
# Poissons Ratio (x) = 0.35612 0.08736
# Poissons Ratio (y) = 0.43065 0.05659
# Poissons Ratio (z) = 0.18105 0.09699
#
# Static dielectric constant tensor:
#      x y z
#    x 1.744160 0.000000 -0.005110 
#    y 0.000000 1.768260 0.000000 
#    z -0.005110 0.000000 1.854270 
# 
# From -- ./inp_files/42310.got.cif
#   From: 2010.05.17/outbox.cif.g08.bks.cpg/sg12_22_cif.got.tgz:42310.got - 2010.06.03 13:09:07.
