data_PCOD9171027
_publ_section_title
;
Structure prediction by ZEFSAII (Michael W. Deem and Ramdas Pophale) SiO2 
 PCOD9171027
Probable space group: C 2/M
;
_chemical_formula_sum "Si O2"
_cell_formula_units_Z 48
_cell_length_a 21.213409
_cell_length_b 9.143869
_cell_length_c 23.962732
_cell_angle_alpha 90.000000
_cell_angle_beta 40.063231
_cell_angle_gamma 90.000000
_cell_volume 2991.677916
_symmetry_space_group_name_H-M "C 2/M"
_symmetry_group_IT_number 12
_symmetry_cell_setting 'monoclinic'
loop_
_space_group_symop_operation_xyz
x,y,z
-x,y,-z
-x,-y,-z
x,-y,z
1/2+x,1/2+y,z
1/2-x,1/2+y,-z
1/2-x,1/2-y,-z
1/2+x,1/2-y,z
loop_
_atom_site_type_symbol
_atom_site_label
_atom_site_fract_x
_atom_site_fract_y
_atom_site_fract_z
Si Si1 0.760993 0.824444 0.052633
Si Si2 0.422728 0.677059 0.225016
Si Si3 0.030070 0.177826 0.040703
Si Si4 0.246264 0.331542 0.415610
Si Si5 0.097225 0.168038 0.587700
Si Si6 0.951546 0.674414 0.762740
O O1 0.663711 0.793928 0.154421
O O2 0.766249 0.000000 0.040998
O O3 0.750000 0.750000 0.000000
O O4 0.861274 0.776247 0.014155
O O5 0.431153 0.500000 0.225735
O O6 0.454888 0.717391 0.141004
O O7 0.312364 0.716297 0.318384
O O8 0.496392 0.752346 0.218797
O O9 0.031063 0.000000 0.037951
O O10 0.000000 0.231288 0.000000
O O11 0.216007 0.500000 0.428942
O O12 0.154689 0.235523 0.496439
O O13 0.324152 0.327839 0.414320
O O14 0.005553 0.259890 0.672224
O O15 0.070682 0.000000 0.596531
O O16 0.966212 0.500000 0.754636
#
# Coordination Sequence:
#
# PCOD9171027 Si02
#       6
#     8   8   8   8   8   8
#     4  10  19  30  47  69  92 121 155 189 229 271
#     4   9  16  27  44  64  87 118 152 184 223 269
#     4   9  17  30  48  69  93 121 155 192 227 270
#     4   8  14  23  36  57  85 114 143 179 223 268
#     4   9  16  25  38  58  85 117 147 180 223 270
#     4  10  18  26  40  64  91 118 147 184 226 266
#
# _framework density 16.044508
#
# number of rings (size 3 to 8) (size 9 to 14) (size 15 to 20)
#    0.000    2.833    1.667    2.000    0.000    4.667 
#    0.000    0.000    0.000    2.000    0.000    1.167 
#    0.000    9.333    0.000    0.000    0.000    0.000 
#
# Total GULP energy -133633.810334 kJ/mol
# GULP energy per Si atom -5568.075431 kJ/mol
# Density = 1.600799 g / cm^3
# Si number density = 16.044508 Si / 1000 Ang^3
#
#
#
# Elastic Constant Matrix: (Units=GPa)
#
#
# Indices 1 2 3 4 5 6 
#
# 1 65.0758 17.8802 58.1735 0.0000 4.7617 0.0000
# 2 17.8802 39.5458 56.4058 0.0001 -1.4573 -0.0001
# 3 58.1735 56.4058 183.1867 0.0000 5.1967 0.0000
# 4 0.0000 0.0001 0.0000 24.0367 0.0000 -0.0836
# 5 4.7617 -1.4573 5.1967 0.0000 12.1603 0.0000
# 6 0.0000 -0.0001 0.0000 -0.0836 0.0000 9.6968
#
#
#
# Elastic Compliance Matrix: (Units=1/GPa)
#
#
# Indices 1 2 3 4 5 6 
#
# 1 0.021849 -0.000776 -0.006533 0.000000 -0.005856 0.000000
# 2 -0.000776 0.046758 -0.014494 0.000000 0.012101 0.000000
# 3 -0.006533 -0.014494 0.012120 0.000000 -0.004358 0.000000
# 4 0.000000 0.000000 0.000000 0.041604 0.000000 0.000359
# 5 -0.005856 0.012101 -0.004358 0.000000 0.087841 0.000000
# 6 0.000000 0.000000 0.000000 0.000359 0.000000 0.103130
#
#
# Mechanical properties :
#
#
# Convention : Reuss Voigt Hill
#
# Bulk Modulus (GPa) = 26.93962 61.41415 44.17688
# Shear Modulus (GPa) = 13.53978 19.53533 16.53755
#
# Velocity S-wave (km/s) = 2.90813 3.49316 3.21398
# Velocity P-wave (km/s) = 5.30125 7.39121 6.43169
#
# Compressibility (1/GPa) = 0.03712005
#
# Stress axis : x y z
#
# Youngs Moduli (GPa) = 45.76918 21.38682 82.50578
#
# Poissons Ratio (x) = 0.01659 0.53905
# Poissons Ratio (y) = 0.03550 1.19587
# Poissons Ratio (z) = 0.29903 0.30999
#
# Static dielectric constant tensor:
#      x y z
#    x 1.503180 0.000000 0.001150 
#    y 0.000000 1.538080 0.000000 
#    z 0.001150 0.000000 1.571010 
# 
# From -- ./inp_files/345381.got.cif
#   From: 2010.05.17/outbox.cif.g08.bks.cpg/sg12_173_cif.got.tgz:345381.got - 2010.06.03 13:09:07.
