data_PCOD9171067
_publ_section_title
;
Structure prediction by ZEFSAII (Michael W. Deem and Ramdas Pophale) SiO2 
 PCOD9171067
Probable space group: C 2/M
;
_chemical_formula_sum "Si O2"
_cell_formula_units_Z 64
_cell_length_a 29.068244
_cell_length_b 40.206665
_cell_length_c 5.328957
_cell_angle_alpha 90.000000
_cell_angle_beta 100.563570
_cell_angle_gamma 90.000000
_cell_volume 6122.596015
_symmetry_space_group_name_H-M "C 2/M"
_symmetry_group_IT_number 12
_symmetry_cell_setting 'monoclinic'
loop_
_space_group_symop_operation_xyz
x,y,z
-x,y,-z
-x,-y,-z
x,-y,z
1/2+x,1/2+y,z
1/2-x,1/2+y,-z
1/2-x,1/2-y,-z
1/2+x,1/2-y,z
loop_
_atom_site_type_symbol
_atom_site_label
_atom_site_fract_x
_atom_site_fract_y
_atom_site_fract_z
Si Si1 0.302385 0.224688 0.802386
Si Si2 0.661389 0.333045 0.161385
Si Si3 0.895458 0.236772 0.895463
Si Si4 0.555673 0.716557 0.555669
Si Si5 0.943411 0.921592 0.443411
Si Si6 0.056786 0.038140 0.056786
Si Si7 0.245222 0.294893 0.745221
Si Si8 0.612380 0.353090 0.612376
O O1 0.356896 0.234225 0.856897
O O2 0.274249 0.259974 0.774249
O O3 0.285878 0.205937 0.535880
O O4 0.285878 0.205937 0.035880
O O5 0.634264 0.297602 0.134260
O O6 0.715985 0.323732 0.215983
O O7 0.644172 0.351171 0.395362
O O8 0.644173 0.351171 0.892972
O O9 0.926151 0.235193 0.674966
O O10 0.926150 0.235193 0.177348
O O11 0.500000 0.713374 0.500000
O O12 0.579530 0.679886 0.579525
O O13 0.929906 0.942130 0.678728
O O14 0.919267 0.885795 0.419269
O O15 0.000000 0.917791 0.500000
O O16 0.929906 0.942130 0.181081
O O17 0.073401 0.000000 0.073400
O O18 0.000000 0.036945 0.000000
#
# Coordination Sequence:
#
# PCOD9171067 Si02
#       8
#     8   8   8   8   8   8   8   8
#     4   9  15  23  35  48  60  72  93 121 145 172
#     4   9  17  26  35  47  64  81  96 116 142 172
#     4   9  17  26  35  47  60  76  98 124 148 169
#     4  10  18  27  36  45  61  83 103 121 145 176
#     4  10  18  27  39  52  64  80 101 121 145 176
#     4   9  17  28  40  52  64  76  93 121 153 180
#     4   9  15  23  35  48  60  76  93 113 145 176
#     4  10  18  27  36  48  65  82 101 121 139 169
#
# _framework density 10.453082999999999
#
# number of rings (size 3 to 8) (size 9 to 14) (size 15 to 20)
#    0.000    2.625    0.000    3.375    0.000    7.500 
#    0.000    3.750    0.000    0.000    0.000    0.000 
#    0.000    0.000    0.000    0.000    0.000    0.000 
#
# Total GULP energy -178245.947648 kJ/mol
# GULP energy per Si atom -5570.185864 kJ/mol
# Density = 1.042929 g / cm^3
# Si number density = 10.453083 Si / 1000 Ang^3
#
#
#
# Elastic Constant Matrix: (Units=GPa)
#
#
# Indices 1 2 3 4 5 6 
#
# 1 58.5527 35.7607 51.4767 0.0000 -6.5147 0.0000
# 2 35.7607 38.3187 39.4093 0.0000 -1.2111 0.0000
# 3 51.4767 39.4093 120.2037 0.0000 -13.9417 0.0000
# 4 0.0000 0.0000 0.0000 10.7715 0.0000 -0.1114
# 5 -6.5147 -1.2111 -13.9417 0.0000 15.8186 0.0000
# 6 0.0000 0.0000 0.0000 -0.1114 0.0000 10.4364
#
#
#
# Elastic Compliance Matrix: (Units=1/GPa)
#
#
# Indices 1 2 3 4 5 6 
#
# 1 0.045882 -0.035456 -0.006848 0.000000 0.010146 0.000000
# 2 -0.035456 0.068044 -0.009149 0.000000 -0.017456 0.000000
# 3 -0.006848 -0.009149 0.015419 0.000000 0.010069 0.000000
# 4 0.000000 0.000000 0.000000 0.092848 0.000000 0.000991
# 5 0.010146 -0.017456 0.010069 0.000000 0.074933 0.000000
# 6 0.000000 0.000000 0.000000 0.000991 0.000000 0.095829
#
#
# Mechanical properties :
#
#
# Convention : Reuss Voigt Hill
#
# Bulk Modulus (GPa) = 37.82229 52.26317 45.04273
# Shear Modulus (GPa) = 9.90736 13.43386 11.67061
#
# Velocity S-wave (km/s) = 3.08197 3.58880 3.34500
# Velocity P-wave (km/s) = 6.99472 8.20238 7.62251
#
# Compressibility (1/GPa) = 0.02643943
#
# Stress axis : x y z
#
# Youngs Moduli (GPa) = 21.79485 14.69630 64.85449
#
# Poissons Ratio (x) = 0.52108 0.44410
# Poissons Ratio (y) = 0.77277 0.59337
# Poissons Ratio (z) = 0.14924 0.13446
#
# Static dielectric constant tensor:
#      x y z
#    x 1.321140 0.000000 -0.009520 
#    y 0.000000 1.307430 0.000000 
#    z -0.009520 0.000000 1.349830 
# 
# From -- ./inp_files/29848.got.cif
#   From: 2010.05.17/outbox.cif.g08.bks.cpg/sg12_15_cif.got.tgz:29848.got - 2010.06.03 13:09:07.
