data_PCOD9171950
_publ_section_title
;
Structure prediction by ZEFSAII (Michael W. Deem and Ramdas Pophale) SiO2 
 PCOD9171950
Probable space group: C 2/M
;
_chemical_formula_sum "Si O2"
_cell_formula_units_Z 64
_cell_length_a 29.106601
_cell_length_b 9.021796
_cell_length_c 21.000580
_cell_angle_alpha 90.000000
_cell_angle_beta 50.901337
_cell_angle_gamma 90.000000
_cell_volume 4279.684096
_symmetry_space_group_name_H-M "C 2/M"
_symmetry_group_IT_number 12
_symmetry_cell_setting 'monoclinic'
loop_
_space_group_symop_operation_xyz
x,y,z
-x,y,-z
-x,-y,-z
x,-y,z
1/2+x,1/2+y,z
1/2-x,1/2+y,-z
1/2-x,1/2-y,-z
1/2+x,1/2-y,z
loop_
_atom_site_type_symbol
_atom_site_label
_atom_site_fract_x
_atom_site_fract_y
_atom_site_fract_z
Si Si1 0.308895 0.670345 0.027250
Si Si2 0.357025 0.674053 0.730337
Si Si3 0.146521 0.821822 0.485690
Si Si4 0.221350 0.320799 0.677478
Si Si5 0.717093 0.824601 0.822312
Si Si6 0.167589 0.670561 0.120034
Si Si7 0.930009 0.324563 0.555033
Si Si8 0.186484 0.321251 0.572936
O O1 0.327776 0.500000 0.010189
O O2 0.314116 0.741556 0.092293
O O3 0.238330 0.673415 0.072963
O O4 0.339579 0.760325 0.943557
O O5 0.371127 0.500000 0.715204
O O6 0.288138 0.690564 0.769782
O O7 0.361620 0.735738 0.797902
O O8 0.397049 0.763800 0.646334
O O9 0.210887 0.778592 0.399303
O O10 0.097205 0.761343 0.481310
O O11 0.143320 0.748692 0.558368
O O12 0.145158 0.000000 0.491490
O O13 0.222365 0.500000 0.680546
O O14 0.203676 0.267377 0.762931
O O15 0.180024 0.282925 0.653385
O O16 0.703894 0.000000 0.838234
O O17 0.148487 0.500000 0.138765
O O18 0.918875 0.500000 0.557750
O O19 0.000000 0.300642 0.500000
O O20 0.188575 0.500000 0.565099
O O21 0.250000 0.250000 0.500000
#
# Coordination Sequence:
#
# PCOD9171950 Si02
#       8
#     8   8   8   8   8   8   8   8
#     4   9  16  24  34  54  78 103 136 170 201 238
#     4  10  18  29  45  60  77 104 137 175 213 251
#     4  10  18  31  46  60  79 106 140 178 217 257
#     4   8  14  25  40  59  82 108 138 169 203 246
#     4   9  15  25  39  56  80 110 138 168 204 243
#     4   9  16  26  39  54  75 103 135 169 204 245
#     4  11  23  35  46  62  83 107 140 182 223 261
#     4   9  16  26  41  61  83 108 138 173 210 251
#
# _framework density 14.954375000000001
#
# number of rings (size 3 to 8) (size 9 to 14) (size 15 to 20)
#    0.000    2.625    1.250    3.000    0.000    4.500 
#    0.000    1.250    0.000    0.000    0.000    0.000 
#    0.000    0.000    0.000    1.125    0.000   22.500 
#
# Total GULP energy -178194.550268 kJ/mol
# GULP energy per Si atom -5568.579696 kJ/mol
# Density = 1.492034 g / cm^3
# Si number density = 14.954375 Si / 1000 Ang^3
#
#
#
# Elastic Constant Matrix: (Units=GPa)
#
#
# Indices 1 2 3 4 5 6 
#
# 1 68.9837 38.6239 46.8981 0.0017 33.1975 -0.0004
# 2 38.6239 69.1137 34.1537 0.0048 16.4965 -0.0034
# 3 46.8981 34.1537 55.6201 0.0011 36.1792 -0.0013
# 4 0.0017 0.0048 0.0011 22.2079 -0.0013 7.7028
# 5 33.1975 16.4965 36.1792 -0.0013 33.6455 0.0012
# 6 -0.0004 -0.0034 -0.0013 7.7028 0.0012 18.5737
#
#
#
# Elastic Compliance Matrix: (Units=1/GPa)
#
#
# Indices 1 2 3 4 5 6 
#
# 1 0.038677 -0.009774 -0.016317 -0.000001 -0.015823 -0.000001
# 2 -0.009774 0.024739 -0.017743 -0.000004 0.016594 0.000004
# 3 -0.016317 -0.017743 0.088178 -0.000007 -0.070019 0.000010
# 4 -0.000001 -0.000004 -0.000007 0.052594 0.000013 -0.021812
# 5 -0.015823 0.016594 -0.070019 0.000013 0.112490 -0.000015
# 6 -0.000001 0.000004 0.000010 -0.021812 -0.000015 0.062885
#
#
# Mechanical properties :
#
#
# Convention : Reuss Voigt Hill
#
# Bulk Modulus (GPa) = 15.64355 48.11879 31.88117
# Shear Modulus (GPa) = 10.23460 19.82155 15.02807
#
# Velocity S-wave (km/s) = 2.61892 3.64465 3.17350
# Velocity P-wave (km/s) = 4.43041 7.06811 5.89859
#
# Compressibility (1/GPa) = 0.06392409
#
# Stress axis : x y z
#
# Youngs Moduli (GPa) = 25.85547 40.42282 11.34071
#
# Poissons Ratio (x) = 0.39509 0.18505
# Poissons Ratio (y) = 0.25271 0.20122
# Poissons Ratio (z) = 0.42189 0.71724
#
# Static dielectric constant tensor:
#      x y z
#    x 1.501030 0.000000 0.036600 
#    y 0.000000 1.498970 0.000000 
#    z 0.036600 0.000000 1.487930 
# 
# From -- ./inp_files/326875.got.cif
#   From: 2010.05.17/outbox.cif.g08.bks.cpg/sg12_164_cif.got.tgz:326875.got - 2010.06.03 13:09:07.
