data_PCOD9171849
_publ_section_title
;
Structure prediction by ZEFSAII (Michael W. Deem and Ramdas Pophale) SiO2 
 PCOD9171849
Probable space group: C 2/M
;
_chemical_formula_sum "Si O2"
_cell_formula_units_Z 56
_cell_length_a 29.402745
_cell_length_b 8.862105
_cell_length_c 14.766098
_cell_angle_alpha 90.000000
_cell_angle_beta 120.187761
_cell_angle_gamma 90.000000
_cell_volume 3325.801667
_symmetry_space_group_name_H-M "C 2/M"
_symmetry_group_IT_number 12
_symmetry_cell_setting 'monoclinic'
loop_
_space_group_symop_operation_xyz
x,y,z
-x,y,-z
-x,-y,-z
x,-y,z
1/2+x,1/2+y,z
1/2-x,1/2+y,-z
1/2-x,1/2-y,-z
1/2+x,1/2-y,z
loop_
_atom_site_type_symbol
_atom_site_label
_atom_site_fract_x
_atom_site_fract_y
_atom_site_fract_z
Si Si1 0.142042 0.324490 0.212407
Si Si2 0.464798 0.176998 0.229879
Si Si3 0.753799 0.178855 0.604978
Si Si4 0.149302 0.177214 0.564728
Si Si5 0.444842 0.318189 0.398474
Si Si6 0.910322 0.669582 0.647368
Si Si7 0.550885 0.815480 0.991572
O O1 0.156829 0.500000 0.211337
O O2 0.193479 0.233281 0.292016
O O3 0.104263 0.322342 0.262348
O O4 0.105341 0.269627 0.093843
O O5 0.441445 0.262711 0.292261
O O6 0.527836 0.187469 0.302499
O O7 0.451743 0.232673 0.115640
O O8 0.450490 0.000000 0.220757
O O9 0.750000 0.250000 0.500000
O O10 0.703770 0.234539 0.612585
O O11 0.753234 0.000000 0.594102
O O12 0.106046 0.230061 0.594595
O O13 0.121004 0.207677 0.440457
O O14 0.159365 0.000000 0.587570
O O15 0.500000 0.265371 0.500000
O O16 0.446080 0.500000 0.401834
O O17 0.894884 0.500000 0.600359
O O18 0.549515 0.000000 0.990905
O O19 0.500000 0.767157 0.000000
#
# Coordination Sequence:
#
# PCOD9171849 Si02
#       7
#     8   8   8   8   8   8   8
#     4  10  19  33  54  79 110 145 179 214 260 315
#     4  10  19  31  52  82 111 144 182 217 258 311
#     4  12  24  37  54  78 109 140 177 220 267 317
#     4  11  22  36  54  75 105 144 182 218 265 320
#     4  10  21  36  52  75 108 145 177 217 274 322
#     4  10  18  28  49  80 111 142 176 214 255 311
#     4   9  16  30  53  81 111 142 176 216 261 311
#
# _framework density 16.838045999999999
#
# number of rings (size 3 to 8) (size 9 to 14) (size 15 to 20)
#    0.000    1.714    4.286    1.714    0.000    1.429 
#    0.000    0.714    0.000    1.714    0.000    0.000 
#    0.000    0.000    0.000    0.000    0.000    0.000 
#
# Total GULP energy -156197.760798 kJ/mol
# GULP energy per Si atom -5578.491457 kJ/mol
# Density = 1.679972 g / cm^3
# Si number density = 16.838046 Si / 1000 Ang^3
#
#
#
# Elastic Constant Matrix: (Units=GPa)
#
#
# Indices 1 2 3 4 5 6 
#
# 1 89.9421 29.1589 33.1562 0.0000 1.1714 0.0000
# 2 29.1589 42.2250 18.1002 0.0000 7.9418 0.0000
# 3 33.1562 18.1002 95.5613 0.0000 0.1217 0.0000
# 4 0.0000 0.0000 0.0000 18.8274 0.0000 5.1567
# 5 1.1714 7.9418 0.1217 0.0000 24.1728 0.0000
# 6 0.0000 0.0000 0.0000 5.1567 0.0000 3.7415
#
#
#
# Elastic Compliance Matrix: (Units=1/GPa)
#
#
# Indices 1 2 3 4 5 6 
#
# 1 0.015530 -0.009656 -0.003563 0.000000 0.002438 0.000000
# 2 -0.009656 0.033626 -0.003005 0.000000 -0.010564 0.000000
# 3 -0.003563 -0.003005 0.012268 0.000000 0.001098 0.000000
# 4 0.000000 0.000000 0.000000 0.085322 0.000000 -0.117594
# 5 0.002438 -0.010564 0.001098 0.000000 0.044716 0.000000
# 6 0.000000 0.000000 0.000000 -0.117594 0.000000 0.429344
#
#
# Mechanical properties :
#
#
# Convention : Reuss Voigt Hill
#
# Bulk Modulus (GPa) = 34.51038 43.17326 38.84182
# Shear Modulus (GPa) = 7.54246 19.16921 13.35584
#
# Velocity S-wave (km/s) = 2.11876 3.37775 2.81943
# Velocity P-wave (km/s) = 5.15029 6.39595 5.80662
#
# Compressibility (1/GPa) = 0.02897679
#
# Stress axis : x y z
#
# Youngs Moduli (GPa) = 64.39051 29.73900 81.51004
#
# Poissons Ratio (x) = 0.28716 0.29039
# Poissons Ratio (y) = 0.62175 0.24497
# Poissons Ratio (z) = 0.22940 0.08938
#
# Static dielectric constant tensor:
#      x y z
#    x 1.567500 0.000000 0.004880 
#    y 0.000000 1.585560 0.000000 
#    z 0.004880 0.000000 1.559990 
# 
# From -- ./inp_files/244277.got.cif
#   From: 2010.05.17/outbox.cif.g08.bks.cpg/sg12_123_cif.got.tgz:244277.got - 2010.06.03 13:09:07.
