data_PCOD9171523
_publ_section_title
;
Structure prediction by ZEFSAII (Michael W. Deem and Ramdas Pophale) SiO2 
 PCOD9171523
Probable space group: C 2/M
;
_chemical_formula_sum "Si O2"
_cell_formula_units_Z 48
_cell_length_a 29.050103
_cell_length_b 9.024750
_cell_length_c 12.489575
_cell_angle_alpha 90.000000
_cell_angle_beta 110.130025
_cell_angle_gamma 90.000000
_cell_volume 3074.371512
_symmetry_space_group_name_H-M "C 2/M"
_symmetry_group_IT_number 12
_symmetry_cell_setting 'monoclinic'
loop_
_space_group_symop_operation_xyz
x,y,z
-x,y,-z
-x,-y,-z
x,-y,z
1/2+x,1/2+y,z
1/2-x,1/2+y,-z
1/2-x,1/2-y,-z
1/2+x,1/2-y,z
loop_
_atom_site_type_symbol
_atom_site_label
_atom_site_fract_x
_atom_site_fract_y
_atom_site_fract_z
Si Si1 0.776729 0.821772 0.421214
Si Si2 0.019632 0.329317 0.392737
Si Si3 0.914168 0.321800 0.251427
Si Si4 0.758682 0.677079 0.841992
Si Si5 0.829190 0.176023 0.061121
Si Si6 0.612490 0.676932 0.542253
O O1 0.750000 0.750000 0.500000
O O2 0.751999 0.778821 0.288315
O O3 0.834238 0.782024 0.460065
O O4 0.773929 0.000000 0.426556
O O5 0.032137 0.500000 0.377876
O O6 0.067879 0.229867 0.431482
O O7 0.000000 0.326923 0.500000
O O8 0.971853 0.282525 0.287387
O O9 0.911162 0.500000 0.254565
O O10 0.879191 0.257487 0.132309
O O11 0.895553 0.253765 0.349029
O O12 0.767332 0.500000 0.853239
O O13 0.709978 0.705535 0.874297
O O14 0.803059 0.761645 0.934409
O O15 0.836382 0.000000 0.060644
O O16 0.610903 0.500000 0.556164
#
# Coordination Sequence:
#
# PCOD9171523 Si02
#       6
#     8   8   8   8   8   8
#     4  10  21  35  49  68  94 125 162 199 231 273
#     4   8  16  28  41  63  92 122 155 186 225 283
#     4  10  18  28  44  67  96 127 155 185 230 284
#     4   9  18  33  46  64  95 124 155 194 234 276
#     4  10  18  29  47  70  95 122 156 192 232 282
#     4  10  18  30  45  65  93 122 156 198 235 271
#
# _framework density 15.612947
#
# number of rings (size 3 to 8) (size 9 to 14) (size 15 to 20)
#    0.000    2.500    1.667    2.500    0.000    6.333 
#    0.000    0.000    0.000    0.000    0.000    1.167 
#    0.000    9.333    0.000    0.000    0.000    0.000 
#
# Total GULP energy -133758.174645 kJ/mol
# GULP energy per Si atom -5573.257277 kJ/mol
# Density = 1.557741 g / cm^3
# Si number density = 15.612947 Si / 1000 Ang^3
#
#
#
# Elastic Constant Matrix: (Units=GPa)
#
#
# Indices 1 2 3 4 5 6 
#
# 1 93.0594 46.9651 70.9336 0.0000 25.8460 0.0000
# 2 46.9651 47.9549 45.3851 0.0000 16.8641 0.0000
# 3 70.9336 45.3851 105.4444 0.0000 25.7685 0.0000
# 4 0.0000 0.0000 0.0000 26.2363 0.0000 5.4605
# 5 25.8460 16.8641 25.7685 0.0000 33.8121 0.0000
# 6 0.0000 0.0000 0.0000 5.4605 0.0000 25.0342
#
#
#
# Elastic Compliance Matrix: (Units=1/GPa)
#
#
# Indices 1 2 3 4 5 6 
#
# 1 0.028717 -0.015460 -0.011286 0.000000 -0.005639 0.000000
# 2 -0.015460 0.045075 -0.007859 0.000000 -0.004675 0.000000
# 3 -0.011286 -0.007859 0.021373 0.000000 -0.003742 0.000000
# 4 0.000000 0.000000 0.000000 0.039928 0.000000 -0.008709
# 5 -0.005639 -0.004675 -0.003742 0.000000 0.039069 0.000000
# 6 0.000000 0.000000 0.000000 -0.008709 0.000000 0.041845
#
#
# Mechanical properties :
#
#
# Convention : Reuss Voigt Hill
#
# Bulk Modulus (GPa) = 38.52655 63.66959 51.09807
# Shear Modulus (GPa) = 17.01444 22.56152 19.78798
#
# Velocity S-wave (km/s) = 3.30474 3.80551 3.56393
# Velocity P-wave (km/s) = 6.26828 7.75743 7.05227
#
# Compressibility (1/GPa) = 0.02595613
#
# Stress axis : x y z
#
# Youngs Moduli (GPa) = 34.82264 22.18504 46.78879
#
# Poissons Ratio (x) = 0.34298 0.52805
# Poissons Ratio (y) = 0.53836 0.36770
# Poissons Ratio (z) = 0.39300 0.17434
#
# Static dielectric constant tensor:
#      x y z
#    x 1.513700 0.000000 0.035010 
#    y 0.000000 1.519160 0.000000 
#    z 0.035010 0.000000 1.519010 
# 
# From -- ./inp_files/172133.got.cif
#   From: 2010.05.17/outbox.cif.g08.bks.cpg/sg12_87_cif.got.tgz:172133.got - 2010.06.03 13:09:07.
