data_PCOD9171365
_publ_section_title
;
Structure prediction by ZEFSAII (Michael W. Deem and Ramdas Pophale) SiO2 
 PCOD9171365
Probable space group: C 2/M
;
_chemical_formula_sum "Si O2"
_cell_formula_units_Z 64
_cell_length_a 24.510861
_cell_length_b 7.367521
_cell_length_c 17.265115
_cell_angle_alpha 90.000000
_cell_angle_beta 80.444041
_cell_angle_gamma 90.000000
_cell_volume 3074.545501
_symmetry_space_group_name_H-M "C 2/M"
_symmetry_group_IT_number 12
_symmetry_cell_setting 'monoclinic'
loop_
_space_group_symop_operation_xyz
x,y,z
-x,y,-z
-x,-y,-z
x,-y,z
1/2+x,1/2+y,z
1/2-x,1/2+y,-z
1/2-x,1/2-y,-z
1/2+x,1/2-y,z
loop_
_atom_site_type_symbol
_atom_site_label
_atom_site_fract_x
_atom_site_fract_y
_atom_site_fract_z
Si Si1 0.977967 0.207119 0.164443
Si Si2 0.942427 0.220755 0.728513
Si Si3 0.473780 0.208936 0.429176
Si Si4 0.796888 0.716408 0.247442
Si Si5 0.118392 0.782295 0.913934
Si Si6 0.179802 0.777975 0.219545
Si Si7 0.812848 0.216789 0.958562
Si Si8 0.106218 0.721826 0.675904
O O1 0.940767 0.287954 0.103994
O O2 0.934408 0.209507 0.246502
O O3 0.032167 0.283397 0.194516
O O4 0.991608 0.000000 0.138999
O O5 0.879204 0.275205 0.732526
O O6 0.980481 0.286064 0.649441
O O7 0.945542 0.000000 0.728586
O O8 0.500000 0.292838 0.500000
O O9 0.419119 0.283987 0.399578
O O10 0.460375 0.000000 0.451740
O O11 0.792511 0.500000 0.256290
O O12 0.834614 0.749403 0.162434
O O13 0.735285 0.786542 0.248680
O O14 0.832914 0.780194 0.312104
O O15 0.112176 0.000000 0.920829
O O16 0.143366 0.713091 0.988562
O O17 0.180917 0.716985 0.130101
O O18 0.181349 0.000000 0.218967
O O19 0.820626 0.000000 0.954456
O O20 0.750000 0.250000 0.000000
O O21 0.103334 0.500000 0.678741
#
# Coordination Sequence:
#
# PCOD9171365 Si02
#       8
#     8   8   8   8   8   8   8   8
#     4   8  14  25  40  58  81 108 137 173 212 244
#     4   9  17  30  46  63  86 115 144 170 202 252
#     4   9  17  30  48  69  90 108 131 171 216 252
#     4   9  15  25  42  61  82 110 143 175 206 244
#     4   9  16  25  39  60  83 106 139 183 220 245
#     4   9  17  28  42  61  86 115 144 176 211 246
#     4  10  18  28  41  59  85 113 145 182 216 248
#     4   8  14  24  41  64  83 104 137 170 203 246
#
# _framework density 20.816085000000001
#
# number of rings (size 3 to 8) (size 9 to 14) (size 15 to 20)
#    0.000    3.125    1.250    0.000    0.000    0.250 
#    0.000    1.875    0.000    4.500    0.000    0.000 
#    0.000   11.000    0.000    0.000    0.000    0.000 
#
# Total GULP energy -178286.560649 kJ/mol
# GULP energy per Si atom -5571.455020 kJ/mol
# Density = 2.076871 g / cm^3
# Si number density = 20.816085 Si / 1000 Ang^3
#
#
#
# Elastic Constant Matrix: (Units=GPa)
#
#
# Indices 1 2 3 4 5 6 
#
# 1 146.5655 7.6318 52.5871 0.0000 47.3289 0.0000
# 2 7.6318 79.1499 -0.3025 0.0000 7.2353 0.0000
# 3 52.5871 -0.3025 64.2451 0.0000 41.7312 0.0000
# 4 0.0000 0.0000 0.0000 4.2104 0.0000 -2.1985
# 5 47.3289 7.2353 41.7312 0.0000 44.4894 0.0000
# 6 0.0000 0.0000 0.0000 -2.1985 0.0000 12.0149
#
#
#
# Elastic Compliance Matrix: (Units=1/GPa)
#
#
# Indices 1 2 3 4 5 6 
#
# 1 0.010698 -0.000317 -0.003581 0.000000 -0.007970 0.000000
# 2 -0.000317 0.013172 0.003824 0.000000 -0.005392 0.000000
# 3 -0.003581 0.003824 0.042087 0.000000 -0.036290 0.000000
# 4 0.000000 0.000000 0.000000 0.262601 0.000000 0.048051
# 5 -0.007970 -0.005392 -0.036290 0.000000 0.065873 0.000000
# 6 0.000000 0.000000 0.000000 0.048051 0.000000 0.092022
#
#
# Mechanical properties :
#
#
# Convention : Reuss Voigt Hill
#
# Bulk Modulus (GPa) = 15.19541 45.53260 30.36401
# Shear Modulus (GPa) = 9.83210 27.47922 18.65566
#
# Velocity S-wave (km/s) = 2.17568 3.63725 2.99693
# Velocity P-wave (km/s) = 3.69149 6.28973 5.15693
#
# Compressibility (1/GPa) = 0.06580934
#
# Stress axis : x y z
#
# Youngs Moduli (GPa) = 93.47541 75.91706 23.76010
#
# Poissons Ratio (x) = 0.02404 0.08509
# Poissons Ratio (y) = 0.02960 -0.09085
# Poissons Ratio (z) = 0.33474 -0.29027
#
# Static dielectric constant tensor:
#      x y z
#    x 1.778800 0.000000 0.084390 
#    y 0.000000 1.773780 0.000000 
#    z 0.084390 0.000000 1.678610 
# 
# From -- ./inp_files/287511.got.cif
#   From: 2010.05.17/outbox.cif.g08.bks.cpg/sg12_144_cif.got.tgz:287511.got - 2010.06.03 13:09:07.
