data_PCOD9171671
_publ_section_title
;
Structure prediction by ZEFSAII (Michael W. Deem and Ramdas Pophale) SiO2 
 PCOD9171671
Probable space group: C 2/M
;
_chemical_formula_sum "Si O2"
_cell_formula_units_Z 48
_cell_length_a 18.339840
_cell_length_b 7.590883
_cell_length_c 17.098173
_cell_angle_alpha 90.000000
_cell_angle_beta 75.717169
_cell_angle_gamma 90.000000
_cell_volume 2306.755293
_symmetry_space_group_name_H-M "C 2/M"
_symmetry_group_IT_number 12
_symmetry_cell_setting 'monoclinic'
loop_
_space_group_symop_operation_xyz
x,y,z
-x,y,-z
-x,-y,-z
x,-y,z
1/2+x,1/2+y,z
1/2-x,1/2+y,-z
1/2-x,1/2-y,-z
1/2+x,1/2-y,z
loop_
_atom_site_type_symbol
_atom_site_label
_atom_site_fract_x
_atom_site_fract_y
_atom_site_fract_z
Si Si1 0.839362 0.704411 0.255743
Si Si2 0.061242 0.288261 0.091114
Si Si3 0.439449 0.284409 0.580564
Si Si4 0.505056 0.294138 0.265773
Si Si5 0.608968 0.785329 0.917832
Si Si6 0.772664 0.788098 0.582761
O O1 0.817656 0.500000 0.252750
O O2 0.925763 0.709069 0.262428
O O3 0.839706 0.780261 0.167265
O O4 0.786059 0.781308 0.336851
O O5 0.065204 0.500000 0.092486
O O6 0.064445 0.224572 0.179089
O O7 0.976411 0.241103 0.085852
O O8 0.115565 0.226627 0.006333
O O9 0.500000 0.229690 0.500000
O O10 0.438553 0.500000 0.581454
O O11 0.463588 0.226236 0.660609
O O12 0.356426 0.224386 0.579357
O O13 0.488069 0.500000 0.279690
O O14 0.613140 0.000000 0.917289
O O15 0.750000 0.750000 0.500000
O O16 0.773178 0.000000 0.588876
#
# Coordination Sequence:
#
# PCOD9171671 Si02
#       6
#     8   8   8   8   8   8
#     4   9  17  30  48  69  92 119 155 193 225 263
#     4   8  13  24  42  63  90 121 153 188 222 260
#     4   9  18  32  48  66  91 122 151 179 221 279
#     4  10  18  28  46  70  95 122 151 186 228 271
#     4   7  11  22  41  63  87 118 153 186 220 260
#     4  10  20  34  52  71  91 118 152 190 229 270
#
# _framework density 20.808450000000001
#
# number of rings (size 3 to 8) (size 9 to 14) (size 15 to 20)
#    0.000    3.167    0.000    3.500    0.000    2.000 
#    0.000    8.333    0.000    5.500    0.000    0.000 
#    0.000    0.000    0.000    0.000    0.000    1.000 
#
# Total GULP energy -133699.308074 kJ/mol
# GULP energy per Si atom -5570.804503 kJ/mol
# Density = 2.076109 g / cm^3
# Si number density = 20.808450 Si / 1000 Ang^3
#
#
#
# Elastic Constant Matrix: (Units=GPa)
#
#
# Indices 1 2 3 4 5 6 
#
# 1 65.2098 -4.3511 80.0961 0.0000 -10.9998 0.0000
# 2 -4.3511 43.5690 2.0740 0.0000 -4.2671 0.0000
# 3 80.0961 2.0740 262.7000 0.0000 -17.6046 0.0000
# 4 0.0000 0.0000 0.0000 21.0241 0.0000 8.0856
# 5 -10.9998 -4.2671 -17.6046 0.0000 27.8117 0.0000
# 6 0.0000 0.0000 0.0000 8.0856 0.0000 -6.6441
#
#
#
# Elastic Compliance Matrix: (Units=1/GPa)
#
#
# Indices 1 2 3 4 5 6 
#
# 1 0.025774 0.003517 -0.007484 0.000000 0.005996 0.000000
# 2 0.003517 0.023783 -0.000963 0.000000 0.004430 0.000000
# 3 -0.007484 -0.000963 0.006149 0.000000 0.000784 0.000000
# 4 0.000000 0.000000 0.000000 0.032400 0.000000 0.039430
# 5 0.005996 0.004430 0.000784 0.000000 0.039504 0.000000
# 6 0.000000 0.000000 0.000000 0.039430 0.000000 -0.102525
#
#
# Mechanical properties :
#
#
# Convention : Reuss Voigt Hill
#
# Bulk Modulus (GPa) = 21.81231 58.56853 40.19042
# Shear Modulus (GPa) = 99.54737 28.01566 63.78151
#
# Velocity S-wave (km/s) = 6.92414 3.67326 5.54241
# Velocity P-wave (km/s) = 8.62729 6.79691 7.76622
#
# Compressibility (1/GPa) = 0.04584567
#
# Stress axis : x y z
#
# Youngs Moduli (GPa) = 38.79846 42.04654 162.63493
#
# Poissons Ratio (x) = -0.14790 1.21722
# Poissons Ratio (y) = -0.13647 0.15667
# Poissons Ratio (z) = 0.29038 0.04050
#
# Static dielectric constant tensor:
#      x y z
#    x 1.704620 0.000000 -0.018910 
#    y 0.000000 1.798700 0.000000 
#    z -0.018910 0.000000 1.809060 
# 
# From -- ./inp_files/273587.got.cif
#   From: 2010.05.17/outbox.cif.g08.bks.cpg/sg12_137_cif.got.tgz:273587.got - 2010.06.03 13:09:07.
