data_PCOD9171349
_publ_section_title
;
Structure prediction by ZEFSAII (Michael W. Deem and Ramdas Pophale) SiO2 
 PCOD9171349
Probable space group: C 2/M
;
_chemical_formula_sum "Si O2"
_cell_formula_units_Z 56
_cell_length_a 21.123094
_cell_length_b 25.838507
_cell_length_c 17.869150
_cell_angle_alpha 90.000000
_cell_angle_beta 158.224990
_cell_angle_gamma 90.000000
_cell_volume 3617.922358
_symmetry_space_group_name_H-M "C 2/M"
_symmetry_group_IT_number 12
_symmetry_cell_setting 'monoclinic'
loop_
_space_group_symop_operation_xyz
x,y,z
-x,y,-z
-x,-y,-z
x,-y,z
1/2+x,1/2+y,z
1/2-x,1/2+y,-z
1/2-x,1/2-y,-z
1/2+x,1/2-y,z
loop_
_atom_site_type_symbol
_atom_site_label
_atom_site_fract_x
_atom_site_fract_y
_atom_site_fract_z
Si Si1 0.580178 0.323085 0.320961
Si Si2 0.871851 0.348075 0.993121
Si Si3 0.841184 0.281163 0.492929
Si Si4 0.756065 0.125238 0.371967
Si Si5 0.795087 0.058356 0.280187
Si Si6 0.813432 0.218673 0.325069
Si Si7 0.294447 0.808655 0.072062
O O1 0.709422 0.315913 0.394466
O O2 0.617971 0.270980 0.412812
O O3 0.627049 0.370681 0.426920
O O4 0.381065 0.326460 0.082330
O O5 0.781409 0.398673 0.859394
O O6 0.808113 0.297981 0.876100
O O7 0.828285 0.339033 0.031585
O O8 0.071203 0.355357 0.195637
O O9 0.762528 0.262256 0.328370
O O10 0.026979 0.307341 0.687964
O O11 0.743858 0.073938 0.308911
O O12 0.827787 0.166598 0.390721
O O13 0.000000 0.060669 0.500000
O O14 0.739633 0.000000 0.201758
O O15 0.000000 0.231325 0.500000
O O16 0.250000 0.750000 0.000000
#
# Coordination Sequence:
#
# PCOD9171349 Si02
#       7
#     8   8   8   8   8   8   8
#     4   9  16  28  42  56  79 102 136 182 212 253
#     4  11  19  30  44  63  84 114 150 186 228 262
#     4   9  17  28  39  58  78 102 141 176 217 255
#     4  10  18  29  44  60  82 111 147 185 222 265
#     4  10  20  32  45  62  84 113 151 190 229 266
#     4  10  18  28  39  57  82 108 139 181 218 256
#     4  10  18  28  45  60  80 110 146 182 221 260
#
# _framework density 15.478497000000001
#
# number of rings (size 3 to 8) (size 9 to 14) (size 15 to 20)
#    0.000    2.143    1.429    6.857    2.000    1.143 
#    2.571    0.000    0.000    0.000    0.000    0.000 
#    0.000    0.000    0.000    0.000    0.000   12.857 
#
# Total GULP energy -155985.263180 kJ/mol
# GULP energy per Si atom -5570.902256 kJ/mol
# Density = 1.544327 g / cm^3
# Si number density = 15.478497 Si / 1000 Ang^3
#
#
#
# Elastic Constant Matrix: (Units=GPa)
#
#
# Indices 1 2 3 4 5 6 
#
# 1 36.3612 15.4240 11.9795 0.0000 14.0154 0.0000
# 2 15.4240 42.5709 9.6356 0.0000 -5.9941 0.0000
# 3 11.9795 9.6356 60.1929 0.0000 11.0917 0.0000
# 4 0.0000 0.0000 0.0000 8.2152 0.0000 1.8625
# 5 14.0154 -5.9941 11.0917 0.0000 20.8011 0.0000
# 6 0.0000 0.0000 0.0000 1.8625 0.0000 14.5575
#
#
#
# Elastic Compliance Matrix: (Units=1/GPa)
#
#
# Indices 1 2 3 4 5 6 
#
# 1 0.056844 -0.027659 0.001820 0.000000 -0.047241 0.000000
# 2 -0.027659 0.039906 -0.007138 0.000000 0.033942 0.000000
# 3 0.001820 -0.007138 0.019960 0.000000 -0.013926 0.000000
# 4 0.000000 0.000000 0.000000 0.125361 0.000000 -0.016039
# 5 -0.047241 0.033942 -0.013926 0.000000 0.097111 0.000000
# 6 0.000000 0.000000 0.000000 -0.016039 0.000000 0.070745
#
#
# Mechanical properties :
#
#
# Convention : Reuss Voigt Hill
#
# Bulk Modulus (GPa) = 19.70220 23.68924 21.69572
# Shear Modulus (GPa) = 10.14610 15.52050 12.83330
#
# Velocity S-wave (km/s) = 2.56304 3.17000 2.88254
# Velocity P-wave (km/s) = 4.63846 5.36063 5.01257
#
# Compressibility (1/GPa) = 0.05075576
#
# Stress axis : x y z
#
# Youngs Moduli (GPa) = 17.59202 25.05877 50.10040
#
# Poissons Ratio (x) = 0.69310 -0.09117
# Poissons Ratio (y) = 0.48658 0.35762
# Poissons Ratio (z) = -0.03201 0.17887
#
# Static dielectric constant tensor:
#      x y z
#    x 1.531160 0.000000 0.006690 
#    y 0.000000 1.506720 0.000000 
#    z 0.006690 0.000000 1.572260 
# 
# From -- ./inp_files/286635.got.cif
#   From: 2010.05.17/outbox.cif.g08.bks.cpg/sg12_144_cif.got.tgz:286635.got - 2010.06.03 13:09:07.
