data_PCOD9171871
_publ_section_title
;
Structure prediction by ZEFSAII (Michael W. Deem and Ramdas Pophale) SiO2 
 PCOD9171871
Probable space group: C 2/M
;
_chemical_formula_sum "Si O2"
_cell_formula_units_Z 34
_cell_length_a 15.030206
_cell_length_b 10.000262
_cell_length_c 15.741409
_cell_angle_alpha 90.000000
_cell_angle_beta 148.164929
_cell_angle_gamma 90.000000
_cell_volume 1248.022895
_symmetry_space_group_name_H-M "C 2/M"
_symmetry_group_IT_number 12
_symmetry_cell_setting 'monoclinic'
loop_
_space_group_symop_operation_xyz
x,y,z
-x,y,-z
-x,-y,-z
x,-y,z
1/2+x,1/2+y,z
1/2-x,1/2+y,-z
1/2-x,1/2-y,-z
1/2+x,1/2-y,z
loop_
_atom_site_type_symbol
_atom_site_label
_atom_site_fract_x
_atom_site_fract_y
_atom_site_fract_z
Si Si1 0.117421 0.669240 0.888410
Si Si2 0.446477 0.000000 0.628343
Si Si3 0.118252 0.000000 0.859389
Si Si4 0.500000 0.000000 0.000000
Si Si5 0.625272 0.500000 0.494644
Si Si6 0.289149 0.500000 0.718414
Si Si7 0.206189 0.705713 0.252155
O O1 0.153968 0.500000 0.946588
O O2 0.054269 0.629086 0.742342
O O3 0.956958 0.692133 0.818496
O O4 0.329241 0.665707 0.081927
O O5 0.285309 0.000000 0.560521
O O6 0.367877 0.000000 0.473194
O O7 0.030939 0.000000 0.695631
O O8 0.963234 0.000000 0.805111
O O9 0.352557 0.115716 0.872911
O O10 0.652695 0.629806 0.577063
O O11 0.275786 0.360066 0.755729
#
# Coordination Sequence:
#
# PCOD9171871 Si02
#       7
#     8   4   4   2   4   4   8
#     4  10  18  31  51  85 121 149 171 216 283 344
#     4   8  19  28  44  78 123 144 173 214 271 343
#     4  10  18  28  51  83 121 149 177 215 279 344
#     4  10  22  44  60  70 106 152 200 240 260 320
#     4   8  18  32  51  77 112 157 182 211 268 338
#     4  11  20  31  54  87 109 142 184 234 281 325
#     4  10  21  37  57  80 110 147 194 230 272 325
#
# _framework density 27.243089999999999
#
# number of rings (size 3 to 8) (size 9 to 14) (size 15 to 20)
#    0.000    2.353    2.353    2.118    3.294    3.294 
#    0.000    0.000    0.000   11.294    0.000    1.647 
#    0.000    0.000    0.000    0.000    0.000    0.000 
#
# Total GULP energy -94786.649813 kJ/mol
# GULP energy per Si atom -5575.685283 kJ/mol
# Density = 2.718108 g / cm^3
# Si number density = 27.243090 Si / 1000 Ang^3
#
#
#
# Elastic Constant Matrix: (Units=GPa)
#
#
# Indices 1 2 3 4 5 6 
#
# 1 111.9351 42.1327 36.2528 -0.0001 28.4799 -0.0001
# 2 42.1327 277.6225 93.1100 -0.0001 9.5741 -0.0001
# 3 36.2528 93.1100 178.5773 -0.0002 7.9747 -0.0001
# 4 -0.0001 -0.0001 -0.0002 5.5852 -0.0001 -26.3310
# 5 28.4799 9.5741 7.9747 -0.0001 29.0961 -0.0001
# 6 -0.0001 -0.0001 -0.0001 -26.3310 -0.0001 -11.9555
#
#
#
# Elastic Compliance Matrix: (Units=1/GPa)
#
#
# Indices 1 2 3 4 5 6 
#
# 1 0.012817 -0.001021 -0.001543 0.000000 -0.011786 0.000000
# 2 -0.001021 0.004466 -0.002126 0.000000 0.000113 0.000000
# 3 -0.001543 -0.002126 0.007009 0.000000 0.000289 0.000000
# 4 0.000000 0.000000 0.000000 0.015729 0.000000 -0.034642
# 5 -0.011786 0.000113 0.000289 0.000000 0.045789 0.000000
# 6 0.000000 0.000000 0.000000 -0.034642 0.000000 -0.007348
#
#
# Mechanical properties :
#
#
# Convention : Reuss Voigt Hill
#
# Bulk Modulus (GPa) = 67.06699 101.23622 84.15161
# Shear Modulus (GPa) = 53.87148 30.98779 42.42964
#
# Velocity S-wave (km/s) = 4.45166 3.37628 3.95073
# Velocity P-wave (km/s) = 7.14804 7.24155 7.19495
#
# Compressibility (1/GPa) = 0.01491046
#
# Stress axis : x y z
#
# Youngs Moduli (GPa) = 78.02324 223.90073 142.67563
#
# Poissons Ratio (x) = 0.22862 0.22017
# Poissons Ratio (y) = 0.07967 0.30339
# Poissons Ratio (z) = 0.12040 0.47611
#
# Static dielectric constant tensor:
#      x y z
#    x 2.087700 0.000000 -0.017130 
#    y 0.000000 2.205220 0.000000 
#    z -0.017130 0.000000 2.120630 
# 
# From -- ./inp_files/325045.got.cif
#   From: 2010.05.17/outbox.cif.g08.bks.cpg/sg12_163_cif.got.tgz:325045.got - 2010.06.03 13:09:07.
