data_PCOD9171055
_publ_section_title
;
Structure prediction by ZEFSAII (Michael W. Deem and Ramdas Pophale) SiO2 
 PCOD9171055
Probable space group: C 2/M
;
_chemical_formula_sum "Si O2"
_cell_formula_units_Z 56
_cell_length_a 23.707352
_cell_length_b 13.545649
_cell_length_c 27.959946
_cell_angle_alpha 90.000000
_cell_angle_beta 21.162894
_cell_angle_gamma 90.000000
_cell_volume 3241.539360
_symmetry_space_group_name_H-M "C 2/M"
_symmetry_group_IT_number 12
_symmetry_cell_setting 'monoclinic'
loop_
_space_group_symop_operation_xyz
x,y,z
-x,y,-z
-x,-y,-z
x,-y,z
1/2+x,1/2+y,z
1/2-x,1/2+y,-z
1/2-x,1/2-y,-z
1/2+x,1/2-y,z
loop_
_atom_site_type_symbol
_atom_site_label
_atom_site_fract_x
_atom_site_fract_y
_atom_site_fract_z
Si Si1 0.850567 0.611975 0.046941
Si Si2 0.406830 0.609058 0.524386
Si Si3 0.492718 0.612103 0.301700
Si Si4 0.490567 0.771453 0.382823
Si Si5 0.824745 0.229976 0.146148
Si Si6 0.627746 0.770934 0.782945
Si Si7 0.685531 0.385249 0.655672
O O1 0.909686 0.500000 0.004012
O O2 0.963145 0.680772 0.926708
O O3 0.679680 0.610019 0.158871
O O4 0.836225 0.663859 0.110131
O O5 0.500000 0.606709 0.500000
O O6 0.407296 0.500000 0.502668
O O7 0.484821 0.687709 0.428205
O O8 0.235018 0.646336 0.673508
O O9 0.438706 0.500000 0.359173
O O10 0.448633 0.706760 0.369056
O O11 0.430724 0.626677 0.297284
O O12 0.667859 0.813869 0.245471
O O13 0.355242 0.848057 0.503111
O O14 0.803179 0.239120 0.220040
O O15 0.000000 0.184833 0.000000
O O16 0.630515 0.680669 0.743826
O O17 0.692772 0.500000 0.663042
#
# Coordination Sequence:
#
# PCOD9171055 Si02
#       7
#     8   8   8   8   8   8   8
#     4   9  18  31  53  81 108 136 161 197 253 317
#     4  10  18  26  43  72 106 136 157 193 251 310
#     4   9  18  34  54  79 103 129 170 211 255 309
#     4  10  18  33  53  73 102 131 170 207 257 305
#     4   9  18  31  49  73 102 131 160 202 246 307
#     4  10  19  32  48  72 106 136 170 206 243 307
#     4  10  22  36  53  72  96 137 182 222 254 284
#
# _framework density 17.275742000000001
#
# number of rings (size 3 to 8) (size 9 to 14) (size 15 to 20)
#    0.000    2.429    1.429    1.286    0.000    4.286 
#    0.000    1.429    0.000   12.857    0.000    0.000 
#    0.000    0.000    0.000    0.000    0.000    0.000 
#
# Total GULP energy -155868.315838 kJ/mol
# GULP energy per Si atom -5566.725566 kJ/mol
# Density = 1.723642 g / cm^3
# Si number density = 17.275742 Si / 1000 Ang^3
#
#
#
# Elastic Constant Matrix: (Units=GPa)
#
#
# Indices 1 2 3 4 5 6 
#
# 1 101.7927 46.8258 33.5482 0.0035 0.4452 -0.0003
# 2 46.8258 68.0976 15.6077 0.0061 8.8082 -0.0075
# 3 33.5482 15.6077 40.4398 0.0099 10.9507 -0.0059
# 4 0.0035 0.0061 0.0099 9.0068 -0.0067 2.4816
# 5 0.4452 8.8082 10.9507 -0.0067 18.5078 0.0021
# 6 -0.0003 -0.0075 -0.0059 2.4816 0.0021 17.4779
#
#
#
# Elastic Compliance Matrix: (Units=1/GPa)
#
#
# Indices 1 2 3 4 5 6 
#
# 1 0.021137 -0.012679 -0.016835 0.000035 0.015487 -0.000018
# 2 -0.012679 0.024074 0.005057 -0.000032 -0.014144 0.000018
# 3 -0.016835 0.005057 0.044398 -0.000075 -0.028272 0.000031
# 4 0.000035 -0.000032 -0.000075 0.115547 0.000102 -0.016406
# 5 0.015487 -0.014144 -0.028272 0.000102 0.077118 -0.000039
# 6 -0.000018 0.000018 0.000031 -0.016406 -0.000039 0.059545
#
#
# Mechanical properties :
#
#
# Convention : Reuss Voigt Hill
#
# Bulk Modulus (GPa) = 24.57302 44.69925 34.63614
# Shear Modulus (GPa) = 12.36711 16.62172 14.49442
#
# Velocity S-wave (km/s) = 2.67847 3.10521 2.89970
# Velocity P-wave (km/s) = 4.88062 6.22789 5.59496
#
# Compressibility (1/GPa) = 0.04069504
#
# Stress axis : x y z
#
# Youngs Moduli (GPa) = 47.31012 41.53913 22.52343
#
# Poissons Ratio (x) = 0.52668 0.37919
# Poissons Ratio (y) = 0.59985 -0.11391
# Poissons Ratio (z) = 0.79648 -0.21008
#
# Static dielectric constant tensor:
#      x y z
#    x 1.583020 0.000000 -0.013560 
#    y 0.000000 1.579180 0.000000 
#    z -0.013560 0.000000 1.628850 
# 
# From -- ./inp_files/368076.got.cif
#   From: 2010.05.17/outbox.cif.g08.bks.cpg/sg12_185_cif.got.tgz:368076.got - 2010.06.03 13:09:07.
