data_PCOD9171296
_publ_section_title
;
Structure prediction by ZEFSAII (Michael W. Deem and Ramdas Pophale) SiO2 
 PCOD9171296
Probable space group: C 2/M
;
_chemical_formula_sum "Si O2"
_cell_formula_units_Z 56
_cell_length_a 19.981529
_cell_length_b 7.574080
_cell_length_c 29.444265
_cell_angle_alpha 90.000000
_cell_angle_beta 39.399606
_cell_angle_gamma 90.000000
_cell_volume 2828.427585
_symmetry_space_group_name_H-M "C 2/M"
_symmetry_group_IT_number 12
_symmetry_cell_setting 'monoclinic'
loop_
_space_group_symop_operation_xyz
x,y,z
-x,y,-z
-x,-y,-z
x,-y,z
1/2+x,1/2+y,z
1/2-x,1/2+y,-z
1/2-x,1/2-y,-z
1/2+x,1/2-y,z
loop_
_atom_site_type_symbol
_atom_site_label
_atom_site_fract_x
_atom_site_fract_y
_atom_site_fract_z
Si Si1 0.397165 0.707569 0.944104
Si Si2 0.964013 0.710290 0.742813
Si Si3 0.129079 0.712531 0.813074
Si Si4 0.699729 0.796758 0.099684
Si Si5 0.861702 0.787623 0.703310
Si Si6 0.101203 0.215914 0.418957
Si Si7 0.334900 0.215108 0.310060
O O1 0.374591 0.500000 0.950050
O O2 0.519274 0.728197 0.892006
O O3 0.371419 0.792417 0.908724
O O4 0.312330 0.779214 0.024857
O O5 0.966375 0.500000 0.750086
O O6 0.869215 0.784319 0.823853
O O7 0.937234 0.737600 0.704616
O O8 0.076728 0.777809 0.701240
O O9 0.128370 0.500000 0.814487
O O10 0.240811 0.773733 0.774784
O O11 0.131656 0.766675 0.758617
O O12 0.720459 0.000000 0.101642
O O13 0.897806 0.728317 0.634371
O O14 0.857891 0.000000 0.703520
O O15 0.214128 0.271394 0.380306
O O16 0.000000 0.276466 0.500000
O O17 0.099619 0.000000 0.419991
O O18 0.333044 0.000000 0.311582
#
# Coordination Sequence:
#
# PCOD9171296 Si02
#       7
#     8   8   8   8   8   8   8
#     4  10  18  27  45  72  93 115 159 210 242 268
#     4  10  18  31  49  67  94 130 160 189 231 287
#     4   9  16  31  49  64  90 127 162 195 234 283
#     4   9  18  31  45  64  94 130 159 190 239 288
#     4   9  19  32  49  72  97 124 156 196 237 277
#     4   8  14  28  51  75  95 119 156 196 229 272
#     4   8  14  26  47  69  88 122 164 189 220 279
#
# _framework density 19.798985999999999
#
# number of rings (size 3 to 8) (size 9 to 14) (size 15 to 20)
#    0.000    3.000    1.429    2.143    0.000    1.714 
#    0.000    1.429    0.000    4.714    0.000    0.000 
#    0.000    0.000    0.000    0.000    0.000    0.000 
#
# Total GULP energy -156066.552507 kJ/mol
# GULP energy per Si atom -5573.805447 kJ/mol
# Density = 1.975392 g / cm^3
# Si number density = 19.798986 Si / 1000 Ang^3
#
#
#
# Elastic Constant Matrix: (Units=GPa)
#
#
# Indices 1 2 3 4 5 6 
#
# 1 129.0759 -2.5631 69.3956 -0.0001 -17.7257 0.0141
# 2 -2.5631 42.9819 4.6715 0.0070 -1.6783 0.0144
# 3 69.3956 4.6715 154.4069 -0.0011 -21.0001 -0.0001
# 4 -0.0001 0.0070 -0.0011 2.9852 -0.0015 0.6462
# 5 -17.7257 -1.6783 -21.0001 -0.0015 21.5093 0.0008
# 6 0.0141 0.0144 -0.0001 0.6462 0.0008 18.5661
#
#
#
# Elastic Compliance Matrix: (Units=1/GPa)
#
#
# Indices 1 2 3 4 5 6 
#
# 1 0.010685 0.001280 -0.004185 0.000000 0.004819 -0.000009
# 2 0.001280 0.023528 -0.001031 -0.000051 0.001884 -0.000018
# 3 -0.004185 -0.001031 0.009120 0.000008 0.005374 0.000003
# 4 0.000000 -0.000051 0.000008 0.337523 0.000029 -0.011747
# 5 0.004819 0.001884 0.005374 0.000029 0.055857 -0.000009
# 6 -0.000009 -0.000018 0.000003 -0.011747 -0.000009 0.054270
#
#
# Mechanical properties :
#
#
# Convention : Reuss Voigt Hill
#
# Bulk Modulus (GPa) = 28.20106 52.16363 40.18235
# Shear Modulus (GPa) = 9.79097 25.60950 17.70024
#
# Velocity S-wave (km/s) = 2.22619 3.60039 2.99322
# Velocity P-wave (km/s) = 4.56974 6.60966 5.68199
#
# Compressibility (1/GPa) = 0.03545966
#
# Stress axis : x y z
#
# Youngs Moduli (GPa) = 93.59085 42.50333 109.65434
#
# Poissons Ratio (x) = -0.05441 0.45895
# Poissons Ratio (y) = -0.11982 0.11304
# Poissons Ratio (z) = 0.39172 0.04382
#
# Static dielectric constant tensor:
#      x y z
#    x 1.677720 0.000000 -0.023350 
#    y 0.000000 1.779500 0.000000 
#    z -0.023350 0.000000 1.709850 
# 
# From -- ./inp_files/342028.got.cif
#   From: 2010.05.17/outbox.cif.g08.bks.cpg/sg12_172_cif.got.tgz:342028.got - 2010.06.03 13:09:07.
