data_PCOD9171524
_publ_section_title
;
Structure prediction by ZEFSAII (Michael W. Deem and Ramdas Pophale) SiO2 
 PCOD9171524
Probable space group: C 2/M
;
_chemical_formula_sum "Si O2"
_cell_formula_units_Z 64
_cell_length_a 23.351918
_cell_length_b 8.885538
_cell_length_c 21.915700
_cell_angle_alpha 90.000000
_cell_angle_beta 121.681365
_cell_angle_gamma 90.000000
_cell_volume 3869.741820
_symmetry_space_group_name_H-M "C 2/M"
_symmetry_group_IT_number 12
_symmetry_cell_setting 'monoclinic'
loop_
_space_group_symop_operation_xyz
x,y,z
-x,y,-z
-x,-y,-z
x,-y,z
1/2+x,1/2+y,z
1/2-x,1/2+y,-z
1/2-x,1/2-y,-z
1/2+x,1/2-y,z
loop_
_atom_site_type_symbol
_atom_site_label
_atom_site_fract_x
_atom_site_fract_y
_atom_site_fract_z
Si Si1 0.191858 0.826095 0.640329
Si Si2 0.207442 0.320204 0.775221
Si Si3 0.782801 0.672549 0.926200
Si Si4 0.035477 0.836460 0.584607
Si Si5 0.547545 0.175401 0.368641
Si Si6 0.073250 0.317892 0.775999
Si Si7 0.810733 0.317689 0.495079
Si Si8 0.144173 0.172618 0.927159
O O1 0.223116 0.749019 0.717762
O O2 0.113452 0.824776 0.614675
O O3 0.196438 0.741689 0.578279
O O4 0.213694 0.000000 0.645680
O O5 0.205936 0.500000 0.770092
O O6 0.262127 0.265920 0.855123
O O7 0.133931 0.272337 0.762776
O O8 0.798182 0.500000 0.919258
O O9 0.715032 0.672051 0.929743
O O10 0.840033 0.745011 0.000555
O O11 0.000000 0.838160 0.500000
O O12 0.004162 0.701623 0.604872
O O13 0.021787 0.000000 0.607478
O O14 0.500700 0.235469 0.287320
O O15 0.619077 0.234909 0.433259
O O16 0.558745 0.000000 0.362555
O O17 0.073585 0.500000 0.776924
O O18 0.093436 0.256024 0.853283
O O19 0.809860 0.500000 0.494185
O O20 0.750000 0.250000 0.500000
O O21 0.124444 0.000000 0.925938
#
# Coordination Sequence:
#
# PCOD9171524 Si02
#       8
#     8   8   8   8   8   8   8   8
#     4  11  21  33  50  72  99 127 160 200 244 292
#     4  10  18  28  44  67  96 127 161 199 239 283
#     4   9  16  26  39  57  87 127 165 197 232 276
#     4  10  19  30  46  71  98 124 153 193 242 289
#     4  10  20  33  50  71  95 125 161 201 243 291
#     4   9  17  28  42  64  94 125 158 196 238 284
#     4  11  24  40  56  71  92 125 165 206 249 295
#     4   9  16  25  38  58  86 124 165 197 230 276
#
# _framework density 16.538571000000001
#
# number of rings (size 3 to 8) (size 9 to 14) (size 15 to 20)
#    0.000    2.125    2.500    1.875    0.000    5.250 
#    0.000    0.000    0.000    0.000    0.000    0.000 
#    0.000    1.000    0.000   10.750    0.000    5.250 
#
# Total GULP energy -178158.034325 kJ/mol
# GULP energy per Si atom -5567.438573 kJ/mol
# Density = 1.650093 g / cm^3
# Si number density = 16.538571 Si / 1000 Ang^3
#
#
#
# Elastic Constant Matrix: (Units=GPa)
#
#
# Indices 1 2 3 4 5 6 
#
# 1 38.1388 17.7874 38.1883 0.0000 -0.1550 0.0000
# 2 17.7874 56.8363 48.6653 0.0000 -1.4203 0.0000
# 3 38.1883 48.6653 158.2014 0.0000 0.4775 0.0000
# 4 0.0000 0.0000 0.0000 32.6083 0.0000 -2.5369
# 5 -0.1550 -1.4203 0.4775 0.0000 4.3887 0.0000
# 6 0.0000 0.0000 0.0000 -2.5369 0.0000 15.3678
#
#
#
# Elastic Compliance Matrix: (Units=1/GPa)
#
#
# Indices 1 2 3 4 5 6 
#
# 1 0.035652 -0.005130 -0.007029 0.000000 0.000363 0.000000
# 2 -0.005130 0.024948 -0.006462 0.000000 0.008596 0.000000
# 3 -0.007029 -0.006462 0.010016 0.000000 -0.003429 0.000000
# 4 0.000000 0.000000 0.000000 0.031066 0.000000 0.005128
# 5 0.000363 0.008596 -0.003429 0.000000 0.231023 0.000000
# 6 0.000000 0.000000 0.000000 0.005128 0.000000 0.065918
#
#
# Mechanical properties :
#
#
# Convention : Reuss Voigt Hill
#
# Bulk Modulus (GPa) = 29.96365 51.38427 40.67396
# Shear Modulus (GPa) = 11.18595 20.37533 15.78064
#
# Velocity S-wave (km/s) = 2.60350 3.51378 3.09232
# Velocity P-wave (km/s) = 5.21483 6.89920 6.11528
#
# Compressibility (1/GPa) = 0.03337377
#
# Stress axis : x y z
#
# Youngs Moduli (GPa) = 28.04872 40.08412 99.84066
#
# Poissons Ratio (x) = 0.20563 0.70180
# Poissons Ratio (y) = 0.14389 0.64516
# Poissons Ratio (z) = 0.19716 0.25902
#
# Static dielectric constant tensor:
#      x y z
#    x 1.542050 0.000000 0.028120 
#    y 0.000000 1.610420 0.000000 
#    z 0.028120 0.000000 1.597520 
# 
# From -- ./inp_files/323718.got.cif
#   From: 2010.05.17/outbox.cif.g08.bks.cpg/sg12_162_cif.got.tgz:323718.got - 2010.06.03 13:09:07.
