data_PCOD9171050
_publ_section_title
;
Structure prediction by ZEFSAII (Michael W. Deem and Ramdas Pophale) SiO2 
 PCOD9171050
Probable space group: C 2/M
;
_chemical_formula_sum "Si O2"
_cell_formula_units_Z 44
_cell_length_a 20.613504
_cell_length_b 25.046993
_cell_length_c 17.300041
_cell_angle_alpha 90.000000
_cell_angle_beta 19.283057
_cell_angle_gamma 90.000000
_cell_volume 2949.701199
_symmetry_space_group_name_H-M "C 2/M"
_symmetry_group_IT_number 12
_symmetry_cell_setting 'monoclinic'
loop_
_space_group_symop_operation_xyz
x,y,z
-x,y,-z
-x,-y,-z
x,-y,z
1/2+x,1/2+y,z
1/2-x,1/2+y,-z
1/2-x,1/2-y,-z
1/2+x,1/2-y,z
loop_
_atom_site_type_symbol
_atom_site_label
_atom_site_fract_x
_atom_site_fract_y
_atom_site_fract_z
Si Si1 0.577328 0.751041 0.999184
Si Si2 0.686778 0.190271 0.592127
Si Si3 0.855635 0.937351 0.235412
Si Si4 0.000000 0.724606 0.500000
Si Si5 0.448009 0.642505 0.869976
Si Si6 0.988516 0.356011 0.369591
O O1 0.810115 0.758839 0.733779
O O2 0.500000 0.744239 0.000000
O O3 0.463572 0.798999 0.169457
O O4 0.550093 0.694484 0.075022
O O5 0.750000 0.250000 0.500000
O O6 0.610730 0.342080 0.622488
O O7 0.584272 0.166146 0.631158
O O8 0.649652 0.906445 0.455669
O O9 0.966981 0.907892 0.179994
O O10 0.824845 0.000000 0.283271
O O11 0.000000 0.930721 0.000000
O O12 0.956594 0.686804 0.474617
O O13 0.221959 0.633910 0.102102
#
# Coordination Sequence:
#
# PCOD9171050 Si02
#       6
#     8   8   8   4   8   8
#     4  10  18  28  43  63  87 115 147 179 213 254
#     4   9  18  29  43  61  84 115 149 181 212 252
#     4  10  19  30  44  63  87 114 147 184 216 249
#     4  10  18  26  43  62  86 118 147 178 212 250
#     4   9  18  31  45  60  85 118 149 179 213 252
#     4  10  19  31  44  62  87 117 150 181 213 250
#
# _framework density 14.916765
#
# number of rings (size 3 to 8) (size 9 to 14) (size 15 to 20)
#    0.000    2.364    0.000    6.000    0.000    8.727 
#    0.000    2.273    0.000    0.000    0.000    0.000 
#    0.000   11.636    0.000   27.636    0.000    0.000 
#
# Total GULP energy -122507.898478 kJ/mol
# GULP energy per Si atom -5568.540840 kJ/mol
# Density = 1.488281 g / cm^3
# Si number density = 14.916765 Si / 1000 Ang^3
#
#
#
# Elastic Constant Matrix: (Units=GPa)
#
#
# Indices 1 2 3 4 5 6 
#
# 1 39.4592 19.2072 39.7645 -0.2491 -7.9397 -0.4012
# 2 19.2072 65.5978 58.6642 -0.1732 -4.4317 -0.2403
# 3 39.7645 58.6642 160.3135 -0.1424 -12.7794 -0.2920
# 4 -0.2491 -0.1732 -0.1424 8.1198 0.0060 -10.4128
# 5 -7.9397 -4.4317 -12.7794 0.0060 19.4063 -0.0131
# 6 -0.4012 -0.2403 -0.2920 -10.4128 -0.0131 -10.2282
#
#
#
# Elastic Compliance Matrix: (Units=1/GPa)
#
#
# Indices 1 2 3 4 5 6 
#
# 1 0.035890 -0.003842 -0.006752 -0.000245 0.009359 -0.000888
# 2 -0.003842 0.023072 -0.007594 0.000009 -0.001304 -0.000182
# 3 -0.006752 -0.007594 0.010906 -0.000007 0.002685 0.000135
# 4 -0.000245 0.000009 -0.000007 0.053419 -0.000156 -0.054374
# 5 0.009359 -0.001304 0.002685 -0.000156 0.056829 -0.000328
# 6 -0.000888 -0.000182 0.000135 -0.054374 -0.000328 -0.042378
#
#
# Mechanical properties :
#
#
# Convention : Reuss Voigt Hill
#
# Bulk Modulus (GPa) = 29.85844 55.62692 42.74268
# Shear Modulus (GPa) = 26.98652 13.30856 20.14754
#
# Velocity S-wave (km/s) = 4.25801 2.99019 3.67913
# Velocity P-wave (km/s) = 6.65089 7.02098 6.83844
#
# Compressibility (1/GPa) = 0.03349136
#
# Stress axis : x y z
#
# Youngs Moduli (GPa) = 27.86320 43.34250 91.69410
#
# Poissons Ratio (x) = 0.16652 0.61912
# Poissons Ratio (y) = 0.10705 0.69634
# Poissons Ratio (z) = 0.18813 0.32915
#
# Static dielectric constant tensor:
#      x y z
#    x 1.503070 -0.000030 0.007140 
#    y -0.000030 1.465580 0.000050 
#    z 0.007140 0.000050 1.565870 
# 
# From -- ./inp_files/286165.got.cif
#   From: 2010.05.17/outbox.cif.g08.bks.cpg/sg12_144_cif.got.tgz:286165.got - 2010.06.03 13:09:07.
