data_PCOD9171828
_publ_section_title
;
Structure prediction by ZEFSAII (Michael W. Deem and Ramdas Pophale) SiO2 
 PCOD9171828
Probable space group: C 2/M
;
_chemical_formula_sum "Si O2"
_cell_formula_units_Z 34
_cell_length_a 19.551815
_cell_length_b 7.692726
_cell_length_c 9.866310
_cell_angle_alpha 90.000000
_cell_angle_beta 122.466137
_cell_angle_gamma 90.000000
_cell_volume 1252.029918
_symmetry_space_group_name_H-M "C 2/M"
_symmetry_group_IT_number 12
_symmetry_cell_setting 'monoclinic'
loop_
_space_group_symop_operation_xyz
x,y,z
-x,y,-z
-x,-y,-z
x,-y,z
1/2+x,1/2+y,z
1/2-x,1/2+y,-z
1/2-x,1/2-y,-z
1/2+x,1/2-y,z
loop_
_atom_site_type_symbol
_atom_site_label
_atom_site_fract_x
_atom_site_fract_y
_atom_site_fract_z
Si Si1 0.500000 0.500000 0.000000
Si Si2 0.388885 0.197546 0.375520
Si Si3 0.161170 0.803697 0.958965
Si Si4 0.062123 0.713543 0.281088
Si Si5 0.784520 0.693924 0.717792
O O1 0.512843 0.344467 0.132128
O O2 0.390202 0.289300 0.231683
O O3 0.439210 0.254794 0.559804
O O4 0.294667 0.200555 0.325541
O O5 0.409844 0.000000 0.367146
O O6 0.158327 0.000000 0.007317
O O7 0.250000 0.750000 0.000000
O O8 0.154949 0.692101 0.087316
O O9 0.048954 0.500000 0.250745
O O10 0.156166 0.749409 0.337689
O O11 0.754983 0.500000 0.662169
#
# Coordination Sequence:
#
# PCOD9171828 Si02
#       5
#     2   8   8   8   8
#     4  12  26  40  68  72 120 156 206 236 296 326
#     4  10  19  33  55  85 121 147 182 232 289 346
#     4  10  18  28  48  80 119 152 183 215 281 357
#     4  10  24  40  59  86 110 149 198 244 285 339
#     4  10  19  33  55  85 121 147 182 232 289 346
#
# _framework density 27.155899999999999
#
# number of rings (size 3 to 8) (size 9 to 14) (size 15 to 20)
#    0.000    1.882    0.000    7.412    6.588    0.000 
#    0.000    0.000    0.000    2.824    0.000    6.588 
#    0.000    0.000    0.000    0.000    0.000    0.000 
#
# Total GULP energy -94820.833096 kJ/mol
# GULP energy per Si atom -5577.696064 kJ/mol
# Density = 2.709409 g / cm^3
# Si number density = 27.155900 Si / 1000 Ang^3
#
#
#
# Elastic Constant Matrix: (Units=GPa)
#
#
# Indices 1 2 3 4 5 6 
#
# 1 65.2426 -2.2846 40.3308 0.0000 1.4756 0.0000
# 2 -2.2846 133.7481 63.4252 0.0000 -3.2481 0.0000
# 3 40.3308 63.4252 208.1600 0.0000 -40.6374 0.0000
# 4 0.0000 0.0000 0.0000 44.6736 0.0000 -3.6143
# 5 1.4756 -3.2481 -40.6374 0.0000 78.4261 0.0000
# 6 0.0000 0.0000 0.0000 -3.6143 0.0000 15.9472
#
#
#
# Elastic Compliance Matrix: (Units=1/GPa)
#
#
# Indices 1 2 3 4 5 6 
#
# 1 0.018522 0.002582 -0.004920 0.000000 -0.002791 0.000000
# 2 0.002582 0.009191 -0.003600 0.000000 -0.001533 0.000000
# 3 -0.004920 -0.003600 0.007613 0.000000 0.003888 0.000000
# 4 0.000000 0.000000 0.000000 0.022803 0.000000 0.005168
# 5 -0.002791 -0.001533 0.003888 0.000000 0.014755 0.000000
# 6 0.000000 0.000000 0.000000 0.005168 0.000000 0.063878
#
#
# Mechanical properties :
#
#
# Convention : Reuss Voigt Hill
#
# Bulk Modulus (GPa) = 42.64426 67.78818 55.21622
# Shear Modulus (GPa) = 31.95798 48.18801 40.07299
#
# Velocity S-wave (km/s) = 3.43422 4.21705 3.84561
# Velocity P-wave (km/s) = 5.60917 6.98055 6.33209
#
# Compressibility (1/GPa) = 0.02344982
#
# Stress axis : x y z
#
# Youngs Moduli (GPa) = 53.98845 108.80517 131.34965
#
# Poissons Ratio (x) = -0.28092 0.64628
# Poissons Ratio (y) = -0.13939 0.47285
# Poissons Ratio (z) = 0.26564 0.39169
#
# Static dielectric constant tensor:
#      x y z
#    x 2.197380 0.000000 0.105650 
#    y 0.000000 1.974820 0.000000 
#    z 0.105650 0.000000 2.235120 
# 
# From -- ./inp_files/180370.got.cif
#   From: 2010.05.17/outbox.cif.g08.bks.cpg/sg12_91_cif.got.tgz:180370.got - 2010.06.03 13:09:07.
