data_PCOD9171547
_publ_section_title
;
Structure prediction by ZEFSAII (Michael W. Deem and Ramdas Pophale) SiO2 
 PCOD9171547
Probable space group: C 2/M
;
_chemical_formula_sum "Si O2"
_cell_formula_units_Z 64
_cell_length_a 25.573936
_cell_length_b 7.906922
_cell_length_c 18.502483
_cell_angle_alpha 90.000000
_cell_angle_beta 76.468194
_cell_angle_gamma 90.000000
_cell_volume 3637.546954
_symmetry_space_group_name_H-M "C 2/M"
_symmetry_group_IT_number 12
_symmetry_cell_setting 'monoclinic'
loop_
_space_group_symop_operation_xyz
x,y,z
-x,y,-z
-x,-y,-z
x,-y,z
1/2+x,1/2+y,z
1/2-x,1/2+y,-z
1/2-x,1/2-y,-z
1/2+x,1/2-y,z
loop_
_atom_site_type_symbol
_atom_site_label
_atom_site_fract_x
_atom_site_fract_y
_atom_site_fract_z
Si Si1 0.311344 0.796567 0.499633
Si Si2 0.802205 0.302009 0.814036
Si Si3 0.660046 0.797898 0.662360
Si Si4 0.011917 0.204123 0.078225
Si Si5 0.866888 0.702695 0.928320
Si Si6 0.282905 0.794428 0.661656
Si Si7 0.900937 0.801121 0.178850
Si Si8 0.187576 0.302161 0.906806
O O1 0.250000 0.750000 0.500000
O O2 0.344676 0.735232 0.419220
O O3 0.317090 0.737117 0.580459
O O4 0.316200 0.000000 0.498846
O O5 0.816097 0.500000 0.802200
O O6 0.841005 0.228334 0.862960
O O7 0.802758 0.229722 0.732750
O O8 0.741357 0.288277 0.862914
O O9 0.720721 0.756730 0.669412
O O10 0.618712 0.724364 0.733278
O O11 0.654283 0.000000 0.664703
O O12 0.070050 0.263805 0.084658
O O13 0.961347 0.258917 0.143150
O O14 0.013533 0.000000 0.077444
O O15 0.000000 0.260636 0.000000
O O16 0.859209 0.500000 0.931061
O O17 0.835799 0.765987 0.009923
O O18 0.283329 0.000000 0.662578
O O19 0.858656 0.714592 0.138561
O O20 0.898700 0.000000 0.162054
O O21 0.299026 0.000000 0.089207
#
# Coordination Sequence:
#
# PCOD9171547 Si02
#       8
#     8   8   8   8   8   8   8   8
#     4   8  15  26  41  64  93 126 156 188 227 278
#     4  10  20  33  49  71 100 132 163 193 230 284
#     4  10  18  28  44  69  99 123 156 197 236 282
#     4  10  21  37  54  70  89 121 164 205 245 288
#     4  10  22  36  50  71  97 127 162 201 243 280
#     4   9  16  28  46  66  95 132 161 185 229 282
#     4  11  21  33  50  70  94 125 161 199 243 290
#     4  11  21  32  48  71  98 128 162 197 236 280
#
# _framework density 17.594273000000001
#
# number of rings (size 3 to 8) (size 9 to 14) (size 15 to 20)
#    0.000    2.125    2.500    1.500    0.000    2.750 
#    0.000    0.000    0.000    0.000    0.000    0.875 
#    0.000    7.000    0.000    0.000    0.000    0.000 
#
# Total GULP energy -178426.789950 kJ/mol
# GULP energy per Si atom -5575.837186 kJ/mol
# Density = 1.755423 g / cm^3
# Si number density = 17.594273 Si / 1000 Ang^3
#
#
#
# Elastic Constant Matrix: (Units=GPa)
#
#
# Indices 1 2 3 4 5 6 
#
# 1 59.5430 -9.6310 59.9989 0.0000 16.1967 0.0000
# 2 -9.6310 19.2046 -1.4069 0.0000 2.2956 0.0000
# 3 59.9989 -1.4069 175.4113 0.0000 4.4817 0.0000
# 4 0.0000 0.0000 0.0000 4.1091 0.0000 -0.8782
# 5 16.1967 2.2956 4.4817 0.0000 16.4484 0.0000
# 6 0.0000 0.0000 0.0000 -0.8782 0.0000 16.4080
#
#
#
# Elastic Compliance Matrix: (Units=1/GPa)
#
#
# Indices 1 2 3 4 5 6 
#
# 1 0.052208 0.031122 -0.016297 0.000000 -0.051312 0.000000
# 2 0.031122 0.071573 -0.009096 0.000000 -0.038156 0.000000
# 3 -0.016297 -0.009096 0.010835 0.000000 0.014365 0.000000
# 4 0.000000 0.000000 0.000000 0.246181 0.000000 0.013177
# 5 -0.051312 -0.038156 0.014365 0.000000 0.112734 0.000000
# 6 0.000000 0.000000 0.000000 0.013177 0.000000 0.061651
#
#
# Mechanical properties :
#
#
# Convention : Reuss Voigt Hill
#
# Bulk Modulus (GPa) = 6.84587 39.12008 22.98298
# Shear Modulus (GPa) = 8.44002 21.07296 14.75649
#
# Velocity S-wave (km/s) = 2.19259 3.46456 2.89919
# Velocity P-wave (km/s) = 3.21081 6.18765 4.92932
#
# Compressibility (1/GPa) = 0.14607337
#
# Stress axis : x y z
#
# Youngs Moduli (GPa) = 19.15417 13.97178 92.29157
#
# Poissons Ratio (x) = -0.43483 1.50407
# Poissons Ratio (y) = -0.59611 0.83950
# Poissons Ratio (z) = 0.31215 0.12709
#
# Static dielectric constant tensor:
#      x y z
#    x 1.551510 0.000000 0.007690 
#    y 0.000000 1.630410 0.000000 
#    z 0.007690 0.000000 1.661140 
# 
# From -- ./inp_files/287516.got.cif
#   From: 2010.05.17/outbox.cif.g08.bks.cpg/sg12_144_cif.got.tgz:287516.got - 2010.06.03 13:09:07.
