data_PCOD9171951
_publ_section_title
;
Structure prediction by ZEFSAII (Michael W. Deem and Ramdas Pophale) SiO2 
 PCOD9171951
Probable space group: C 2/M
;
_chemical_formula_sum "Si O2"
_cell_formula_units_Z 64
_cell_length_a 32.545486
_cell_length_b 9.097015
_cell_length_c 31.153007
_cell_angle_alpha 90.000000
_cell_angle_beta 29.710662
_cell_angle_gamma 90.000000
_cell_volume 4571.289560
_symmetry_space_group_name_H-M "C 2/M"
_symmetry_group_IT_number 12
_symmetry_cell_setting 'monoclinic'
loop_
_space_group_symop_operation_xyz
x,y,z
-x,y,-z
-x,-y,-z
x,-y,z
1/2+x,1/2+y,z
1/2-x,1/2+y,-z
1/2-x,1/2-y,-z
1/2+x,1/2-y,z
loop_
_atom_site_type_symbol
_atom_site_label
_atom_site_fract_x
_atom_site_fract_y
_atom_site_fract_z
Si Si1 0.298175 0.175477 0.995923
Si Si2 0.211348 0.824941 0.469511
Si Si3 0.583886 0.175760 0.333142
Si Si4 0.454245 0.824716 0.802651
Si Si5 0.611882 0.175554 0.483213
Si Si6 0.600465 0.330962 0.405481
Si Si7 0.333340 0.823739 0.832253
Si Si8 0.630317 0.674658 0.635411
O O1 0.394268 0.205132 0.897791
O O2 0.286807 0.000000 0.005056
O O3 0.250000 0.250000 0.000000
O O4 0.252511 0.243409 0.078372
O O5 0.167594 0.750592 0.468773
O O6 0.300793 0.755297 0.398330
O O7 0.156538 0.797058 0.562080
O O8 0.217871 0.000000 0.457835
O O9 0.485461 0.208337 0.419059
O O10 0.619178 0.257638 0.342774
O O11 0.629632 0.215441 0.247560
O O12 0.590965 0.000000 0.333002
O O13 0.400717 0.788080 0.808370
O O14 0.539237 0.737160 0.726200
O O15 0.470605 0.000000 0.786301
O O16 0.631100 0.239929 0.418696
O O17 0.621880 0.000000 0.474673
O O18 0.500000 0.329137 0.500000
O O19 0.627720 0.500000 0.382740
O O20 0.321058 0.000000 0.845302
O O21 0.633814 0.500000 0.639303
#
# Coordination Sequence:
#
# PCOD9171951 Si02
#       8
#     8   8   8   8   8   8   8   8
#     4   9  17  28  41  58  81 109 140 172 208 248
#     4  10  20  32  44  60  84 110 138 175 213 246
#     4   9  17  28  42  61  85 113 142 172 208 248
#     4   9  17  29  43  59  82 112 142 173 210 248
#     4  10  18  29  45  61  81 111 144 174 207 249
#     4   9  17  28  41  59  83 109 139 174 208 244
#     4   9  17  28  42  61  85 112 142 174 208 247
#     4  10  20  31  44  62  82 108 142 176 209 246
#
# _framework density 14.000425999999999
#
# number of rings (size 3 to 8) (size 9 to 14) (size 15 to 20)
#    0.000    2.625    0.000    3.375    0.000    7.500 
#    0.000    0.000    0.000    0.000    0.000    0.000 
#    0.000    1.000    0.000   10.500    0.000    5.750 
#
# Total GULP energy -178311.196193 kJ/mol
# GULP energy per Si atom -5572.224881 kJ/mol
# Density = 1.396856 g / cm^3
# Si number density = 14.000426 Si / 1000 Ang^3
#
#
#
# Elastic Constant Matrix: (Units=GPa)
#
#
# Indices 1 2 3 4 5 6 
#
# 1 104.5996 59.1407 54.1069 0.0010 8.5443 0.0003
# 2 59.1407 65.0851 56.0351 0.0007 1.3882 0.0002
# 3 54.1069 56.0351 107.7682 0.0054 8.2522 -0.0017
# 4 0.0010 0.0007 0.0054 24.9654 -0.0010 0.2951
# 5 8.5443 1.3882 8.2522 -0.0010 20.8840 0.0000
# 6 0.0003 0.0002 -0.0017 0.2951 0.0000 25.5393
#
#
#
# Elastic Compliance Matrix: (Units=1/GPa)
#
#
# Indices 1 2 3 4 5 6 
#
# 1 0.020701 -0.018432 -0.000263 -0.000001 -0.007140 0.000000
# 2 -0.018432 0.044554 -0.014708 0.000003 0.010391 -0.000001
# 3 -0.000263 -0.014708 0.017505 -0.000004 -0.005832 0.000001
# 4 -0.000001 0.000003 -0.000004 0.040061 0.000003 -0.000463
# 5 -0.007140 0.010391 -0.005832 0.000003 0.052419 0.000000
# 6 0.000000 -0.000001 0.000001 -0.000463 0.000000 0.039161
#
#
# Mechanical properties :
#
#
# Convention : Reuss Voigt Hill
#
# Bulk Modulus (GPa) = 62.67543 68.44648 65.56095
# Shear Modulus (GPa) = 17.45060 21.48909 19.46984
#
# Velocity S-wave (km/s) = 3.53432 3.92201 3.73320
# Velocity P-wave (km/s) = 7.84342 8.33694 8.09394
#
# Compressibility (1/GPa) = 0.01595522
#
# Stress axis : x y z
#
# Youngs Moduli (GPa) = 48.30776 22.44471 57.12574
#
# Poissons Ratio (x) = 0.41369 0.01501
# Poissons Ratio (y) = 0.89038 0.84021
# Poissons Ratio (z) = 0.01269 0.33012
#
# Static dielectric constant tensor:
#      x y z
#    x 1.437890 0.000000 0.015570 
#    y 0.000000 1.466050 0.000000 
#    z 0.015570 0.000000 1.461290 
# 
# From -- ./inp_files/248478.got.cif
#   From: 2010.05.17/outbox.cif.g08.bks.cpg/sg12_125_cif.got.tgz:248478.got - 2010.06.03 13:09:07.
