data_PCOD9171722
_publ_section_title
;
Structure prediction by ZEFSAII (Michael W. Deem and Ramdas Pophale) SiO2 
 PCOD9171722
Probable space group: C 2/M
;
_chemical_formula_sum "Si O2"
_cell_formula_units_Z 60
_cell_length_a 22.057708
_cell_length_b 23.749472
_cell_length_c 23.035955
_cell_angle_alpha 90.000000
_cell_angle_beta 19.101847
_cell_angle_gamma 90.000000
_cell_volume 3949.099196
_symmetry_space_group_name_H-M "C 2/M"
_symmetry_group_IT_number 12
_symmetry_cell_setting 'monoclinic'
loop_
_space_group_symop_operation_xyz
x,y,z
-x,y,-z
-x,-y,-z
x,-y,z
1/2+x,1/2+y,z
1/2-x,1/2+y,-z
1/2-x,1/2-y,-z
1/2+x,1/2-y,z
loop_
_atom_site_type_symbol
_atom_site_label
_atom_site_fract_x
_atom_site_fract_y
_atom_site_fract_z
Si Si1 0.284117 0.315238 0.953979
Si Si2 0.561129 0.934906 0.877130
Si Si3 0.123198 0.327651 0.655200
Si Si4 0.500000 0.771378 0.000000
Si Si5 0.359602 0.359766 0.548794
Si Si6 0.815654 0.268743 0.633929
Si Si7 0.252664 0.852377 0.141662
Si Si8 0.827454 0.194834 0.356103
O O1 0.311760 0.322766 0.859735
O O2 0.469075 0.331899 0.820774
O O3 0.250000 0.250000 0.000000
O O4 0.091165 0.343941 0.145518
O O5 0.748229 0.900867 0.692621
O O6 0.581086 0.000000 0.843080
O O7 0.500000 0.931907 0.000000
O O8 0.389927 0.903230 0.001457
O O9 0.246331 0.360092 0.590844
O O10 0.145571 0.261433 0.652678
O O11 0.198307 0.331408 0.522329
O O12 0.642202 0.735235 0.833861
O O13 0.621819 0.810118 0.933332
O O14 0.349729 0.296181 0.582592
O O15 0.573177 0.371278 0.340349
O O16 0.761757 0.304621 0.626414
O O17 0.000000 0.287704 0.500000
#
# Coordination Sequence:
#
# PCOD9171722 Si02
#       8
#     8   8   8   4   8   8   8   8
#     4  10  18  28  47  69  91 116 148 198 235 281
#     4  11  24  39  50  67  92 120 162 212 256 293
#     4   9  16  29  46  64  88 110 144 194 237 268
#     4  12  20  30  45  64  88 124 160 196 237 284
#     4  11  20  33  51  67  83 118 160 202 245 283
#     4  11  21  30  45  66  94 124 157 196 232 279
#     4  12  20  33  52  68  90 121 160 204 246 283
#     4   9  18  28  41  68  89 112 150 191 229 276
#
# _framework density 15.193338000000001
#
# number of rings (size 3 to 8) (size 9 to 14) (size 15 to 20)
#    0.000    1.467    6.000    1.600    1.867    1.600 
#    0.000    1.333    0.000    0.000    0.000    0.000 
#    0.000    0.000    0.000    0.000    0.000    4.000 
#
# Total GULP energy -167267.141276 kJ/mol
# GULP energy per Si atom -5575.571376 kJ/mol
# Density = 1.515876 g / cm^3
# Si number density = 15.193338 Si / 1000 Ang^3
#
#
#
# Elastic Constant Matrix: (Units=GPa)
#
#
# Indices 1 2 3 4 5 6 
#
# 1 127.7038 19.2520 55.8108 0.0008 -9.6088 -0.0039
# 2 19.2520 21.1365 9.1676 -0.0184 2.2678 -0.0018
# 3 55.8108 9.1676 141.0951 -0.0252 -6.9967 -0.0121
# 4 0.0008 -0.0184 -0.0252 10.1571 -0.0040 2.0863
# 5 -9.6088 2.2678 -6.9967 -0.0040 23.9876 0.0084
# 6 -0.0039 -0.0018 -0.0121 2.0863 0.0084 8.9415
#
#
#
# Elastic Compliance Matrix: (Units=1/GPa)
#
#
# Indices 1 2 3 4 5 6 
#
# 1 0.011071 -0.008983 -0.003585 -0.000024 0.004238 0.000000
# 2 -0.008983 0.056728 -0.000585 0.000100 -0.009132 -0.000008
# 3 -0.003585 -0.000585 0.008600 0.000020 0.001128 0.000004
# 4 -0.000024 0.000100 0.000020 0.103410 0.000012 -0.024128
# 5 0.004238 -0.009132 0.001128 0.000012 0.044578 -0.000043
# 6 0.000000 -0.000008 0.000004 -0.024128 -0.000043 0.117468
#
#
# Mechanical properties :
#
#
# Convention : Reuss Voigt Hill
#
# Bulk Modulus (GPa) = 19.96398 50.93290 35.44844
# Shear Modulus (GPa) = 12.99181 22.33091 17.66136
#
# Velocity S-wave (km/s) = 2.92738 3.83793 3.41316
# Velocity P-wave (km/s) = 4.95929 7.29627 6.23819
#
# Compressibility (1/GPa) = 0.05009022
#
# Stress axis : x y z
#
# Youngs Moduli (GPa) = 90.32900 17.62806 116.28581
#
# Poissons Ratio (x) = 0.15836 0.41691
# Poissons Ratio (y) = 0.81146 0.06806
# Poissons Ratio (z) = 0.32385 0.01032
#
# Static dielectric constant tensor:
#      x y z
#    x 1.537250 -0.000010 -0.004990 
#    y -0.000010 1.478700 0.000010 
#    z -0.004990 0.000010 1.544680 
# 
# From -- ./inp_files/323125.got.cif
#   From: 2010.05.17/outbox.cif.g08.bks.cpg/sg12_162_cif.got.tgz:323125.got - 2010.06.03 13:09:07.
