data_PCOD9171852
_publ_section_title
;
Structure prediction by ZEFSAII (Michael W. Deem and Ramdas Pophale) SiO2 
 PCOD9171852
Probable space group: C 2/M
;
_chemical_formula_sum "Si O2"
_cell_formula_units_Z 64
_cell_length_a 17.351384
_cell_length_b 19.628999
_cell_length_c 11.378295
_cell_angle_alpha 90.000000
_cell_angle_beta 119.256614
_cell_angle_gamma 90.000000
_cell_volume 3380.997361
_symmetry_space_group_name_H-M "C 2/M"
_symmetry_group_IT_number 12
_symmetry_cell_setting 'monoclinic'
loop_
_space_group_symop_operation_xyz
x,y,z
-x,y,-z
-x,-y,-z
x,-y,z
1/2+x,1/2+y,z
1/2-x,1/2+y,-z
1/2-x,1/2-y,-z
1/2+x,1/2-y,z
loop_
_atom_site_type_symbol
_atom_site_label
_atom_site_fract_x
_atom_site_fract_y
_atom_site_fract_z
Si Si1 0.461345 0.695127 0.229114
Si Si2 0.807339 0.687548 0.692476
Si Si3 0.920168 0.071845 0.030763
Si Si4 0.659783 0.668552 0.409737
Si Si5 0.997463 0.341863 0.856832
Si Si6 0.165343 0.581893 0.889440
Si Si7 0.256584 0.577079 0.733156
Si Si8 0.233339 0.807294 0.888810
O O1 0.434355 0.639374 0.113106
O O2 0.553933 0.667364 0.350557
O O3 0.478344 0.768187 0.181147
O O4 0.368644 0.698390 0.229302
O O5 0.718537 0.658092 0.569252
O O6 0.825238 0.756804 0.634863
O O7 0.896013 0.643174 0.746283
O O8 0.792780 0.703493 0.818408
O O9 0.919644 0.000000 0.099526
O O10 0.834031 0.074425 0.887312
O O11 0.000000 0.069115 0.000000
O O12 0.702850 0.619181 0.343681
O O13 0.069593 0.394588 0.863240
O O14 0.000000 0.337840 0.000000
O O15 0.176199 0.500000 0.904335
O O16 0.178515 0.603122 0.761334
O O17 0.234751 0.622529 0.024826
O O18 0.235888 0.500000 0.678959
O O19 0.250000 0.750000 0.000000
#
# Coordination Sequence:
#
# PCOD9171852 Si02
#       8
#     8   8   8   8   8   8   8   8
#     4  11  21  31  60  91 119 156 195 240 297 363
#     4  10  23  40  58  83 118 156 203 240 292 351
#     4  10  18  28  49  86 120 147 186 241 291 338
#     4  10  22  39  57  83 120 159 194 242 286 360
#     4  11  21  38  59  87 114 153 204 247 298 353
#     4  11  23  37  58  93 121 148 195 254 304 345
#     4  10  20  35  58  86 119 153 192 240 300 355
#     4  12  21  37  61  90 118 154 192 249 303 350
#
# _framework density 18.929326
#
# number of rings (size 3 to 8) (size 9 to 14) (size 15 to 20)
#    0.000    1.375    5.000    1.125    1.750    0.750 
#    0.000    1.875    0.000    1.500    0.000    2.625 
#    0.000    0.000    0.000    0.000    0.000    0.000 
#
# Total GULP energy -178258.064220 kJ/mol
# GULP energy per Si atom -5570.564507 kJ/mol
# Density = 1.888624 g / cm^3
# Si number density = 18.929326 Si / 1000 Ang^3
#
#
#
# Elastic Constant Matrix: (Units=GPa)
#
#
# Indices 1 2 3 4 5 6 
#
# 1 129.0219 10.1850 34.3575 0.0000 23.2365 0.0000
# 2 10.1850 53.8087 16.9481 0.0000 8.0885 0.0000
# 3 34.3575 16.9481 67.6119 0.0000 18.2994 0.0000
# 4 0.0000 0.0000 0.0000 -41.9189 0.0000 -6.7012
# 5 23.2365 8.0885 18.2994 0.0000 16.5507 0.0000
# 6 0.0000 0.0000 0.0000 -6.7012 0.0000 30.6248
#
#
#
# Elastic Compliance Matrix: (Units=1/GPa)
#
#
# Indices 1 2 3 4 5 6 
#
# 1 0.010563 0.000574 -0.002029 0.000000 -0.012867 0.000000
# 2 0.000574 0.020648 -0.003594 0.000000 -0.006923 0.000000
# 3 -0.002029 -0.003594 0.022085 0.000000 -0.019813 0.000000
# 4 0.000000 0.000000 0.000000 -0.023049 0.000000 -0.005044
# 5 -0.012867 -0.006923 -0.019813 0.000000 0.103775 0.000000
# 6 0.000000 0.000000 0.000000 -0.005044 0.000000 0.031550
#
#
# Mechanical properties :
#
#
# Convention : Reuss Voigt Hill
#
# Bulk Modulus (GPa) = 23.14898 41.49154 32.32026
# Shear Modulus (GPa) = 26.30629 13.64811 19.97720
#
# Velocity S-wave (km/s) = 3.73193 2.68806 3.25215
# Velocity P-wave (km/s) = 5.55206 5.62148 5.58688
#
# Compressibility (1/GPa) = 0.04319845
#
# Stress axis : x y z
#
# Youngs Moduli (GPa) = 94.67069 48.43004 45.28022
#
# Poissons Ratio (x) = -0.02779 0.09187
# Poissons Ratio (y) = -0.05433 0.16272
# Poissons Ratio (z) = 0.19209 0.17404
#
# Static dielectric constant tensor:
#      x y z
#    x 1.754580 0.000000 0.035520 
#    y 0.000000 1.679430 0.000000 
#    z 0.035520 0.000000 1.648570 
# 
# From -- ./inp_files/159249.got.cif
#   From: 2010.05.17/outbox.cif.g08.bks.cpg/sg12_80_cif.got.tgz:159249.got - 2010.06.03 13:09:07.
