data_PCOD9171616
_publ_section_title
;
Structure prediction by ZEFSAII (Michael W. Deem and Ramdas Pophale) SiO2 
 PCOD9171616
Probable space group: C 2/M
;
_chemical_formula_sum "Si O2"
_cell_formula_units_Z 64
_cell_length_a 19.901069
_cell_length_b 8.762622
_cell_length_c 27.768891
_cell_angle_alpha 90.000000
_cell_angle_beta 130.737745
_cell_angle_gamma 90.000000
_cell_volume 3669.179299
_symmetry_space_group_name_H-M "C 2/M"
_symmetry_group_IT_number 12
_symmetry_cell_setting 'monoclinic'
loop_
_space_group_symop_operation_xyz
x,y,z
-x,y,-z
-x,-y,-z
x,-y,z
1/2+x,1/2+y,z
1/2-x,1/2+y,-z
1/2-x,1/2-y,-z
1/2+x,1/2-y,z
loop_
_atom_site_type_symbol
_atom_site_label
_atom_site_fract_x
_atom_site_fract_y
_atom_site_fract_z
Si Si1 0.228067 0.317732 0.606327
Si Si2 0.755313 0.315609 0.182006
Si Si3 0.052701 0.815902 0.071828
Si Si4 0.764010 0.682426 0.724099
Si Si5 0.071043 0.683847 0.790093
Si Si6 0.160801 0.817045 0.482330
Si Si7 0.578275 0.317062 0.347496
Si Si8 0.029776 0.316340 0.163362
O O1 0.221758 0.500000 0.603472
O O2 0.220272 0.252249 0.656143
O O3 0.159670 0.250105 0.535310
O O4 0.327437 0.276699 0.633532
O O5 0.756536 0.500000 0.186191
O O6 0.656326 0.269476 0.119728
O O7 0.772671 0.247098 0.242917
O O8 0.831416 0.266734 0.180616
O O9 0.013734 0.753558 0.103527
O O10 0.049749 0.000000 0.071677
O O11 0.000000 0.763798 0.000000
O O12 0.756740 0.500000 0.719724
O O13 0.869276 0.723371 0.773784
O O14 0.070155 0.500000 0.790985
O O15 0.000569 0.737445 0.717423
O O16 0.036740 0.737372 0.826116
O O17 0.250000 0.750000 0.500000
O O18 0.086035 0.777667 0.407849
O O19 0.167395 0.000000 0.487517
O O20 0.568802 0.500000 0.339322
O O21 0.025758 0.500000 0.158016
#
# Coordination Sequence:
#
# PCOD9171616 Si02
#       8
#     8   8   8   8   8   8   8   8
#     4  10  18  28  45  70  97 128 166 208 253 298
#     4   9  19  34  51  72 100 132 165 201 244 295
#     4   9  18  34  55  76  99 131 167 200 237 286
#     4  10  18  30  49  72  98 128 165 209 250 294
#     4  10  19  32  50  72 100 132 164 203 248 295
#     4   9  17  28  41  64  96 129 165 207 253 298
#     4   9  18  29  44  68  98 130 163 202 249 296
#     4   9  18  31  49  75 100 127 163 201 244 289
#
# _framework density 17.442592999999999
#
# number of rings (size 3 to 8) (size 9 to 14) (size 15 to 20)
#    0.000    2.625    1.250    1.875    0.000    4.250 
#    0.000    0.625    0.000    0.750    0.000    5.250 
#    0.000    0.000    0.000    0.000    0.000    0.000 
#
# Total GULP energy -178364.677435 kJ/mol
# GULP energy per Si atom -5573.896170 kJ/mol
# Density = 1.740289 g / cm^3
# Si number density = 17.442593 Si / 1000 Ang^3
#
#
#
# Elastic Constant Matrix: (Units=GPa)
#
#
# Indices 1 2 3 4 5 6 
#
# 1 109.4455 21.9569 60.3334 0.0000 -19.0083 0.0000
# 2 21.9569 15.9508 26.0252 0.0000 -6.8512 0.0000
# 3 60.3334 26.0252 137.2123 0.0000 -32.5621 0.0000
# 4 0.0000 0.0000 0.0000 26.3970 0.0000 -6.5934
# 5 -19.0083 -6.8512 -32.5621 0.0000 20.8546 0.0000
# 6 0.0000 0.0000 0.0000 -6.5934 0.0000 18.9618
#
#
#
# Elastic Compliance Matrix: (Units=1/GPa)
#
#
# Indices 1 2 3 4 5 6 
#
# 1 0.013961 -0.013061 -0.002637 0.000000 0.004317 0.000000
# 2 -0.013061 0.103295 -0.013696 0.000000 0.000646 0.000000
# 3 -0.002637 -0.013696 0.014944 0.000000 0.016431 0.000000
# 4 0.000000 0.000000 0.000000 0.041486 0.000000 0.014426
# 5 0.004317 0.000646 0.016431 0.000000 0.077753 0.000000
# 6 0.000000 0.000000 0.000000 0.014426 0.000000 0.057754
#
#
# Mechanical properties :
#
#
# Convention : Reuss Voigt Hill
#
# Bulk Modulus (GPa) = 13.62163 53.24884 33.43523
# Shear Modulus (GPa) = 12.74047 23.52890 18.13469
#
# Velocity S-wave (km/s) = 2.70557 3.67677 3.22790
# Velocity P-wave (km/s) = 4.19362 6.97274 5.75350
#
# Compressibility (1/GPa) = 0.07341265
#
# Stress axis : x y z
#
# Youngs Moduli (GPa) = 71.63039 9.68105 66.91442
#
# Poissons Ratio (x) = 0.12644 0.17645
# Poissons Ratio (y) = 0.93554 0.91645
# Poissons Ratio (z) = 0.18889 0.13259
#
# Static dielectric constant tensor:
#      x y z
#    x 1.599800 0.000000 -0.007590 
#    y 0.000000 1.586560 0.000000 
#    z -0.007590 0.000000 1.592120 
# 
# From -- ./inp_files/365234.got.cif
#   From: 2010.05.17/outbox.cif.g08.bks.cpg/sg12_183_cif.got.tgz:365234.got - 2010.06.03 13:09:07.
