data_PCOD9171895
_publ_section_title
;
Structure prediction by ZEFSAII (Michael W. Deem and Ramdas Pophale) SiO2 
 PCOD9171895
Probable space group: C 2/M
;
_chemical_formula_sum "Si O2"
_cell_formula_units_Z 48
_cell_length_a 31.001133
_cell_length_b 13.956559
_cell_length_c 6.976263
_cell_angle_alpha 90.000000
_cell_angle_beta 102.939407
_cell_angle_gamma 90.000000
_cell_volume 2941.768402
_symmetry_space_group_name_H-M "C 2/M"
_symmetry_group_IT_number 12
_symmetry_cell_setting 'monoclinic'
loop_
_space_group_symop_operation_xyz
x,y,z
-x,y,-z
-x,-y,-z
x,-y,z
1/2+x,1/2+y,z
1/2-x,1/2+y,-z
1/2-x,1/2-y,-z
1/2+x,1/2-y,z
loop_
_atom_site_type_symbol
_atom_site_label
_atom_site_fract_x
_atom_site_fract_y
_atom_site_fract_z
Si Si1 0.581325 0.610516 0.405337
Si Si2 0.256167 0.110270 0.916625
Si Si3 0.322806 0.613347 0.465810
Si Si4 0.106372 0.888942 0.974378
Si Si5 0.803580 0.793692 0.847169
Si Si6 0.988741 0.883569 0.210223
O O1 0.576990 0.500000 0.461887
O O2 0.627439 0.645684 0.541220
O O3 0.531669 0.652041 0.370615
O O4 0.592269 0.610937 0.186519
O O5 0.213935 0.118555 0.733293
O O6 0.292936 0.183177 0.876177
O O7 0.269927 0.000000 0.939221
O O8 0.237073 0.148002 0.098999
O O9 0.326280 0.500000 0.526355
O O10 0.307739 0.676094 0.630973
O O11 0.062634 0.856032 0.815265
O O12 0.116691 0.000000 0.935317
O O13 0.150521 0.827036 0.010395
O O14 0.988805 0.000000 0.224158
O O15 0.000000 0.860439 0.000000
#
# Coordination Sequence:
#
# PCOD9171895 Si02
#       6
#     8   8   8   8   8   8
#     4   7  10  17  31  52  77 102 123 146 178 220
#     4  10  20  30  41  58  78 103 134 167 199 229
#     4   9  16  27  43  61  82 106 130 155 189 234
#     4   8  12  19  34  54  75 100 127 153 184 224
#     4  10  18  29  43  57  77 105 134 164 195 231
#     4   7   9  14  27  50  76  98 122 148 175 216
#
# _framework density 16.316717000000001
#
# number of rings (size 3 to 8) (size 9 to 14) (size 15 to 20)
#    0.000    3.500    0.000    5.000    0.000    0.000 
#    0.000    0.000    0.000    1.000    0.000    5.833 
#    0.000   16.667    0.000    6.000    0.000    2.500 
#
# Total GULP energy -133640.993516 kJ/mol
# GULP energy per Si atom -5568.374730 kJ/mol
# Density = 1.627958 g / cm^3
# Si number density = 16.316717 Si / 1000 Ang^3
#
#
#
# Elastic Constant Matrix: (Units=GPa)
#
#
# Indices 1 2 3 4 5 6 
#
# 1 90.2480 39.9829 7.4256 0.0000 3.1636 0.0000
# 2 39.9829 71.9279 9.0173 0.0000 1.1756 0.0000
# 3 7.4256 9.0173 34.4003 0.0000 1.5836 0.0000
# 4 0.0000 0.0000 0.0000 4.2295 0.0000 1.0543
# 5 3.1636 1.1756 1.5836 0.0000 30.2170 0.0000
# 6 0.0000 0.0000 0.0000 1.0543 0.0000 18.4339
#
#
#
# Elastic Compliance Matrix: (Units=1/GPa)
#
#
# Indices 1 2 3 4 5 6 
#
# 1 0.014781 -0.008069 -0.001021 0.000000 -0.001180 0.000000
# 2 -0.008069 0.018784 -0.003195 0.000000 0.000281 0.000000
# 3 -0.001021 -0.003195 0.030190 0.000000 -0.001351 0.000000
# 4 0.000000 0.000000 0.000000 0.239855 0.000000 -0.013718
# 5 -0.001180 0.000281 -0.001351 0.000000 0.033277 0.000000
# 6 0.000000 0.000000 0.000000 -0.013718 0.000000 0.055032
#
#
# Mechanical properties :
#
#
# Convention : Reuss Voigt Hill
#
# Bulk Modulus (GPa) = 25.52047 34.38086 29.95066
# Shear Modulus (GPa) = 11.64005 19.91944 15.77975
#
# Velocity S-wave (km/s) = 2.67382 3.49779 3.11318
# Velocity P-wave (km/s) = 5.02066 6.11795 5.59627
#
# Compressibility (1/GPa) = 0.03918423
#
# Stress axis : x y z
#
# Youngs Moduli (GPa) = 67.65537 53.23657 33.12398
#
# Poissons Ratio (x) = 0.42956 0.03382
# Poissons Ratio (y) = 0.54591 0.10583
# Poissons Ratio (z) = 0.06908 0.17009
#
# Static dielectric constant tensor:
#      x y z
#    x 1.609260 0.000000 -0.006450 
#    y 0.000000 1.492800 0.000000 
#    z -0.006450 0.000000 1.646770 
# 
# From -- ./inp_files/110662.got.cif
#   From: 2010.05.17/outbox.cif.g08.bks.cpg/sg12_56_cif.got.tgz:110662.got - 2010.06.03 13:09:07.
