data_PCOD9171464
_publ_section_title
;
Structure prediction by ZEFSAII (Michael W. Deem and Ramdas Pophale) SiO2 
 PCOD9171464
Probable space group: C 2/M
;
_chemical_formula_sum "Si O2"
_cell_formula_units_Z 48
_cell_length_a 25.033970
_cell_length_b 7.677124
_cell_length_c 13.894914
_cell_angle_alpha 90.000000
_cell_angle_beta 107.297207
_cell_angle_gamma 90.000000
_cell_volume 2549.677895
_symmetry_space_group_name_H-M "C 2/M"
_symmetry_group_IT_number 12
_symmetry_cell_setting 'monoclinic'
loop_
_space_group_symop_operation_xyz
x,y,z
-x,y,-z
-x,-y,-z
x,-y,z
1/2+x,1/2+y,z
1/2-x,1/2+y,-z
1/2-x,1/2-y,-z
1/2+x,1/2-y,z
loop_
_atom_site_type_symbol
_atom_site_label
_atom_site_fract_x
_atom_site_fract_y
_atom_site_fract_z
Si Si1 0.982296 0.793148 0.387018
Si Si2 0.431038 0.205917 0.059246
Si Si3 0.860904 0.800977 0.843363
Si Si4 0.128171 0.709966 0.774495
Si Si5 0.249831 0.789788 0.114049
Si Si6 0.041600 0.788450 0.224641
O O1 0.916820 0.767585 0.328383
O O2 0.000000 0.720896 0.500000
O O3 0.017734 0.724608 0.314453
O O4 0.992849 0.000000 0.394380
O O5 0.397239 0.264327 0.136086
O O6 0.495332 0.236014 0.120721
O O7 0.422127 0.000000 0.039854
O O8 0.404983 0.301088 0.954805
O O9 0.804559 0.721370 0.858229
O O10 0.897299 0.724034 0.775347
O O11 0.847236 0.000000 0.808920
O O12 0.128421 0.500000 0.773432
O O13 0.192078 0.770868 0.807078
O O14 0.248318 0.000000 0.118519
O O15 0.250000 0.750000 0.000000
O O16 0.042941 0.000000 0.227063
#
# Coordination Sequence:
#
# PCOD9171464 Si02
#       6
#     8   8   8   8   8   8
#     4   9  18  33  53  72  88 112 151 198 241 277
#     4  10  18  28  43  65  94 125 154 187 224 265
#     4  10  19  29  44  64  91 127 157 183 221 269
#     4   9  18  31  46  68  95 121 153 189 227 273
#     4  10  19  31  46  66  94 128 162 188 217 264
#     4   9  18  31  45  65  91 118 152 191 231 276
#
# _framework density 18.825907000000001
#
# number of rings (size 3 to 8) (size 9 to 14) (size 15 to 20)
#    0.000    2.500    1.667    1.000    0.000    4.333 
#    0.000    0.000    0.000    1.000    0.000    0.000 
#    0.000    0.000    0.000    0.000    0.000    0.000 
#
# Total GULP energy -133796.164605 kJ/mol
# GULP energy per Si atom -5574.840192 kJ/mol
# Density = 1.878306 g / cm^3
# Si number density = 18.825907 Si / 1000 Ang^3
#
#
#
# Elastic Constant Matrix: (Units=GPa)
#
#
# Indices 1 2 3 4 5 6 
#
# 1 181.6935 2.3141 54.6271 0.0000 1.7198 0.0000
# 2 2.3141 36.3462 -1.8048 0.0000 -1.4877 0.0000
# 3 54.6271 -1.8048 95.4203 0.0000 4.7724 0.0000
# 4 0.0000 0.0000 0.0000 9.3705 0.0000 3.5619
# 5 1.7198 -1.4877 4.7724 0.0000 10.9916 0.0000
# 6 0.0000 0.0000 0.0000 3.5619 0.0000 14.0620
#
#
#
# Elastic Compliance Matrix: (Units=1/GPa)
#
#
# Indices 1 2 3 4 5 6 
#
# 1 0.006665 -0.000593 -0.003854 0.000000 0.000550 0.000000
# 2 -0.000593 0.027730 0.000687 0.000000 0.003548 0.000000
# 3 -0.003854 0.000687 0.012946 0.000000 -0.004925 0.000000
# 4 0.000000 0.000000 0.000000 0.118087 0.000000 -0.029912
# 5 0.000550 0.003548 -0.004925 0.000000 0.093511 0.000000
# 6 0.000000 0.000000 0.000000 -0.029912 0.000000 0.078690
#
#
# Mechanical properties :
#
#
# Convention : Reuss Voigt Hill
#
# Bulk Modulus (GPa) = 25.11349 47.08141 36.09745
# Shear Modulus (GPa) = 13.94993 24.10640 19.02816
#
# Velocity S-wave (km/s) = 2.72508 3.58228 3.18267
# Velocity P-wave (km/s) = 4.82392 6.49411 5.72030
#
# Compressibility (1/GPa) = 0.03981924
#
# Stress axis : x y z
#
# Youngs Moduli (GPa) = 150.03854 36.06166 77.24494
#
# Poissons Ratio (x) = 0.02139 0.29773
# Poissons Ratio (y) = 0.08900 -0.05304
# Poissons Ratio (z) = 0.57830 -0.02476
#
# Static dielectric constant tensor:
#      x y z
#    x 1.715290 0.000000 -0.021980 
#    y 0.000000 1.688930 0.000000 
#    z -0.021980 0.000000 1.626670 
# 
# From -- ./inp_files/172139.got.cif
#   From: 2010.05.17/outbox.cif.g08.bks.cpg/sg12_87_cif.got.tgz:172139.got - 2010.06.03 13:09:07.
