data_PCOD9171010
_publ_section_title
;
Structure prediction by ZEFSAII (Michael W. Deem and Ramdas Pophale) SiO2 
 PCOD9171010
Probable space group: C 2/M
;
_chemical_formula_sum "Si O2"
_cell_formula_units_Z 56
_cell_length_a 29.022015
_cell_length_b 7.661287
_cell_length_c 14.860440
_cell_angle_alpha 90.000000
_cell_angle_beta 105.157971
_cell_angle_gamma 90.000000
_cell_volume 3189.202739
_symmetry_space_group_name_H-M "C 2/M"
_symmetry_group_IT_number 12
_symmetry_cell_setting 'monoclinic'
loop_
_space_group_symop_operation_xyz
x,y,z
-x,y,-z
-x,-y,-z
x,-y,z
1/2+x,1/2+y,z
1/2-x,1/2+y,-z
1/2-x,1/2-y,-z
1/2+x,1/2-y,z
loop_
_atom_site_type_symbol
_atom_site_label
_atom_site_fract_x
_atom_site_fract_y
_atom_site_fract_z
Si Si1 0.445235 0.285874 0.473623
Si Si2 0.286217 0.795969 0.888549
Si Si3 0.183147 0.211232 0.905346
Si Si4 0.308284 0.293016 0.699319
Si Si5 0.632240 0.711219 0.707631
Si Si6 0.794707 0.294299 0.408791
Si Si7 0.374197 0.300336 0.587836
O O1 0.500000 0.230780 0.500000
O O2 0.444325 0.500000 0.474513
O O3 0.414857 0.231399 0.370257
O O4 0.415948 0.223340 0.546720
O O5 0.234085 0.724047 0.890986
O O6 0.306112 0.725513 0.805283
O O7 0.279228 0.000000 0.869504
O O8 0.319108 0.769608 0.992782
O O9 0.142166 0.267071 0.814826
O O10 0.184433 0.000000 0.907226
O O11 0.307878 0.500000 0.680584
O O12 0.258552 0.223693 0.632397
O O13 0.354343 0.220603 0.670263
O O14 0.632323 0.500000 0.706464
O O15 0.676993 0.771020 0.670269
O O16 0.793140 0.500000 0.429715
O O17 0.827482 0.202443 0.499497
O O18 0.388988 0.500000 0.613111
#
# Coordination Sequence:
#
# PCOD9171010 Si02
#       7
#     8   8   8   8   8   8   8
#     4   8  14  26  46  69  87 105 136 177 215 253
#     4  10  19  28  42  61  84 115 147 180 210 243
#     4   9  17  29  42  59  84 115 146 175 210 250
#     4  10  19  29  40  58  85 118 147 174 208 248
#     4   9  16  28  45  63  86 115 143 172 212 255
#     4  10  18  26  39  60  85 113 146 177 204 241
#     4   9  18  30  43  59  84 115 144 173 212 256
#
# _framework density 17.559246000000002
#
# number of rings (size 3 to 8) (size 9 to 14) (size 15 to 20)
#    0.000    2.714    1.429    2.143    0.000    2.286 
#    0.000    0.000    0.000    6.857    0.000    1.000 
#    0.000    8.000    0.000    0.000    0.000    0.000 
#
# Total GULP energy -156011.965777 kJ/mol
# GULP energy per Si atom -5571.855921 kJ/mol
# Density = 1.751928 g / cm^3
# Si number density = 17.559246 Si / 1000 Ang^3
#
#
#
# Elastic Constant Matrix: (Units=GPa)
#
#
# Indices 1 2 3 4 5 6 
#
# 1 112.6820 3.0150 60.5058 0.0000 -5.2984 0.0000
# 2 3.0150 33.8354 -4.4319 0.0000 1.1787 0.0000
# 3 60.5058 -4.4319 85.0344 0.0000 -18.6893 0.0000
# 4 0.0000 0.0000 0.0000 15.3772 0.0000 -1.4623
# 5 -5.2984 1.1787 -18.6893 0.0000 18.9573 0.0000
# 6 0.0000 0.0000 0.0000 -1.4623 0.0000 8.9503
#
#
#
# Elastic Compliance Matrix: (Units=1/GPa)
#
#
# Indices 1 2 3 4 5 6 
#
# 1 0.015570 -0.002807 -0.013060 0.000000 -0.008349 0.000000
# 2 -0.002807 0.030267 0.003816 0.000000 0.001095 0.000000
# 3 -0.013060 0.003816 0.026039 0.000000 0.021784 0.000000
# 4 0.000000 0.000000 0.000000 0.066058 0.000000 0.010792
# 5 -0.008349 0.001095 0.021784 0.000000 0.071824 0.000000
# 6 0.000000 0.000000 0.000000 0.010792 0.000000 0.113491
#
#
# Mechanical properties :
#
#
# Convention : Reuss Voigt Hill
#
# Bulk Modulus (GPa) = 20.93244 38.85884 29.89564
# Shear Modulus (GPa) = 13.76363 20.15447 16.95905
#
# Velocity S-wave (km/s) = 2.80275 3.39159 3.11113
# Velocity P-wave (km/s) = 4.73506 6.12498 5.47431
#
# Compressibility (1/GPa) = 0.04777274
#
# Stress axis : x y z
#
# Youngs Moduli (GPa) = 64.22739 33.03969 38.40354
#
# Poissons Ratio (x) = 0.09275 0.50154
# Poissons Ratio (y) = 0.18030 -0.14653
# Poissons Ratio (z) = 0.83880 -0.12607
#
# Static dielectric constant tensor:
#      x y z
#    x 1.596830 0.000000 -0.020030 
#    y 0.000000 1.643860 0.000000 
#    z -0.020030 0.000000 1.628950 
# 
# From -- ./inp_files/247773.got.cif
#   From: 2010.05.17/outbox.cif.g08.bks.cpg/sg12_124_cif.got.tgz:247773.got - 2010.06.03 13:09:07.
