data_PCOD9171251
_publ_section_title
;
Structure prediction by ZEFSAII (Michael W. Deem and Ramdas Pophale) SiO2 
 PCOD9171251
Probable space group: C 2/M
;
_chemical_formula_sum "Si O2"
_cell_formula_units_Z 56
_cell_length_a 28.123586
_cell_length_b 7.460796
_cell_length_c 13.778212
_cell_angle_alpha 90.000000
_cell_angle_beta 58.846882
_cell_angle_gamma 90.000000
_cell_volume 2474.086269
_symmetry_space_group_name_H-M "C 2/M"
_symmetry_group_IT_number 12
_symmetry_cell_setting 'monoclinic'
loop_
_space_group_symop_operation_xyz
x,y,z
-x,y,-z
-x,-y,-z
x,-y,z
1/2+x,1/2+y,z
1/2-x,1/2+y,-z
1/2-x,1/2-y,-z
1/2+x,1/2-y,z
loop_
_atom_site_type_symbol
_atom_site_label
_atom_site_fract_x
_atom_site_fract_y
_atom_site_fract_z
Si Si1 0.911204 0.219447 0.748986
Si Si2 0.983046 0.215441 0.265246
Si Si3 0.924996 0.210065 0.522069
Si Si4 0.624166 0.213371 0.725290
Si Si5 0.684175 0.785010 0.466110
Si Si6 0.785513 0.705908 0.237395
Si Si7 0.214911 0.785515 0.132812
O O1 0.936391 0.277349 0.617925
O O2 0.847800 0.282385 0.817229
O O3 0.953128 0.274366 0.790484
O O4 0.910323 0.000000 0.749503
O O5 0.953400 0.285644 0.395476
O O6 0.941348 0.260156 0.222041
O O7 0.983047 0.000000 0.268359
O O8 0.859338 0.230503 0.571767
O O9 0.939146 0.000000 0.508422
O O10 0.656153 0.282646 0.595134
O O11 0.656426 0.284592 0.785530
O O12 0.632746 0.000000 0.716620
O O13 0.743791 0.710335 0.373734
O O14 0.687861 0.000000 0.465354
O O15 0.796179 0.500000 0.197751
O O16 0.750257 0.788167 0.186645
O O17 0.209293 0.000000 0.153876
O O18 0.250000 0.750000 0.000000
#
# Coordination Sequence:
#
# PCOD9171251 Si02
#       7
#     8   8   8   8   8   8   8
#     4   9  16  30  51  73  97 128 166 206 246 292
#     4   9  17  28  48  75 101 131 167 201 235 289
#     4   9  15  27  46  69 100 135 169 197 235 294
#     4   9  19  32  46  70 105 138 166 196 238 293
#     4  10  18  27  43  72 106 133 164 204 242 285
#     4  10  19  34  53  69  94 135 171 202 246 299
#     4  10  21  37  56  76  97 123 164 214 259 297
#
# _framework density 22.634620000000002
#
# number of rings (size 3 to 8) (size 9 to 14) (size 15 to 20)
#    0.000    2.571    1.429    1.286    0.000    3.429 
#    0.000    1.429    0.000    4.286    0.000    6.000 
#    0.000    0.000    0.000    0.000    0.000    0.000 
#
# Total GULP energy -156165.475657 kJ/mol
# GULP energy per Si atom -5577.338416 kJ/mol
# Density = 2.258310 g / cm^3
# Si number density = 22.634620 Si / 1000 Ang^3
#
#
#
# Elastic Constant Matrix: (Units=GPa)
#
#
# Indices 1 2 3 4 5 6 
#
# 1 257.1296 5.8709 36.4806 0.0000 -2.4412 0.0000
# 2 5.8709 72.6008 -0.9663 0.0000 1.6111 -0.0001
# 3 36.4806 -0.9663 33.6298 0.0000 -2.6860 0.0000
# 4 0.0000 0.0000 0.0000 10.5165 0.0000 -1.0735
# 5 -2.4412 1.6111 -2.6860 0.0000 13.5712 0.0000
# 6 0.0000 -0.0001 0.0000 -1.0735 0.0000 13.3143
#
#
#
# Elastic Compliance Matrix: (Units=1/GPa)
#
#
# Indices 1 2 3 4 5 6 
#
# 1 0.004611 -0.000437 -0.005023 0.000000 -0.000113 0.000000
# 2 -0.000437 0.013854 0.000746 0.000000 -0.001576 0.000000
# 3 -0.005023 0.000746 0.035691 0.000000 0.006072 0.000000
# 4 0.000000 0.000000 0.000000 0.095877 0.000000 0.007730
# 5 -0.000113 -0.001576 0.006072 0.000000 0.075054 0.000000
# 6 0.000000 0.000000 0.000000 0.007730 0.000000 0.075731
#
#
# Mechanical properties :
#
#
# Convention : Reuss Voigt Hill
#
# Bulk Modulus (GPa) = 22.35730 49.57007 35.96368
# Shear Modulus (GPa) = 15.37730 28.94540 22.16135
#
# Velocity S-wave (km/s) = 2.60930 3.57993 3.13244
# Velocity P-wave (km/s) = 4.35624 6.24784 5.38574
#
# Compressibility (1/GPa) = 0.04472812
#
# Stress axis : x y z
#
# Youngs Moduli (GPa) = 216.88891 72.18027 28.01838
#
# Poissons Ratio (x) = 0.03156 0.14074
# Poissons Ratio (y) = 0.09482 -0.02091
# Poissons Ratio (z) = 1.08945 -0.05388
#
# Static dielectric constant tensor:
#      x y z
#    x 2.077730 0.000000 0.063630 
#    y 0.000000 1.925490 0.000000 
#    z 0.063630 0.000000 1.818100 
# 
# From -- ./inp_files/243627.got.cif
#   From: 2010.05.17/outbox.cif.g08.bks.cpg/sg12_122_cif.got.tgz:243627.got - 2010.06.03 13:09:07.
