data_PCOD9171857
_publ_section_title
;
Structure prediction by ZEFSAII (Michael W. Deem and Ramdas Pophale) SiO2 
 PCOD9171857
Probable space group: C 2/M
;
_chemical_formula_sum "Si O2"
_cell_formula_units_Z 44
_cell_length_a 21.155332
_cell_length_b 21.849895
_cell_length_c 11.652202
_cell_angle_alpha 90.000000
_cell_angle_beta 162.272549
_cell_angle_gamma 90.000000
_cell_volume 1640.021202
_symmetry_space_group_name_H-M "C 2/M"
_symmetry_group_IT_number 12
_symmetry_cell_setting 'monoclinic'
loop_
_space_group_symop_operation_xyz
x,y,z
-x,y,-z
-x,-y,-z
x,-y,z
1/2+x,1/2+y,z
1/2-x,1/2+y,-z
1/2-x,1/2-y,-z
1/2+x,1/2-y,z
loop_
_atom_site_type_symbol
_atom_site_label
_atom_site_fract_x
_atom_site_fract_y
_atom_site_fract_z
Si Si1 0.958572 0.697420 0.172665
Si Si2 0.224941 0.688677 0.834520
Si Si3 0.388542 0.565893 0.087569
Si Si4 0.750000 0.750000 0.500000
Si Si5 0.683548 0.604363 0.407318
Si Si6 0.997185 0.566338 0.763054
O O1 0.179436 0.688914 0.618249
O O2 0.023375 0.727920 0.165457
O O3 0.873051 0.628951 0.025185
O O4 0.831060 0.745653 0.026570
O O5 0.358433 0.630165 0.100354
O O6 0.000000 0.681290 0.500000
O O7 0.386037 0.500000 0.143565
O O8 0.184387 0.565098 0.649405
O O9 0.594862 0.573195 0.367696
O O10 0.702156 0.677584 0.451154
O O11 0.881978 0.576674 0.685733
O O12 0.500000 0.593068 0.000000
O O13 0.098911 0.500000 0.932961
#
# Coordination Sequence:
#
# PCOD9171857 Si02
#       6
#     8   8   8   4   8   8
#     4  10  21  34  56  80 104 140 172 220 266 311
#     4  11  22  37  53  76 108 143 182 215 256 311
#     4   9  16  28  47  72 102 133 170 217 265 301
#     4  10  18  28  50  78 108 132 168 210 268 322
#     4   9  15  25  43  72 105 132 165 209 263 314
#     4   8  15  27  47  75 101 130 168 210 259 318
#
# _framework density 26.828921000000001
#
# number of rings (size 3 to 8) (size 9 to 14) (size 15 to 20)
#    0.000    2.545    1.818    2.182    0.000    2.545 
#    0.000    0.000    0.000    1.636    0.000    2.545 
#    0.000    0.000    0.000    0.000    0.000    0.000 
#
# Total GULP energy -122487.571419 kJ/mol
# GULP energy per Si atom -5567.616883 kJ/mol
# Density = 2.676786 g / cm^3
# Si number density = 26.828921 Si / 1000 Ang^3
#
#
#
# Elastic Constant Matrix: (Units=GPa)
#
#
# Indices 1 2 3 4 5 6 
#
# 1 52.6737 19.0651 18.3145 0.0000 15.2243 0.0000
# 2 19.0651 291.7450 30.3467 0.0000 43.0584 0.0000
# 3 18.3145 30.3467 55.3802 -0.0001 13.4065 -0.0001
# 4 0.0000 0.0000 -0.0001 -25.6534 -0.0001 -35.1323
# 5 15.2243 43.0584 13.4065 -0.0001 50.9117 0.0000
# 6 0.0000 0.0000 -0.0001 -35.1323 0.0000 -29.9436
#
#
#
# Elastic Compliance Matrix: (Units=1/GPa)
#
#
# Indices 1 2 3 4 5 6 
#
# 1 0.022639 -0.000086 -0.006215 0.000000 -0.005061 0.000000
# 2 -0.000086 0.004027 -0.001452 0.000000 -0.002997 0.000000
# 3 -0.006215 -0.001452 0.021534 0.000000 -0.002584 0.000000
# 4 0.000000 0.000000 0.000000 0.064239 0.000000 -0.075371
# 5 -0.005061 -0.002997 -0.002584 0.000000 0.024371 0.000000
# 6 0.000000 0.000000 0.000000 -0.075371 0.000000 0.055035
#
#
# Mechanical properties :
#
#
# Convention : Reuss Voigt Hill
#
# Bulk Modulus (GPa) = 30.58738 59.47238 45.02988
# Shear Modulus (GPa) = 22.90961 21.20112 22.05537
#
# Velocity S-wave (km/s) = 2.92535 2.81416 2.87029
# Velocity P-wave (km/s) = 4.77869 5.72492 5.27307
#
# Compressibility (1/GPa) = 0.03269323
#
# Stress axis : x y z
#
# Youngs Moduli (GPa) = 44.17062 248.33981 46.43908
#
# Poissons Ratio (x) = 0.02139 0.28861
# Poissons Ratio (y) = 0.00380 0.06745
# Poissons Ratio (z) = 0.27451 0.36070
#
# Static dielectric constant tensor:
#      x y z
#    x 2.221470 0.000000 -0.099110 
#    y 0.000000 2.161860 0.000000 
#    z -0.099110 0.000000 2.015760 
# 
# From -- ./inp_files/241792.got.cif
#   From: 2010.05.17/outbox.cif.g08.bks.cpg/sg12_121_cif.got.tgz:241792.got - 2010.06.03 13:09:07.
