data_PCOD9171200
_publ_section_title
;
Structure prediction by ZEFSAII (Michael W. Deem and Ramdas Pophale) SiO2 
 PCOD9171200
Probable space group: C 2/M
;
_chemical_formula_sum "Si O2"
_cell_formula_units_Z 64
_cell_length_a 25.665042
_cell_length_b 16.645544
_cell_length_c 9.399326
_cell_angle_alpha 90.000000
_cell_angle_beta 110.907419
_cell_angle_gamma 90.000000
_cell_volume 3751.087111
_symmetry_space_group_name_H-M "C 2/M"
_symmetry_group_IT_number 12
_symmetry_cell_setting 'monoclinic'
loop_
_space_group_symop_operation_xyz
x,y,z
-x,y,-z
-x,-y,-z
x,-y,z
1/2+x,1/2+y,z
1/2-x,1/2+y,-z
1/2-x,1/2-y,-z
1/2+x,1/2-y,z
loop_
_atom_site_type_symbol
_atom_site_label
_atom_site_fract_x
_atom_site_fract_y
_atom_site_fract_z
Si Si1 0.882544 0.169645 0.863637
Si Si2 0.093938 0.804020 0.656854
Si Si3 0.117077 0.589746 0.971225
Si Si4 0.684809 0.751298 0.964382
Si Si5 0.964039 0.906508 0.168720
Si Si6 0.523174 0.855396 0.663836
Si Si7 0.446228 0.824393 0.850533
Si Si8 0.407456 0.592927 0.622278
O O1 0.904115 0.250415 0.809348
O O2 0.870063 0.108036 0.725555
O O3 0.833744 0.192573 0.924910
O O4 0.933869 0.140381 0.012572
O O5 0.150228 0.777517 0.792135
O O6 0.065902 0.875889 0.718712
O O7 0.052263 0.728037 0.638562
O O8 0.102409 0.841266 0.509652
O O9 0.140079 0.500000 0.990667
O O10 0.161100 0.660839 0.985043
O O11 0.069938 0.600179 0.802929
O O12 0.085564 0.606873 0.090524
O O13 0.750000 0.750000 0.000000
O O14 0.029469 0.894068 0.257870
O O15 0.955086 0.000000 0.133404
O O16 0.500000 0.896688 0.500000
O O17 0.471830 0.841551 0.721883
O O18 0.500000 0.803374 0.000000
O O19 0.403155 0.500000 0.569216
#
# Coordination Sequence:
#
# PCOD9171200 Si02
#       8
#     8   8   8   8   8   8   8   8
#     4  10  18  30  48  70  98 132 175 212 240 296
#     4  10  19  31  48  69 100 133 172 211 243 297
#     4   9  19  34  51  74 100 124 157 202 249 294
#     4   9  20  39  58  73  89 124 173 217 261 302
#     4  10  18  27  42  68 105 143 170 196 235 287
#     4  10  18  28  47  73 102 135 161 184 230 298
#     4   9  16  27  46  68  95 132 163 192 233 288
#     4  11  20  29  45  74 112 144 167 201 249 295
#
# _framework density 17.061722
#
# number of rings (size 3 to 8) (size 9 to 14) (size 15 to 20)
#    0.000    2.250    0.000    6.750    0.000    4.500 
#    0.000    4.375    0.000    0.000    0.000    0.000 
#    0.000    0.000    0.000    0.000    0.000    0.000 
#
# Total GULP energy -178368.261042 kJ/mol
# GULP energy per Si atom -5574.008158 kJ/mol
# Density = 1.702289 g / cm^3
# Si number density = 17.061722 Si / 1000 Ang^3
#
#
#
# Elastic Constant Matrix: (Units=GPa)
#
#
# Indices 1 2 3 4 5 6 
#
# 1 95.9096 38.6215 30.9149 0.0000 0.2678 0.0000
# 2 38.6215 80.3058 33.6627 0.0000 -9.6920 0.0000
# 3 30.9149 33.6627 85.5587 0.0000 -19.6983 0.0000
# 4 0.0000 0.0000 0.0000 12.6222 0.0000 -3.3906
# 5 0.2678 -9.6920 -19.6983 0.0000 13.6058 0.0000
# 6 0.0000 0.0000 0.0000 -3.3906 0.0000 10.1177
#
#
#
# Elastic Compliance Matrix: (Units=1/GPa)
#
#
# Indices 1 2 3 4 5 6 
#
# 1 0.014941 -0.006286 -0.006036 0.000000 -0.013511 0.000000
# 2 -0.006286 0.017649 -0.002624 0.000000 0.008896 0.000000
# 3 -0.006036 -0.002624 0.021747 0.000000 0.029735 0.000000
# 4 0.000000 0.000000 0.000000 0.087063 0.000000 0.029177
# 5 -0.013511 0.008896 0.029735 0.000000 0.123151 0.000000
# 6 0.000000 0.000000 0.000000 0.029177 0.000000 0.108614
#
#
# Mechanical properties :
#
#
# Convention : Reuss Voigt Hill
#
# Bulk Modulus (GPa) = 40.90871 52.01914 46.46392
# Shear Modulus (GPa) = 12.15931 17.84081 15.00006
#
# Velocity S-wave (km/s) = 2.67248 3.23718 2.96829
# Velocity P-wave (km/s) = 5.79239 6.67289 6.24817
#
# Compressibility (1/GPa) = 0.02444467
#
# Stress axis : x y z
#
# Youngs Moduli (GPa) = 66.92938 56.65926 45.98258
#
# Poissons Ratio (x) = 0.35616 0.27755
# Poissons Ratio (y) = 0.42072 0.12068
# Poissons Ratio (z) = 0.40399 0.14870
#
# Static dielectric constant tensor:
#      x y z
#    x 1.559980 0.000000 -0.021580 
#    y 0.000000 1.603760 0.000000 
#    z -0.021580 0.000000 1.603330 
# 
# From -- ./inp_files/97784.got.cif
#   From: 2010.05.17/outbox.cif.g08.bks.cpg/sg12_49_cif.got.tgz:97784.got - 2010.06.03 13:09:07.
