data_PCOD9171216
_publ_section_title
;
Structure prediction by ZEFSAII (Michael W. Deem and Ramdas Pophale) SiO2 
 PCOD9171216
Probable space group: C 2/M
;
_chemical_formula_sum "Si O2"
_cell_formula_units_Z 56
_cell_length_a 24.904547
_cell_length_b 9.016647
_cell_length_c 18.206442
_cell_angle_alpha 90.000000
_cell_angle_beta 62.491588
_cell_angle_gamma 90.000000
_cell_volume 3626.139617
_symmetry_space_group_name_H-M "C 2/M"
_symmetry_group_IT_number 12
_symmetry_cell_setting 'monoclinic'
loop_
_space_group_symop_operation_xyz
x,y,z
-x,y,-z
-x,-y,-z
x,-y,z
1/2+x,1/2+y,z
1/2-x,1/2+y,-z
1/2-x,1/2-y,-z
1/2+x,1/2-y,z
loop_
_atom_site_type_symbol
_atom_site_label
_atom_site_fract_x
_atom_site_fract_y
_atom_site_fract_z
Si Si1 0.652937 0.176488 0.270913
Si Si2 0.831776 0.830384 0.887825
Si Si3 0.314246 0.829564 0.044201
Si Si4 0.829794 0.175893 0.501531
Si Si5 0.207166 0.175797 0.634781
Si Si6 0.430357 0.322845 0.556561
Si Si7 0.216842 0.321769 0.777637
O O1 0.642764 0.230324 0.193810
O O2 0.601037 0.236097 0.357262
O O3 0.716288 0.250818 0.256653
O O4 0.658482 0.000000 0.270897
O O5 0.758618 0.828236 0.923130
O O6 0.851663 0.000000 0.866998
O O7 0.842987 0.768849 0.962236
O O8 0.320032 0.781225 0.125209
O O9 0.334198 0.000000 0.023993
O O10 0.832593 0.206389 0.412800
O O11 0.774413 0.268986 0.569966
O O12 0.890061 0.205225 0.509427
O O13 0.815073 0.000000 0.518898
O O14 0.189388 0.261773 0.719557
O O15 0.207798 0.000000 0.647940
O O16 0.500000 0.282813 0.500000
O O17 0.427123 0.500000 0.573706
O O18 0.223074 0.500000 0.772671
#
# Coordination Sequence:
#
# PCOD9171216 Si02
#       7
#     8   8   8   8   8   8   8
#     4  11  20  29  43  62  85 114 149 185 221 262
#     4   9  16  26  40  57  81 113 145 177 214 258
#     4   8  15  25  37  56  82 112 144 176 212 253
#     4   9  18  31  45  62  87 115 146 183 223 266
#     4  10  18  27  43  66  88 115 147 181 220 263
#     4  10  20  34  50  65  85 116 152 189 227 264
#     4  10  18  28  42  61  88 119 148 180 217 261
#
# _framework density 15.443421000000001
#
# number of rings (size 3 to 8) (size 9 to 14) (size 15 to 20)
#    0.000    2.429    1.429    3.429    0.000    4.857 
#    0.000    0.000    0.000    0.000    0.000    0.000 
#    0.000    1.143    0.000   13.143    0.000    3.571 
#
# Total GULP energy -156025.751635 kJ/mol
# GULP energy per Si atom -5572.348273 kJ/mol
# Density = 1.540827 g / cm^3
# Si number density = 15.443421 Si / 1000 Ang^3
#
#
#
# Elastic Constant Matrix: (Units=GPa)
#
#
# Indices 1 2 3 4 5 6 
#
# 1 50.6343 30.9846 44.7480 0.0000 11.1459 0.0000
# 2 30.9846 72.8369 57.4291 0.0000 13.5550 0.0000
# 3 44.7480 57.4291 111.3290 0.0000 32.5299 0.0000
# 4 0.0000 0.0000 0.0000 27.8179 0.0000 7.6273
# 5 11.1459 13.5550 32.5299 0.0000 23.8530 0.0000
# 6 0.0000 0.0000 0.0000 7.6273 0.0000 12.7235
#
#
#
# Elastic Compliance Matrix: (Units=1/GPa)
#
#
# Indices 1 2 3 4 5 6 
#
# 1 0.032179 -0.005656 -0.010909 0.000000 0.003056 0.000000
# 2 -0.005656 0.024531 -0.011770 0.000000 0.004754 0.000000
# 3 -0.010909 -0.011770 0.026591 0.000000 -0.024478 0.000000
# 4 0.000000 0.000000 0.000000 0.043019 0.000000 -0.025789
# 5 0.003056 0.004754 -0.024478 0.000000 0.071176 0.000000
# 6 0.000000 0.000000 0.000000 -0.025789 0.000000 0.094055
#
#
# Mechanical properties :
#
#
# Convention : Reuss Voigt Hill
#
# Bulk Modulus (GPa) = 37.55092 55.68039 46.61566
# Shear Modulus (GPa) = 14.00176 19.65477 16.82826
#
# Velocity S-wave (km/s) = 3.01433 3.57136 3.30460
# Velocity P-wave (km/s) = 6.04010 7.28964 6.69409
#
# Compressibility (1/GPa) = 0.02663051
#
# Stress axis : x y z
#
# Youngs Moduli (GPa) = 31.07615 40.76519 37.60632
#
# Poissons Ratio (x) = 0.23056 0.41026
# Poissons Ratio (y) = 0.17576 0.44263
# Poissons Ratio (z) = 0.33902 0.47981
#
# Static dielectric constant tensor:
#      x y z
#    x 1.497920 0.000000 0.040340 
#    y 0.000000 1.519820 0.000000 
#    z 0.040340 0.000000 1.527050 
# 
# From -- ./inp_files/287359.got.cif
#   From: 2010.05.17/outbox.cif.g08.bks.cpg/sg12_144_cif.got.tgz:287359.got - 2010.06.03 13:09:07.
