data_PCOD9172909
_publ_section_title
;
Structure prediction by ZEFSAII (Michael W. Deem and Ramdas Pophale) SiO2 
 PCOD9172909
Probable space group: C 2/M
;
_chemical_formula_sum "Si O2"
_cell_formula_units_Z 56
_cell_length_a 18.937941
_cell_length_b 28.277514
_cell_length_c 9.447127
_cell_angle_alpha 90.000000
_cell_angle_beta 141.581253
_cell_angle_gamma 90.000000
_cell_volume 3143.749271
_symmetry_space_group_name_H-M "C 2/M"
_symmetry_group_IT_number 12
_symmetry_cell_setting 'monoclinic'
loop_
_space_group_symop_operation_xyz
x,y,z
-x,y,-z
-x,-y,-z
x,-y,z
1/2+x,1/2+y,z
1/2-x,1/2+y,-z
1/2-x,1/2-y,-z
1/2+x,1/2-y,z
loop_
_atom_site_type_symbol
_atom_site_label
_atom_site_fract_x
_atom_site_fract_y
_atom_site_fract_z
Si Si1 0.644449 0.878069 0.481383
Si Si2 0.586941 0.714215 0.744297
Si Si3 0.180885 0.307996 0.776321
Si Si4 0.566903 0.262288 0.238007
Si Si5 0.713955 0.176231 0.346020
Si Si6 0.138272 0.445595 0.728254
Si Si7 0.615209 0.871830 0.916057
O O1 0.661381 0.828958 0.592952
O O2 0.713169 0.869456 0.447052
O O3 0.677745 0.917497 0.649467
O O4 0.511916 0.884045 0.233778
O O5 0.500000 0.689418 0.500000
O O6 0.648076 0.753819 0.743426
O O7 0.521299 0.739783 0.770418
O O8 0.688801 0.684799 0.972159
O O9 0.104454 0.336588 0.766253
O O10 0.618795 0.213805 0.253208
O O11 0.669894 0.294862 0.454580
O O12 0.500000 0.284750 0.000000
O O13 0.683205 0.156223 0.143225
O O14 0.173684 0.500000 0.785368
O O15 0.167827 0.417623 0.919497
O O16 0.000000 0.443955 0.500000
#
# Coordination Sequence:
#
# PCOD9172909 Si02
#       7
#     8   8   8   8   8   8   8
#     4  10  18  30  49  68  94 126 156 189 228 284
#     4  11  20  30  44  63  89 121 162 206 234 259
#     4  10  19  30  45  64  87 122 164 195 230 277
#     4  11  22  33  45  63  98 135 164 199 232 264
#     4  11  21  32  46  68  95 130 168 194 226 274
#     4   8  16  31  50  72  96 122 149 185 238 292
#     4  10  18  30  49  69  94 123 153 192 230 278
#
# _framework density 17.813123999999998
#
# number of rings (size 3 to 8) (size 9 to 14) (size 15 to 20)
#    0.000    1.857    0.000    7.714    0.000    4.571 
#    0.000    0.714    0.000    3.429    0.000    0.000 
#    0.000   72.000    0.000    0.000    0.000    0.000 
#
# Total GULP energy -156124.970305 kJ/mol
# GULP energy per Si atom -5575.891797 kJ/mol
# Density = 1.777258 g / cm^3
# Si number density = 17.813124 Si / 1000 Ang^3
#
#
#
# Elastic Constant Matrix: (Units=GPa)
#
#
# Indices 1 2 3 4 5 6 
#
# 1 45.2070 10.5232 31.7256 0.0000 -10.4470 0.0000
# 2 10.5232 70.1908 28.4049 0.0000 -5.3072 0.0000
# 3 31.7256 28.4049 104.5266 0.0000 -16.9360 0.0000
# 4 0.0000 0.0000 0.0000 16.7105 0.0000 -5.3327
# 5 -10.4470 -5.3072 -16.9360 0.0000 31.6040 0.0000
# 6 0.0000 0.0000 0.0000 -5.3327 0.0000 12.9698
#
#
#
# Elastic Compliance Matrix: (Units=1/GPa)
#
#
# Indices 1 2 3 4 5 6 
#
# 1 0.028942 -0.000821 -0.007702 0.000000 0.005302 0.000000
# 2 -0.000821 0.016035 -0.004069 0.000000 0.000241 0.000000
# 3 -0.007702 -0.004069 0.013675 0.000000 0.004099 0.000000
# 4 0.000000 0.000000 0.000000 0.068881 0.000000 0.028321
# 5 0.005302 0.000241 0.004099 0.000000 0.035631 0.000000
# 6 0.000000 0.000000 0.000000 0.028321 0.000000 0.088747
#
#
# Mechanical properties :
#
#
# Convention : Reuss Voigt Hill
#
# Bulk Modulus (GPa) = 29.88087 40.13688 35.00887
# Shear Modulus (GPa) = 17.34601 22.20824 19.77712
#
# Velocity S-wave (km/s) = 3.12393 3.53474 3.33566
# Velocity P-wave (km/s) = 5.46104 6.26421 5.87636
#
# Compressibility (1/GPa) = 0.03346623
#
# Stress axis : x y z
#
# Youngs Moduli (GPa) = 34.55165 62.36382 73.12832
#
# Poissons Ratio (x) = 0.05122 0.56325
# Poissons Ratio (y) = 0.02838 0.29757
# Poissons Ratio (z) = 0.26613 0.25377
#
# Static dielectric constant tensor:
#      x y z
#    x 1.638980 0.000000 0.007100 
#    y 0.000000 1.621440 0.000000 
#    z 0.007100 0.000000 1.658640 
# 
# From -- ./inp_files/54154.got.cif
#   From: 2010.05.17/outbox.cif.g08.bks.cpg/sg12_28_cif.got.tgz:54154.got - 2010.06.03 13:09:07.
