data_PCOD9172468
_publ_section_title
;
Structure prediction by ZEFSAII (Michael W. Deem and Ramdas Pophale) SiO2 
 PCOD9172468
Probable space group: C 2/M
;
_chemical_formula_sum "Si O2"
_cell_formula_units_Z 48
_cell_length_a 18.027895
_cell_length_b 24.463206
_cell_length_c 12.776012
_cell_angle_alpha 90.000000
_cell_angle_beta 30.502911
_cell_angle_gamma 90.000000
_cell_volume 2859.960499
_symmetry_space_group_name_H-M "C 2/M"
_symmetry_group_IT_number 12
_symmetry_cell_setting 'monoclinic'
loop_
_space_group_symop_operation_xyz
x,y,z
-x,y,-z
-x,-y,-z
x,-y,z
1/2+x,1/2+y,z
1/2-x,1/2+y,-z
1/2-x,1/2-y,-z
1/2+x,1/2-y,z
loop_
_atom_site_type_symbol
_atom_site_label
_atom_site_fract_x
_atom_site_fract_y
_atom_site_fract_z
Si Si1 0.744022 0.061954 0.670642
Si Si2 0.650653 0.664864 0.565533
Si Si3 0.941802 0.437821 0.903181
Si Si4 0.957461 0.668979 0.308245
Si Si5 0.433699 0.731582 0.963850
Si Si6 0.123490 0.747374 0.420494
O O1 0.849796 0.107145 0.493445
O O2 0.593429 0.063189 0.785785
O O3 0.800803 0.000000 0.597553
O O4 0.687982 0.073837 0.856341
O O5 0.789200 0.663853 0.474807
O O6 0.510553 0.684680 0.801061
O O7 0.677367 0.711156 0.444973
O O8 0.924714 0.500000 0.884448
O O9 0.962025 0.388896 0.797389
O O10 0.029090 0.711387 0.139012
O O11 0.952450 0.697395 0.426453
O O12 0.739263 0.727844 0.813046
O O13 0.500000 0.730933 0.000000
O O14 0.000000 0.774983 0.500000
#
# Coordination Sequence:
#
# PCOD9172468 Si02
#       6
#     8   8   8   8   8   8
#     4   8  14  25  44  72  98 120 152 199 239 274
#     4  10  18  30  50  72  94 130 161 191 236 290
#     4   8  14  24  43  71  99 122 152 196 240 275
#     4  10  18  29  50  72  95 128 163 192 235 287
#     4  11  18  31  50  69  94 130 162 192 233 285
#     4  11  22  33  46  72 101 125 159 201 238 279
#
# _framework density 16.783448
#
# number of rings (size 3 to 8) (size 9 to 14) (size 15 to 20)
#    0.000    2.333    3.333    3.000    2.333    2.667 
#    0.000    0.000    0.000    2.500    0.000    2.333 
#    0.000    0.000    0.000    0.000    0.000    0.000 
#
# Total GULP energy -133716.950301 kJ/mol
# GULP energy per Si atom -5571.539596 kJ/mol
# Density = 1.674525 g / cm^3
# Si number density = 16.783448 Si / 1000 Ang^3
#
#
#
# Elastic Constant Matrix: (Units=GPa)
#
#
# Indices 1 2 3 4 5 6 
#
# 1 14.6155 -8.3190 9.3615 0.0000 -7.6033 0.0018
# 2 -8.3190 95.1564 55.1617 -0.0021 6.6853 0.0041
# 3 9.3615 55.1617 111.9476 0.0019 5.0875 0.0001
# 4 0.0000 -0.0021 0.0019 21.3864 -0.0017 7.4445
# 5 -7.6033 6.6853 5.0875 -0.0017 8.6489 0.0003
# 6 0.0018 0.0041 0.0001 7.4445 0.0003 0.5005
#
#
#
# Elastic Compliance Matrix: (Units=1/GPa)
#
#
# Indices 1 2 3 4 5 6 
#
# 1 0.201601 0.027368 -0.038465 -0.000094 0.178700 0.000327
# 2 0.027368 0.018890 -0.012357 -0.000023 0.016727 0.000078
# 3 -0.038465 -0.012357 0.019872 0.000023 -0.035953 -0.000083
# 4 -0.000094 -0.000023 0.000023 -0.011193 -0.000087 0.166481
# 5 0.178700 0.016727 -0.035953 -0.000087 0.280936 0.000327
# 6 0.000327 0.000078 -0.000083 0.166481 0.000327 -0.478266
#
#
# Mechanical properties :
#
#
# Convention : Reuss Voigt Hill
#
# Bulk Modulus (GPa) = 5.16915 37.12532 21.14724
# Shear Modulus (GPa) = 34.90830 17.14152 26.02491
#
# Velocity S-wave (km/s) = 4.56557 3.19930 3.94208
# Velocity P-wave (km/s) = 5.55690 5.98461 5.77472
#
# Compressibility (1/GPa) = 0.19345527
#
# Stress axis : x y z
#
# Youngs Moduli (GPa) = 4.96030 52.93926 50.32219
#
# Poissons Ratio (x) = -1.44887 1.93567
# Poissons Ratio (y) = -0.13576 0.62181
# Poissons Ratio (z) = 0.19080 0.65415
#
# Static dielectric constant tensor:
#      x y z
#    x 1.559460 0.000000 -0.005140 
#    y 0.000000 1.581130 0.000000 
#    z -0.005140 0.000000 1.563030 
# 
# From -- ./inp_files/159978.got.cif
#   From: 2010.05.17/outbox.cif.g08.bks.cpg/sg12_80_cif.got.tgz:159978.got - 2010.06.03 13:09:07.
