data_PCOD9172496
_publ_section_title
;
Structure prediction by ZEFSAII (Michael W. Deem and Ramdas Pophale) SiO2 
 PCOD9172496
Probable space group: C 2/M
;
_chemical_formula_sum "Si O2"
_cell_formula_units_Z 48
_cell_length_a 14.431406
_cell_length_b 12.277442
_cell_length_c 20.097679
_cell_angle_alpha 90.000000
_cell_angle_beta 142.835381
_cell_angle_gamma 90.000000
_cell_volume 2151.178275
_symmetry_space_group_name_H-M "C 2/M"
_symmetry_group_IT_number 12
_symmetry_cell_setting 'monoclinic'
loop_
_space_group_symop_operation_xyz
x,y,z
-x,y,-z
-x,-y,-z
x,-y,z
1/2+x,1/2+y,z
1/2-x,1/2+y,-z
1/2-x,1/2-y,-z
1/2+x,1/2-y,z
loop_
_atom_site_type_symbol
_atom_site_label
_atom_site_fract_x
_atom_site_fract_y
_atom_site_fract_z
Si Si1 0.274897 0.127145 0.711440
Si Si2 0.431032 0.302584 0.888736
Si Si3 0.122116 0.660943 0.774122
Si Si4 0.480220 0.376277 0.324945
Si Si5 0.234164 0.881112 0.007441
Si Si6 0.720505 0.126711 0.436088
O O1 0.393503 0.199064 0.821339
O O2 0.262136 0.171241 0.629097
O O3 0.114031 0.131565 0.659577
O O4 0.320248 0.000000 0.735849
O O5 0.267887 0.358174 0.810905
O O6 0.556249 0.379504 0.927784
O O7 0.500000 0.268217 0.000000
O O8 0.104516 0.792060 0.771286
O O9 0.959824 0.625960 0.651419
O O10 0.157604 0.612944 0.865621
O O11 0.475244 0.500000 0.298411
O O12 0.653650 0.336832 0.437981
O O13 0.260478 0.000000 0.986293
O O14 0.250000 0.750000 0.000000
O O15 0.769046 0.000000 0.456522
#
# Coordination Sequence:
#
# PCOD9172496 Si02
#       6
#     8   8   8   8   8   8
#     4   9  17  31  51  77 110 147 188 232 278 329
#     4   9  20  35  52  77 109 145 185 229 279 331
#     4  10  20  34  53  78 109 145 186 228 275 335
#     4   9  18  32  50  76 110 146 185 233 284 328
#     4  11  24  41  61  85 113 146 186 231 279 331
#     4  10  18  29  50  77 105 142 188 234 279 331
#
# _framework density 22.313351999999998
#
# number of rings (size 3 to 8) (size 9 to 14) (size 15 to 20)
#    0.000    2.333    0.000    2.500    0.000    8.667 
#    0.000    3.333    0.000    0.000    0.000    0.000 
#    0.000   33.333    0.000    0.000    0.000    0.000 
#
# Total GULP energy -133712.938434 kJ/mol
# GULP energy per Si atom -5571.372435 kJ/mol
# Density = 2.226257 g / cm^3
# Si number density = 22.313352 Si / 1000 Ang^3
#
#
#
# Elastic Constant Matrix: (Units=GPa)
#
#
# Indices 1 2 3 4 5 6 
#
# 1 48.6419 21.1491 23.3160 0.0000 15.9097 0.0000
# 2 21.1491 132.6223 30.6616 0.0000 -0.3232 0.0000
# 3 23.3160 30.6616 93.3956 0.0002 21.8566 0.0001
# 4 0.0000 0.0000 0.0002 2.4846 0.0001 -8.5739
# 5 15.9097 -0.3232 21.8566 0.0001 35.3044 0.0000
# 6 0.0000 0.0000 0.0001 -8.5739 0.0000 13.5628
#
#
#
# Elastic Compliance Matrix: (Units=1/GPa)
#
#
# Indices 1 2 3 4 5 6 
#
# 1 0.026986 -0.003598 -0.003160 0.000000 -0.010238 0.000000
# 2 -0.003598 0.008765 -0.002780 0.000000 0.003423 0.000000
# 3 -0.003160 -0.002780 0.014128 0.000001 -0.007348 0.000000
# 4 0.000000 0.000000 0.000001 -0.340664 0.000001 -0.215354
# 5 -0.010238 0.003423 -0.007348 0.000001 0.037519 0.000000
# 6 0.000000 0.000000 0.000000 -0.215354 0.000000 -0.062407
#
#
# Mechanical properties :
#
#
# Convention : Reuss Voigt Hill
#
# Bulk Modulus (GPa) = 32.46425 47.21258 39.83841
# Shear Modulus (GPa) = -17.46248 23.57256 3.05504
#
# Velocity S-wave (km/s) = -2.80054 3.25381 1.17138
# Velocity P-wave (km/s) = 2.03064 5.94316 4.44098
#
# Compressibility (1/GPa) = 0.03080311
#
# Stress axis : x y z
#
# Youngs Moduli (GPa) = 37.05635 114.08871 70.77906
#
# Poissons Ratio (x) = 0.41047 0.22366
# Poissons Ratio (y) = 0.13332 0.19680
# Poissons Ratio (z) = 0.11710 0.31721
#
# Static dielectric constant tensor:
#      x y z
#    x 1.855870 0.000000 0.036110 
#    y 0.000000 1.951040 0.000000 
#    z 0.036110 0.000000 1.819480 
# 
# From -- ./inp_files/343440.got.cif
#   From: 2010.05.17/outbox.cif.g08.bks.cpg/sg12_172_cif.got.tgz:343440.got - 2010.06.03 13:09:07.
