data_PCOD9172982
_publ_section_title
;
Structure prediction by ZEFSAII (Michael W. Deem and Ramdas Pophale) SiO2 
 PCOD9172982
Probable space group: C 2/M
;
_chemical_formula_sum "Si O2"
_cell_formula_units_Z 56
_cell_length_a 24.053009
_cell_length_b 8.568419
_cell_length_c 19.753506
_cell_angle_alpha 90.000000
_cell_angle_beta 128.921855
_cell_angle_gamma 90.000000
_cell_volume 3167.348730
_symmetry_space_group_name_H-M "C 2/M"
_symmetry_group_IT_number 12
_symmetry_cell_setting 'monoclinic'
loop_
_space_group_symop_operation_xyz
x,y,z
-x,y,-z
-x,-y,-z
x,-y,z
1/2+x,1/2+y,z
1/2-x,1/2+y,-z
1/2-x,1/2-y,-z
1/2+x,1/2-y,z
loop_
_atom_site_type_symbol
_atom_site_label
_atom_site_fract_x
_atom_site_fract_y
_atom_site_fract_z
Si Si1 0.750639 0.689144 0.715328
Si Si2 0.941195 0.313545 0.757866
Si Si3 0.366381 0.187188 0.980078
Si Si4 0.412352 0.312816 0.161098
Si Si5 0.296680 0.688768 0.180655
Si Si6 0.218387 0.687148 0.406612
Si Si7 0.406817 0.315906 0.872568
O O1 0.762446 0.500000 0.727233
O O2 0.697043 0.730537 0.735049
O O3 0.736547 0.729763 0.626543
O O4 0.824872 0.771329 0.791445
O O5 0.944053 0.500000 0.757655
O O6 0.863493 0.262173 0.670811
O O7 0.948259 0.262489 0.841907
O O8 0.006560 0.241787 0.766770
O O9 0.283168 0.234425 0.904192
O O10 0.413558 0.253667 0.954178
O O11 0.370376 0.000000 0.980566
O O12 0.388457 0.247624 0.070131
O O13 0.409855 0.500000 0.157060
O O14 0.358019 0.254271 0.177402
O O15 0.298414 0.500000 0.178752
O O16 0.217458 0.500000 0.409758
O O17 0.250000 0.750000 0.500000
O O18 0.418815 0.500000 0.880424
#
# Coordination Sequence:
#
# PCOD9172982 Si02
#       7
#     8   8   8   8   8   8   8
#     4   8  15  31  51  73 100 132 160 191 241 298
#     4  10  21  37  51  69  99 135 163 191 244 310
#     4  10  19  33  50  69  97 136 171 204 247 295
#     4  11  21  32  48  73  99 128 168 215 247 276
#     4   8  16  31  51  71  97 131 170 207 241 280
#     4   9  18  32  55  80 101 122 153 194 240 295
#     4  10  18  30  49  73  97 124 163 213 249 281
#
# _framework density 17.680402000000001
#
# number of rings (size 3 to 8) (size 9 to 14) (size 15 to 20)
#    0.000    2.571    0.000    4.714    0.000    3.429 
#    0.000    9.286    0.000    0.857    0.000    6.000 
#    0.000    0.000    0.000    0.000    0.000    0.000 
#
# Total GULP energy -156084.991567 kJ/mol
# GULP energy per Si atom -5574.463985 kJ/mol
# Density = 1.764016 g / cm^3
# Si number density = 17.680402 Si / 1000 Ang^3
#
#
#
# Elastic Constant Matrix: (Units=GPa)
#
#
# Indices 1 2 3 4 5 6 
#
# 1 120.8516 10.7207 52.9390 0.0000 -15.4446 0.0000
# 2 10.7207 32.8396 12.6954 0.0000 -3.7030 0.0000
# 3 52.9390 12.6954 110.5923 0.0000 -24.2396 0.0000
# 4 0.0000 0.0000 0.0000 26.6018 0.0000 -2.3550
# 5 -15.4446 -3.7030 -24.2396 0.0000 20.2712 0.0000
# 6 0.0000 0.0000 0.0000 -2.3550 0.0000 22.5178
#
#
#
# Elastic Compliance Matrix: (Units=1/GPa)
#
#
# Indices 1 2 3 4 5 6 
#
# 1 0.010649 -0.001498 -0.004346 0.000000 0.002643 0.000000
# 2 -0.001498 0.032134 -0.002623 0.000000 0.001592 0.000000
# 3 -0.004346 -0.002623 0.014355 0.000000 0.013375 0.000000
# 4 0.000000 0.000000 0.000000 0.037943 0.000000 0.003968
# 5 0.002643 0.001592 0.013375 0.000000 0.067629 0.000000
# 6 0.000000 0.000000 0.000000 0.003968 0.000000 0.044824
#
#
# Mechanical properties :
#
#
# Convention : Reuss Voigt Hill
#
# Bulk Modulus (GPa) = 24.87329 46.33262 35.60295
# Shear Modulus (GPa) = 21.01990 26.40671 23.71331
#
# Velocity S-wave (km/s) = 3.45176 3.86885 3.66624
# Velocity P-wave (km/s) = 5.47585 6.79852 6.17272
#
# Compressibility (1/GPa) = 0.04020377
#
# Stress axis : x y z
#
# Youngs Moduli (GPa) = 93.90378 31.12011 69.66016
#
# Poissons Ratio (x) = 0.04663 0.30277
# Poissons Ratio (y) = 0.14069 0.18269
# Poissons Ratio (z) = 0.40815 0.08161
#
# Static dielectric constant tensor:
#      x y z
#    x 1.641830 0.000000 -0.004850 
#    y 0.000000 1.595940 0.000000 
#    z -0.004850 0.000000 1.606810 
# 
# From -- ./inp_files/280932.got.cif
#   From: 2010.05.17/outbox.cif.g08.bks.cpg/sg12_141_cif.got.tgz:280932.got - 2010.06.03 13:09:07.
