data_PCOD9172465
_publ_section_title
;
Structure prediction by ZEFSAII (Michael W. Deem and Ramdas Pophale) SiO2 
 PCOD9172465
Probable space group: C 2/M
;
_chemical_formula_sum "Si O2"
_cell_formula_units_Z 44
_cell_length_a 21.194121
_cell_length_b 21.537539
_cell_length_c 17.915258
_cell_angle_alpha 90.000000
_cell_angle_beta 19.066784
_cell_angle_gamma 90.000000
_cell_volume 2671.430289
_symmetry_space_group_name_H-M "C 2/M"
_symmetry_group_IT_number 12
_symmetry_cell_setting 'monoclinic'
loop_
_space_group_symop_operation_xyz
x,y,z
-x,y,-z
-x,-y,-z
x,-y,z
1/2+x,1/2+y,z
1/2-x,1/2+y,-z
1/2-x,1/2-y,-z
1/2+x,1/2-y,z
loop_
_atom_site_type_symbol
_atom_site_label
_atom_site_fract_x
_atom_site_fract_y
_atom_site_fract_z
Si Si1 0.925097 0.758126 0.001626
Si Si2 0.148642 0.816803 0.622663
Si Si3 0.495004 0.129433 0.168983
Si Si4 0.058669 0.000000 0.348269
Si Si5 0.493524 0.000000 0.917015
Si Si6 0.500000 0.283474 0.500000
Si Si7 0.052330 0.132715 0.300062
O O1 0.692941 0.754476 0.265404
O O2 0.000000 0.770739 0.000000
O O3 0.011343 0.807816 0.847159
O O4 0.000769 0.689797 0.890279
O O5 0.250000 0.750000 0.500000
O O6 0.334662 0.861644 0.412492
O O7 0.023198 0.837013 0.691295
O O8 0.437257 0.067545 0.188455
O O9 0.713696 0.130973 0.956034
O O10 0.992473 0.938382 0.380531
O O11 0.000000 0.000000 0.500000
O O12 0.287210 0.000000 0.105161
O O13 0.500000 0.000000 0.000000
O O14 0.529104 0.327661 0.539280
#
# Coordination Sequence:
#
# PCOD9172465 Si02
#       7
#     8   8   8   4   4   4   8
#     4  10  20  33  48  71  98 131 175 217 259 301
#     4  10  21  34  50  69 100 143 179 217 257 304
#     4   9  20  33  49  75 105 139 169 206 260 312
#     4  10  20  32  50  80 110 143 166 206 254 315
#     4  10  20  30  50  80 110 140 172 205 250 318
#     4  10  18  29  50  72 100 135 168 210 256 304
#     4  10  20  33  50  76 107 137 174 206 255 317
#
# _framework density 16.470578
#
# number of rings (size 3 to 8) (size 9 to 14) (size 15 to 20)
#    0.000    2.182    0.909    2.727    2.545    8.000 
#    0.000    0.000    0.000    0.000    0.000    2.545 
#    0.000    7.273    0.000    0.000    0.000    0.000 
#
# Total GULP energy -122487.531736 kJ/mol
# GULP energy per Si atom -5567.615079 kJ/mol
# Density = 1.643309 g / cm^3
# Si number density = 16.470578 Si / 1000 Ang^3
#
#
#
# Elastic Constant Matrix: (Units=GPa)
#
#
# Indices 1 2 3 4 5 6 
#
# 1 111.6927 52.5401 43.8400 -0.0018 6.6327 -0.0015
# 2 52.5401 77.3906 38.7382 0.0090 12.1620 0.0031
# 3 43.8400 38.7382 119.7616 -0.0111 13.8433 0.0117
# 4 -0.0018 0.0090 -0.0111 58.4520 0.0323 4.7349
# 5 6.6327 12.1620 13.8433 0.0323 26.7443 0.0001
# 6 -0.0015 0.0031 0.0117 4.7349 0.0001 28.8101
#
#
#
# Elastic Compliance Matrix: (Units=1/GPa)
#
#
# Indices 1 2 3 4 5 6 
#
# 1 0.013776 -0.008348 -0.002538 0.000000 0.001694 0.000003
# 2 -0.008348 0.021056 -0.003071 -0.000001 -0.005915 -0.000001
# 3 -0.002538 -0.003071 0.010677 0.000005 -0.003501 -0.000005
# 4 0.000000 -0.000001 0.000005 0.017339 -0.000023 -0.002850
# 5 0.001694 -0.005915 -0.003501 -0.000023 0.041473 0.000006
# 6 0.000003 -0.000001 -0.000005 -0.002850 0.000006 0.035178
#
#
# Mechanical properties :
#
#
# Convention : Reuss Voigt Hill
#
# Bulk Modulus (GPa) = 56.83796 64.34238 60.59017
# Shear Modulus (GPa) = 28.85540 34.38306 31.61923
#
# Velocity S-wave (km/s) = 4.19015 4.57392 4.38624
# Velocity P-wave (km/s) = 7.61535 8.18805 7.90689
#
# Compressibility (1/GPa) = 0.01759388
#
# Stress axis : x y z
#
# Youngs Moduli (GPa) = 72.59182 47.49335 93.65825
#
# Poissons Ratio (x) = 0.39647 0.23773
# Poissons Ratio (y) = 0.60598 0.28764
# Poissons Ratio (z) = 0.18426 0.14586
#
# Static dielectric constant tensor:
#      x y z
#    x 1.518580 -0.000010 -0.023900 
#    y -0.000010 1.548050 0.000000 
#    z -0.023900 0.000000 1.616110 
# 
# From -- ./inp_files/285744.got.cif
#   From: 2010.05.17/outbox.cif.g08.bks.cpg/sg12_143_cif.got.tgz:285744.got - 2010.06.03 13:09:07.
