data_PCOD9172707
_publ_section_title
;
Structure prediction by ZEFSAII (Michael W. Deem and Ramdas Pophale) SiO2 
 PCOD9172707
Probable space group: C 2/M
;
_chemical_formula_sum "Si O2"
_cell_formula_units_Z 64
_cell_length_a 28.405894
_cell_length_b 8.782436
_cell_length_c 21.291703
_cell_angle_alpha 90.000000
_cell_angle_beta 127.201335
_cell_angle_gamma 90.000000
_cell_volume 4230.856223
_symmetry_space_group_name_H-M "C 2/M"
_symmetry_group_IT_number 12
_symmetry_cell_setting 'monoclinic'
loop_
_space_group_symop_operation_xyz
x,y,z
-x,y,-z
-x,-y,-z
x,-y,z
1/2+x,1/2+y,z
1/2-x,1/2+y,-z
1/2-x,1/2-y,-z
1/2+x,1/2-y,z
loop_
_atom_site_type_symbol
_atom_site_label
_atom_site_fract_x
_atom_site_fract_y
_atom_site_fract_z
Si Si1 0.248290 0.683176 0.068515
Si Si2 0.140086 0.684308 0.768495
Si Si3 0.622864 0.817351 0.028283
Si Si4 0.037659 0.680234 0.435155
Si Si5 0.980801 0.819232 0.273041
Si Si6 0.992345 0.681515 0.146422
Si Si7 0.090913 0.679757 0.601805
Si Si8 0.559697 0.675133 0.090391
O O1 0.252230 0.500000 0.069119
O O2 0.302653 0.750245 0.151620
O O3 0.185988 0.724529 0.050627
O O4 0.250000 0.750000 0.000000
O O5 0.140259 0.500000 0.769830
O O6 0.081189 0.741146 0.756691
O O7 0.134673 0.737605 0.691163
O O8 0.609112 0.743005 0.084361
O O9 0.620214 0.000000 0.033231
O O10 0.569987 0.775405 0.937432
O O11 0.047929 0.500000 0.432105
O O12 0.083348 0.740611 0.524907
O O13 0.029467 0.766884 0.363454
O O14 0.973430 0.691432 0.417085
O O15 0.996738 0.763500 0.216493
O O16 0.973671 0.000000 0.269328
O O17 0.992557 0.500000 0.155264
O O18 0.043554 0.730994 0.139421
O O19 0.102820 0.500000 0.603740
O O20 0.571853 0.500000 0.115930
O O21 0.500000 0.680343 0.000000
#
# Coordination Sequence:
#
# PCOD9172707 Si02
#       8
#     8   8   8   8   8   8   8   8
#     4  11  22  34  47  65  89 118 153 190 223 254
#     4  10  19  32  46  61  84 117 154 187 221 260
#     4   9  19  33  47  62  83 113 148 182 216 257
#     4   8  13  25  42  59  80 110 144 175 213 260
#     4  11  20  28  40  63  92 118 146 181 220 261
#     4  10  18  30  47  64  85 116 148 177 215 262
#     4   7  12  24  43  60  77 107 146 181 212 256
#     4   9  17  29  46  67  87 107 136 177 221 261
#
# _framework density 15.126961
#
# number of rings (size 3 to 8) (size 9 to 14) (size 15 to 20)
#    0.000    2.625    0.000    4.875    0.000    4.000 
#    0.000    5.625    0.000    0.000    0.000    0.000 
#    0.000    1.000    0.000    3.000    0.000    4.875 
#
# Total GULP energy -178229.732636 kJ/mol
# GULP energy per Si atom -5569.679145 kJ/mol
# Density = 1.509253 g / cm^3
# Si number density = 15.126961 Si / 1000 Ang^3
#
#
#
# Elastic Constant Matrix: (Units=GPa)
#
#
# Indices 1 2 3 4 5 6 
#
# 1 84.5468 34.9651 52.3272 0.0000 -13.7338 0.0000
# 2 34.9651 55.8196 39.6718 0.0000 -9.8447 0.0000
# 3 52.3272 39.6718 125.6363 0.0000 -19.2202 0.0000
# 4 0.0000 0.0000 0.0000 16.0898 0.0000 -0.4984
# 5 -13.7338 -9.8447 -19.2202 0.0000 17.4718 0.0000
# 6 0.0000 0.0000 0.0000 -0.4984 0.0000 19.6928
#
#
#
# Elastic Compliance Matrix: (Units=1/GPa)
#
#
# Indices 1 2 3 4 5 6 
#
# 1 0.018622 -0.007461 -0.004573 0.000000 0.005402 0.000000
# 2 -0.007461 0.026624 -0.004691 0.000000 0.003976 0.000000
# 3 -0.004573 -0.004691 0.012494 0.000000 0.007506 0.000000
# 4 0.000000 0.000000 0.000000 0.062200 0.000000 0.001574
# 5 0.005402 0.003976 0.007506 0.000000 0.071979 0.000000
# 6 0.000000 0.000000 0.000000 0.001574 0.000000 0.050820
#
#
# Mechanical properties :
#
#
# Convention : Reuss Voigt Hill
#
# Bulk Modulus (GPa) = 41.17291 57.77013 49.47152
# Shear Modulus (GPa) = 17.58798 19.92013 18.75405
#
# Velocity S-wave (km/s) = 3.41352 3.63280 3.52487
# Velocity P-wave (km/s) = 6.54320 7.47458 7.02435
#
# Compressibility (1/GPa) = 0.02428782
#
# Stress axis : x y z
#
# Youngs Moduli (GPa) = 53.70134 37.56038 80.03954
#
# Poissons Ratio (x) = 0.28025 0.36605
# Poissons Ratio (y) = 0.40068 0.37547
# Poissons Ratio (z) = 0.24559 0.17620
#
# Static dielectric constant tensor:
#      x y z
#    x 1.480530 0.000000 -0.013180 
#    y 0.000000 1.505240 0.000000 
#    z -0.013180 0.000000 1.527290 
# 
# From -- ./inp_files/326986.got.cif
#   From: 2010.05.17/outbox.cif.g08.bks.cpg/sg12_164_cif.got.tgz:326986.got - 2010.06.03 13:09:07.
