data_PCOD9172492
_publ_section_title
;
Structure prediction by ZEFSAII (Michael W. Deem and Ramdas Pophale) SiO2 
 PCOD9172492
Probable space group: C 2/M
;
_chemical_formula_sum "Si O2"
_cell_formula_units_Z 64
_cell_length_a 23.274480
_cell_length_b 9.090449
_cell_length_c 17.318366
_cell_angle_alpha 90.000000
_cell_angle_beta 84.503619
_cell_angle_gamma 90.000000
_cell_volume 3647.294680
_symmetry_space_group_name_H-M "C 2/M"
_symmetry_group_IT_number 12
_symmetry_cell_setting 'monoclinic'
loop_
_space_group_symop_operation_xyz
x,y,z
-x,y,-z
-x,-y,-z
x,-y,z
1/2+x,1/2+y,z
1/2-x,1/2+y,-z
1/2-x,1/2-y,-z
1/2+x,1/2-y,z
loop_
_atom_site_type_symbol
_atom_site_label
_atom_site_fract_x
_atom_site_fract_y
_atom_site_fract_z
Si Si1 0.862969 0.825041 0.028557
Si Si2 0.784632 0.825747 0.176227
Si Si3 0.123104 0.326466 0.725142
Si Si4 0.542438 0.175378 0.874886
Si Si5 0.177246 0.174553 0.583183
Si Si6 0.800741 0.174767 0.594698
Si Si7 0.158607 0.325185 0.259457
Si Si8 0.590402 0.176835 0.122540
O O1 0.806196 0.791053 0.087012
O O2 0.916507 0.763568 0.072485
O O3 0.867471 0.000000 0.019836
O O4 0.867715 0.748942 0.945451
O O5 0.824381 0.733020 0.228905
O O6 0.718316 0.800419 0.204872
O O7 0.796455 0.000000 0.187391
O O8 0.129269 0.500000 0.711813
O O9 0.066901 0.300935 0.785246
O O10 0.128345 0.242814 0.643741
O O11 0.475571 0.216587 0.888186
O O12 0.547959 0.000000 0.891035
O O13 0.170854 0.202952 0.492722
O O14 0.238211 0.247054 0.600095
O O15 0.181044 0.000000 0.594849
O O16 0.836349 0.238518 0.661514
O O17 0.792451 0.000000 0.603914
O O18 0.154699 0.500000 0.276042
O O19 0.108103 0.281882 0.207147
O O20 0.595464 0.000000 0.116496
#
# Coordination Sequence:
#
# PCOD9172492 Si02
#       8
#     8   8   8   8   8   8   8   8
#     4  10  20  33  51  75 100 126 164 214 259 297
#     4   9  18  32  48  70 101 132 161 201 253 300
#     4  10  18  29  50  77 100 127 165 207 249 292
#     4   9  19  35  53  73  99 129 167 214 253 290
#     4  10  19  31  49  75 106 133 159 197 246 294
#     4  10  20  32  49  75 104 133 164 199 239 290
#     4  10  20  34  52  71  99 137 170 202 245 298
#     4  10  21  36  52  71  97 134 173 207 250 297
#
# _framework density 17.547253000000001
#
# number of rings (size 3 to 8) (size 9 to 14) (size 15 to 20)
#    0.000    2.250    1.250    1.875    0.000    5.500 
#    0.000    0.000    0.000    0.750    0.000    5.250 
#    0.000    0.000    0.000    0.000    0.000    0.000 
#
# Total GULP energy -178539.933407 kJ/mol
# GULP energy per Si atom -5579.372919 kJ/mol
# Density = 1.750731 g / cm^3
# Si number density = 17.547253 Si / 1000 Ang^3
#
#
#
# Elastic Constant Matrix: (Units=GPa)
#
#
# Indices 1 2 3 4 5 6 
#
# 1 5.6906 3.6302 -0.2918 0.0000 2.6502 0.0000
# 2 3.6302 33.8919 34.8712 0.0000 -1.5181 0.0000
# 3 -0.2918 34.8712 101.3388 0.0000 3.0497 0.0000
# 4 0.0000 0.0000 0.0000 35.4914 0.0000 -0.3627
# 5 2.6502 -1.5181 3.0497 0.0000 21.7067 0.0000
# 6 0.0000 0.0000 0.0000 -0.3627 0.0000 13.7802
#
#
#
# Elastic Compliance Matrix: (Units=1/GPa)
#
#
# Indices 1 2 3 4 5 6 
#
# 1 0.217195 -0.040712 0.015584 0.000000 -0.031554 0.000000
# 2 -0.040712 0.053954 -0.019027 0.000000 0.011417 0.000000
# 3 0.015584 -0.019027 0.016628 0.000000 -0.005569 0.000000
# 4 0.000000 0.000000 0.000000 0.028183 0.000000 0.000742
# 5 -0.031554 0.011417 -0.005569 0.000000 0.051502 0.000000
# 6 0.000000 0.000000 0.000000 0.000742 0.000000 0.072588
#
#
# Mechanical properties :
#
#
# Convention : Reuss Voigt Hill
#
# Bulk Modulus (GPa) = 5.01334 24.14896 14.58115
# Shear Modulus (GPa) = 8.40550 21.04309 14.72429
#
# Velocity S-wave (km/s) = 2.19103 3.46674 2.89990
# Velocity P-wave (km/s) = 3.04369 5.46045 4.42044
#
# Compressibility (1/GPa) = 0.19946766
#
# Stress axis : x y z
#
# Youngs Moduli (GPa) = 4.60415 18.53424 60.14111
#
# Poissons Ratio (x) = 0.75457 -0.93725
# Poissons Ratio (y) = 0.18744 1.14429
# Poissons Ratio (z) = -0.07175 0.35265
#
# Static dielectric constant tensor:
#      x y z
#    x 1.576640 0.000000 -0.015120 
#    y 0.000000 1.585660 0.000000 
#    z -0.015120 0.000000 1.621810 
# 
# From -- ./inp_files/287556.got.cif
#   From: 2010.05.17/outbox.cif.g08.bks.cpg/sg12_144_cif.got.tgz:287556.got - 2010.06.03 13:09:07.
