data_PCOD9172948
_publ_section_title
;
Structure prediction by ZEFSAII (Michael W. Deem and Ramdas Pophale) SiO2 
 PCOD9172948
Probable space group: C 2/M
;
_chemical_formula_sum "Si O2"
_cell_formula_units_Z 56
_cell_length_a 19.957108
_cell_length_b 8.806521
_cell_length_c 29.590974
_cell_angle_alpha 90.000000
_cell_angle_beta 141.451572
_cell_angle_gamma 90.000000
_cell_volume 3240.946711
_symmetry_space_group_name_H-M "C 2/M"
_symmetry_group_IT_number 12
_symmetry_cell_setting 'monoclinic'
loop_
_space_group_symop_operation_xyz
x,y,z
-x,y,-z
-x,-y,-z
x,-y,z
1/2+x,1/2+y,z
1/2-x,1/2+y,-z
1/2-x,1/2-y,-z
1/2+x,1/2-y,z
loop_
_atom_site_type_symbol
_atom_site_label
_atom_site_fract_x
_atom_site_fract_y
_atom_site_fract_z
Si Si1 0.038092 0.183252 0.244664
Si Si2 0.683467 0.181577 0.398861
Si Si3 0.629114 0.682916 0.198078
Si Si4 0.626371 0.181134 0.683992
Si Si5 0.592067 0.318856 0.443739
Si Si6 0.660615 0.317177 0.800516
Si Si7 0.096271 0.682915 0.082875
O O1 0.126967 0.249419 0.325416
O O2 0.061330 0.232223 0.205800
O O3 0.921805 0.225867 0.203507
O O4 0.045620 0.000000 0.249825
O O5 0.627144 0.248642 0.414009
O O6 0.810206 0.217789 0.470780
O O7 0.671069 0.000000 0.392691
O O8 0.624081 0.500000 0.191667
O O9 0.755150 0.723472 0.271432
O O10 0.591326 0.752621 0.130880
O O11 0.524498 0.254393 0.605678
O O12 0.625144 0.239492 0.735113
O O13 0.616274 0.000000 0.677905
O O14 0.586113 0.500000 0.435751
O O15 0.654246 0.500000 0.791072
O O16 0.785362 0.277060 0.873837
O O17 0.090912 0.500000 0.082596
O O18 0.000000 0.736444 0.000000
#
# Coordination Sequence:
#
# PCOD9172948 Si02
#       7
#     8   8   8   8   8   8   8
#     4  10  19  33  51  72 101 134 168 206 251 300
#     4  10  20  31  47  72 100 130 167 212 253 291
#     4   9  20  35  51  74 103 134 165 203 252 298
#     4  10  18  30  49  72  97 127 170 215 248 291
#     4  10  19  31  47  70  99 131 168 209 255 298
#     4   9  17  30  51  74  96 129 168 204 246 296
#     4   9  18  34  55  78 102 129 164 205 248 296
#
# _framework density 17.278901999999999
#
# number of rings (size 3 to 8) (size 9 to 14) (size 15 to 20)
#    0.000    2.429    1.429    1.286    0.000    3.143 
#    0.000    1.429    0.000    4.286    0.000    0.000 
#    0.000    0.000    0.000    0.000    0.000    0.000 
#
# Total GULP energy -156138.394658 kJ/mol
# GULP energy per Si atom -5576.371238 kJ/mol
# Density = 1.723957 g / cm^3
# Si number density = 17.278902 Si / 1000 Ang^3
#
#
#
# Elastic Constant Matrix: (Units=GPa)
#
#
# Indices 1 2 3 4 5 6 
#
# 1 124.8098 27.0840 62.1576 0.0000 4.4515 0.0000
# 2 27.0840 15.9501 29.6954 0.0000 5.2965 0.0000
# 3 62.1576 29.6954 132.0434 0.0000 9.5226 0.0000
# 4 0.0000 0.0000 0.0000 25.0801 0.0000 -1.5426
# 5 4.4515 5.2965 9.5226 0.0000 17.4274 0.0000
# 6 0.0000 0.0000 0.0000 -1.5426 0.0000 18.5272
#
#
#
# Elastic Compliance Matrix: (Units=1/GPa)
#
#
# Indices 1 2 3 4 5 6 
#
# 1 0.013203 -0.019949 -0.002002 0.000000 0.003784 0.000000
# 2 -0.019949 0.145385 -0.021326 0.000000 -0.027436 0.000000
# 3 -0.002002 -0.021326 0.013333 0.000000 -0.000293 0.000000
# 4 0.000000 0.000000 0.000000 0.040078 0.000000 0.003337
# 5 0.003784 -0.027436 -0.000293 0.000000 0.064912 0.000000
# 6 0.000000 0.000000 0.000000 0.003337 0.000000 0.054253
#
#
# Mechanical properties :
#
#
# Convention : Reuss Voigt Hill
#
# Bulk Modulus (GPa) = 11.71421 56.74192 34.22806
# Shear Modulus (GPa) = 11.20639 22.46471 16.83555
#
# Velocity S-wave (km/s) = 2.54945 3.60963 3.12483
# Velocity P-wave (km/s) = 3.93198 7.09103 5.73338
#
# Compressibility (1/GPa) = 0.08536638
#
# Stress axis : x y z
#
# Youngs Moduli (GPa) = 75.73948 6.87827 75.00359
#
# Poissons Ratio (x) = 0.13722 0.15013
# Poissons Ratio (y) = 1.51096 1.59955
# Poissons Ratio (z) = 0.15160 0.14669
#
# Static dielectric constant tensor:
#      x y z
#    x 1.584100 0.000000 0.035140 
#    y 0.000000 1.579280 0.000000 
#    z 0.035140 0.000000 1.585180 
# 
# From -- ./inp_files/280373.got.cif
#   From: 2010.05.17/outbox.cif.g08.bks.cpg/sg12_141_cif.got.tgz:280373.got - 2010.06.03 13:09:07.
