data_PCOD9172596
_publ_section_title
;
Structure prediction by ZEFSAII (Michael W. Deem and Ramdas Pophale) SiO2 
 PCOD9172596
Probable space group: C 2/M
;
_chemical_formula_sum "Si O2"
_cell_formula_units_Z 56
_cell_length_a 25.297642
_cell_length_b 13.111350
_cell_length_c 28.079134
_cell_angle_alpha 90.000000
_cell_angle_beta 18.760986
_cell_angle_gamma 90.000000
_cell_volume 2995.405308
_symmetry_space_group_name_H-M "C 2/M"
_symmetry_group_IT_number 12
_symmetry_cell_setting 'monoclinic'
loop_
_space_group_symop_operation_xyz
x,y,z
-x,y,-z
-x,-y,-z
x,-y,z
1/2+x,1/2+y,z
1/2-x,1/2+y,-z
1/2-x,1/2-y,-z
1/2+x,1/2-y,z
loop_
_atom_site_type_symbol
_atom_site_label
_atom_site_fract_x
_atom_site_fract_y
_atom_site_fract_z
Si Si1 0.266633 0.114758 0.568005
Si Si2 0.873965 0.880859 0.145482
Si Si3 0.891821 0.617108 0.297288
Si Si4 0.980181 0.198150 0.153745
Si Si5 0.835802 0.719843 0.876151
Si Si6 0.993027 0.619153 0.558975
Si Si7 0.902564 0.122062 0.382734
O O1 0.098558 0.118736 0.741691
O O2 0.400995 0.163780 0.488480
O O3 0.216428 0.154755 0.559616
O O4 0.324734 0.000000 0.509632
O O5 0.889747 0.820801 0.181193
O O6 0.699291 0.880395 0.268475
O O7 0.088678 0.000000 0.875242
O O8 0.000000 0.839261 0.000000
O O9 0.908081 0.500000 0.268874
O O10 0.933989 0.694626 0.218552
O O11 0.708949 0.632674 0.474988
O O12 0.024666 0.640517 0.225958
O O13 0.176523 0.185547 0.982130
O O14 0.934627 0.810272 0.764830
O O15 0.750000 0.750000 0.000000
O O16 0.051371 0.500000 0.503973
O O17 0.000000 0.665334 0.500000
O O18 0.937895 0.000000 0.347157
#
# Coordination Sequence:
#
# PCOD9172596 Si02
#       7
#     8   8   8   8   8   8   8
#     4  10  18  29  53  82 109 143 180 214 264 328
#     4  10  21  37  55  82 118 143 171 221 277 335
#     4  10  22  37  53  75 109 148 188 233 269 312
#     4  11  21  35  53  81 109 149 186 222 272 330
#     4  10  20  33  51  82 113 146 186 222 266 327
#     4   9  16  29  50  77 107 141 178 210 261 328
#     4  10  20  36  56  80 113 147 182 229 275 321
#
# _framework density 18.6953
#
# number of rings (size 3 to 8) (size 9 to 14) (size 15 to 20)
#    0.000    2.000    4.286    0.857    0.000    4.571 
#    0.000    2.857    0.000    0.429    0.000    2.000 
#    0.000    0.000    0.000    0.000    0.000    0.000 
#
# Total GULP energy -155897.042755 kJ/mol
# GULP energy per Si atom -5567.751527 kJ/mol
# Density = 1.865275 g / cm^3
# Si number density = 18.695300 Si / 1000 Ang^3
#
#
#
# Elastic Constant Matrix: (Units=GPa)
#
#
# Indices 1 2 3 4 5 6 
#
# 1 78.9064 20.0317 27.9040 -0.0092 -11.5412 0.0001
# 2 20.0317 74.4476 8.8553 -0.0241 0.5712 0.0074
# 3 27.9040 8.8553 78.3950 -0.0219 0.5522 0.0102
# 4 -0.0092 -0.0241 -0.0219 24.2692 0.0173 3.0192
# 5 -11.5412 0.5712 0.5522 0.0173 30.4112 -0.0046
# 6 0.0001 0.0074 0.0102 3.0192 -0.0046 19.9646
#
#
#
# Elastic Compliance Matrix: (Units=1/GPa)
#
#
# Indices 1 2 3 4 5 6 
#
# 1 0.016536 -0.003845 -0.005497 -0.000008 0.006448 0.000007
# 2 -0.003845 0.014511 -0.000258 0.000015 -0.001727 -0.000008
# 3 -0.005497 -0.000258 0.014758 0.000014 -0.002349 -0.000010
# 4 -0.000008 0.000015 0.000014 0.041995 -0.000028 -0.006351
# 5 0.006448 -0.001727 -0.002349 -0.000028 0.035405 0.000014
# 6 0.000007 -0.000008 -0.000010 -0.006351 0.000014 0.051049
#
#
# Mechanical properties :
#
#
# Convention : Reuss Voigt Hill
#
# Bulk Modulus (GPa) = 37.58749 38.37010 37.97880
# Shear Modulus (GPa) = 24.71295 26.59286 25.65290
#
# Velocity S-wave (km/s) = 3.63971 3.77561 3.70828
# Velocity P-wave (km/s) = 6.14917 6.29090 6.22044
#
# Compressibility (1/GPa) = 0.02660460
#
# Stress axis : x y z
#
# Youngs Moduli (GPa) = 60.47274 68.91398 67.75854
#
# Poissons Ratio (x) = 0.26498 0.37247
# Poissons Ratio (y) = 0.23252 0.01750
# Poissons Ratio (z) = 0.33242 0.01780
#
# Static dielectric constant tensor:
#      x y z
#    x 1.675420 0.000000 -0.001670 
#    y 0.000000 1.696330 0.000010 
#    z -0.001670 0.000010 1.720470 
# 
# From -- ./inp_files/368077.got.cif
#   From: 2010.05.17/outbox.cif.g08.bks.cpg/sg12_185_cif.got.tgz:368077.got - 2010.06.03 13:09:07.
