data_PCOD9172469
_publ_section_title
;
Structure prediction by ZEFSAII (Michael W. Deem and Ramdas Pophale) SiO2 
 PCOD9172469
Probable space group: C 2/M
;
_chemical_formula_sum "Si O2"
_cell_formula_units_Z 48
_cell_length_a 13.492203
_cell_length_b 24.378903
_cell_length_c 12.705645
_cell_angle_alpha 90.000000
_cell_angle_beta 41.956773
_cell_angle_gamma 90.000000
_cell_volume 2794.090472
_symmetry_space_group_name_H-M "C 2/M"
_symmetry_group_IT_number 12
_symmetry_cell_setting 'monoclinic'
loop_
_space_group_symop_operation_xyz
x,y,z
-x,y,-z
-x,-y,-z
x,-y,z
1/2+x,1/2+y,z
1/2-x,1/2+y,-z
1/2-x,1/2-y,-z
1/2+x,1/2-y,z
loop_
_atom_site_type_symbol
_atom_site_label
_atom_site_fract_x
_atom_site_fract_y
_atom_site_fract_z
Si Si1 0.664645 0.727197 0.335781
Si Si2 0.539856 0.060923 0.645679
Si Si3 0.903483 0.770144 0.833450
Si Si4 0.258652 0.060457 0.725769
Si Si5 0.151439 0.674844 0.621349
Si Si6 0.653542 0.673681 0.748605
O O1 0.500000 0.744505 0.500000
O O2 0.636090 0.700540 0.245255
O O3 0.744827 0.691081 0.361770
O O4 0.766855 0.780905 0.242252
O O5 0.374629 0.067214 0.729613
O O6 0.643232 0.060829 0.459314
O O7 0.586907 0.113350 0.676245
O O8 0.553963 0.000000 0.682887
O O9 0.018308 0.719395 0.722389
O O10 0.990517 0.808495 0.845128
O O11 0.750000 0.750000 0.000000
O O12 0.159374 0.113762 0.792734
O O13 0.188938 0.000000 0.788518
O O14 0.249451 0.677599 0.437084
#
# Coordination Sequence:
#
# PCOD9172469 Si02
#       6
#     8   8   8   8   8   8
#     4  11  18  31  50  69  94 129 161 196 239 289
#     4   8  14  25  44  72  98 122 158 204 240 279
#     4  11  22  33  46  72 101 127 160 202 243 287
#     4   8  14  24  43  71 100 125 155 199 246 282
#     4  10  18  30  50  72  93 128 163 195 240 291
#     4  10  18  29  50  72  95 128 164 193 240 294
#
# _framework density 17.179114999999999
#
# number of rings (size 3 to 8) (size 9 to 14) (size 15 to 20)
#    0.000    2.333    3.333    3.000    2.333    2.667 
#    0.000    0.000    0.000    2.500    0.000    4.667 
#    0.000    0.000    0.000    0.000    0.000    0.000 
#
# Total GULP energy -133740.164231 kJ/mol
# GULP energy per Si atom -5572.506843 kJ/mol
# Density = 1.714001 g / cm^3
# Si number density = 17.179115 Si / 1000 Ang^3
#
#
#
# Elastic Constant Matrix: (Units=GPa)
#
#
# Indices 1 2 3 4 5 6 
#
# 1 110.6642 64.0218 17.0904 0.0000 -14.6666 0.0000
# 2 64.0218 142.2763 -0.7607 0.0000 -13.0067 0.0000
# 3 17.0904 -0.7607 33.0246 0.0000 -12.9094 0.0000
# 4 0.0000 0.0000 0.0000 6.4928 0.0000 -4.2160
# 5 -14.6666 -13.0067 -12.9094 0.0000 16.8321 0.0000
# 6 0.0000 0.0000 0.0000 -4.2160 0.0000 24.5913
#
#
#
# Elastic Compliance Matrix: (Units=1/GPa)
#
#
# Indices 1 2 3 4 5 6 
#
# 1 0.013834 -0.006023 -0.006291 0.000000 0.002574 0.000000
# 2 -0.006023 0.010482 0.006388 0.000000 0.007751 0.000000
# 3 -0.006291 0.006388 0.047801 0.000000 0.036115 0.000000
# 4 0.000000 0.000000 0.000000 0.173312 0.000000 0.029713
# 5 0.002574 0.007751 0.036115 0.000000 0.095341 0.000000
# 6 0.000000 0.000000 0.000000 0.029713 0.000000 0.045759
#
#
# Mechanical properties :
#
#
# Convention : Reuss Voigt Hill
#
# Bulk Modulus (GPa) = 16.59377 49.62979 33.11178
# Shear Modulus (GPa) = 11.94831 23.29079 17.61955
#
# Velocity S-wave (km/s) = 2.64012 3.68606 3.20603
# Velocity P-wave (km/s) = 4.35590 6.86064 5.74640
#
# Compressibility (1/GPa) = 0.06026357
#
# Stress axis : x y z
#
# Youngs Moduli (GPa) = 72.28704 95.40507 20.92005
#
# Poissons Ratio (x) = 0.57465 0.13162
# Poissons Ratio (y) = 0.43540 -0.13364
# Poissons Ratio (z) = 0.45479 -0.60947
#
# Static dielectric constant tensor:
#      x y z
#    x 1.579660 0.000000 0.011410 
#    y 0.000000 1.599260 0.000000 
#    z 0.011410 0.000000 1.616610 
# 
# From -- ./inp_files/50812.got.cif
#   From: 2010.05.17/outbox.cif.g08.bks.cpg/sg12_26_cif.got.tgz:50812.got - 2010.06.03 13:09:07.
