data_PCOD9172641
_publ_section_title
;
Structure prediction by ZEFSAII (Michael W. Deem and Ramdas Pophale) SiO2 
 PCOD9172641
Probable space group: C 2/M
;
_chemical_formula_sum "Si O2"
_cell_formula_units_Z 60
_cell_length_a 23.739709
_cell_length_b 26.442581
_cell_length_c 8.437788
_cell_angle_alpha 90.000000
_cell_angle_beta 40.494278
_cell_angle_gamma 90.000000
_cell_volume 3439.548778
_symmetry_space_group_name_H-M "C 2/M"
_symmetry_group_IT_number 12
_symmetry_cell_setting 'monoclinic'
loop_
_space_group_symop_operation_xyz
x,y,z
-x,y,-z
-x,-y,-z
x,-y,z
1/2+x,1/2+y,z
1/2-x,1/2+y,-z
1/2-x,1/2-y,-z
1/2+x,1/2-y,z
loop_
_atom_site_type_symbol
_atom_site_label
_atom_site_fract_x
_atom_site_fract_y
_atom_site_fract_z
Si Si1 0.136528 0.444570 0.377183
Si Si2 0.500000 0.197186 0.500000
Si Si3 0.268232 0.663722 0.758522
Si Si4 0.288262 0.055430 0.140378
Si Si5 0.918851 0.698121 0.978638
Si Si6 0.177682 0.337541 0.273488
Si Si7 0.167328 0.748160 0.559895
Si Si8 0.466299 0.082371 0.902027
O O1 0.162434 0.500000 0.384194
O O2 0.166367 0.442724 0.130476
O O3 0.178578 0.392835 0.352654
O O4 0.034116 0.438195 0.627783
O O5 0.467748 0.225031 0.727622
O O6 0.414413 0.166522 0.625489
O O7 0.338303 0.699307 0.524221
O O8 0.273480 0.603928 0.715042
O O9 0.177192 0.682768 0.877031
O O10 0.252285 0.669811 0.981442
O O11 0.369601 0.063238 0.081785
O O12 0.248881 0.000000 0.245357
O O13 0.964362 0.643586 0.902626
O O14 0.907797 0.729945 0.161095
O O15 0.180481 0.294607 0.398847
O O16 0.250000 0.750000 0.500000
O O17 0.500000 0.065829 0.000000
#
# Coordination Sequence:
#
# PCOD9172641 Si02
#       8
#     8   4   8   8   8   8   8   8
#     4  10  19  29  42  60  86 122 158 185 216 254
#     4  10  18  30  45  66  84 116 149 180 242 270
#     4   8  17  30  46  61  81 113 154 188 222 267
#     4   9  18  30  43  59  82 116 150 186 221 254
#     4   9  18  28  42  59  84 112 150 191 224 271
#     4  10  18  30  47  63  89 118 153 196 224 272
#     4  10  19  32  45  62  81 114 157 196 232 262
#     4  11  19  26  36  57  85 118 151 184 220 255
#
# _framework density 17.444147999999998
#
# number of rings (size 3 to 8) (size 9 to 14) (size 15 to 20)
#    0.000    2.400    1.333    2.800    0.000    2.133 
#    0.000    0.000    0.000    0.000    0.000    0.000 
#    0.000    0.000    0.000    3.600    0.000   12.000 
#
# Total GULP energy -167049.751834 kJ/mol
# GULP energy per Si atom -5568.325061 kJ/mol
# Density = 1.740444 g / cm^3
# Si number density = 17.444148 Si / 1000 Ang^3
#
#
#
# Elastic Constant Matrix: (Units=GPa)
#
#
# Indices 1 2 3 4 5 6 
#
# 1 35.1818 23.1727 2.7921 0.0000 9.3101 0.0000
# 2 23.1727 145.6767 61.2980 0.0000 20.5272 0.0000
# 3 2.7921 61.2980 73.3842 0.0000 19.6217 0.0000
# 4 0.0000 0.0000 0.0000 15.8621 0.0000 -2.9794
# 5 9.3101 20.5272 19.6217 0.0000 17.2348 0.0000
# 6 0.0000 0.0000 0.0000 -2.9794 0.0000 9.8429
#
#
#
# Elastic Compliance Matrix: (Units=1/GPa)
#
#
# Indices 1 2 3 4 5 6 
#
# 1 0.039184 -0.007532 0.011590 0.000000 -0.025391 0.000000
# 2 -0.007532 0.012195 -0.010213 0.000000 0.001172 0.000000
# 3 0.011590 -0.010213 0.028952 0.000000 -0.027058 0.000000
# 4 0.000000 0.000000 0.000000 0.066844 0.000000 0.020234
# 5 -0.025391 0.001172 -0.027058 0.000000 0.101148 0.000000
# 6 0.000000 0.000000 0.000000 0.020234 0.000000 0.107721
#
#
# Mechanical properties :
#
#
# Convention : Reuss Voigt Hill
#
# Bulk Modulus (GPa) = 14.70157 47.64095 31.17126
# Shear Modulus (GPa) = 12.78679 19.71994 16.25337
#
# Velocity S-wave (km/s) = 2.71036 3.36588 3.05575
# Velocity P-wave (km/s) = 4.27093 6.51732 5.50982
#
# Compressibility (1/GPa) = 0.06801995
#
# Stress axis : x y z
#
# Youngs Moduli (GPa) = 25.52061 82.00053 34.53998
#
# Poissons Ratio (x) = 0.61762 -0.40030
# Poissons Ratio (y) = 0.19222 0.35277
# Poissons Ratio (z) = -0.29577 0.83749
#
# Static dielectric constant tensor:
#      x y z
#    x 1.612790 0.000000 0.030610 
#    y 0.000000 1.656490 0.000000 
#    z 0.030610 0.000000 1.628970 
# 
# From -- ./inp_files/79557.got.cif
#   From: 2010.05.17/outbox.cif.g08.bks.cpg/sg12_40_cif.got.tgz:79557.got - 2010.06.03 13:09:07.
