data_PCOD9172607
_publ_section_title
;
Structure prediction by ZEFSAII (Michael W. Deem and Ramdas Pophale) SiO2 
 PCOD9172607
Probable space group: C 2/M
;
_chemical_formula_sum "Si O2"
_cell_formula_units_Z 48
_cell_length_a 9.036505
_cell_length_b 24.560968
_cell_length_c 9.523747
_cell_angle_alpha 90.000000
_cell_angle_beta 117.581092
_cell_angle_gamma 90.000000
_cell_volume 1873.536757
_symmetry_space_group_name_H-M "C 2/M"
_symmetry_group_IT_number 12
_symmetry_cell_setting 'monoclinic'
loop_
_space_group_symop_operation_xyz
x,y,z
-x,y,-z
-x,-y,-z
x,-y,z
1/2+x,1/2+y,z
1/2-x,1/2+y,-z
1/2-x,1/2-y,-z
1/2+x,1/2-y,z
loop_
_atom_site_type_symbol
_atom_site_label
_atom_site_fract_x
_atom_site_fract_y
_atom_site_fract_z
Si Si1 0.179020 0.941017 0.751760
Si Si2 0.722450 0.830719 0.514879
Si Si3 0.216447 0.940026 0.351021
Si Si4 0.902496 0.171120 0.244126
Si Si5 0.583497 0.206556 0.755276
Si Si6 0.735871 0.608635 0.048815
O O1 0.976406 0.942908 0.680276
O O2 0.199187 0.876768 0.717118
O O3 0.224656 0.000000 0.705474
O O4 0.264726 0.937093 0.943061
O O5 0.689885 0.895521 0.513946
O O6 0.919969 0.823433 0.602816
O O7 0.614965 0.797181 0.357065
O O8 0.663498 0.809662 0.641647
O O9 0.214921 0.919734 0.188996
O O10 0.287908 0.000000 0.389723
O O11 0.851410 0.232805 0.190006
O O12 0.912673 0.142223 0.095466
O O13 0.630821 0.157303 0.878905
#
# Coordination Sequence:
#
# PCOD9172607 Si02
#       6
#     8   8   8   8   8   8
#     4   8  15  24  40  64  83 108 140 169 212 255
#     4   9  19  30  43  62  85 122 144 166 214 259
#     4   9  15  26  42  63  90 116 141 169 203 264
#     4   9  18  29  45  61  85 117 142 178 214 245
#     4  10  18  30  41  61  90 113 145 181 202 254
#     4   9  17  24  41  63  84 112 139 168 213 243
#
# _framework density 25.619993999999998
#
# number of rings (size 3 to 8) (size 9 to 14) (size 15 to 20)
#    1.000    2.000    0.000    2.000    2.333    1.333 
#    0.000    7.500    0.000    0.000    0.000    2.333 
#    0.000    9.333    0.000    0.000    0.000    0.000 
#
# Total GULP energy -133647.190445 kJ/mol
# GULP energy per Si atom -5568.632935 kJ/mol
# Density = 2.556168 g / cm^3
# Si number density = 25.619994 Si / 1000 Ang^3
#
#
#
# Elastic Constant Matrix: (Units=GPa)
#
#
# Indices 1 2 3 4 5 6 
#
# 1 43.2545 16.1058 20.6480 0.0000 -13.7228 0.0000
# 2 16.1058 256.9193 26.1957 0.0000 -8.4432 0.0000
# 3 20.6480 26.1957 82.0058 0.0000 -4.2449 0.0000
# 4 0.0000 0.0000 0.0000 23.7047 0.0000 4.6584
# 5 -13.7228 -8.4432 -4.2449 0.0000 15.6495 0.0000
# 6 0.0000 0.0000 0.0000 4.6584 0.0000 19.2945
#
#
#
# Elastic Compliance Matrix: (Units=1/GPa)
#
#
# Indices 1 2 3 4 5 6 
#
# 1 0.036203 -0.000546 -0.007417 0.000000 0.029439 0.000000
# 2 -0.000546 0.004085 -0.001094 0.000000 0.001429 0.000000
# 3 -0.007417 -0.001094 0.014244 0.000000 -0.003230 0.000000
# 4 0.000000 0.000000 0.000000 0.044287 0.000000 -0.010693
# 5 0.029439 0.001429 -0.003230 0.000000 0.089609 0.000000
# 6 0.000000 0.000000 0.000000 -0.010693 0.000000 0.054410
#
#
# Mechanical properties :
#
#
# Convention : Reuss Voigt Hill
#
# Bulk Modulus (GPa) = 27.45847 56.45318 41.95583
# Shear Modulus (GPa) = 18.30901 33.01175 25.66038
#
# Velocity S-wave (km/s) = 2.67617 3.59348 3.16820
# Velocity P-wave (km/s) = 4.50445 6.26898 5.45849
#
# Compressibility (1/GPa) = 0.03641863
#
# Stress axis : x y z
#
# Youngs Moduli (GPa) = 27.62234 244.80207 70.20555
#
# Poissons Ratio (x) = 0.13360 0.52072
# Poissons Ratio (y) = 0.01507 0.07677
# Poissons Ratio (z) = 0.20488 0.26769
#
# Static dielectric constant tensor:
#      x y z
#    x 2.125470 0.000000 -0.026710 
#    y 0.000000 2.065180 0.000000 
#    z -0.026710 0.000000 2.029440 
# 
# From -- ./inp_files/218117.got.cif
#   From: 2010.05.17/outbox.cif.g08.bks.cpg/sg12_110_cif.got.tgz:218117.got - 2010.06.03 13:09:07.
