data_PCOD9172362
_publ_section_title
;
Structure prediction by ZEFSAII (Michael W. Deem and Ramdas Pophale) SiO2 
 PCOD9172362
Probable space group: C 2/M
;
_chemical_formula_sum "Si O2"
_cell_formula_units_Z 64
_cell_length_a 18.159638
_cell_length_b 27.422086
_cell_length_c 6.610681
_cell_angle_alpha 90.000000
_cell_angle_beta 105.149272
_cell_angle_gamma 90.000000
_cell_volume 3177.553705
_symmetry_space_group_name_H-M "C 2/M"
_symmetry_group_IT_number 12
_symmetry_cell_setting 'monoclinic'
loop_
_space_group_symop_operation_xyz
x,y,z
-x,y,-z
-x,-y,-z
x,-y,z
1/2+x,1/2+y,z
1/2-x,1/2+y,-z
1/2-x,1/2-y,-z
1/2+x,1/2-y,z
loop_
_atom_site_type_symbol
_atom_site_label
_atom_site_fract_x
_atom_site_fract_y
_atom_site_fract_z
Si Si1 0.410882 0.639155 0.981258
Si Si2 0.919819 0.689541 0.329244
Si Si3 0.812427 0.880782 0.270322
Si Si4 0.170559 0.333583 0.346959
Si Si5 0.169118 0.056153 0.337862
Si Si6 0.420796 0.100701 0.019760
Si Si7 0.783960 0.445568 0.100731
Si Si8 0.092421 0.247691 0.042272
O O1 0.377012 0.593263 0.837032
O O2 0.383179 0.692637 0.892521
O O3 0.500000 0.638500 0.000000
O O4 0.385708 0.636894 0.198188
O O5 0.855603 0.671521 0.440184
O O6 0.934862 0.647330 0.174783
O O7 0.000000 0.699069 0.500000
O O8 0.893316 0.735884 0.179150
O O9 0.759192 0.842802 0.355304
O O10 0.834186 0.923089 0.441111
O O11 0.759111 0.904461 0.059064
O O12 0.137310 0.285320 0.215240
O O13 0.125660 0.378270 0.206330
O O14 0.255336 0.058648 0.310084
O O15 0.261129 0.000000 0.016972
O O16 0.371291 0.063531 0.114650
O O17 0.500000 0.080321 0.000000
O O18 0.644028 0.500000 0.305372
O O19 0.000000 0.252035 0.000000
#
# Coordination Sequence:
#
# PCOD9172362 Si02
#       8
#     8   8   8   8   8   8   8   8
#     4  10  24  43  60  84 114 142 175 232 287 340
#     4  11  17  30  53  79 108 152 193 224 262 308
#     4  10  21  38  60  86 110 144 187 233 275 329
#     4  10  19  33  55  82 115 153 194 226 265 318
#     4  10  21  41  65  84 107 141 183 229 287 345
#     4  10  18  29  48  79 114 149 195 236 267 316
#     4   9  19  35  55  78 110 149 186 231 283 330
#     4  10  20  36  55  82 117 155 190 222 268 328
#
# _framework density 20.141282
#
# number of rings (size 3 to 8) (size 9 to 14) (size 15 to 20)
#    0.000    2.000    2.500    1.875    0.000    4.000 
#    0.000    1.875    0.000    0.375    0.000    0.000 
#    0.000    0.000    0.000    0.000    0.000    0.000 
#
# Total GULP energy -178445.974174 kJ/mol
# GULP energy per Si atom -5576.436693 kJ/mol
# Density = 2.009544 g / cm^3
# Si number density = 20.141282 Si / 1000 Ang^3
#
#
#
# Elastic Constant Matrix: (Units=GPa)
#
#
# Indices 1 2 3 4 5 6 
#
# 1 86.1544 17.5041 13.9644 0.0000 -34.1476 0.0000
# 2 17.5041 70.3487 -7.1761 0.0000 -4.9373 0.0000
# 3 13.9644 -7.1761 44.1123 0.0000 -14.6521 0.0000
# 4 0.0000 0.0000 0.0000 0.7470 0.0000 8.3491
# 5 -34.1476 -4.9373 -14.6521 0.0000 26.9708 0.0000
# 6 0.0000 0.0000 0.0000 8.3491 0.0000 15.0764
#
#
#
# Elastic Compliance Matrix: (Units=1/GPa)
#
#
# Indices 1 2 3 4 5 6 
#
# 1 0.024486 -0.003669 0.002106 0.000000 0.031474 0.000000
# 2 -0.003669 0.015529 0.003769 0.000000 0.000245 0.000000
# 3 0.002106 0.003769 0.028956 0.000000 0.019087 0.000000
# 4 0.000000 0.000000 0.000000 -0.257963 0.000000 0.142856
# 5 0.031474 0.000245 0.019087 0.000000 0.087341 0.000000
# 6 0.000000 0.000000 0.000000 0.142856 0.000000 -0.012782
#
#
# Mechanical properties :
#
#
# Convention : Reuss Voigt Hill
#
# Bulk Modulus (GPa) = 13.62691 27.68891 20.65791
# Shear Modulus (GPa) = -52.97446 20.31371 -16.33038
#
# Velocity S-wave (km/s) = -5.13406 3.17923 -2.85053
# Velocity P-wave (km/s) = 5.32582 5.22052 0.74515
#
# Compressibility (1/GPa) = 0.07338419
#
# Stress axis : x y z
#
# Youngs Moduli (GPa) = 40.83959 64.39359 34.53559
#
# Poissons Ratio (x) = 0.23625 -0.07273
# Poissons Ratio (y) = 0.14983 -0.13017
# Poissons Ratio (z) = -0.08601 -0.24271
#
# Static dielectric constant tensor:
#      x y z
#    x 1.750690 0.000000 -0.018380 
#    y 0.000000 1.728770 0.000000 
#    z -0.018380 0.000000 1.715180 
# 
# From -- ./inp_files/18328.got.cif
#   From: 2010.05.17/outbox.cif.g08.bks.cpg/sg12_10_cif.got.tgz:18328.got - 2010.06.03 13:09:07.
