data_PCOD9172708
_publ_section_title
;
Structure prediction by ZEFSAII (Michael W. Deem and Ramdas Pophale) SiO2 
 PCOD9172708
Probable space group: C 2/M
;
_chemical_formula_sum "Si O2"
_cell_formula_units_Z 48
_cell_length_a 29.428814
_cell_length_b 8.482393
_cell_length_c 12.607842
_cell_angle_alpha 90.000000
_cell_angle_beta 109.165234
_cell_angle_gamma 90.000000
_cell_volume 2972.820574
_symmetry_space_group_name_H-M "C 2/M"
_symmetry_group_IT_number 12
_symmetry_cell_setting 'monoclinic'
loop_
_space_group_symop_operation_xyz
x,y,z
-x,y,-z
-x,-y,-z
x,-y,z
1/2+x,1/2+y,z
1/2-x,1/2+y,-z
1/2-x,1/2-y,-z
1/2+x,1/2-y,z
loop_
_atom_site_type_symbol
_atom_site_label
_atom_site_fract_x
_atom_site_fract_y
_atom_site_fract_z
Si Si1 0.528356 0.688407 0.417900
Si Si2 0.832106 0.307961 0.748275
Si Si3 0.634849 0.811652 0.463481
Si Si4 0.732222 0.689123 0.601098
Si Si5 0.505076 0.190475 0.831361
Si Si6 0.577165 0.808294 0.061404
O O1 0.500000 0.746108 0.500000
O O2 0.529810 0.500000 0.421837
O O3 0.582880 0.750216 0.455997
O O4 0.502141 0.741498 0.290128
O O5 0.832676 0.500000 0.749442
O O6 0.852627 0.259870 0.648070
O O7 0.776102 0.260791 0.711626
O O8 0.869733 0.253090 0.865838
O O9 0.678617 0.754740 0.571343
O O10 0.634248 0.000000 0.462072
O O11 0.730143 0.500000 0.598157
O O12 0.750000 0.750000 0.500000
O O13 0.459601 0.233053 0.871488
O O14 0.505403 0.000000 0.824516
O O15 0.552348 0.242875 0.932886
O O16 0.577929 0.000000 0.058768
#
# Coordination Sequence:
#
# PCOD9172708 Si02
#       6
#     8   8   8   8   8   8
#     4  11  23  35  46  63  91 124 156 193 235 276
#     4   8  13  23  42  67  93 120 147 175 217 272
#     4  10  18  30  47  64  87 120 156 194 231 272
#     4   9  16  25  40  64  94 125 154 184 222 271
#     4   9  16  28  48  68  89 119 154 189 222 266
#     4   8  13  24  45  71  94 118 148 183 224 267
#
# _framework density 16.146281999999999
#
# number of rings (size 3 to 8) (size 9 to 14) (size 15 to 20)
#    0.000    2.833    1.667    3.500    0.000    1.333 
#    0.000    1.667    0.000    0.000    0.000    1.167 
#    0.000    0.000    0.000    0.000    0.000    0.000 
#
# Total GULP energy -133601.677807 kJ/mol
# GULP energy per Si atom -5566.736575 kJ/mol
# Density = 1.610953 g / cm^3
# Si number density = 16.146282 Si / 1000 Ang^3
#
#
#
# Elastic Constant Matrix: (Units=GPa)
#
#
# Indices 1 2 3 4 5 6 
#
# 1 110.0359 20.9781 82.8640 0.0000 34.7120 0.0000
# 2 20.9781 23.5890 21.3596 0.0000 3.6968 0.0000
# 3 82.8640 21.3596 110.2606 0.0000 30.9776 0.0000
# 4 0.0000 0.0000 0.0000 12.2106 0.0000 1.1638
# 5 34.7120 3.6968 30.9776 0.0000 35.8294 0.0000
# 6 0.0000 0.0000 0.0000 1.1638 0.0000 19.7460
#
#
#
# Elastic Compliance Matrix: (Units=1/GPa)
#
#
# Indices 1 2 3 4 5 6 
#
# 1 0.024308 -0.007444 -0.013771 0.000000 -0.010876 0.000000
# 2 -0.007444 0.054213 -0.007083 0.000000 0.007742 0.000000
# 3 -0.013771 -0.007083 0.022239 0.000000 -0.005155 0.000000
# 4 0.000000 0.000000 0.000000 0.082358 0.000000 -0.004854
# 5 -0.010876 0.007742 -0.005155 0.000000 0.042106 0.000000
# 6 0.000000 0.000000 0.000000 -0.004854 0.000000 0.050929
#
#
# Mechanical properties :
#
#
# Convention : Reuss Voigt Hill
#
# Bulk Modulus (GPa) = 22.64229 54.92099 38.78164
# Shear Modulus (GPa) = 14.38971 21.46947 17.92959
#
# Velocity S-wave (km/s) = 2.98855 3.65044 3.33595
# Velocity P-wave (km/s) = 5.09532 7.20112 6.23772
#
# Compressibility (1/GPa) = 0.04416515
#
# Stress axis : x y z
#
# Youngs Moduli (GPa) = 41.13798 18.44580 44.96606
#
# Poissons Ratio (x) = 0.13731 0.61922
# Poissons Ratio (y) = 0.30624 0.31848
# Poissons Ratio (z) = 0.56650 0.13065
#
# Static dielectric constant tensor:
#      x y z
#    x 1.555360 0.000000 0.049000 
#    y 0.000000 1.552490 0.000000 
#    z 0.049000 0.000000 1.547020 
# 
# From -- ./inp_files/179308.got.cif
#   From: 2010.05.17/outbox.cif.g08.bks.cpg/sg12_90_cif.got.tgz:179308.got - 2010.06.03 13:09:07.
