data_PCOD9172020
_publ_section_title
;
Structure prediction by ZEFSAII (Michael W. Deem and Ramdas Pophale) SiO2 
 PCOD9172020
Probable space group: C 2/M
;
_chemical_formula_sum "Si O2"
_cell_formula_units_Z 40
_cell_length_a 19.445481
_cell_length_b 14.129545
_cell_length_c 13.552718
_cell_angle_alpha 90.000000
_cell_angle_beta 24.689051
_cell_angle_gamma 90.000000
_cell_volume 1555.360043
_symmetry_space_group_name_H-M "C 2/M"
_symmetry_group_IT_number 12
_symmetry_cell_setting 'monoclinic'
loop_
_space_group_symop_operation_xyz
x,y,z
-x,y,-z
-x,-y,-z
x,-y,z
1/2+x,1/2+y,z
1/2-x,1/2+y,-z
1/2-x,1/2-y,-z
1/2+x,1/2-y,z
loop_
_atom_site_type_symbol
_atom_site_label
_atom_site_fract_x
_atom_site_fract_y
_atom_site_fract_z
Si Si1 0.825786 0.500000 0.174235
Si Si2 0.016133 0.000000 0.357985
Si Si3 0.965753 0.837968 0.157198
Si Si4 0.117110 0.327180 0.578285
Si Si5 0.229271 0.358361 0.930857
Si Si6 0.319805 0.835238 0.721002
O O1 0.663119 0.500000 0.454226
O O2 0.801427 0.409135 0.135102
O O3 0.000000 0.500000 0.000000
O O4 0.126515 0.090918 0.197252
O O5 0.000000 0.000000 0.500000
O O6 0.931374 0.750990 0.276633
O O7 0.782771 0.883249 0.392953
O O8 0.141253 0.886810 0.953000
O O9 0.000000 0.804556 0.000000
O O10 0.159437 0.288674 0.415122
O O11 0.944437 0.379413 0.792019
O O12 0.288255 0.252040 0.835873
O O13 0.500000 0.881343 0.500000
#
# Coordination Sequence:
#
# PCOD9172020 Si02
#       6
#     4   4   8   8   8   8
#     4  10  20  32  50  70  90 123 160 202 242 277
#     4   8  16  34  50  64  92 127 156 194 245 279
#     4   8  16  28  40  60  91 125 157 190 230 275
#     4   9  17  29  46  67  94 131 160 191 237 283
#     4   9  18  32  48  68  97 129 157 191 237 287
#     4  10  18  29  45  70 102 130 159 193 235 286
#
# _framework density 25.717517999999998
#
# number of rings (size 3 to 8) (size 9 to 14) (size 15 to 20)
#    0.000    3.200    0.000    1.800    0.000   11.200 
#    0.000    2.000    0.000    0.000    0.000   28.000 
#    0.000   32.000    0.000    0.000    0.000    0.000 
#
# Total GULP energy -111360.820173 kJ/mol
# GULP energy per Si atom -5568.041009 kJ/mol
# Density = 2.565898 g / cm^3
# Si number density = 25.717518 Si / 1000 Ang^3
#
#
#
# Elastic Constant Matrix: (Units=GPa)
#
#
# Indices 1 2 3 4 5 6 
#
# 1 104.1242 11.0146 56.2062 -0.0001 -3.0241 0.0001
# 2 11.0146 56.5604 24.0669 -0.0004 -2.0306 0.0001
# 3 56.2062 24.0669 282.2517 -0.0006 -79.0362 0.0002
# 4 -0.0001 -0.0004 -0.0006 9.1882 0.0001 -2.3839
# 5 -3.0241 -2.0306 -79.0362 0.0001 77.4727 -0.0002
# 6 0.0001 0.0001 0.0002 -2.3839 -0.0002 2.9891
#
#
#
# Elastic Compliance Matrix: (Units=1/GPa)
#
#
# Indices 1 2 3 4 5 6 
#
# 1 0.011170 -0.001061 -0.002827 0.000000 -0.002476 0.000000
# 2 -0.001061 0.018582 -0.001748 0.000001 -0.001337 0.000000
# 3 -0.002827 -0.001748 0.005895 0.000000 0.005858 0.000000
# 4 0.000000 0.000001 0.000000 0.137229 0.000000 0.109440
# 5 -0.002476 -0.001337 0.005858 0.000000 0.018752 0.000001
# 6 0.000000 0.000000 0.000000 0.109440 0.000001 0.421823
#
#
# Mechanical properties :
#
#
# Convention : Reuss Voigt Hill
#
# Bulk Modulus (GPa) = 41.02387 69.50132 55.26259
# Shear Modulus (GPa) = 7.90077 41.37324 24.63700
#
# Velocity S-wave (km/s) = 1.75465 4.01528 3.09849
# Velocity P-wave (km/s) = 4.48235 6.96995 5.85968
#
# Compressibility (1/GPa) = 0.02437606
#
# Stress axis : x y z
#
# Youngs Moduli (GPa) = 89.52195 53.81409 169.62431
#
# Poissons Ratio (x) = 0.05711 0.47958
# Poissons Ratio (y) = 0.09500 0.29644
# Poissons Ratio (z) = 0.25311 0.09405
#
# Static dielectric constant tensor:
#      x y z
#    x 2.163090 0.000000 -0.051310 
#    y 0.000000 2.002500 0.000000 
#    z -0.051310 0.000000 2.115960 
# 
# From -- ./inp_files/235155.got.cif
#   From: 2010.05.17/outbox.cif.g08.bks.cpg/sg12_118_cif.got.tgz:235155.got - 2010.06.03 13:09:07.
