data_PCOD9172781
_publ_section_title
;
Structure prediction by ZEFSAII (Michael W. Deem and Ramdas Pophale) SiO2 
 PCOD9172781
Probable space group: C 2/M
;
_chemical_formula_sum "Si O2"
_cell_formula_units_Z 64
_cell_length_a 29.374876
_cell_length_b 8.826872
_cell_length_c 15.983292
_cell_angle_alpha 90.000000
_cell_angle_beta 88.748777
_cell_angle_gamma 90.000000
_cell_volume 4143.291982
_symmetry_space_group_name_H-M "C 2/M"
_symmetry_group_IT_number 12
_symmetry_cell_setting 'monoclinic'
loop_
_space_group_symop_operation_xyz
x,y,z
-x,y,-z
-x,-y,-z
x,-y,z
1/2+x,1/2+y,z
1/2-x,1/2+y,-z
1/2-x,1/2-y,-z
1/2+x,1/2-y,z
loop_
_atom_site_type_symbol
_atom_site_label
_atom_site_fract_x
_atom_site_fract_y
_atom_site_fract_z
Si Si1 0.699875 0.317809 0.410500
Si Si2 0.055025 0.674224 0.987945
Si Si3 0.556360 0.182073 0.172532
Si Si4 0.606629 0.682857 0.657232
Si Si5 0.196959 0.319199 0.595099
Si Si6 0.955608 0.819254 0.183796
Si Si7 0.552273 0.315586 0.493173
Si Si8 0.108142 0.817195 0.325624
O O1 0.697724 0.500000 0.422967
O O2 0.751248 0.278427 0.381542
O O3 0.691116 0.242092 0.500715
O O4 0.659879 0.277275 0.348162
O O5 0.069309 0.500000 0.974126
O O6 0.071551 0.729581 0.078012
O O7 0.064570 0.770357 0.905121
O O8 0.000000 0.673659 0.000000
O O9 0.505532 0.245483 0.190372
O O10 0.589334 0.241650 0.243010
O O11 0.554100 0.000000 0.172286
O O12 0.609141 0.500000 0.655654
O O13 0.657224 0.748593 0.652188
O O14 0.577102 0.727666 0.738929
O O15 0.580508 0.732502 0.573622
O O16 0.193145 0.500000 0.595225
O O17 0.961143 0.000000 0.186587
O O18 0.500000 0.264490 0.500000
O O19 0.551949 0.500000 0.494143
O O20 0.576922 0.271143 0.406301
O O21 0.105042 0.000000 0.317711
#
# Coordination Sequence:
#
# PCOD9172781 Si02
#       8
#     8   8   8   8   8   8   8   8
#     4   9  18  33  49  66  90 122 156 194 239 277
#     4   8  16  31  47  64  92 126 151 185 239 281
#     4  10  20  32  46  67  98 128 153 189 237 279
#     4  10  19  32  47  66  94 125 156 190 233 276
#     4  10  19  30  48  70  91 118 156 196 235 279
#     4  10  19  30  49  72  92 122 162 196 225 269
#     4   9  16  27  43  61  86 123 159 184 215 263
#     4  10  18  30  48  66  89 124 161 193 225 267
#
# _framework density 15.446654000000001
#
# number of rings (size 3 to 8) (size 9 to 14) (size 15 to 20)
#    0.000    2.500    1.250    2.625    0.000    6.750 
#    0.000    0.000    0.000    1.500    0.000    0.875 
#    0.000    0.000    0.000    0.000    0.000    0.000 
#
# Total GULP energy -178372.920951 kJ/mol
# GULP energy per Si atom -5574.153780 kJ/mol
# Density = 1.541150 g / cm^3
# Si number density = 15.446654 Si / 1000 Ang^3
#
#
#
# Elastic Constant Matrix: (Units=GPa)
#
#
# Indices 1 2 3 4 5 6 
#
# 1 101.2388 26.6234 56.7794 0.0000 13.7827 0.0000
# 2 26.6234 21.1454 28.5057 0.0000 4.5977 0.0000
# 3 56.7794 28.5057 114.4620 0.0000 20.7628 0.0000
# 4 0.0000 0.0000 0.0000 22.5224 0.0000 0.7791
# 5 13.7827 4.5977 20.7628 0.0000 13.1014 0.0000
# 6 0.0000 0.0000 0.0000 0.7791 0.0000 21.0997
#
#
#
# Elastic Compliance Matrix: (Units=1/GPa)
#
#
# Indices 1 2 3 4 5 6 
#
# 1 0.016593 -0.015036 -0.003196 0.000000 -0.007114 0.000000
# 2 -0.015036 0.084997 -0.015673 0.000000 0.010828 0.000000
# 3 -0.003196 -0.015673 0.017708 0.000000 -0.019201 0.000000
# 4 0.000000 0.000000 0.000000 0.044457 0.000000 -0.001642
# 5 -0.007114 0.010828 -0.019201 0.000000 0.110442 0.000000
# 6 0.000000 0.000000 0.000000 -0.001642 0.000000 0.047455
#
#
# Mechanical properties :
#
#
# Convention : Reuss Voigt Hill
#
# Bulk Modulus (GPa) = 19.42213 51.18482 35.30348
# Shear Modulus (GPa) = 12.29636 19.67388 15.98512
#
# Velocity S-wave (km/s) = 2.82450 3.57272 3.22041
# Velocity P-wave (km/s) = 4.82059 7.08714 6.06076
#
# Compressibility (1/GPa) = 0.05148765
#
# Stress axis : x y z
#
# Youngs Moduli (GPa) = 60.26767 11.76509 56.47141
#
# Poissons Ratio (x) = 0.17690 0.18047
# Poissons Ratio (y) = 0.90619 0.88509
# Poissons Ratio (z) = 0.19260 0.18440
#
# Static dielectric constant tensor:
#      x y z
#    x 1.509870 0.000000 0.005760 
#    y 0.000000 1.521820 0.000000 
#    z 0.005760 0.000000 1.511890 
# 
# From -- ./inp_files/248359.got.cif
#   From: 2010.05.17/outbox.cif.g08.bks.cpg/sg12_125_cif.got.tgz:248359.got - 2010.06.03 13:09:07.
