data_PCOD9172882
_publ_section_title
;
Structure prediction by ZEFSAII (Michael W. Deem and Ramdas Pophale) SiO2 
 PCOD9172882
Probable space group: C 2/M
;
_chemical_formula_sum "Si O2"
_cell_formula_units_Z 64
_cell_length_a 30.159319
_cell_length_b 15.495585
_cell_length_c 21.344019
_cell_angle_alpha 90.000000
_cell_angle_beta 20.073164
_cell_angle_gamma 90.000000
_cell_volume 3423.560834
_symmetry_space_group_name_H-M "C 2/M"
_symmetry_group_IT_number 12
_symmetry_cell_setting 'monoclinic'
loop_
_space_group_symop_operation_xyz
x,y,z
-x,y,-z
-x,-y,-z
x,-y,z
1/2+x,1/2+y,z
1/2-x,1/2+y,-z
1/2-x,1/2-y,-z
1/2+x,1/2-y,z
loop_
_atom_site_type_symbol
_atom_site_label
_atom_site_fract_x
_atom_site_fract_y
_atom_site_fract_z
Si Si1 0.531078 0.339573 0.072447
Si Si2 0.880130 0.217067 0.528377
Si Si3 0.569247 0.766563 0.678169
Si Si4 0.739389 0.406509 0.594114
Si Si5 0.202718 0.597956 0.333668
Si Si6 0.088084 0.658445 0.939985
Si Si7 0.873220 0.400931 0.971168
Si Si8 0.919939 0.902842 0.670095
O O1 0.492084 0.300543 0.191793
O O2 0.413312 0.399579 0.210157
O O3 0.668143 0.385102 0.878865
O O4 0.533585 0.254296 0.025795
O O5 0.894819 0.224905 0.434712
O O6 0.877661 0.312301 0.564451
O O7 0.740582 0.171758 0.724109
O O8 0.999859 0.162080 0.394128
O O9 0.692864 0.826711 0.531564
O O10 0.460557 0.839528 0.813594
O O11 0.786154 0.500000 0.509130
O O12 0.765756 0.400983 0.633547
O O13 0.153239 0.500000 0.385757
O O14 0.085127 0.611194 0.011340
O O15 0.000000 0.622258 0.000000
O O16 0.888376 0.500000 0.933725
O O17 0.724312 0.376274 0.157820
O O18 0.000000 0.907799 0.500000
O O19 0.914649 0.000000 0.704403
#
# Coordination Sequence:
#
# PCOD9172882 Si02
#       8
#     8   8   8   8   8   8   8   8
#     4  10  18  30  48  74 110 152 190 217 263 329
#     4  10  20  36  58  85 111 143 184 230 279 324
#     4  10  21  33  49  78 113 146 175 224 284 339
#     4  10  18  30  50  74 104 145 192 233 264 312
#     4   9  18  32  53  80 107 141 190 235 267 314
#     4  10  19  32  53  82 113 145 181 227 277 328
#     4  10  21  37  57  82 109 143 187 232 278 331
#     4  10  20  38  64  86 104 136 189 241 274 324
#
# _framework density 18.693987
#
# number of rings (size 3 to 8) (size 9 to 14) (size 15 to 20)
#    0.000    2.125    1.250    3.750    0.000    3.250 
#    0.000    1.250    0.000    0.375    0.000    0.000 
#    0.000    0.000    0.000    0.000    0.000    0.000 
#
# Total GULP energy -178238.667435 kJ/mol
# GULP energy per Si atom -5569.958357 kJ/mol
# Density = 1.865144 g / cm^3
# Si number density = 18.693987 Si / 1000 Ang^3
#
#
#
# Elastic Constant Matrix: (Units=GPa)
#
#
# Indices 1 2 3 4 5 6 
#
# 1 25.9091 12.6855 -2.8595 0.0001 -8.7637 0.0001
# 2 12.6855 62.0661 -1.6457 0.0001 -12.2829 0.0000
# 3 -2.8595 -1.6457 54.3398 0.0002 -1.4323 0.0001
# 4 0.0001 0.0001 0.0002 104.5206 -0.0001 73.8547
# 5 -8.7637 -12.2829 -1.4323 -0.0001 31.5476 -0.0001
# 6 0.0001 0.0000 0.0001 73.8547 -0.0001 99.8242
#
#
#
# Elastic Compliance Matrix: (Units=1/GPa)
#
#
# Indices 1 2 3 4 5 6 
#
# 1 0.045833 -0.007325 0.002453 0.000000 0.009991 0.000000
# 2 -0.007325 0.018655 0.000318 0.000000 0.005243 0.000000
# 3 0.002453 0.000318 0.018585 0.000000 0.001649 0.000000
# 4 0.000000 0.000000 0.000000 0.020048 0.000000 -0.014833
# 5 0.009991 0.005243 0.001649 0.000000 0.036590 0.000000
# 6 0.000000 0.000000 0.000000 -0.014833 0.000000 0.020992
#
#
# Mechanical properties :
#
#
# Convention : Reuss Voigt Hill
#
# Bulk Modulus (GPa) = 13.51997 17.63064 15.57531
# Shear Modulus (GPa) = 25.71134 56.12080 40.91607
#
# Velocity S-wave (km/s) = 3.71264 5.48507 4.68346
# Velocity P-wave (km/s) = 5.06223 7.04033 6.13158
#
# Compressibility (1/GPa) = 0.07396464
#
# Stress axis : x y z
#
# Youngs Moduli (GPa) = 21.81811 53.60479 53.80714
#
# Poissons Ratio (x) = 0.39268 -0.13201
# Poissons Ratio (y) = 0.15983 -0.01709
# Poissons Ratio (z) = -0.05353 -0.01703
#
# Static dielectric constant tensor:
#      x y z
#    x 1.501360 0.000000 0.132980 
#    y 0.000000 1.696020 0.000000 
#    z 0.132980 0.000000 1.521600 
# 
# From -- ./inp_files/330372.got.cif
#   From: 2010.05.17/outbox.cif.g08.bks.cpg/sg12_166_cif.got.tgz:330372.got - 2010.06.03 13:09:07.
