data_PCOD9172644
_publ_section_title
;
Structure prediction by ZEFSAII (Michael W. Deem and Ramdas Pophale) SiO2 
 PCOD9172644
Probable space group: C 2/M
;
_chemical_formula_sum "Si O2"
_cell_formula_units_Z 36
_cell_length_a 10.530051
_cell_length_b 34.531947
_cell_length_c 5.257179
_cell_angle_alpha 90.000000
_cell_angle_beta 76.644687
_cell_angle_gamma 90.000000
_cell_volume 1859.934511
_symmetry_space_group_name_H-M "C 2/M"
_symmetry_group_IT_number 12
_symmetry_cell_setting 'monoclinic'
loop_
_space_group_symop_operation_xyz
x,y,z
-x,y,-z
-x,-y,-z
x,-y,z
1/2+x,1/2+y,z
1/2-x,1/2+y,-z
1/2-x,1/2-y,-z
1/2+x,1/2-y,z
loop_
_atom_site_type_symbol
_atom_site_label
_atom_site_fract_x
_atom_site_fract_y
_atom_site_fract_z
Si Si1 0.860699 0.717485 0.400873
Si Si2 0.341753 0.455877 0.573227
Si Si3 0.235781 0.677753 0.067407
Si Si4 0.500000 0.727217 0.000000
Si Si5 0.841441 0.908157 0.072773
O O1 0.750000 0.750000 0.500000
O O2 0.852075 0.689805 0.649779
O O3 0.825534 0.691500 0.170055
O O4 0.979151 0.744567 0.248938
O O5 0.500000 0.457542 0.500000
O O6 0.294357 0.500000 0.569596
O O7 0.304932 0.428767 0.353849
O O8 0.306447 0.436351 0.856157
O O9 0.372262 0.701325 0.025955
O O10 0.272353 0.632844 0.065045
O O11 0.000000 0.902437 0.000000
#
# Coordination Sequence:
#
# PCOD9172644 Si02
#       5
#     8   8   8   4   8
#     4  10  22  34  49  69  91 123 164 206 250 279
#     4   9  17  28  44  65  92 125 161 185 221 282
#     4  11  21  34  49  72  94 125 167 205 235 284
#     4  10  20  36  50  66  93 128 163 206 238 288
#     4  10  18  30  45  67  93 128 156 195 234 266
#
# _framework density 19.355521
#
# number of rings (size 3 to 8) (size 9 to 14) (size 15 to 20)
#    0.000    2.000    1.111    4.667    0.000   10.667 
#    0.000    0.000    0.000    0.000    0.000    0.000 
#    0.000    0.000    0.000   70.000    0.000    0.000 
#
# Total GULP energy -100480.415446 kJ/mol
# GULP energy per Si atom -5582.245303 kJ/mol
# Density = 1.931147 g / cm^3
# Si number density = 19.355521 Si / 1000 Ang^3
#
#
#
# Elastic Constant Matrix: (Units=GPa)
#
#
# Indices 1 2 3 4 5 6 
#
# 1 25.5474 25.0937 19.2092 0.0000 5.9586 0.0000
# 2 25.0937 154.9084 51.6851 0.0000 17.2634 0.0000
# 3 19.2092 51.6851 141.3747 0.0000 25.5083 0.0000
# 4 0.0000 0.0000 0.0000 28.3693 0.0000 3.9494
# 5 5.9586 17.2634 25.5083 0.0000 33.4245 0.0000
# 6 0.0000 0.0000 0.0000 3.9494 0.0000 18.6416
#
#
#
# Elastic Compliance Matrix: (Units=1/GPa)
#
#
# Indices 1 2 3 4 5 6 
#
# 1 0.048867 -0.006348 -0.003872 0.000000 -0.002478 0.000000
# 2 -0.006348 0.008297 -0.001858 0.000000 -0.001736 0.000000
# 3 -0.003872 -0.001858 0.009255 0.000000 -0.005414 0.000000
# 4 0.000000 0.000000 0.000000 0.036321 0.000000 -0.007695
# 5 -0.002478 -0.001736 -0.005414 0.000000 0.035388 0.000000
# 6 0.000000 0.000000 0.000000 -0.007695 0.000000 0.055274
#
#
# Mechanical properties :
#
#
# Convention : Reuss Voigt Hill
#
# Bulk Modulus (GPa) = 23.66037 57.08961 40.37499
# Shear Modulus (GPa) = 21.58470 31.14325 26.36398
#
# Velocity S-wave (km/s) = 3.34304 4.01560 3.69466
# Velocity P-wave (km/s) = 5.21074 7.14558 6.25345
#
# Compressibility (1/GPa) = 0.04226477
#
# Stress axis : x y z
#
# Youngs Moduli (GPa) = 20.46354 120.52591 108.04519
#
# Poissons Ratio (x) = 0.76510 0.41835
# Poissons Ratio (y) = 0.12990 0.20070
# Poissons Ratio (z) = 0.07923 0.22388
#
# Static dielectric constant tensor:
#      x y z
#    x 1.723320 0.000000 -0.000610 
#    y 0.000000 1.639240 0.000000 
#    z -0.000610 0.000000 1.683600 
# 
# From -- ./inp_files/7487.got.cif
#   From: 2010.05.17/outbox.cif.g08.bks.cpg/sg12_4_cif.got.tgz:7487.got - 2010.06.03 13:09:07.
