data_PCOD9172969
_publ_section_title
;
Structure prediction by ZEFSAII (Michael W. Deem and Ramdas Pophale) SiO2 
 PCOD9172969
Probable space group: C 2/M
;
_chemical_formula_sum "Si O2"
_cell_formula_units_Z 64
_cell_length_a 21.247189
_cell_length_b 7.844141
_cell_length_c 20.452635
_cell_angle_alpha 90.000000
_cell_angle_beta 101.891488
_cell_angle_gamma 90.000000
_cell_volume 3335.604492
_symmetry_space_group_name_H-M "C 2/M"
_symmetry_group_IT_number 12
_symmetry_cell_setting 'monoclinic'
loop_
_space_group_symop_operation_xyz
x,y,z
-x,y,-z
-x,-y,-z
x,-y,z
1/2+x,1/2+y,z
1/2-x,1/2+y,-z
1/2-x,1/2-y,-z
1/2+x,1/2-y,z
loop_
_atom_site_type_symbol
_atom_site_label
_atom_site_fract_x
_atom_site_fract_y
_atom_site_fract_z
Si Si1 0.700317 0.204168 0.767109
Si Si2 0.163073 0.209882 0.150020
Si Si3 0.569142 0.297408 0.489095
Si Si4 0.601827 0.293089 0.861641
Si Si5 0.677378 0.294956 0.004251
Si Si6 0.387665 0.205533 0.366784
Si Si7 0.972439 0.299620 0.653961
Si Si8 0.040032 0.799303 0.203042
O O1 0.770719 0.268202 0.801835
O O2 0.650592 0.240207 0.814959
O O3 0.668234 0.268660 0.693169
O O4 0.705635 0.000000 0.761945
O O5 0.162798 0.265406 0.074374
O O6 0.100408 0.269759 0.175691
O O7 0.163855 0.000000 0.150551
O O8 0.500000 0.228034 0.500000
O O9 0.564821 0.500000 0.482935
O O10 0.617073 0.254455 0.558199
O O11 0.575310 0.228665 0.417244
O O12 0.600764 0.500000 0.861753
O O13 0.530069 0.228796 0.831193
O O14 0.629736 0.233319 0.937136
O O15 0.672624 0.500000 0.004458
O O16 0.750000 0.250000 0.000000
O O17 0.456899 0.267868 0.353279
O O18 0.389246 0.000000 0.364399
O O19 0.979325 0.500000 0.666783
O O20 0.951451 0.219797 0.717518
O O21 0.037533 0.000000 0.187255
#
# Coordination Sequence:
#
# PCOD9172969 Si02
#       8
#     8   8   8   8   8   8   8   8
#     4  10  18  32  53  75 100 135 174 209 251 304
#     4   9  19  34  53  74 100 137 174 209 253 308
#     4   9  17  28  45  72 104 135 165 204 255 302
#     4  10  20  31  50  78 103 130 168 215 259 299
#     4  10  19  33  53  76 101 132 170 213 259 304
#     4   9  17  28  46  73 101 129 167 211 251 297
#     4  10  18  30  49  73 102 136 170 207 253 302
#     4  10  20  34  50  73 105 137 171 210 255 306
#
# _framework density 19.186928000000002
#
# number of rings (size 3 to 8) (size 9 to 14) (size 15 to 20)
#    0.000    2.375    2.500    0.750    0.000    3.000 
#    0.000    3.750    0.000    0.750    0.000    2.625 
#    0.000    0.000    0.000    0.000    0.000    0.000 
#
# Total GULP energy -178478.054420 kJ/mol
# GULP energy per Si atom -5577.439201 kJ/mol
# Density = 1.914326 g / cm^3
# Si number density = 19.186928 Si / 1000 Ang^3
#
#
#
# Elastic Constant Matrix: (Units=GPa)
#
#
# Indices 1 2 3 4 5 6 
#
# 1 118.4304 -1.7335 77.5370 0.0000 2.6803 0.0000
# 2 -1.7335 16.6897 -9.6080 0.0000 2.9621 0.0000
# 3 77.5370 -9.6080 153.5474 0.0000 19.4797 0.0000
# 4 0.0000 0.0000 0.0000 15.9538 0.0000 -2.9860
# 5 2.6803 2.9621 19.4797 0.0000 28.2400 0.0000
# 6 0.0000 0.0000 0.0000 -2.9860 0.0000 11.8264
#
#
#
# Elastic Compliance Matrix: (Units=1/GPa)
#
#
# Indices 1 2 3 4 5 6 
#
# 1 0.013141 -0.003649 -0.007402 0.000000 0.004241 0.000000
# 2 -0.003649 0.065906 0.007452 0.000000 -0.011707 0.000000
# 3 -0.007402 0.007452 0.011756 0.000000 -0.008188 0.000000
# 4 0.000000 0.000000 0.000000 0.065790 0.000000 0.016611
# 5 0.004241 -0.011707 -0.008188 0.000000 0.041884 0.000000
# 6 0.000000 0.000000 0.000000 0.016611 0.000000 0.088751
#
#
# Mechanical properties :
#
#
# Convention : Reuss Voigt Hill
#
# Bulk Modulus (GPa) = 11.96124 46.78429 29.37277
# Shear Modulus (GPa) = 15.51380 26.03547 20.77463
#
# Velocity S-wave (km/s) = 2.84661 3.68766 3.29409
# Velocity P-wave (km/s) = 4.12938 6.52443 5.45985
#
# Compressibility (1/GPa) = 0.08360334
#
# Stress axis : x y z
#
# Youngs Moduli (GPa) = 76.10054 15.17314 85.06653
#
# Poissons Ratio (x) = 0.05537 0.62966
# Poissons Ratio (y) = 0.27770 -0.63390
# Poissons Ratio (z) = 0.56330 -0.11307
#
# Static dielectric constant tensor:
#      x y z
#    x 1.655030 0.000000 0.029180 
#    y 0.000000 1.690180 0.000000 
#    z 0.029180 0.000000 1.678870 
# 
# From -- ./inp_files/281258.got.cif
#   From: 2010.05.17/outbox.cif.g08.bks.cpg/sg12_141_cif.got.tgz:281258.got - 2010.06.03 13:09:07.
