data_PCOD9172242
_publ_section_title
;
Structure prediction by ZEFSAII (Michael W. Deem and Ramdas Pophale) SiO2 
 PCOD9172242
Probable space group: C 2/M
;
_chemical_formula_sum "Si O2"
_cell_formula_units_Z 56
_cell_length_a 26.417951
_cell_length_b 8.573823
_cell_length_c 17.203791
_cell_angle_alpha 90.000000
_cell_angle_beta 36.009288
_cell_angle_gamma 90.000000
_cell_volume 2290.938181
_symmetry_space_group_name_H-M "C 2/M"
_symmetry_group_IT_number 12
_symmetry_cell_setting 'monoclinic'
loop_
_space_group_symop_operation_xyz
x,y,z
-x,y,-z
-x,-y,-z
x,-y,z
1/2+x,1/2+y,z
1/2-x,1/2+y,-z
1/2-x,1/2-y,-z
1/2+x,1/2-y,z
loop_
_atom_site_type_symbol
_atom_site_label
_atom_site_fract_x
_atom_site_fract_y
_atom_site_fract_z
Si Si1 0.507871 0.678671 0.138972
Si Si2 0.364144 0.815168 0.138296
Si Si3 0.147265 0.326723 0.061195
Si Si4 0.269651 0.682493 0.390913
Si Si5 0.405793 0.684560 0.417458
Si Si6 0.550552 0.823997 0.340742
Si Si7 0.716981 0.188818 0.204909
O O1 0.489175 0.500000 0.141863
O O2 0.591732 0.690868 0.090937
O O3 0.439052 0.736000 0.289444
O O4 0.547889 0.767015 0.015044
O O5 0.349752 0.751668 0.243368
O O6 0.282894 0.744194 0.190542
O O7 0.357138 0.000000 0.149495
O O8 0.125728 0.500000 0.054585
O O9 0.117588 0.335897 0.185741
O O10 0.242611 0.285229 0.917686
O O11 0.281440 0.500000 0.381821
O O12 0.250000 0.750000 0.500000
O O13 0.181231 0.724585 0.456582
O O14 0.389384 0.500000 0.433316
O O15 0.476436 0.719370 0.395450
O O16 0.613989 0.775358 0.332403
O O17 0.517039 0.000000 0.394674
O O18 0.722992 0.000000 0.191078
#
# Coordination Sequence:
#
# PCOD9172242 Si02
#       7
#     8   8   8   8   8   8   8
#     4   9  17  32  56  87 123 160 197 242 295 347
#     4  11  22  38  61  90 124 160 203 249 295 350
#     4   9  15  24  41  70 110 156 204 247 288 339
#     4  12  26  47  72  93 117 149 191 242 300 366
#     4  10  21  38  62  92 125 160 201 247 296 352
#     4   9  18  30  47  76 116 161 204 245 291 344
#     4  10  18  29  47  76 116 160 204 246 292 344
#
# _framework density 24.444132
#
# number of rings (size 3 to 8) (size 9 to 14) (size 15 to 20)
#    0.000    2.000    0.000    6.429    0.000    3.429 
#    0.000    1.429    0.000    8.571    0.000    0.000 
#    0.000    0.000    0.000    0.000    0.000    0.000 
#
# Total GULP energy -156258.228753 kJ/mol
# GULP energy per Si atom -5580.651027 kJ/mol
# Density = 2.438850 g / cm^3
# Si number density = 24.444132 Si / 1000 Ang^3
#
#
#
# Elastic Constant Matrix: (Units=GPa)
#
#
# Indices 1 2 3 4 5 6 
#
# 1 68.9394 24.0709 37.1763 0.0035 -1.8574 -0.0023
# 2 24.0709 119.0813 59.4912 0.0037 6.4279 -0.0010
# 3 37.1763 59.4912 158.2012 0.0030 26.3499 -0.0008
# 4 0.0035 0.0037 0.0030 24.3014 -0.0018 -0.4613
# 5 -1.8574 6.4279 26.3499 -0.0018 49.5301 0.0005
# 6 -0.0023 -0.0010 -0.0008 -0.4613 0.0005 23.3161
#
#
#
# Elastic Compliance Matrix: (Units=1/GPa)
#
#
# Indices 1 2 3 4 5 6 
#
# 1 0.017290 -0.001698 -0.003916 -0.000002 0.002952 0.000001
# 2 -0.001698 0.010536 -0.003648 -0.000001 0.000510 0.000000
# 3 -0.003916 -0.003648 0.009391 0.000000 -0.004669 0.000000
# 4 -0.000002 -0.000001 0.000000 0.041165 0.000002 0.000814
# 5 0.002952 0.000510 -0.004669 0.000002 0.022718 0.000000
# 6 0.000001 0.000000 0.000000 0.000814 0.000000 0.042905
#
#
# Mechanical properties :
#
#
# Convention : Reuss Voigt Hill
#
# Bulk Modulus (GPa) = 53.49730 65.29985 59.39857
# Shear Modulus (GPa) = 29.62796 34.46175 32.04486
#
# Velocity S-wave (km/s) = 3.48525 3.75883 3.62462
# Velocity P-wave (km/s) = 6.17487 6.75354 6.47068
#
# Compressibility (1/GPa) = 0.01869253
#
# Stress axis : x y z
#
# Youngs Moduli (GPa) = 57.83798 94.91525 106.48668
#
# Poissons Ratio (x) = 0.16114 0.41703
# Poissons Ratio (y) = 0.09820 0.38845
# Poissons Ratio (z) = 0.22651 0.34624
#
# Static dielectric constant tensor:
#      x y z
#    x 2.100650 0.000000 -0.020020 
#    y 0.000000 1.831320 0.000000 
#    z -0.020020 0.000000 2.065240 
# 
# From -- ./inp_files/292379.got.cif
#   From: 2010.05.17/outbox.cif.g08.bks.cpg/sg12_147_cif.got.tgz:292379.got - 2010.06.03 13:09:07.
