data_PCOD9172440
_publ_section_title
;
Structure prediction by ZEFSAII (Michael W. Deem and Ramdas Pophale) SiO2 
 PCOD9172440
Probable space group: C 2/M
;
_chemical_formula_sum "Si O2"
_cell_formula_units_Z 64
_cell_length_a 22.642006
_cell_length_b 13.104412
_cell_length_c 16.187673
_cell_angle_alpha 90.000000
_cell_angle_beta 148.752705
_cell_angle_gamma 90.000000
_cell_volume 2491.498632
_symmetry_space_group_name_H-M "C 2/M"
_symmetry_group_IT_number 12
_symmetry_cell_setting 'monoclinic'
loop_
_space_group_symop_operation_xyz
x,y,z
-x,y,-z
-x,-y,-z
x,-y,z
1/2+x,1/2+y,z
1/2-x,1/2+y,-z
1/2-x,1/2-y,-z
1/2+x,1/2-y,z
loop_
_atom_site_type_symbol
_atom_site_label
_atom_site_fract_x
_atom_site_fract_y
_atom_site_fract_z
Si Si1 0.294856 0.159532 0.341703
Si Si2 0.152189 0.378934 0.355309
Si Si3 0.165622 0.395483 0.022311
Si Si4 0.994704 0.355576 0.318709
Si Si5 0.423589 0.316418 0.827398
Si Si6 0.895730 0.146573 0.222594
Si Si7 0.360294 0.339878 0.993149
Si Si8 0.659465 0.612957 0.540487
O O1 0.418097 0.110680 0.505933
O O2 0.196965 0.133952 0.292854
O O3 0.236167 0.126610 0.185846
O O4 0.311426 0.284232 0.371964
O O5 0.123577 0.500000 0.320780
O O6 0.095558 0.334018 0.370873
O O7 0.100206 0.300630 0.226650
O O8 0.283693 0.373614 0.483010
O O9 0.134211 0.500000 0.030884
O O10 0.300898 0.393395 0.170085
O O11 0.135999 0.282909 0.016750
O O12 0.098235 0.401585 0.854214
O O13 0.921646 0.264799 0.269842
O O14 0.500000 0.315366 0.000000
O O15 0.509772 0.372797 0.868928
O O16 0.023409 0.105932 0.376060
O O17 0.842292 0.137998 0.067287
O O18 0.701509 0.500000 0.619429
#
# Coordination Sequence:
#
# PCOD9172440 Si02
#       8
#     8   8   8   8   8   8   8   8
#     4   9  20  32  52  81 112 141 168 214 262 321
#     4  10  18  29  49  78 108 143 175 211 264 315
#     4  11  22  37  57  79 104 137 181 225 265 309
#     4  10  19  33  54  77 108 138 179 218 258 312
#     4   9  17  29  48  79 113 139 169 206 260 320
#     4  10  20  35  56  74 102 141 185 224 249 307
#     4  10  19  34  54  80 107 139 177 214 265 314
#     4   9  19  33  51  77 109 141 175 214 260 313
#
# _framework density 25.687351
#
# number of rings (size 3 to 8) (size 9 to 14) (size 15 to 20)
#    0.000    2.250    2.500    2.250    1.750    2.250 
#    0.000    8.125    0.000    7.500    0.000    1.750 
#    0.000    0.000    0.000    0.000    0.000    0.000 
#
# Total GULP energy -178180.527704 kJ/mol
# GULP energy per Si atom -5568.141491 kJ/mol
# Density = 2.562889 g / cm^3
# Si number density = 25.687351 Si / 1000 Ang^3
#
#
#
# Elastic Constant Matrix: (Units=GPa)
#
#
# Indices 1 2 3 4 5 6 
#
# 1 43.4048 -6.4148 24.7064 0.0000 23.7141 0.0000
# 2 -6.4148 103.9100 -6.1805 0.0000 6.1476 0.0000
# 3 24.7064 -6.1805 155.9875 0.0000 23.0749 0.0000
# 4 0.0000 0.0000 0.0000 -21.4421 0.0000 1.2403
# 5 23.7141 6.1476 23.0749 0.0000 39.9956 0.0000
# 6 0.0000 0.0000 0.0000 1.2403 0.0000 13.9427
#
#
#
# Elastic Compliance Matrix: (Units=1/GPa)
#
#
# Indices 1 2 3 4 5 6 
#
# 1 0.036172 0.003291 -0.002571 0.000000 -0.020470 0.000000
# 2 0.003291 0.010074 0.000433 0.000000 -0.003749 0.000000
# 3 -0.002571 0.000433 0.007237 0.000000 -0.002718 0.000000
# 4 0.000000 0.000000 0.000000 -0.046399 0.000000 0.004127
# 5 -0.020470 -0.003749 -0.002718 0.000000 0.039284 0.000000
# 6 0.000000 0.000000 0.000000 0.004127 0.000000 0.071355
#
#
# Mechanical properties :
#
#
# Convention : Reuss Voigt Hill
#
# Bulk Modulus (GPa) = 17.92442 36.39162 27.15802
# Shear Modulus (GPa) = 37.30935 25.91200 31.61067
#
# Velocity S-wave (km/s) = 3.81522 3.17952 3.51179
# Velocity P-wave (km/s) = 5.13819 5.26090 5.19990
#
# Compressibility (1/GPa) = 0.05578981
#
# Stress axis : x y z
#
# Youngs Moduli (GPa) = 27.64545 99.26104 138.17714
#
# Poissons Ratio (x) = -0.32669 0.35522
# Poissons Ratio (y) = -0.09099 -0.05977
# Poissons Ratio (z) = 0.07107 -0.04293
#
# Static dielectric constant tensor:
#      x y z
#    x 2.049060 0.000000 -0.013010 
#    y 0.000000 2.160910 0.000000 
#    z -0.013010 0.000000 2.031010 
# 
# From -- ./inp_files/290134.got.cif
#   From: 2010.05.17/outbox.cif.g08.bks.cpg/sg12_146_cif.got.tgz:290134.got - 2010.06.03 13:09:07.
