data_PCOD9172288
_publ_section_title
;
Structure prediction by ZEFSAII (Michael W. Deem and Ramdas Pophale) SiO2 
 PCOD9172288
Probable space group: C 2/M
;
_chemical_formula_sum "Si O2"
_cell_formula_units_Z 56
_cell_length_a 27.704664
_cell_length_b 9.172075
_cell_length_c 14.738964
_cell_angle_alpha 90.000000
_cell_angle_beta 77.061968
_cell_angle_gamma 90.000000
_cell_volume 3650.224276
_symmetry_space_group_name_H-M "C 2/M"
_symmetry_group_IT_number 12
_symmetry_cell_setting 'monoclinic'
loop_
_space_group_symop_operation_xyz
x,y,z
-x,y,-z
-x,-y,-z
x,-y,z
1/2+x,1/2+y,z
1/2-x,1/2+y,-z
1/2-x,1/2-y,-z
1/2+x,1/2-y,z
loop_
_atom_site_type_symbol
_atom_site_label
_atom_site_fract_x
_atom_site_fract_y
_atom_site_fract_z
Si Si1 0.318703 0.828274 0.277002
Si Si2 0.206306 0.829843 0.384246
Si Si3 0.556785 0.675314 0.459556
Si Si4 0.137108 0.827770 0.577900
Si Si5 0.295767 0.673860 0.100045
Si Si6 0.127369 0.326202 0.294023
Si Si7 0.682496 0.825639 0.093576
O O1 0.264052 0.808071 0.343937
O O2 0.356939 0.761398 0.332763
O O3 0.316742 0.747427 0.181609
O O4 0.326776 0.000000 0.260838
O O5 0.185569 0.805381 0.493937
O O6 0.174553 0.726949 0.332540
O O7 0.194659 0.000000 0.367308
O O8 0.500000 0.716283 0.500000
O O9 0.559679 0.500000 0.447987
O O10 0.591260 0.713162 0.531778
O O11 0.580955 0.749434 0.361314
O O12 0.133595 0.000000 0.599496
O O13 0.301377 0.500000 0.101465
O O14 0.236767 0.706300 0.114151
O O15 0.320215 0.739674 0.999215
O O16 0.122624 0.500000 0.302031
O O17 0.140677 0.287587 0.184801
O O18 0.681067 0.000000 0.077610
#
# Coordination Sequence:
#
# PCOD9172288 Si02
#       7
#     8   8   8   8   8   8   8
#     4  11  20  29  43  65  94 128 161 194 231 273
#     4   9  18  30  43  62  91 128 163 191 224 271
#     4   9  19  36  54  72  95 122 154 194 238 284
#     4   9  18  31  46  65  90 121 157 193 230 277
#     4  10  19  30  45  64  91 129 166 198 229 269
#     4  10  18  29  48  72  97 123 155 196 238 278
#     4   9  18  31  44  65  94 125 160 198 235 270
#
# _framework density 15.341523
#
# number of rings (size 3 to 8) (size 9 to 14) (size 15 to 20)
#    0.000    2.429    1.429    2.571    0.000    4.857 
#    0.000    0.000    0.000    0.000    0.000    1.000 
#    0.000    8.000    0.000    0.000    0.000    0.000 
#
# Total GULP energy -156085.440253 kJ/mol
# GULP energy per Si atom -5574.480009 kJ/mol
# Density = 1.530661 g / cm^3
# Si number density = 15.341523 Si / 1000 Ang^3
#
#
#
# Elastic Constant Matrix: (Units=GPa)
#
#
# Indices 1 2 3 4 5 6 
#
# 1 57.3388 38.4855 63.4917 0.0000 -0.3698 0.0000
# 2 38.4855 50.4774 68.6961 0.0000 6.8900 0.0000
# 3 63.4917 68.6961 135.0592 0.0000 10.4542 0.0000
# 4 0.0000 0.0000 0.0000 29.2862 0.0000 4.4663
# 5 -0.3698 6.8900 10.4542 0.0000 21.7398 0.0000
# 6 0.0000 0.0000 0.0000 4.4663 0.0000 17.9123
#
#
#
# Elastic Compliance Matrix: (Units=1/GPa)
#
#
# Indices 1 2 3 4 5 6 
#
# 1 0.042842 -0.018307 -0.011772 0.000000 0.012192 0.000000
# 2 -0.018307 0.072683 -0.027582 0.000000 -0.010083 0.000000
# 3 -0.011772 -0.027582 0.027324 0.000000 -0.004598 0.000000
# 4 0.000000 0.000000 0.000000 0.035495 0.000000 -0.008851
# 5 0.012192 -0.010083 -0.004598 0.000000 0.051613 0.000000
# 6 0.000000 0.000000 0.000000 -0.008851 0.000000 0.058034
#
#
# Mechanical properties :
#
#
# Convention : Reuss Voigt Hill
#
# Bulk Modulus (GPa) = 36.33072 64.91354 50.62213
# Shear Modulus (GPa) = 12.12153 18.60113 15.36133
#
# Velocity S-wave (km/s) = 2.81394 3.48583 3.16775
# Velocity P-wave (km/s) = 5.85580 7.65542 6.81527
#
# Compressibility (1/GPa) = 0.02752492
#
# Stress axis : x y z
#
# Youngs Moduli (GPa) = 23.34174 13.75841 36.59840
#
# Poissons Ratio (x) = 0.25188 0.43084
# Poissons Ratio (y) = 0.42732 1.00947
# Poissons Ratio (z) = 0.27478 0.37949
#
# Static dielectric constant tensor:
#      x y z
#    x 1.492810 0.000000 -0.003590 
#    y 0.000000 1.510020 0.000000 
#    z -0.003590 0.000000 1.510800 
# 
# From -- ./inp_files/248138.got.cif
#   From: 2010.05.17/outbox.cif.g08.bks.cpg/sg12_125_cif.got.tgz:248138.got - 2010.06.03 13:09:07.
