data_PCOD9172767
_publ_section_title
;
Structure prediction by ZEFSAII (Michael W. Deem and Ramdas Pophale) SiO2 
 PCOD9172767
Probable space group: C 2/M
;
_chemical_formula_sum "Si O2"
_cell_formula_units_Z 56
_cell_length_a 34.195841
_cell_length_b 7.655762
_cell_length_c 16.150188
_cell_angle_alpha 90.000000
_cell_angle_beta 137.403543
_cell_angle_gamma 90.000000
_cell_volume 2861.667586
_symmetry_space_group_name_H-M "C 2/M"
_symmetry_group_IT_number 12
_symmetry_cell_setting 'monoclinic'
loop_
_space_group_symop_operation_xyz
x,y,z
-x,y,-z
-x,-y,-z
x,-y,z
1/2+x,1/2+y,z
1/2-x,1/2+y,-z
1/2-x,1/2-y,-z
1/2+x,1/2-y,z
loop_
_atom_site_type_symbol
_atom_site_label
_atom_site_fract_x
_atom_site_fract_y
_atom_site_fract_z
Si Si1 0.838405 0.197636 0.859158
Si Si2 0.945360 0.000000 0.297796
Si Si3 0.583982 0.204408 0.875026
Si Si4 0.582061 0.500000 0.551680
Si Si5 0.369656 0.202003 0.479967
Si Si6 0.759726 0.709717 0.417625
Si Si7 0.465519 0.203126 0.763491
Si Si8 0.431716 0.795314 0.878433
O O1 0.789118 0.277053 0.722680
O O2 0.893490 0.197347 0.884438
O O3 0.821128 0.000000 0.853287
O O4 0.860164 0.282524 0.978558
O O5 0.920167 0.831333 0.209946
O O6 0.925811 0.000000 0.362379
O O7 0.016153 0.000000 0.410937
O O8 0.529247 0.269612 0.845122
O O9 0.574617 0.000000 0.839333
O O10 0.618176 0.333118 0.575605
O O11 0.320172 0.259012 0.468162
O O12 0.428975 0.206283 0.623966
O O13 0.358105 0.000000 0.437670
O O14 0.757173 0.500000 0.411284
O O15 0.750000 0.750000 0.500000
O O16 0.427252 0.276354 0.778375
O O17 0.473966 0.000000 0.801427
O O18 0.414347 0.000000 0.858019
O O19 0.500000 0.783149 0.000000
#
# Coordination Sequence:
#
# PCOD9172767 Si02
#       8
#     8   4   8   4   8   8   8   8
#     4  11  22  36  54  86 121 161 210 261 306 359
#     4  11  24  42  62 100 131 146 203 269 319 394
#     4  11  21  38  61  86 122 163 200 247 319 378
#     4  11  24  40  68  97 124 163 197 257 335 378
#     4  10  21  40  61  87 124 167 209 251 303 375
#     4  10  23  40  60  90 128 170 216 261 300 357
#     4   9  17  31  53  79 114 159 201 241 291 358
#     4  10  18  30  47  73 114 158 202 241 286 358
#
# _framework density 19.569009999999999
#
# number of rings (size 3 to 8) (size 9 to 14) (size 15 to 20)
#    0.000    1.714    3.571    1.286    1.000    3.143 
#    2.571    1.429    0.000    0.857    0.000    0.000 
#    0.000    0.000    0.000    0.000    0.000    0.000 
#
# Total GULP energy -156042.548196 kJ/mol
# GULP energy per Si atom -5572.948150 kJ/mol
# Density = 1.952447 g / cm^3
# Si number density = 19.569010 Si / 1000 Ang^3
#
#
#
# Elastic Constant Matrix: (Units=GPa)
#
#
# Indices 1 2 3 4 5 6 
#
# 1 98.9600 41.8490 43.1479 0.0000 -13.9011 0.0000
# 2 41.8490 88.8309 35.0238 0.0000 -15.4038 0.0000
# 3 43.1479 35.0238 111.4771 0.0000 -8.4379 0.0000
# 4 0.0000 0.0000 0.0000 14.2835 0.0000 -1.8894
# 5 -13.9011 -15.4038 -8.4379 0.0000 32.2428 0.0000
# 6 0.0000 0.0000 0.0000 -1.8894 0.0000 19.4940
#
#
#
# Elastic Compliance Matrix: (Units=1/GPa)
#
#
# Indices 1 2 3 4 5 6 
#
# 1 0.014133 -0.004667 -0.003787 0.000000 0.002873 0.000000
# 2 -0.004667 0.015300 -0.002652 0.000000 0.004603 0.000000
# 3 -0.003787 -0.002652 0.011273 0.000000 0.000051 0.000000
# 4 0.000000 0.000000 0.000000 0.070920 0.000000 0.006874
# 5 0.002873 0.004603 0.000051 0.000000 0.034466 0.000000
# 6 0.000000 0.000000 0.000000 0.006874 0.000000 0.051964
#
#
# Mechanical properties :
#
#
# Convention : Reuss Voigt Hill
#
# Bulk Modulus (GPa) = 54.06950 59.92325 56.99638
# Shear Modulus (GPa) = 22.08158 25.15386 23.61772
#
# Velocity S-wave (km/s) = 3.36280 3.58913 3.47781
# Velocity P-wave (km/s) = 6.53973 6.91836 6.73171
#
# Compressibility (1/GPa) = 0.01849471
#
# Stress axis : x y z
#
# Youngs Moduli (GPa) = 70.75452 65.35958 88.70649
#
# Poissons Ratio (x) = 0.30505 0.33590
# Poissons Ratio (y) = 0.33023 0.23525
# Poissons Ratio (z) = 0.26792 0.17334
#
# Static dielectric constant tensor:
#      x y z
#    x 1.681900 0.000000 0.002000 
#    y 0.000000 1.736870 0.000000 
#    z 0.002000 0.000000 1.741020 
# 
# From -- ./inp_files/249310.got.cif
#   From: 2010.05.17/outbox.cif.g08.bks.cpg/sg12_125_cif.got.tgz:249310.got - 2010.06.03 13:09:07.
