data_PCOD9172835
_publ_section_title
;
Structure prediction by ZEFSAII (Michael W. Deem and Ramdas Pophale) SiO2 
 PCOD9172835
Probable space group: C 2/M
;
_chemical_formula_sum "Si O2"
_cell_formula_units_Z 48
_cell_length_a 20.933533
_cell_length_b 8.691142
_cell_length_c 32.191841
_cell_angle_alpha 90.000000
_cell_angle_beta 151.009837
_cell_angle_gamma 90.000000
_cell_volume 2838.584830
_symmetry_space_group_name_H-M "C 2/M"
_symmetry_group_IT_number 12
_symmetry_cell_setting 'monoclinic'
loop_
_space_group_symop_operation_xyz
x,y,z
-x,y,-z
-x,-y,-z
x,-y,z
1/2+x,1/2+y,z
1/2-x,1/2+y,-z
1/2-x,1/2-y,-z
1/2+x,1/2-y,z
loop_
_atom_site_type_symbol
_atom_site_label
_atom_site_fract_x
_atom_site_fract_y
_atom_site_fract_z
Si Si1 0.550572 0.814520 0.729536
Si Si2 0.001723 0.685333 0.452818
Si Si3 0.936297 0.817546 0.898640
Si Si4 0.805911 0.817600 0.916228
Si Si5 0.269220 0.684262 0.557125
Si Si6 0.681732 0.317857 0.720493
O O1 0.657897 0.758972 0.824801
O O2 0.404952 0.750133 0.652376
O O3 0.603990 0.760748 0.714826
O O4 0.549061 0.000000 0.728739
O O5 0.986700 0.500000 0.441496
O O6 0.141753 0.725922 0.511744
O O7 0.000000 0.729321 0.500000
O O8 0.887333 0.762179 0.360723
O O9 0.871489 0.803553 0.907780
O O10 0.834265 0.732823 0.810802
O O11 0.938628 0.000000 0.890268
O O12 0.085820 0.756804 0.989590
O O13 0.796669 0.000000 0.919544
O O14 0.277666 0.500000 0.559612
O O15 0.250000 0.750000 0.500000
O O16 0.670782 0.500000 0.718919
#
# Coordination Sequence:
#
# PCOD9172835 Si02
#       6
#     8   8   8   8   8   8
#     4  10  18  30  48  70  99 132 166 201 241 292
#     4  10  22  39  55  70  94 132 173 207 243 295
#     4   8  13  25  43  62  90 127 164 197 237 290
#     4   7  12  23  41  64  90 125 163 197 234 285
#     4  11  21  33  52  76 100 128 164 205 251 298
#     4  11  20  29  45  71 100 129 163 203 251 295
#
# _framework density 16.909835000000001
#
# number of rings (size 3 to 8) (size 9 to 14) (size 15 to 20)
#    0.000    2.500    1.667    4.500    0.000    1.000 
#    0.000    7.500    0.000    0.000    0.000    1.167 
#    0.000    0.000    0.000    0.000    0.000    0.000 
#
# Total GULP energy -133687.987185 kJ/mol
# GULP energy per Si atom -5570.332799 kJ/mol
# Density = 1.687135 g / cm^3
# Si number density = 16.909835 Si / 1000 Ang^3
#
#
#
# Elastic Constant Matrix: (Units=GPa)
#
#
# Indices 1 2 3 4 5 6 
#
# 1 59.6329 25.9473 53.5194 0.0000 -0.3741 0.0000
# 2 25.9473 45.1534 50.0698 0.0001 1.4929 -0.0001
# 3 53.5194 50.0698 199.8696 0.0000 15.4240 0.0000
# 4 0.0000 0.0001 0.0000 19.3572 0.0000 7.6254
# 5 -0.3741 1.4929 15.4240 0.0000 14.9263 0.0000
# 6 0.0000 -0.0001 0.0000 7.6254 0.0000 11.4909
#
#
#
# Elastic Compliance Matrix: (Units=1/GPa)
#
#
# Indices 1 2 3 4 5 6 
#
# 1 0.025298 -0.009241 -0.004976 0.000000 0.006701 0.000000
# 2 -0.009241 0.034431 -0.006376 -0.000001 0.002913 0.000001
# 3 -0.004976 -0.006376 0.008577 0.000000 -0.008350 0.000000
# 4 0.000000 -0.000001 0.000000 0.069945 0.000000 -0.046415
# 5 0.006701 0.002913 -0.008350 0.000000 0.075501 0.000000
# 6 0.000000 0.000001 0.000000 -0.046415 0.000000 0.117827
#
#
# Mechanical properties :
#
#
# Convention : Reuss Voigt Hill
#
# Bulk Modulus (GPa) = 36.87261 62.63652 49.75456
# Shear Modulus (GPa) = 13.09569 20.82951 16.96260
#
# Velocity S-wave (km/s) = 2.78590 3.51351 3.17064
# Velocity P-wave (km/s) = 5.67460 7.31994 6.54914
#
# Compressibility (1/GPa) = 0.02712040
#
# Stress axis : x y z
#
# Youngs Moduli (GPa) = 39.52828 29.04396 116.58657
#
# Poissons Ratio (x) = 0.26840 0.58016
# Poissons Ratio (y) = 0.36528 0.74330
# Poissons Ratio (z) = 0.19670 0.18517
#
# Static dielectric constant tensor:
#      x y z
#    x 1.541040 0.000000 0.020120 
#    y 0.000000 1.566880 0.000000 
#    z 0.020120 0.000000 1.628350 
# 
# From -- ./inp_files/380138.got.cif
#   From: 2010.05.17/outbox.cif.g08.bks.cpg/sg12_191_cif.got.tgz:380138.got - 2010.06.03 13:09:07.
