data_PCOD9172159
_publ_section_title
;
Structure prediction by ZEFSAII (Michael W. Deem and Ramdas Pophale) SiO2 
 PCOD9172159
Probable space group: C 2/M
;
_chemical_formula_sum "Si O2"
_cell_formula_units_Z 64
_cell_length_a 26.269667
_cell_length_b 7.913370
_cell_length_c 17.995695
_cell_angle_alpha 90.000000
_cell_angle_beta 101.937338
_cell_angle_gamma 90.000000
_cell_volume 3660.072973
_symmetry_space_group_name_H-M "C 2/M"
_symmetry_group_IT_number 12
_symmetry_cell_setting 'monoclinic'
loop_
_space_group_symop_operation_xyz
x,y,z
-x,y,-z
-x,-y,-z
x,-y,z
1/2+x,1/2+y,z
1/2-x,1/2+y,-z
1/2-x,1/2-y,-z
1/2+x,1/2-y,z
loop_
_atom_site_type_symbol
_atom_site_label
_atom_site_fract_x
_atom_site_fract_y
_atom_site_fract_z
Si Si1 0.710047 0.204264 0.832872
Si Si2 0.191353 0.203191 0.506024
Si Si3 0.727451 0.297324 0.669849
Si Si4 0.492059 0.793375 0.083260
Si Si5 0.899281 0.697510 0.818562
Si Si6 0.878495 0.301597 0.086231
Si Si7 0.656067 0.699538 0.341788
Si Si8 0.821864 0.803110 0.921252
O O1 0.709340 0.249044 0.746119
O O2 0.660655 0.269907 0.863907
O O3 0.764454 0.265153 0.885229
O O4 0.711185 0.000000 0.838665
O O5 0.250000 0.250000 0.500000
O O6 0.189352 0.260053 0.591104
O O7 0.156212 0.266169 0.426915
O O8 0.186371 0.000000 0.504042
O O9 0.732085 0.500000 0.667052
O O10 0.785137 0.225759 0.671257
O O11 0.542699 0.741770 0.145050
O O12 0.436654 0.730125 0.096509
O O13 0.490179 0.000000 0.082923
O O14 0.500000 0.741909 0.000000
O O15 0.896648 0.500000 0.838042
O O16 0.882734 0.718229 0.728468
O O17 0.857291 0.787303 0.858590
O O18 0.884479 0.500000 0.105172
O O19 0.850395 0.285902 0.998093
O O20 0.645547 0.500000 0.339373
O O21 0.817295 0.000000 0.939908
#
# Coordination Sequence:
#
# PCOD9172159 Si02
#       8
#     8   8   8   8   8   8   8   8
#     4  10  21  33  47  69  98 129 159 193 237 280
#     4   8  16  28  43  65  93 126 156 186 226 275
#     4  10  18  29  47  69  95 129 162 187 224 279
#     4   9  17  32  52  70  88 117 162 205 239 274
#     4  11  20  31  50  72  93 124 162 196 235 284
#     4  10  20  36  53  67  89 126 166 201 236 279
#     4  10  18  30  46  68 100 126 153 194 236 278
#     4  11  21  32  46  69  99 126 156 195 237 281
#
# _framework density 17.485990000000001
#
# number of rings (size 3 to 8) (size 9 to 14) (size 15 to 20)
#    0.000    2.125    2.500    1.875    0.000    2.000 
#    0.000    1.875    0.000    0.000    0.000    0.875 
#    0.000    7.000    0.000    0.000    0.000    0.000 
#
# Total GULP energy -178429.259651 kJ/mol
# GULP energy per Si atom -5575.914364 kJ/mol
# Density = 1.744619 g / cm^3
# Si number density = 17.485990 Si / 1000 Ang^3
#
#
#
# Elastic Constant Matrix: (Units=GPa)
#
#
# Indices 1 2 3 4 5 6 
#
# 1 117.0528 2.5444 58.4708 0.0000 6.5751 0.0000
# 2 2.5444 18.0051 -10.0247 0.0000 0.0538 0.0000
# 3 58.4708 -10.0247 112.1008 0.0000 22.7338 0.0000
# 4 0.0000 0.0000 0.0000 17.8942 0.0000 4.3662
# 5 6.5751 0.0538 22.7338 0.0000 14.1382 0.0000
# 6 0.0000 0.0000 0.0000 4.3662 0.0000 8.1514
#
#
#
# Elastic Compliance Matrix: (Units=1/GPa)
#
#
# Indices 1 2 3 4 5 6 
#
# 1 0.012684 -0.006803 -0.008953 0.000000 0.008523 0.000000
# 2 -0.006803 0.063703 0.012839 0.000000 -0.017724 0.000000
# 3 -0.008953 0.012839 0.020632 0.000000 -0.029061 0.000000
# 4 0.000000 0.000000 0.000000 0.064286 0.000000 -0.034434
# 5 0.008523 -0.017724 -0.029061 0.000000 0.113563 0.000000
# 6 0.000000 0.000000 0.000000 -0.034434 0.000000 0.141122
#
#
# Mechanical properties :
#
#
# Convention : Reuss Voigt Hill
#
# Bulk Modulus (GPa) = 10.96655 38.79333 24.87994
# Shear Modulus (GPa) = 11.05662 21.11464 16.08563
#
# Velocity S-wave (km/s) = 2.51731 3.47870 3.03630
# Velocity P-wave (km/s) = 3.83854 6.19425 5.15282
#
# Compressibility (1/GPa) = 0.09118634
#
# Stress axis : x y z
#
# Youngs Moduli (GPa) = 78.83668 15.69797 48.46861
#
# Poissons Ratio (x) = 0.10679 0.43393
# Poissons Ratio (y) = 0.53630 -0.62230
# Poissons Ratio (z) = 0.70581 -0.20155
#
# Static dielectric constant tensor:
#      x y z
#    x 1.580790 0.000000 0.009120 
#    y 0.000000 1.733630 0.000000 
#    z 0.009120 0.000000 1.618270 
# 
# From -- ./inp_files/287646.got.cif
#   From: 2010.05.17/outbox.cif.g08.bks.cpg/sg12_144_cif.got.tgz:287646.got - 2010.06.03 13:09:07.
