data_PCOD9172854
_publ_section_title
;
Structure prediction by ZEFSAII (Michael W. Deem and Ramdas Pophale) SiO2 
 PCOD9172854
Probable space group: C 2/M
;
_chemical_formula_sum "Si O2"
_cell_formula_units_Z 44
_cell_length_a 23.925387
_cell_length_b 9.418294
_cell_length_c 18.807950
_cell_angle_alpha 90.000000
_cell_angle_beta 34.462310
_cell_angle_gamma 90.000000
_cell_volume 2398.196337
_symmetry_space_group_name_H-M "C 2/M"
_symmetry_group_IT_number 12
_symmetry_cell_setting 'monoclinic'
loop_
_space_group_symop_operation_xyz
x,y,z
-x,y,-z
-x,-y,-z
x,-y,z
1/2+x,1/2+y,z
1/2-x,1/2+y,-z
1/2-x,1/2-y,-z
1/2+x,1/2-y,z
loop_
_atom_site_type_symbol
_atom_site_label
_atom_site_fract_x
_atom_site_fract_y
_atom_site_fract_z
Si Si1 0.704183 0.673085 0.115831
Si Si2 0.500000 0.746475 0.000000
Si Si3 0.716622 0.327422 0.401976
Si Si4 0.092741 0.162488 0.755859
Si Si5 0.485159 0.328839 0.311642
Si Si6 0.213615 0.663993 0.821468
O O1 0.712637 0.500000 0.099988
O O2 0.588375 0.713449 0.238021
O O3 0.758042 0.723172 0.131540
O O4 0.750000 0.750000 0.000000
O O5 0.537808 0.667547 0.889458
O O6 0.597691 0.827811 0.924201
O O7 0.722652 0.500000 0.397640
O O8 0.811466 0.261966 0.341532
O O9 0.613930 0.281067 0.544488
O O10 0.728487 0.277337 0.307710
O O11 0.023902 0.208753 0.762300
O O12 0.123909 0.000000 0.709689
O O13 0.484320 0.500000 0.316054
O O14 0.242900 0.500000 0.794887
#
# Coordination Sequence:
#
# PCOD9172854 Si02
#       6
#     8   4   8   8   8   8
#     4  10  20  35  52  73  99 129 162 198 238 288
#     4  10  18  30  48  72 101 132 159 196 243 288
#     4   9  18  33  51  73  97 126 161 202 245 285
#     4  10  19  31  48  73 100 129 163 200 239 286
#     4   9  18  32  51  72  98 128 162 201 242 285
#     4   9  18  31  50  74  99 125 161 203 242 283
#
# _framework density 18.34712
#
# number of rings (size 3 to 8) (size 9 to 14) (size 15 to 20)
#    0.000    2.545    0.000    2.182    0.000    1.455 
#    0.000    9.091    0.000    0.000    0.000    6.364 
#    0.000    0.000    0.000    0.000    0.000    0.000 
#
# Total GULP energy -122497.064143 kJ/mol
# GULP energy per Si atom -5568.048370 kJ/mol
# Density = 1.830536 g / cm^3
# Si number density = 18.347120 Si / 1000 Ang^3
#
#
#
# Elastic Constant Matrix: (Units=GPa)
#
#
# Indices 1 2 3 4 5 6 
#
# 1 139.8482 9.3980 49.9464 0.0000 13.7674 0.0000
# 2 9.3980 19.9851 7.0451 0.0000 2.1162 0.0000
# 3 49.9464 7.0451 98.0564 0.0000 -3.7357 0.0000
# 4 0.0000 0.0000 0.0000 18.5711 0.0000 2.0057
# 5 13.7674 2.1162 -3.7357 0.0000 25.0259 0.0000
# 6 0.0000 0.0000 0.0000 2.0057 0.0000 20.4794
#
#
#
# Elastic Compliance Matrix: (Units=1/GPa)
#
#
# Indices 1 2 3 4 5 6 
#
# 1 0.009655 -0.002161 -0.004986 0.000000 -0.005873 0.000000
# 2 -0.002161 0.052430 -0.002806 0.000000 -0.003664 0.000000
# 3 -0.004986 -0.002806 0.013128 0.000000 0.004940 0.000000
# 4 0.000000 0.000000 0.000000 0.054423 0.000000 -0.005330
# 5 -0.005873 -0.003664 0.004940 0.000000 0.044237 0.000000
# 6 0.000000 0.000000 0.000000 -0.005330 0.000000 0.049352
#
#
# Mechanical properties :
#
#
# Convention : Reuss Voigt Hill
#
# Bulk Modulus (GPa) = 18.08083 43.40763 30.74423
# Shear Modulus (GPa) = 19.11565 25.58196 22.34881
#
# Velocity S-wave (km/s) = 3.23133 3.73813 3.49393
# Velocity P-wave (km/s) = 4.87835 6.50707 5.75066
#
# Compressibility (1/GPa) = 0.05530719
#
# Stress axis : x y z
#
# Youngs Moduli (GPa) = 103.57515 19.07292 76.17379
#
# Poissons Ratio (x) = 0.04121 0.37983
# Poissons Ratio (y) = 0.22378 0.21375
# Poissons Ratio (z) = 0.51646 0.05352
#
# Static dielectric constant tensor:
#      x y z
#    x 1.650340 0.000000 0.021780 
#    y 0.000000 1.629430 0.000000 
#    z 0.021780 0.000000 1.642640 
# 
# From -- ./inp_files/154107.got.cif
#   From: 2010.05.17/outbox.cif.g08.bks.cpg/sg12_78_cif.got.tgz:154107.got - 2010.06.03 13:09:07.
