data_PCOD9172585
_publ_section_title
;
Structure prediction by ZEFSAII (Michael W. Deem and Ramdas Pophale) SiO2 
 PCOD9172585
Probable space group: C 2/M
;
_chemical_formula_sum "Si O2"
_cell_formula_units_Z 64
_cell_length_a 5.495799
_cell_length_b 31.089628
_cell_length_c 17.615583
_cell_angle_alpha 90.000000
_cell_angle_beta 85.979480
_cell_angle_gamma 90.000000
_cell_volume 3002.432641
_symmetry_space_group_name_H-M "C 2/M"
_symmetry_group_IT_number 12
_symmetry_cell_setting 'monoclinic'
loop_
_space_group_symop_operation_xyz
x,y,z
-x,y,-z
-x,-y,-z
x,-y,z
1/2+x,1/2+y,z
1/2-x,1/2+y,-z
1/2-x,1/2-y,-z
1/2+x,1/2-y,z
loop_
_atom_site_type_symbol
_atom_site_label
_atom_site_fract_x
_atom_site_fract_y
_atom_site_fract_z
Si Si1 0.851640 0.728631 0.597470
Si Si2 0.881547 0.046558 0.419859
Si Si3 0.329932 0.736394 0.770465
Si Si4 0.014217 0.449554 0.851423
Si Si5 0.005510 0.093373 0.910064
Si Si6 0.553986 0.354513 0.774780
Si Si7 0.752930 0.577822 0.301916
Si Si8 0.891148 0.632729 0.630554
O O1 0.607850 0.749931 0.570393
O O2 0.829674 0.739912 0.688519
O O3 0.863312 0.677212 0.586507
O O4 0.100327 0.045206 0.354523
O O5 0.000000 0.050150 0.500000
O O6 0.738381 0.090650 0.402866
O O7 0.746536 0.000000 0.418655
O O8 0.562419 0.755646 0.809101
O O9 0.389718 0.686413 0.759168
O O10 0.045977 0.500000 0.863747
O O11 0.239572 0.425606 0.889887
O O12 0.044690 0.440514 0.759684
O O13 0.743472 0.435432 0.883002
O O14 0.066282 0.137823 0.863873
O O15 0.000000 0.098592 0.000000
O O16 0.429333 0.397972 0.749433
O O17 0.791265 0.354538 0.716896
O O18 0.842703 0.614546 0.358317
#
# Coordination Sequence:
#
# PCOD9172585 Si02
#       8
#     8   8   8   8   8   8   8   8
#     4  10  19  31  57  95 127 155 199 259 314 376
#     4  10  24  43  61  88 127 170 215 262 319 384
#     4  10  18  29  52  85 119 152 192 251 303 361
#     4  11  23  39  61  88 118 154 208 267 316 367
#     4  11  24  40  58  83 120 167 207 250 314 379
#     4  10  20  35  56  86 120 155 204 255 306 367
#     4  10  21  37  61  91 118 159 206 268 314 369
#     4  11  20  36  64  90 122 162 211 264 316 376
#
# _framework density 21.316047999999999
#
# number of rings (size 3 to 8) (size 9 to 14) (size 15 to 20)
#    0.000    1.625    3.750    2.625    1.750    3.000 
#    0.000    1.250    0.000    1.500    0.000    0.000 
#    0.000    0.000    0.000    0.000    0.000    0.000 
#
# Total GULP energy -178344.293672 kJ/mol
# GULP energy per Si atom -5573.259177 kJ/mol
# Density = 2.126753 g / cm^3
# Si number density = 21.316048 Si / 1000 Ang^3
#
#
#
# Elastic Constant Matrix: (Units=GPa)
#
#
# Indices 1 2 3 4 5 6 
#
# 1 109.3429 29.9404 11.9048 0.0000 9.5635 0.0000
# 2 29.9404 131.3211 42.8961 0.0000 10.4309 0.0000
# 3 11.9048 42.8961 75.8495 0.0000 -3.1859 0.0000
# 4 0.0000 0.0000 0.0000 -90.7208 0.0000 29.3562
# 5 9.5635 10.4309 -3.1859 0.0000 19.9489 0.0000
# 6 0.0000 0.0000 0.0000 29.3562 0.0000 45.9063
#
#
#
# Elastic Compliance Matrix: (Units=1/GPa)
#
#
# Indices 1 2 3 4 5 6 
#
# 1 0.010054 -0.001717 -0.000777 0.000000 -0.004046 0.000000
# 2 -0.001717 0.010343 -0.005811 0.000000 -0.005513 0.000000
# 3 -0.000777 -0.005811 0.016849 0.000000 0.006102 0.000000
# 4 0.000000 0.000000 0.000000 -0.009133 0.000000 0.005840
# 5 -0.004046 -0.005513 0.006102 0.000000 0.055925 0.000000
# 6 0.000000 0.000000 0.000000 0.005840 0.000000 0.018049
#
#
# Mechanical properties :
#
#
# Convention : Reuss Voigt Hill
#
# Bulk Modulus (GPa) = 48.46125 53.99957 51.23041
# Shear Modulus (GPa) = 39.81697 10.47837 25.14767
#
# Velocity S-wave (km/s) = 4.32665 2.21955 3.43848
# Velocity P-wave (km/s) = 6.90969 5.65299 6.31269
#
# Compressibility (1/GPa) = 0.02063504
#
# Stress axis : x y z
#
# Youngs Moduli (GPa) = 99.46085 96.68818 59.35181
#
# Poissons Ratio (x) = 0.16603 0.04611
# Poissons Ratio (y) = 0.17079 0.34490
# Poissons Ratio (z) = 0.07727 0.56187
#
# Static dielectric constant tensor:
#      x y z
#    x 1.846020 0.000000 0.008510 
#    y 0.000000 1.788870 0.000000 
#    z 0.008510 0.000000 1.891130 
# 
# From -- ./inp_files/254005.got.cif
#   From: 2010.05.17/outbox.cif.g08.bks.cpg/sg12_128_cif.got.tgz:254005.got - 2010.06.03 13:09:07.
