data_PCOD9172447
_publ_section_title
;
Structure prediction by ZEFSAII (Michael W. Deem and Ramdas Pophale) SiO2 
 PCOD9172447
Probable space group: C 2/M
;
_chemical_formula_sum "Si O2"
_cell_formula_units_Z 56
_cell_length_a 24.645266
_cell_length_b 8.176350
_cell_length_c 14.111329
_cell_angle_alpha 90.000000
_cell_angle_beta 124.806647
_cell_angle_gamma 90.000000
_cell_volume 2334.790719
_symmetry_space_group_name_H-M "C 2/M"
_symmetry_group_IT_number 12
_symmetry_cell_setting 'monoclinic'
loop_
_space_group_symop_operation_xyz
x,y,z
-x,y,-z
-x,-y,-z
x,-y,z
1/2+x,1/2+y,z
1/2-x,1/2+y,-z
1/2-x,1/2-y,-z
1/2+x,1/2-y,z
loop_
_atom_site_type_symbol
_atom_site_label
_atom_site_fract_x
_atom_site_fract_y
_atom_site_fract_z
Si Si1 0.144014 0.306048 0.193894
Si Si2 0.403417 0.185047 0.326546
Si Si3 0.285796 0.199118 0.337958
Si Si4 0.062130 0.814419 0.948314
Si Si5 0.842867 0.308245 0.582553
Si Si6 0.321910 0.816098 0.050890
Si Si7 0.982641 0.805350 0.686295
O O1 0.141142 0.500000 0.196959
O O2 0.216307 0.256890 0.226070
O O3 0.080223 0.255723 0.069170
O O4 0.146757 0.232967 0.303028
O O5 0.351440 0.258619 0.349201
O O6 0.359049 0.174183 0.187734
O O7 0.468351 0.274776 0.353010
O O8 0.421040 0.000000 0.373809
O O9 0.292103 0.258211 0.453484
O O10 0.286658 0.000000 0.335740
O O11 0.041693 0.000000 0.940505
O O12 0.133771 0.800362 0.969222
O O13 0.014998 0.742607 0.818733
O O14 0.827862 0.500000 0.578453
O O15 0.914537 0.287938 0.606187
O O16 0.320969 0.000000 0.008306
O O17 0.250000 0.750000 0.000000
O O18 0.972138 0.000000 0.684001
#
# Coordination Sequence:
#
# PCOD9172447 Si02
#       7
#     8   8   8   8   8   8   8
#     4  11  23  38  59  88 117 150 192 241 293 341
#     4   9  19  35  56  81 112 149 187 229 282 342
#     4  10  21  39  62  87 116 154 194 233 283 345
#     4  10  21  37  56  80 112 150 191 238 290 346
#     4  10  23  41  60  83 116 156 195 236 286 343
#     4  10  18  29  49  79 113 149 187 231 285 344
#     4  10  22  39  60  86 115 150 193 238 287 339
#
# _framework density 23.985018
#
# number of rings (size 3 to 8) (size 9 to 14) (size 15 to 20)
#    0.000    2.000    0.000    3.000    0.000    6.857 
#    0.000    5.714    0.000    0.000    0.000    0.000 
#    0.000    0.000    0.000    0.000    0.000    0.000 
#
# Total GULP energy -156381.271131 kJ/mol
# GULP energy per Si atom -5585.045398 kJ/mol
# Density = 2.393043 g / cm^3
# Si number density = 23.985018 Si / 1000 Ang^3
#
#
#
# Elastic Constant Matrix: (Units=GPa)
#
#
# Indices 1 2 3 4 5 6 
#
# 1 55.0309 -11.3555 6.9616 0.0000 -3.3096 0.0000
# 2 -11.3555 37.9491 2.3591 0.0000 -5.6999 0.0000
# 3 6.9616 2.3591 120.6233 0.0000 -2.2604 0.0000
# 4 0.0000 0.0000 0.0000 20.2048 0.0000 1.0119
# 5 -3.3096 -5.6999 -2.2604 0.0000 39.8804 0.0000
# 6 0.0000 0.0000 0.0000 1.0119 0.0000 23.3925
#
#
#
# Elastic Compliance Matrix: (Units=1/GPa)
#
#
# Indices 1 2 3 4 5 6 
#
# 1 0.019790 0.006371 -0.001220 0.000000 0.002484 0.000000
# 2 0.006371 0.029005 -0.000848 0.000000 0.004626 0.000000
# 3 -0.001220 -0.000848 0.008382 0.000000 0.000253 0.000000
# 4 0.000000 0.000000 0.000000 0.049601 0.000000 -0.002146
# 5 0.002484 0.004626 0.000253 0.000000 0.025957 0.000000
# 6 0.000000 0.000000 0.000000 -0.002146 0.000000 0.042842
#
#
# Mechanical properties :
#
#
# Convention : Reuss Voigt Hill
#
# Bulk Modulus (GPa) = 15.20188 23.28151 19.24169
# Shear Modulus (GPa) = 26.46927 31.07142 28.77034
#
# Velocity S-wave (km/s) = 3.32561 3.60314 3.46716
# Velocity P-wave (km/s) = 4.59327 5.19980 4.90592
#
# Compressibility (1/GPa) = 0.06578135
#
# Stress axis : x y z
#
# Youngs Moduli (GPa) = 50.53075 34.47684 119.30298
#
# Poissons Ratio (x) = -0.21964 0.14557
# Poissons Ratio (y) = -0.32191 0.10120
# Poissons Ratio (z) = 0.06166 0.02925
#
# Static dielectric constant tensor:
#      x y z
#    x 1.976510 0.000000 -0.065870 
#    y 0.000000 1.863860 0.000000 
#    z -0.065870 0.000000 1.964950 
# 
# From -- ./inp_files/238929.got.cif
#   From: 2010.05.17/outbox.cif.g08.bks.cpg/sg12_120_cif.got.tgz:238929.got - 2010.06.03 13:09:07.
