data_PCOD9172821
_publ_section_title
;
Structure prediction by ZEFSAII (Michael W. Deem and Ramdas Pophale) SiO2 
 PCOD9172821
Probable space group: C 2/M
;
_chemical_formula_sum "Si O2"
_cell_formula_units_Z 58
_cell_length_a 18.363479
_cell_length_b 21.046865
_cell_length_c 18.507376
_cell_angle_alpha 90.000000
_cell_angle_beta 26.319293
_cell_angle_gamma 90.000000
_cell_volume 3171.440036
_symmetry_space_group_name_H-M "C 2/M"
_symmetry_group_IT_number 12
_symmetry_cell_setting 'monoclinic'
loop_
_space_group_symop_operation_xyz
x,y,z
-x,y,-z
-x,-y,-z
x,-y,z
1/2+x,1/2+y,z
1/2-x,1/2+y,-z
1/2-x,1/2-y,-z
1/2+x,1/2-y,z
loop_
_atom_site_type_symbol
_atom_site_label
_atom_site_fract_x
_atom_site_fract_y
_atom_site_fract_z
Si Si1 0.491126 0.762132 0.584991
Si Si2 0.571198 0.929376 0.636404
Si Si3 0.691242 0.330228 0.640555
Si Si4 0.234550 0.428856 0.992173
Si Si5 0.134303 0.794065 0.154237
Si Si6 0.020806 0.927036 0.086904
Si Si7 0.500000 0.000000 0.500000
Si Si8 0.673999 0.896990 0.276102
O O1 0.500000 0.726452 0.500000
O O2 0.674003 0.782369 0.447447
O O3 0.402640 0.732774 0.733451
O O4 0.386464 0.825870 0.661104
O O5 0.707027 0.876338 0.503729
O O6 0.447958 0.926278 0.677251
O O7 0.644548 0.000000 0.572815
O O8 0.449153 0.920811 0.812344
O O9 0.539554 0.299452 0.733088
O O10 0.613247 0.374791 0.772126
O O11 0.245009 0.500000 0.949303
O O12 0.286738 0.364227 0.906554
O O13 0.359764 0.429538 0.948617
O O14 0.250000 0.750000 0.000000
O O15 0.971749 0.000000 0.117867
O O16 0.143884 0.903549 0.915282
O O17 0.639151 0.943898 0.372115
#
# Coordination Sequence:
#
# PCOD9172821 Si02
#       8
#     8   8   8   8   8   8   2   8
#     4  11  23  37  54  75 109 144 185 225 277 325
#     4   9  15  28  49  77 108 135 171 218 271 314
#     4  10  20  32  53  79 105 142 185 225 264 323
#     4   8  16  30  53  79 103 134 172 225 276 322
#     4  11  21  38  59  80 110 146 184 225 271 324
#     4   9  15  28  46  73 104 134 179 227 267 305
#     4  12  16  28  52  66 100 148 196 204 262 316
#     4  10  18  30  48  70 100 148 185 216 259 315
#
# _framework density 18.288222000000001
#
# number of rings (size 3 to 8) (size 9 to 14) (size 15 to 20)
#    0.000    2.207    2.069    4.966    0.000    0.552 
#    0.000    2.759    0.000    4.552    0.000    0.000 
#    0.000    3.310    0.000    0.000    0.000    0.000 
#
# Total GULP energy -161530.919164 kJ/mol
# GULP energy per Si atom -5570.031695 kJ/mol
# Density = 1.824660 g / cm^3
# Si number density = 18.288222 Si / 1000 Ang^3
#
#
#
# Elastic Constant Matrix: (Units=GPa)
#
#
# Indices 1 2 3 4 5 6 
#
# 1 60.9891 40.0391 47.3820 -0.0046 9.0052 0.0012
# 2 40.0391 93.6357 65.8823 -0.0112 10.6619 0.0071
# 3 47.3820 65.8823 120.0555 -0.0156 10.3092 0.0111
# 4 -0.0046 -0.0112 -0.0156 37.8560 0.0072 4.4392
# 5 9.0052 10.6619 10.3092 0.0072 32.4050 -0.0030
# 6 0.0012 0.0071 0.0111 4.4392 -0.0030 14.4891
#
#
#
# Elastic Compliance Matrix: (Units=1/GPa)
#
#
# Indices 1 2 3 4 5 6 
#
# 1 0.026030 -0.006086 -0.006666 -0.000001 -0.003110 0.000006
# 2 -0.006086 0.019064 -0.007881 0.000003 -0.002074 -0.000004
# 3 -0.006666 -0.007881 0.015322 0.000004 -0.000429 -0.000009
# 4 -0.000001 0.000003 0.000004 0.027400 -0.000009 -0.008395
# 5 -0.003110 -0.002074 -0.000429 -0.000009 0.032543 0.000011
# 6 0.000006 -0.000004 -0.000009 -0.008395 0.000011 0.071589
#
#
# Mechanical properties :
#
#
# Convention : Reuss Voigt Hill
#
# Bulk Modulus (GPa) = 52.22337 64.58746 58.40542
# Shear Modulus (GPa) = 20.86824 25.04183 22.95503
#
# Velocity S-wave (km/s) = 3.38165 3.70440 3.54670
# Velocity P-wave (km/s) = 6.62307 7.32734 6.98409
#
# Compressibility (1/GPa) = 0.01914852
#
# Stress axis : x y z
#
# Youngs Moduli (GPa) = 38.41705 52.45597 65.26400
#
# Poissons Ratio (x) = 0.31924 0.43508
# Poissons Ratio (y) = 0.23380 0.51438
# Poissons Ratio (z) = 0.25610 0.41343
#
# Static dielectric constant tensor:
#      x y z
#    x 1.682590 0.000000 0.019670 
#    y 0.000000 1.648600 0.000000 
#    z 0.019670 0.000000 1.706080 
# 
# From -- ./inp_files/322957.got.cif
#   From: 2010.05.17/outbox.cif.g08.bks.cpg/sg12_162_cif.got.tgz:322957.got - 2010.06.03 13:09:07.
