data_PCOD9172046
_publ_section_title
;
Structure prediction by ZEFSAII (Michael W. Deem and Ramdas Pophale) SiO2 
 PCOD9172046
Probable space group: C 2/M
;
_chemical_formula_sum "Si O2"
_cell_formula_units_Z 64
_cell_length_a 29.148455
_cell_length_b 8.420878
_cell_length_c 21.445660
_cell_angle_alpha 90.000000
_cell_angle_beta 45.677012
_cell_angle_gamma 90.000000
_cell_volume 3765.900421
_symmetry_space_group_name_H-M "C 2/M"
_symmetry_group_IT_number 12
_symmetry_cell_setting 'monoclinic'
loop_
_space_group_symop_operation_xyz
x,y,z
-x,y,-z
-x,-y,-z
x,-y,z
1/2+x,1/2+y,z
1/2-x,1/2+y,-z
1/2-x,1/2-y,-z
1/2+x,1/2-y,z
loop_
_atom_site_type_symbol
_atom_site_label
_atom_site_fract_x
_atom_site_fract_y
_atom_site_fract_z
Si Si1 0.422449 0.687684 0.620977
Si Si2 0.436830 0.187227 0.339368
Si Si3 0.209407 0.311009 0.096445
Si Si4 0.746136 0.189829 0.333218
Si Si5 0.693636 0.190902 0.600060
Si Si6 0.720161 0.809222 0.224045
Si Si7 0.933897 0.189582 0.747445
Si Si8 0.397634 0.690012 0.510357
O O1 0.436391 0.500000 0.606000
O O2 0.346248 0.716973 0.701954
O O3 0.447921 0.750739 0.663004
O O4 0.433757 0.745620 0.539404
O O5 0.376309 0.247204 0.356734
O O6 0.507136 0.261581 0.264933
O O7 0.417839 0.224355 0.428543
O O8 0.442134 0.000000 0.324518
O O9 0.207394 0.500000 0.095331
O O10 0.240289 0.267238 0.134666
O O11 0.136001 0.250342 0.166458
O O12 0.250000 0.250000 0.000000
O O13 0.792059 0.251431 0.343697
O O14 0.763049 0.222257 0.244473
O O15 0.677415 0.272030 0.409779
O O16 0.738377 0.000000 0.347656
O O17 0.750000 0.250000 0.500000
O O18 0.694709 0.000000 0.596750
O O19 0.706633 0.000000 0.237591
O O20 0.931126 0.000000 0.746637
O O21 0.407047 0.500000 0.494896
#
# Coordination Sequence:
#
# PCOD9172046 Si02
#       8
#     8   8   8   8   8   8   8   8
#     4   8  16  29  45  66  92 124 163 204 241 285
#     4  11  23  35  46  65  95 130 170 213 254 296
#     4  10  19  34  56  82 109 134 161 194 239 296
#     4  10  18  30  48  70  97 128 167 213 255 293
#     4  11  22  34  49  68  94 130 175 221 260 296
#     4   8  16  29  47  72 101 130 159 197 243 292
#     4  10  20  35  52  71  98 130 164 203 248 297
#     4  10  18  29  46  66  91 127 169 208 248 290
#
# _framework density 16.994607999999999
#
# number of rings (size 3 to 8) (size 9 to 14) (size 15 to 20)
#    0.000    2.250    1.250    2.250    0.000    4.000 
#    0.000    2.500    0.000    0.000    0.000    0.875 
#    0.000    7.000    0.000    0.000    0.000    0.000 
#
# Total GULP energy -178322.723195 kJ/mol
# GULP energy per Si atom -5572.585100 kJ/mol
# Density = 1.695593 g / cm^3
# Si number density = 16.994608 Si / 1000 Ang^3
#
#
#
# Elastic Constant Matrix: (Units=GPa)
#
#
# Indices 1 2 3 4 5 6 
#
# 1 158.0182 19.9263 55.8263 -0.0062 10.9381 0.0039
# 2 19.9263 23.9677 15.1695 -0.0133 5.6707 0.0115
# 3 55.8263 15.1695 87.8989 -0.0067 13.6505 0.0055
# 4 -0.0062 -0.0133 -0.0067 22.1648 0.0052 0.8516
# 5 10.9381 5.6707 13.6505 0.0052 16.8859 -0.0029
# 6 0.0039 0.0115 0.0055 0.8516 -0.0029 18.6468
#
#
#
# Elastic Compliance Matrix: (Units=1/GPa)
#
#
# Indices 1 2 3 4 5 6 
#
# 1 0.008506 -0.004038 -0.004643 -0.000001 -0.000400 0.000002
# 2 -0.004038 0.050448 -0.004479 0.000032 -0.010705 -0.000032
# 3 -0.004643 -0.004479 0.016465 0.000003 -0.008798 -0.000003
# 4 -0.000001 0.000032 0.000003 0.045196 -0.000027 -0.002064
# 5 -0.000400 -0.010705 -0.008798 -0.000027 0.070188 0.000021
# 6 0.000002 -0.000032 -0.000003 -0.002064 0.000021 0.053723
#
#
# Mechanical properties :
#
#
# Convention : Reuss Voigt Hill
#
# Bulk Modulus (GPa) = 20.36753 50.19212 35.27982
# Shear Modulus (GPa) = 17.40879 23.47035 20.43957
#
# Velocity S-wave (km/s) = 3.20405 3.72028 3.47177
# Velocity P-wave (km/s) = 5.06938 6.93197 6.07251
#
# Compressibility (1/GPa) = 0.04909775
#
# Stress axis : x y z
#
# Youngs Moduli (GPa) = 117.56905 19.82253 60.73497
#
# Poissons Ratio (x) = 0.08004 0.28200
# Poissons Ratio (y) = 0.47475 0.27204
# Poissons Ratio (z) = 0.54588 0.08879
#
# Static dielectric constant tensor:
#      x y z
#    x 1.628110 0.000000 0.017580 
#    y 0.000000 1.586380 0.000000 
#    z 0.017580 0.000000 1.577630 
# 
# From -- ./inp_files/326894.got.cif
#   From: 2010.05.17/outbox.cif.g08.bks.cpg/sg12_164_cif.got.tgz:326894.got - 2010.06.03 13:09:07.
