data_PCOD9172649
_publ_section_title
;
Structure prediction by ZEFSAII (Michael W. Deem and Ramdas Pophale) SiO2 
 PCOD9172649
Probable space group: C 2/M
;
_chemical_formula_sum "Si O2"
_cell_formula_units_Z 64
_cell_length_a 25.140405
_cell_length_b 26.180818
_cell_length_c 19.101392
_cell_angle_alpha 90.000000
_cell_angle_beta 160.802882
_cell_angle_gamma 90.000000
_cell_volume 4134.067780
_symmetry_space_group_name_H-M "C 2/M"
_symmetry_group_IT_number 12
_symmetry_cell_setting 'monoclinic'
loop_
_space_group_symop_operation_xyz
x,y,z
-x,y,-z
-x,-y,-z
x,-y,z
1/2+x,1/2+y,z
1/2-x,1/2+y,-z
1/2-x,1/2-y,-z
1/2+x,1/2-y,z
loop_
_atom_site_type_symbol
_atom_site_label
_atom_site_fract_x
_atom_site_fract_y
_atom_site_fract_z
Si Si1 0.134988 0.899738 0.108489
Si Si2 0.052247 0.153037 0.768130
Si Si3 0.158046 0.940760 0.983704
Si Si4 0.955647 0.215284 0.523259
Si Si5 0.513632 0.103330 0.436286
Si Si6 0.087033 0.302550 0.775892
Si Si7 0.873916 0.777173 0.906048
Si Si8 0.061928 0.241173 0.280941
O O1 0.309970 0.921593 0.349214
O O2 0.157043 0.838230 0.126240
O O3 0.099185 0.923048 0.987751
O O4 0.000000 0.908104 0.000000
O O5 0.077153 0.095653 0.825069
O O6 0.964928 0.167367 0.587195
O O7 0.960429 0.185216 0.713374
O O8 0.231759 0.177900 0.987798
O O9 0.126360 0.000000 0.933516
O O10 0.352527 0.930023 0.224468
O O11 0.785795 0.245184 0.310491
O O12 0.000000 0.201114 0.500000
O O13 0.079245 0.257450 0.708732
O O14 0.500000 0.122393 0.500000
O O15 0.507076 0.149888 0.374174
O O16 0.005026 0.280219 0.743551
O O17 0.000000 0.770838 0.000000
O O18 0.955778 0.757479 0.079019
O O19 0.250000 0.250000 0.500000
#
# Coordination Sequence:
#
# PCOD9172649 Si02
#       8
#     8   8   8   8   8   8   8   8
#     4  10  20  31  49  73 102 133 168 208 252 299
#     4  10  20  34  48  73  98 128 170 208 242 299
#     4  10  21  37  54  68  95 135 177 219 252 286
#     4  11  19  28  50  72  99 131 163 195 243 300
#     4   9  18  31  50  71  96 128 171 205 247 301
#     4  10  18  30  45  69  99 133 162 197 239 294
#     4  11  20  31  44  70 105 139 162 191 243 298
#     4  11  21  31  47  72 105 135 165 196 241 304
#
# _framework density 15.481120000000001
#
# number of rings (size 3 to 8) (size 9 to 14) (size 15 to 20)
#    0.000    1.750    2.500    4.875    3.500    2.500 
#    0.000    0.000    0.000    0.375    0.000    0.000 
#    0.000    4.500    0.000    0.000    0.000    0.500 
#
# Total GULP energy -178481.935822 kJ/mol
# GULP energy per Si atom -5577.560494 kJ/mol
# Density = 1.544588 g / cm^3
# Si number density = 15.481120 Si / 1000 Ang^3
#
#
#
# Elastic Constant Matrix: (Units=GPa)
#
#
# Indices 1 2 3 4 5 6 
#
# 1 98.8496 54.5971 45.5194 0.0000 -6.5927 0.0000
# 2 54.5971 103.4626 41.4187 0.0000 -7.6093 0.0000
# 3 45.5194 41.4187 59.2962 0.0000 0.6973 0.0001
# 4 0.0000 0.0000 0.0000 11.2827 0.0000 -2.0381
# 5 -6.5927 -7.6093 0.6973 0.0000 30.8930 0.0001
# 6 0.0000 0.0000 0.0001 -2.0381 0.0001 4.8975
#
#
#
# Elastic Compliance Matrix: (Units=1/GPa)
#
#
# Indices 1 2 3 4 5 6 
#
# 1 0.017791 -0.005143 -0.010097 0.000000 0.002758 0.000000
# 2 -0.005143 0.015297 -0.006770 0.000000 0.002823 0.000000
# 3 -0.010097 -0.006770 0.029397 0.000000 -0.004486 -0.000001
# 4 0.000000 0.000000 0.000000 0.095836 0.000000 0.039882
# 5 0.002758 0.002823 -0.004486 0.000000 0.033755 0.000000
# 6 0.000000 0.000000 -0.000001 0.039882 0.000000 0.220783
#
#
# Mechanical properties :
#
#
# Convention : Reuss Voigt Hill
#
# Bulk Modulus (GPa) = 54.15829 60.51985 57.33907
# Shear Modulus (GPa) = 10.79832 17.41950 14.10891
#
# Velocity S-wave (km/s) = 2.64392 3.35805 3.02215
# Velocity P-wave (km/s) = 6.66182 7.36294 7.02114
#
# Compressibility (1/GPa) = 0.01846439
#
# Stress axis : x y z
#
# Youngs Moduli (GPa) = 56.20934 65.37108 34.01654
#
# Poissons Ratio (x) = 0.33621 0.34347
# Poissons Ratio (y) = 0.28909 0.23030
# Poissons Ratio (z) = 0.56755 0.44258
#
# Static dielectric constant tensor:
#      x y z
#    x 1.517830 0.000000 0.001390 
#    y 0.000000 1.491890 0.000000 
#    z 0.001390 0.000000 1.545470 
# 
# From -- ./inp_files/291198.got.cif
#   From: 2010.05.17/outbox.cif.g08.bks.cpg/sg12_146_cif.got.tgz:291198.got - 2010.06.03 13:09:07.
