data_PCOD9172184
_publ_section_title
;
Structure prediction by ZEFSAII (Michael W. Deem and Ramdas Pophale) SiO2 
 PCOD9172184
Probable space group: C 2/M
;
_chemical_formula_sum "Si O2"
_cell_formula_units_Z 56
_cell_length_a 17.850955
_cell_length_b 15.779093
_cell_length_c 9.876443
_cell_angle_alpha 90.000000
_cell_angle_beta 129.137436
_cell_angle_gamma 90.000000
_cell_volume 2157.749307
_symmetry_space_group_name_H-M "C 2/M"
_symmetry_group_IT_number 12
_symmetry_cell_setting 'monoclinic'
loop_
_space_group_symop_operation_xyz
x,y,z
-x,y,-z
-x,-y,-z
x,-y,z
1/2+x,1/2+y,z
1/2-x,1/2+y,-z
1/2-x,1/2-y,-z
1/2+x,1/2-y,z
loop_
_atom_site_type_symbol
_atom_site_label
_atom_site_fract_x
_atom_site_fract_y
_atom_site_fract_z
Si Si1 0.178214 0.399509 0.847184
Si Si2 0.844134 0.364496 0.587098
Si Si3 0.302472 0.596609 0.347549
Si Si4 0.088938 0.774048 0.700323
Si Si5 0.328109 0.404465 0.813930
Si Si6 0.956360 0.403437 0.080785
Si Si7 0.571245 0.683172 0.296904
O O1 0.154481 0.500000 0.796287
O O2 0.121023 0.322387 0.712257
O O3 0.286424 0.388666 0.915915
O O4 0.141677 0.379510 0.957018
O O5 0.793436 0.384797 0.673437
O O6 0.769849 0.398538 0.390657
O O7 0.952533 0.401584 0.711959
O O8 0.861932 0.264512 0.593167
O O9 0.302077 0.500000 0.298029
O O10 0.329831 0.662512 0.261262
O O11 0.387042 0.609197 0.558416
O O12 0.000000 0.789593 0.500000
O O13 0.037379 0.791973 0.785968
O O14 0.365840 0.500000 0.852097
O O15 0.402352 0.343340 0.824586
O O16 0.936921 0.500000 0.019443
O O17 0.000000 0.356309 0.000000
#
# Coordination Sequence:
#
# PCOD9172184 Si02
#       7
#     8   8   8   8   8   8   8
#     4  10  20  33  50  74 105 134 166 209 262 316
#     4  11  18  32  50  74 104 136 170 207 257 308
#     4  10  20  31  48  74 111 148 175 206 247 304
#     4  10  19  31  46  73 106 141 171 205 245 298
#     4  10  19  29  47  75 106 136 164 199 250 312
#     4  10  21  35  52  74 100 132 172 216 261 310
#     4  10  18  29  47  71 104 141 170 205 248 301
#
# _framework density 25.952970000000001
#
# number of rings (size 3 to 8) (size 9 to 14) (size 15 to 20)
#    0.000    1.857    1.429    6.857    0.000    3.429 
#    0.000    0.000    0.000    3.429    0.000    0.000 
#    0.000    4.000    0.000    0.000    0.000    0.000 
#
# Total GULP energy -156422.766357 kJ/mol
# GULP energy per Si atom -5586.527370 kJ/mol
# Density = 2.589390 g / cm^3
# Si number density = 25.952970 Si / 1000 Ang^3
#
#
#
# Elastic Constant Matrix: (Units=GPa)
#
#
# Indices 1 2 3 4 5 6 
#
# 1 197.4045 88.0761 39.0082 0.0000 -25.7348 0.0000
# 2 88.0761 115.6867 18.2444 0.0000 7.3855 0.0000
# 3 39.0082 18.2444 65.7233 0.0000 1.7020 0.0000
# 4 0.0000 0.0000 0.0000 -4.6324 0.0000 -6.5626
# 5 -25.7348 7.3855 1.7020 0.0000 56.3279 0.0000
# 6 0.0000 0.0000 0.0000 -6.5626 0.0000 45.9093
#
#
#
# Elastic Compliance Matrix: (Units=1/GPa)
#
#
# Indices 1 2 3 4 5 6 
#
# 1 0.009760 -0.007160 -0.003948 0.000000 0.005517 0.000000
# 2 -0.007160 0.014362 0.000396 0.000000 -0.005166 0.000000
# 3 -0.003948 0.000396 0.017510 0.000000 -0.002385 0.000000
# 4 0.000000 0.000000 0.000000 -0.179518 0.000000 -0.025661
# 5 0.005517 -0.005166 -0.002385 0.000000 0.021023 0.000000
# 6 0.000000 0.000000 0.000000 -0.025661 0.000000 0.018114
#
#
# Mechanical properties :
#
#
# Convention : Reuss Voigt Hill
#
# Bulk Modulus (GPa) = 49.48171 74.38580 61.93375
# Shear Modulus (GPa) = -70.83237 35.08668 -17.87285
#
# Velocity S-wave (km/s) = -5.22990 3.68085 -2.62709
# Velocity P-wave (km/s) = 4.16675 6.84024 3.83582
#
# Compressibility (1/GPa) = 0.02020949
#
# Stress axis : x y z
#
# Youngs Moduli (GPa) = 102.46264 69.62604 57.10968
#
# Poissons Ratio (x) = 0.49852 0.22546
# Poissons Ratio (y) = 0.73363 -0.02264
# Poissons Ratio (z) = 0.40451 -0.02760
#
# Static dielectric constant tensor:
#      x y z
#    x 2.087660 0.000000 -0.103590 
#    y 0.000000 1.973660 0.000000 
#    z -0.103590 0.000000 2.180140 
# 
# From -- ./inp_files/156193.got.cif
#   From: 2010.05.17/outbox.cif.g08.bks.cpg/sg12_79_cif.got.tgz:156193.got - 2010.06.03 13:09:07.
