data_PCOD9172956
_publ_section_title
;
Structure prediction by ZEFSAII (Michael W. Deem and Ramdas Pophale) SiO2 
 PCOD9172956
Probable space group: C 2/M
;
_chemical_formula_sum "Si O2"
_cell_formula_units_Z 56
_cell_length_a 27.200478
_cell_length_b 9.193085
_cell_length_c 14.664267
_cell_angle_alpha 90.000000
_cell_angle_beta 77.356052
_cell_angle_gamma 90.000000
_cell_volume 3577.967185
_symmetry_space_group_name_H-M "C 2/M"
_symmetry_group_IT_number 12
_symmetry_cell_setting 'monoclinic'
loop_
_space_group_symop_operation_xyz
x,y,z
-x,y,-z
-x,-y,-z
x,-y,z
1/2+x,1/2+y,z
1/2-x,1/2+y,-z
1/2-x,1/2-y,-z
1/2+x,1/2-y,z
loop_
_atom_site_type_symbol
_atom_site_label
_atom_site_fract_x
_atom_site_fract_y
_atom_site_fract_z
Si Si1 0.953747 0.826013 0.893626
Si Si2 0.930021 0.825908 0.109938
Si Si3 0.959056 0.667425 0.401104
Si Si4 0.697354 0.673640 0.542382
Si Si5 0.070636 0.672775 0.279989
Si Si6 0.109241 0.171735 0.432472
Si Si7 0.871209 0.330635 0.286554
O O1 0.928771 0.742777 0.820146
O O2 0.013424 0.789965 0.877440
O O3 0.950462 0.000000 0.880997
O O4 0.930170 0.792758 0.002159
O O5 0.888984 0.741346 0.185364
O O6 0.923809 0.000000 0.123411
O O7 0.958228 0.500000 0.434855
O O8 0.937524 0.770321 0.488109
O O9 0.919969 0.676949 0.333286
O O10 0.014425 0.701691 0.342562
O O11 0.702813 0.500000 0.550219
O O12 0.750000 0.750000 0.500000
O O13 0.658356 0.700444 0.474688
O O14 0.671856 0.742858 0.642570
O O15 0.077563 0.500000 0.272787
O O16 0.108167 0.744978 0.337247
O O17 0.104827 0.000000 0.419551
O O18 0.857658 0.500000 0.281534
#
# Coordination Sequence:
#
# PCOD9172956 Si02
#       7
#     8   8   8   8   8   8   8
#     4   9  18  30  45  65  95 133 170 206 240 276
#     4   9  17  30  46  67  95 130 169 206 242 279
#     4   9  18  30  42  63  95 129 162 196 232 274
#     4  10  21  37  55  75  97 122 156 200 247 294
#     4  11  20  30  44  66  96 131 166 199 236 278
#     4  10  21  33  47  68  92 123 160 196 237 288
#     4  10  18  30  49  72  99 130 162 199 242 287
#
# _framework density 15.651346
#
# number of rings (size 3 to 8) (size 9 to 14) (size 15 to 20)
#    0.000    2.286    1.429    3.000    0.000    5.714 
#    0.000    1.429    0.000    0.000    0.000    1.000 
#    0.000    0.000    0.000    0.000    0.000    0.000 
#
# Total GULP energy -156203.884300 kJ/mol
# GULP energy per Si atom -5578.710154 kJ/mol
# Density = 1.561572 g / cm^3
# Si number density = 15.651346 Si / 1000 Ang^3
#
#
#
# Elastic Constant Matrix: (Units=GPa)
#
#
# Indices 1 2 3 4 5 6 
#
# 1 49.3123 46.4633 49.5803 0.0000 -9.8669 0.0000
# 2 46.4633 78.3700 80.4735 0.0000 0.0534 0.0000
# 3 49.5803 80.4735 133.5019 0.0000 3.9092 0.0000
# 4 0.0000 0.0000 0.0000 27.6653 0.0000 -7.0640
# 5 -9.8669 0.0534 3.9092 0.0000 22.8007 0.0000
# 6 0.0000 0.0000 0.0000 -7.0640 0.0000 10.9816
#
#
#
# Elastic Compliance Matrix: (Units=1/GPa)
#
#
# Indices 1 2 3 4 5 6 
#
# 1 0.058078 -0.030242 -0.004098 0.000000 0.025906 0.000000
# 2 -0.030242 0.049500 -0.018312 0.000000 -0.010063 0.000000
# 3 -0.004098 -0.018312 0.020203 0.000000 -0.005194 0.000000
# 4 0.000000 0.000000 0.000000 0.043250 0.000000 0.027821
# 5 0.025906 -0.010063 -0.005194 0.000000 0.055983 0.000000
# 6 0.000000 0.000000 0.000000 0.027821 0.000000 0.108957
#
#
# Mechanical properties :
#
#
# Convention : Reuss Voigt Hill
#
# Bulk Modulus (GPa) = 44.49152 68.24648 56.36900
# Shear Modulus (GPa) = 11.14163 17.93399 14.53781
#
# Velocity S-wave (km/s) = 2.67097 3.38870 3.05102
# Velocity P-wave (km/s) = 6.16445 7.68179 6.96457
#
# Compressibility (1/GPa) = 0.02247619
#
# Stress axis : x y z
#
# Youngs Moduli (GPa) = 17.21833 20.20203 49.49828
#
# Poissons Ratio (x) = 0.61096 0.20284
# Poissons Ratio (y) = 0.52072 0.90641
# Poissons Ratio (z) = 0.07056 0.36994
#
# Static dielectric constant tensor:
#      x y z
#    x 1.506180 0.000000 0.016040 
#    y 0.000000 1.520260 0.000000 
#    z 0.016040 0.000000 1.517800 
# 
# From -- ./inp_files/243038.got.cif
#   From: 2010.05.17/outbox.cif.g08.bks.cpg/sg12_122_cif.got.tgz:243038.got - 2010.06.03 13:09:07.
