data_PCOD9172333
_publ_section_title
;
Structure prediction by ZEFSAII (Michael W. Deem and Ramdas Pophale) SiO2 
 PCOD9172333
Probable space group: C 2/M
;
_chemical_formula_sum "Si O2"
_cell_formula_units_Z 40
_cell_length_a 25.040118
_cell_length_b 8.691577
_cell_length_c 12.507093
_cell_angle_alpha 90.000000
_cell_angle_beta 118.095613
_cell_angle_gamma 90.000000
_cell_volume 2401.265246
_symmetry_space_group_name_H-M "C 2/M"
_symmetry_group_IT_number 12
_symmetry_cell_setting 'monoclinic'
loop_
_space_group_symop_operation_xyz
x,y,z
-x,y,-z
-x,-y,-z
x,-y,z
1/2+x,1/2+y,z
1/2-x,1/2+y,-z
1/2-x,1/2-y,-z
1/2+x,1/2-y,z
loop_
_atom_site_type_symbol
_atom_site_label
_atom_site_fract_x
_atom_site_fract_y
_atom_site_fract_z
Si Si1 0.502641 0.317242 0.837995
Si Si2 0.031894 0.314758 0.420063
Si Si3 0.702065 0.317524 0.301236
Si Si4 0.668787 0.184398 0.500022
Si Si5 0.592927 0.182382 0.083912
O O1 0.496148 0.500000 0.840886
O O2 0.496877 0.263216 0.711107
O O3 0.449168 0.238189 0.856841
O O4 0.564264 0.263068 0.953311
O O5 0.025929 0.500000 0.403368
O O6 0.103533 0.278721 0.486788
O O7 0.000000 0.268330 0.500000
O O8 0.694936 0.500000 0.280660
O O9 0.678177 0.269823 0.396416
O O10 0.773421 0.278923 0.371507
O O11 0.660788 0.231465 0.176614
O O12 0.670881 0.000000 0.480887
O O13 0.587577 0.000000 0.068680
#
# Coordination Sequence:
#
# PCOD9172333 Si02
#       5
#     8   8   8   8   8
#     4  11  21  33  50  75 103 132 169 211 255 301
#     4  10  20  35  54  75 103 139 174 207 245 299
#     4  10  18  29  48  75 104 133 164 208 255 301
#     4   9  18  31  48  72 103 136 169 204 251 303
#     4  11  20  32  51  74 103 135 165 207 260 310
#
# _framework density 16.657885
#
# number of rings (size 3 to 8) (size 9 to 14) (size 15 to 20)
#    0.000    1.800    2.000    5.400    0.000    1.200 
#    0.000    0.000    0.000    1.200    0.000    0.000 
#    0.000    0.000    0.000    0.000    0.000    0.000 
#
# Total GULP energy -111629.651216 kJ/mol
# GULP energy per Si atom -5581.482561 kJ/mol
# Density = 1.661997 g / cm^3
# Si number density = 16.657885 Si / 1000 Ang^3
#
#
#
# Elastic Constant Matrix: (Units=GPa)
#
#
# Indices 1 2 3 4 5 6 
#
# 1 74.9421 21.6553 48.8877 0.0000 3.2992 0.0000
# 2 21.6553 47.9691 24.3822 0.0000 1.5909 0.0000
# 3 48.8877 24.3822 107.4074 0.0000 12.1054 0.0000
# 4 0.0000 0.0000 0.0000 -7.8361 0.0000 27.5900
# 5 3.2992 1.5909 12.1054 0.0000 25.4057 0.0000
# 6 0.0000 0.0000 0.0000 27.5900 0.0000 0.5224
#
#
#
# Elastic Compliance Matrix: (Units=1/GPa)
#
#
# Indices 1 2 3 4 5 6 
#
# 1 0.020036 -0.004941 -0.008179 0.000000 0.001605 0.000000
# 2 -0.004941 0.024815 -0.003468 0.000000 0.000740 0.000000
# 3 -0.008179 -0.003468 0.014452 0.000000 -0.005607 0.000000
# 4 0.000000 0.000000 0.000000 -0.000683 0.000000 0.036051
# 5 0.001605 0.000740 -0.005607 0.000000 0.041778 0.000000
# 6 0.000000 0.000000 0.000000 0.036051 0.000000 0.010239
#
#
# Mechanical properties :
#
#
# Convention : Reuss Voigt Hill
#
# Bulk Modulus (GPa) = 38.27248 46.68544 42.47896
# Shear Modulus (GPa) = 32.78182 12.64461 22.71322
#
# Velocity S-wave (km/s) = 4.44097 2.75812 3.69658
# Velocity P-wave (km/s) = 7.02294 6.18303 6.61633
#
# Compressibility (1/GPa) = 0.02612843
#
# Stress axis : x y z
#
# Youngs Moduli (GPa) = 49.90961 40.29751 69.19367
#
# Poissons Ratio (x) = 0.19912 0.56593
# Poissons Ratio (y) = 0.24661 0.23994
# Poissons Ratio (z) = 0.40821 0.13974
#
# Static dielectric constant tensor:
#      x y z
#    x 1.551710 0.000000 0.037030 
#    y 0.000000 1.558060 0.000000 
#    z 0.037030 0.000000 1.563710 
# 
# From -- ./inp_files/172570.got.cif
#   From: 2010.05.17/outbox.cif.g08.bks.cpg/sg12_87_cif.got.tgz:172570.got - 2010.06.03 13:09:07.
