data_PCOD9172693
_publ_section_title
;
Structure prediction by ZEFSAII (Michael W. Deem and Ramdas Pophale) SiO2 
 PCOD9172693
Probable space group: C 2/M
;
_chemical_formula_sum "Si O2"
_cell_formula_units_Z 56
_cell_length_a 15.522684
_cell_length_b 25.576099
_cell_length_c 9.370092
_cell_angle_alpha 90.000000
_cell_angle_beta 106.503250
_cell_angle_gamma 90.000000
_cell_volume 3566.766199
_symmetry_space_group_name_H-M "C 2/M"
_symmetry_group_IT_number 12
_symmetry_cell_setting 'monoclinic'
loop_
_space_group_symop_operation_xyz
x,y,z
-x,y,-z
-x,-y,-z
x,-y,z
1/2+x,1/2+y,z
1/2-x,1/2+y,-z
1/2-x,1/2-y,-z
1/2+x,1/2-y,z
loop_
_atom_site_type_symbol
_atom_site_label
_atom_site_fract_x
_atom_site_fract_y
_atom_site_fract_z
Si Si1 0.719624 0.711932 0.808478
Si Si2 0.798048 0.671115 0.123848
Si Si3 0.994540 0.363328 0.167655
Si Si4 0.761542 0.638109 0.413858
Si Si5 0.580242 0.938214 0.424336
Si Si6 0.872642 0.721421 0.649445
Si Si7 0.401205 0.329130 0.499120
O O1 0.681265 0.767256 0.842981
O O2 0.809263 0.725510 0.759033
O O3 0.650963 0.685544 0.669314
O O4 0.743995 0.673869 0.950606
O O5 0.749590 0.649167 0.241123
O O6 0.890005 0.639307 0.155767
O O7 0.045730 0.412528 0.260820
O O8 0.043660 0.314005 0.264803
O O9 0.000000 0.360998 0.000000
O O10 0.830318 0.591437 0.480899
O O11 0.812209 0.689212 0.506101
O O12 0.665822 0.633017 0.446093
O O13 0.500000 0.928118 0.500000
O O14 0.593869 0.000000 0.419124
O O15 0.903024 0.775907 0.595457
O O16 0.500000 0.346632 0.500000
#
# Coordination Sequence:
#
# PCOD9172693 Si02
#       7
#     8   8   8   8   8   8   8
#     4  10  19  30  44  67 105 136 174 206 239 290
#     4  11  18  30  45  71 102 137 168 204 243 295
#     4  11  21  31  48  74 106 141 165 202 252 309
#     4  10  19  33  52  71 100 134 171 207 257 296
#     4  10  21  36  57  80 100 126 168 215 258 314
#     4  10  18  30  46  70 100 138 173 200 243 295
#     4  11  20  33  48  70 100 136 178 213 242 292
#
# _framework density 15.700495999999999
#
# number of rings (size 3 to 8) (size 9 to 14) (size 15 to 20)
#    0.000    1.571    5.714    1.714    0.000    0.286 
#    0.000    0.714    0.000    0.429    0.000    0.000 
#    0.000    1.143    0.000    0.000    0.000    0.000 
#
# Total GULP energy -156139.394882 kJ/mol
# GULP energy per Si atom -5576.406960 kJ/mol
# Density = 1.566476 g / cm^3
# Si number density = 15.700496 Si / 1000 Ang^3
#
#
#
# Elastic Constant Matrix: (Units=GPa)
#
#
# Indices 1 2 3 4 5 6 
#
# 1 105.3781 28.5730 34.1405 0.0000 0.7945 0.0000
# 2 28.5730 57.3710 20.8374 0.0000 4.3901 0.0000
# 3 34.1405 20.8374 114.4389 0.0000 -3.4299 0.0000
# 4 0.0000 0.0000 0.0000 7.8676 0.0000 0.0136
# 5 0.7945 4.3901 -3.4299 0.0000 14.8563 0.0000
# 6 0.0000 0.0000 0.0000 0.0136 0.0000 15.8584
#
#
#
# Elastic Compliance Matrix: (Units=1/GPa)
#
#
# Indices 1 2 3 4 5 6 
#
# 1 0.011647 -0.004881 -0.002579 0.000000 0.000224 0.000000
# 2 -0.004881 0.021324 -0.002626 0.000000 -0.006646 0.000000
# 3 -0.002579 -0.002626 0.010083 0.000000 0.003242 0.000000
# 4 0.000000 0.000000 0.000000 0.127104 0.000000 -0.000109
# 5 0.000224 -0.006646 0.003242 0.000000 0.070012 0.000000
# 6 0.000000 0.000000 0.000000 -0.000109 0.000000 0.063058
#
#
# Mechanical properties :
#
#
# Convention : Reuss Voigt Hill
#
# Bulk Modulus (GPa) = 43.70294 49.36553 46.53424
# Shear Modulus (GPa) = 15.10451 20.62560 17.86506
#
# Velocity S-wave (km/s) = 3.10504 3.62842 3.37689
# Velocity P-wave (km/s) = 6.38364 7.00458 6.70131
#
# Compressibility (1/GPa) = 0.02288175
#
# Stress axis : x y z
#
# Youngs Moduli (GPa) = 85.85872 46.89634 99.17695
#
# Poissons Ratio (x) = 0.22890 0.25580
# Poissons Ratio (y) = 0.41908 0.26041
# Poissons Ratio (z) = 0.22145 0.12314
#
# Static dielectric constant tensor:
#      x y z
#    x 1.542930 0.000000 -0.018500 
#    y 0.000000 1.506920 0.000000 
#    z -0.018500 0.000000 1.542160 
# 
# From -- ./inp_files/65318.got.cif
#   From: 2010.05.17/outbox.cif.g08.bks.cpg/sg12_33_cif.got.tgz:65318.got - 2010.06.03 13:09:07.
