data_PCOD9172268
_publ_section_title
;
Structure prediction by ZEFSAII (Michael W. Deem and Ramdas Pophale) SiO2 
 PCOD9172268
Probable space group: C 2/M
;
_chemical_formula_sum "Si O2"
_cell_formula_units_Z 64
_cell_length_a 23.949356
_cell_length_b 9.377888
_cell_length_c 21.572292
_cell_angle_alpha 90.000000
_cell_angle_beta 129.517063
_cell_angle_gamma 90.000000
_cell_volume 3737.615128
_symmetry_space_group_name_H-M "C 2/M"
_symmetry_group_IT_number 12
_symmetry_cell_setting 'monoclinic'
loop_
_space_group_symop_operation_xyz
x,y,z
-x,y,-z
-x,-y,-z
x,-y,z
1/2+x,1/2+y,z
1/2-x,1/2+y,-z
1/2-x,1/2-y,-z
1/2+x,1/2-y,z
loop_
_atom_site_type_symbol
_atom_site_label
_atom_site_fract_x
_atom_site_fract_y
_atom_site_fract_z
Si Si1 0.525126 0.163755 0.334791
Si Si2 0.360377 0.163161 0.164423
Si Si3 0.416405 0.168656 0.961444
Si Si4 0.832097 0.168844 0.794993
Si Si5 0.326627 0.168977 0.274447
Si Si6 0.428108 0.333541 0.746319
Si Si7 0.028482 0.831462 0.589565
Si Si8 0.408680 0.332952 0.084365
O O1 0.442742 0.165395 0.249488
O O2 0.572257 0.237083 0.314793
O O3 0.521773 0.253610 0.395323
O O4 0.544989 0.000000 0.359816
O O5 0.314225 0.203902 0.192581
O O6 0.360748 0.265443 0.105644
O O7 0.343568 0.000000 0.134558
O O8 0.368809 0.238634 0.874178
O O9 0.403312 0.000000 0.958165
O O10 0.500000 0.188997 0.000000
O O11 0.401591 0.247369 0.015719
O O12 0.746330 0.189373 0.738815
O O13 0.868155 0.204876 0.754770
O O14 0.846964 0.000000 0.816648
O O15 0.392642 0.261292 0.346357
O O16 0.346107 0.000000 0.289392
O O17 0.420120 0.500000 0.723800
O O18 0.507260 0.319354 0.834393
O O19 0.000000 0.810604 0.500000
O O20 0.031782 0.000000 0.605185
O O21 0.392994 0.500000 0.064853
#
# Coordination Sequence:
#
# PCOD9172268 Si02
#       8
#     8   8   8   8   8   8   8   8
#     4   9  17  29  49  76 104 132 166 209 249 293
#     4   8  15  29  47  69  97 127 161 206 255 299
#     4  11  22  33  47  70 100 133 172 218 262 301
#     4  10  20  35  53  74 102 136 173 210 256 308
#     4   9  19  35  55  78 104 135 168 206 251 305
#     4   9  17  29  48  73 101 133 168 210 255 300
#     4  10  20  34  55  82 109 135 164 203 249 297
#     4  10  18  29  48  71  94 127 170 215 261 303
#
# _framework density 17.123218000000001
#
# number of rings (size 3 to 8) (size 9 to 14) (size 15 to 20)
#    0.000    2.500    1.250    2.250    0.000    6.000 
#    0.000    0.625    0.000    0.750    0.000    0.000 
#    0.000    0.000    0.000    0.000    0.000    0.000 
#
# Total GULP energy -178471.037593 kJ/mol
# GULP energy per Si atom -5577.219925 kJ/mol
# Density = 1.708424 g / cm^3
# Si number density = 17.123218 Si / 1000 Ang^3
#
#
#
# Elastic Constant Matrix: (Units=GPa)
#
#
# Indices 1 2 3 4 5 6 
#
# 1 113.6170 71.7639 42.4693 0.0000 -25.3579 0.0000
# 2 71.7639 116.6782 68.5070 0.0000 -27.0515 0.0000
# 3 42.4693 68.5070 59.1901 0.0000 -23.4126 0.0000
# 4 0.0000 0.0000 0.0000 21.2881 0.0000 -7.3481
# 5 -25.3579 -27.0515 -23.4126 0.0000 23.0641 0.0000
# 6 0.0000 0.0000 0.0000 -7.3481 0.0000 23.9251
#
#
#
# Elastic Compliance Matrix: (Units=1/GPa)
#
#
# Indices 1 2 3 4 5 6 
#
# 1 0.015593 -0.009442 0.003577 0.000000 0.009701 0.000000
# 2 -0.009442 0.032464 -0.033158 0.000000 -0.005964 0.000000
# 3 0.003577 -0.033158 0.064962 0.000000 0.030986 0.000000
# 4 0.000000 0.000000 0.000000 0.052545 0.000000 0.016138
# 5 0.009701 -0.005964 0.030986 0.000000 0.078482 0.000000
# 6 0.000000 0.000000 0.000000 0.016138 0.000000 0.046754
#
#
# Mechanical properties :
#
#
# Convention : Reuss Voigt Hill
#
# Bulk Modulus (GPa) = 28.59353 72.77398 50.68375
# Shear Modulus (GPa) = 13.14045 20.77178 16.95611
#
# Velocity S-wave (km/s) = 2.77321 3.48670 3.15022
# Velocity P-wave (km/s) = 5.19512 7.66824 6.54947
#
# Compressibility (1/GPa) = 0.03497294
#
# Stress axis : x y z
#
# Youngs Moduli (GPa) = 64.12981 30.80340 15.39356
#
# Poissons Ratio (x) = 0.29084 -0.05506
# Poissons Ratio (y) = 0.60551 0.51042
# Poissons Ratio (z) = -0.22939 1.02139
#
# Static dielectric constant tensor:
#      x y z
#    x 1.594150 0.000000 0.000470 
#    y 0.000000 1.572640 0.000000 
#    z 0.000470 0.000000 1.550350 
# 
# From -- ./inp_files/323709.got.cif
#   From: 2010.05.17/outbox.cif.g08.bks.cpg/sg12_162_cif.got.tgz:323709.got - 2010.06.03 13:09:07.
