data_PCOD9172350
_publ_section_title
;
Structure prediction by ZEFSAII (Michael W. Deem and Ramdas Pophale) SiO2 
 PCOD9172350
Probable space group: C 2/M
;
_chemical_formula_sum "Si O2"
_cell_formula_units_Z 56
_cell_length_a 17.981737
_cell_length_b 13.953796
_cell_length_c 11.042020
_cell_angle_alpha 90.000000
_cell_angle_beta 94.101834
_cell_angle_gamma 90.000000
_cell_volume 2763.494885
_symmetry_space_group_name_H-M "C 2/M"
_symmetry_group_IT_number 12
_symmetry_cell_setting 'monoclinic'
loop_
_space_group_symop_operation_xyz
x,y,z
-x,y,-z
-x,-y,-z
x,-y,z
1/2+x,1/2+y,z
1/2-x,1/2+y,-z
1/2-x,1/2-y,-z
1/2+x,1/2-y,z
loop_
_atom_site_type_symbol
_atom_site_label
_atom_site_fract_x
_atom_site_fract_y
_atom_site_fract_z
Si Si1 0.198003 0.719262 0.384583
Si Si2 0.255335 0.613268 0.164921
Si Si3 0.234835 0.107625 0.240963
Si Si4 0.902081 0.615333 0.212860
Si Si5 0.394799 0.812112 0.943414
Si Si6 0.626888 0.606472 0.007642
Si Si7 0.943881 0.613528 0.687382
O O1 0.250000 0.750000 0.500000
O O2 0.242534 0.647537 0.300108
O O3 0.186086 0.817469 0.309274
O O4 0.118296 0.669385 0.396728
O O5 0.238279 0.500000 0.151164
O O6 0.194444 0.673368 0.081849
O O7 0.337373 0.627503 0.119485
O O8 0.319341 0.145577 0.242692
O O9 0.198540 0.100404 0.104750
O O10 0.235453 0.000000 0.293166
O O11 0.900973 0.500000 0.213321
O O12 0.969917 0.645175 0.307885
O O13 0.916162 0.645545 0.075627
O O14 0.415478 0.699873 0.950303
O O15 0.423659 0.865267 0.826676
O O16 0.592184 0.500000 0.005405
O O17 0.938400 0.500000 0.663377
#
# Coordination Sequence:
#
# PCOD9172350 Si02
#       7
#     8   8   8   8   8   8   8
#     4  11  22  36  53  74 102 143 187 224 263 309
#     4  10  18  29  48  77 108 135 168 219 270 316
#     4  10  19  33  54  81 107 138 180 222 265 317
#     4  10  19  31  52  82 113 142 169 208 272 336
#     4  11  16  27  49  76 113 144 173 207 258 324
#     4  10  18  29  50  80 111 140 175 219 268 314
#     4  10  21  35  51  79 114 143 174 216 269 324
#
# _framework density 20.264195999999998
#
# number of rings (size 3 to 8) (size 9 to 14) (size 15 to 20)
#    0.000    1.714    4.286    4.286    0.000    2.286 
#    0.000    0.714    0.000    5.143    0.000    0.000 
#    0.000    8.000    0.000    0.000    0.000    0.000 
#
# Total GULP energy -156158.904040 kJ/mol
# GULP energy per Si atom -5577.103716 kJ/mol
# Density = 2.021807 g / cm^3
# Si number density = 20.264196 Si / 1000 Ang^3
#
#
#
# Elastic Constant Matrix: (Units=GPa)
#
#
# Indices 1 2 3 4 5 6 
#
# 1 64.0982 8.9564 18.0085 0.0000 26.4186 0.0000
# 2 8.9564 85.0394 8.8610 0.0000 4.5240 0.0000
# 3 18.0085 8.8610 55.6543 0.0000 21.9195 0.0000
# 4 0.0000 0.0000 0.0000 17.2122 0.0000 10.6776
# 5 26.4186 4.5240 21.9195 0.0000 22.7123 0.0000
# 6 0.0000 0.0000 0.0000 10.6776 0.0000 9.9452
#
#
#
# Elastic Compliance Matrix: (Units=1/GPa)
#
#
# Indices 1 2 3 4 5 6 
#
# 1 0.031764 -0.001775 0.007125 0.000000 -0.043470 0.000000
# 2 -0.001775 0.012068 -0.001958 0.000000 0.001550 0.000000
# 3 0.007125 -0.001958 0.030787 0.000000 -0.037610 0.000000
# 4 0.000000 0.000000 0.000000 0.173968 0.000000 -0.186780
# 5 -0.043470 0.001550 -0.037610 0.000000 0.130581 0.000000
# 6 0.000000 0.000000 0.000000 -0.186780 0.000000 0.301086
#
#
# Mechanical properties :
#
#
# Convention : Reuss Voigt Hill
#
# Bulk Modulus (GPa) = 12.28448 30.71597 21.50022
# Shear Modulus (GPa) = 7.13671 21.23835 14.18753
#
# Velocity S-wave (km/s) = 1.87869 3.24091 2.64886
# Velocity P-wave (km/s) = 3.28349 5.40327 4.47083
#
# Compressibility (1/GPa) = 0.08140356
#
# Stress axis : x y z
#
# Youngs Moduli (GPa) = 31.48228 82.86574 32.48127
#
# Poissons Ratio (x) = 0.14711 -0.23144
# Poissons Ratio (y) = 0.05589 0.06358
# Poissons Ratio (z) = -0.22432 0.16222
#
# Static dielectric constant tensor:
#      x y z
#    x 1.816720 0.000000 -0.001670 
#    y 0.000000 1.749260 0.000000 
#    z -0.001670 0.000000 1.762460 
# 
# From -- ./inp_files/166798.got.cif
#   From: 2010.05.17/outbox.cif.g08.bks.cpg/sg12_84_cif.got.tgz:166798.got - 2010.06.03 13:09:07.
