data_PCOD9172929
_publ_section_title
;
Structure prediction by ZEFSAII (Michael W. Deem and Ramdas Pophale) SiO2 
 PCOD9172929
Probable space group: C 2/M
;
_chemical_formula_sum "Si O2"
_cell_formula_units_Z 64
_cell_length_a 20.009731
_cell_length_b 8.274690
_cell_length_c 21.332618
_cell_angle_alpha 90.000000
_cell_angle_beta 95.142824
_cell_angle_gamma 90.000000
_cell_volume 3517.914592
_symmetry_space_group_name_H-M "C 2/M"
_symmetry_group_IT_number 12
_symmetry_cell_setting 'monoclinic'
loop_
_space_group_symop_operation_xyz
x,y,z
-x,y,-z
-x,-y,-z
x,-y,z
1/2+x,1/2+y,z
1/2-x,1/2+y,-z
1/2-x,1/2-y,-z
1/2+x,1/2-y,z
loop_
_atom_site_type_symbol
_atom_site_label
_atom_site_fract_x
_atom_site_fract_y
_atom_site_fract_z
Si Si1 0.383966 0.302876 0.166913
Si Si2 0.266689 0.691990 0.070595
Si Si3 0.127901 0.695515 0.610072
Si Si4 0.482428 0.803783 0.651729
Si Si5 0.575952 0.188813 0.478272
Si Si6 0.826647 0.192618 0.825459
Si Si7 0.968508 0.804999 0.791892
Si Si8 0.713043 0.307005 0.727705
O O1 0.385150 0.500000 0.166178
O O2 0.337293 0.246736 0.105660
O O3 0.460341 0.245538 0.175127
O O4 0.344836 0.255783 0.227312
O O5 0.271210 0.500000 0.069258
O O6 0.210441 0.738031 0.116819
O O7 0.250000 0.750000 0.000000
O O8 0.128071 0.500000 0.608350
O O9 0.122230 0.756583 0.537773
O O10 0.189319 0.753593 0.657308
O O11 0.058266 0.744984 0.638590
O O12 0.432610 0.743643 0.592329
O O13 0.465475 0.741978 0.718772
O O14 0.480984 0.000000 0.651302
O O15 0.500000 0.191860 0.500000
O O16 0.594313 0.000000 0.472830
O O17 0.902105 0.253831 0.821565
O O18 0.781479 0.236131 0.761198
O O19 0.827993 0.000000 0.832085
O O20 0.968832 0.000000 0.795708
O O21 0.717813 0.500000 0.730409
#
# Coordination Sequence:
#
# PCOD9172929 Si02
#       8
#     8   8   8   8   8   8   8   8
#     4   8  16  31  51  74  99 130 165 198 241 290
#     4  10  20  37  60  82 106 135 166 202 241 289
#     4   9  15  25  44  69  96 128 169 212 254 304
#     4   9  16  26  44  70  98 131 167 207 255 303
#     4   7  12  23  38  61  95 129 162 204 255 306
#     4  10  21  35  53  76 103 134 169 205 246 299
#     4  10  19  33  51  73 103 135 166 207 254 301
#     4  10  18  30  49  71 100 132 166 213 259 301
#
# _framework density 18.192596000000002
#
# number of rings (size 3 to 8) (size 9 to 14) (size 15 to 20)
#    0.000    2.875    1.250    3.375    0.000    1.000 
#    0.000    1.875    0.000    6.750    0.000    0.000 
#    0.000    0.000    0.000    0.000    0.000    0.000 
#
# Total GULP energy -178264.641503 kJ/mol
# GULP energy per Si atom -5570.770047 kJ/mol
# Density = 1.815119 g / cm^3
# Si number density = 18.192596 Si / 1000 Ang^3
#
#
#
# Elastic Constant Matrix: (Units=GPa)
#
#
# Indices 1 2 3 4 5 6 
#
# 1 106.7078 9.3488 60.9640 0.0000 15.3819 0.0000
# 2 9.3488 13.0460 11.0271 0.0000 2.8411 0.0000
# 3 60.9640 11.0271 145.0301 0.0000 27.7531 0.0000
# 4 0.0000 0.0000 0.0000 24.8443 0.0000 -0.1132
# 5 15.3819 2.8411 27.7531 0.0000 19.6512 0.0000
# 6 0.0000 0.0000 0.0000 -0.1132 0.0000 13.5121
#
#
#
# Elastic Compliance Matrix: (Units=1/GPa)
#
#
# Indices 1 2 3 4 5 6 
#
# 1 0.012749 -0.004739 -0.004413 0.000000 -0.003062 0.000000
# 2 -0.004739 0.083929 -0.003806 0.000000 -0.003050 0.000000
# 3 -0.004413 -0.003806 0.011337 0.000000 -0.012007 0.000000
# 4 0.000000 0.000000 0.000000 0.040252 0.000000 0.000337
# 5 -0.003062 -0.003050 -0.012007 0.000000 0.070683 0.000000
# 6 0.000000 0.000000 0.000000 0.000337 0.000000 0.074011
#
#
# Mechanical properties :
#
#
# Convention : Reuss Voigt Hill
#
# Bulk Modulus (GPa) = 12.18030 47.49596 29.83813
# Shear Modulus (GPa) = 14.44073 23.83111 19.13592
#
# Velocity S-wave (km/s) = 2.82045 3.62323 3.24675
# Velocity P-wave (km/s) = 4.16129 6.60815 5.52196
#
# Compressibility (1/GPa) = 0.08209981
#
# Stress axis : x y z
#
# Youngs Moduli (GPa) = 78.43681 11.91481 88.20599
#
# Poissons Ratio (x) = 0.05647 0.38924
# Poissons Ratio (y) = 0.37173 0.33568
# Poissons Ratio (z) = 0.34613 0.04534
#
# Static dielectric constant tensor:
#      x y z
#    x 1.633770 0.000000 0.024130 
#    y 0.000000 1.636430 0.000000 
#    z 0.024130 0.000000 1.642490 
# 
# From -- ./inp_files/319221.got.cif
#   From: 2010.05.17/outbox.cif.g08.bks.cpg/sg12_160_cif.got.tgz:319221.got - 2010.06.03 13:09:07.
