data_PCOD9172321
_publ_section_title
;
Structure prediction by ZEFSAII (Michael W. Deem and Ramdas Pophale) SiO2 
 PCOD9172321
Probable space group: C 2/M
;
_chemical_formula_sum "Si O2"
_cell_formula_units_Z 56
_cell_length_a 26.470065
_cell_length_b 7.781975
_cell_length_c 13.728259
_cell_angle_alpha 90.000000
_cell_angle_beta 62.638527
_cell_angle_gamma 90.000000
_cell_volume 2511.505994
_symmetry_space_group_name_H-M "C 2/M"
_symmetry_group_IT_number 12
_symmetry_cell_setting 'monoclinic'
loop_
_space_group_symop_operation_xyz
x,y,z
-x,y,-z
-x,-y,-z
x,-y,z
1/2+x,1/2+y,z
1/2-x,1/2+y,-z
1/2-x,1/2-y,-z
1/2+x,1/2-y,z
loop_
_atom_site_type_symbol
_atom_site_label
_atom_site_fract_x
_atom_site_fract_y
_atom_site_fract_z
Si Si1 0.086428 0.703343 0.056733
Si Si2 0.282092 0.705170 0.070188
Si Si3 0.313658 0.205063 0.340444
Si Si4 0.115601 0.711375 0.531677
Si Si5 0.425963 0.302566 0.145826
Si Si6 0.790298 0.300214 0.685375
Si Si7 0.006373 0.695313 0.729816
O O1 0.076174 0.500000 0.063214
O O2 0.053188 0.773584 0.181227
O O3 0.153522 0.731449 0.996260
O O4 0.061201 0.777521 0.978838
O O5 0.285980 0.500000 0.080129
O O6 0.244148 0.776916 0.193381
O O7 0.250000 0.750000 0.000000
O O8 0.344619 0.261774 0.411988
O O9 0.359582 0.254950 0.217420
O O10 0.254221 0.289298 0.364959
O O11 0.306324 0.000000 0.349306
O O12 0.114073 0.500000 0.533071
O O13 0.149484 0.770378 0.406009
O O14 0.051656 0.771386 0.613119
O O15 0.434884 0.500000 0.164580
O O16 0.458645 0.193860 0.198443
O O17 0.800684 0.500000 0.699356
O O18 0.995332 0.500000 0.706630
#
# Coordination Sequence:
#
# PCOD9172321 Si02
#       7
#     8   8   8   8   8   8   8
#     4  11  21  35  56  78 106 141 178 222 271 321
#     4  11  24  40  59  82 106 135 178 229 280 326
#     4  10  18  29  48  74 108 146 180 215 261 317
#     4   8  16  31  50  76 109 142 177 214 256 313
#     4  11  20  30  47  75 111 148 185 220 259 311
#     4  10  19  33  54  77 104 137 175 223 271 318
#     4   9  19  34  52  77 109 146 181 214 259 317
#
# _framework density 22.297378999999999
#
# number of rings (size 3 to 8) (size 9 to 14) (size 15 to 20)
#    0.000    2.000    1.429    4.286    0.000    3.429 
#    0.000    2.857    0.000    0.857    0.000    6.000 
#    0.000    0.000    0.000    0.000    0.000    0.000 
#
# Total GULP energy -156242.279481 kJ/mol
# GULP energy per Si atom -5580.081410 kJ/mol
# Density = 2.224663 g / cm^3
# Si number density = 22.297379 Si / 1000 Ang^3
#
#
#
# Elastic Constant Matrix: (Units=GPa)
#
#
# Indices 1 2 3 4 5 6 
#
# 1 42.8581 -2.4172 42.5839 0.0000 -16.2741 0.0000
# 2 -2.4172 48.0490 3.1992 0.0000 -1.0808 0.0000
# 3 42.5839 3.1992 192.2386 0.0000 -55.7256 0.0000
# 4 0.0000 0.0000 0.0000 8.4010 0.0000 -2.8106
# 5 -16.2741 -1.0808 -55.7256 0.0000 28.5194 0.0000
# 6 0.0000 0.0000 0.0000 -2.8106 0.0000 16.2223
#
#
#
# Elastic Compliance Matrix: (Units=1/GPa)
#
#
# Indices 1 2 3 4 5 6 
#
# 1 0.031283 0.002069 -0.004075 0.000000 0.009968 0.000000
# 2 0.002069 0.020973 -0.000541 0.000000 0.000918 0.000000
# 3 -0.004075 -0.000541 0.012531 0.000000 0.022140 0.000000
# 4 0.000000 0.000000 0.000000 0.126358 0.000000 0.021892
# 5 0.009968 0.000918 0.022140 0.000000 0.084048 0.000000
# 6 0.000000 0.000000 0.000000 0.021892 0.000000 0.065436
#
#
# Mechanical properties :
#
#
# Convention : Reuss Voigt Hill
#
# Bulk Modulus (GPa) = 16.75213 41.09752 28.92482
# Shear Modulus (GPa) = 13.67537 26.61387 20.14462
#
# Velocity S-wave (km/s) = 2.47921 3.45858 3.00901
# Velocity P-wave (km/s) = 3.96544 5.86691 5.00726
#
# Compressibility (1/GPa) = 0.05969390
#
# Stress axis : x y z
#
# Youngs Moduli (GPa) = 31.96612 47.68067 79.79945
#
# Poissons Ratio (x) = -0.09866 0.32516
# Poissons Ratio (y) = -0.06615 0.04320
# Poissons Ratio (z) = 0.13025 0.02581
#
# Static dielectric constant tensor:
#      x y z
#    x 1.785290 0.000000 -0.064760 
#    y 0.000000 1.839750 0.000000 
#    z -0.064760 0.000000 1.956070 
# 
# From -- ./inp_files/243629.got.cif
#   From: 2010.05.17/outbox.cif.g08.bks.cpg/sg12_122_cif.got.tgz:243629.got - 2010.06.03 13:09:07.
