data_PCOD9172015
_publ_section_title
;
Structure prediction by ZEFSAII (Michael W. Deem and Ramdas Pophale) SiO2 
 PCOD9172015
Probable space group: C 2/M
;
_chemical_formula_sum "Si O2"
_cell_formula_units_Z 56
_cell_length_a 20.025696
_cell_length_b 7.874848
_cell_length_c 30.034382
_cell_angle_alpha 90.000000
_cell_angle_beta 141.849338
_cell_angle_gamma 90.000000
_cell_volume 2925.824123
_symmetry_space_group_name_H-M "C 2/M"
_symmetry_group_IT_number 12
_symmetry_cell_setting 'monoclinic'
loop_
_space_group_symop_operation_xyz
x,y,z
-x,y,-z
-x,-y,-z
x,-y,z
1/2+x,1/2+y,z
1/2-x,1/2+y,-z
1/2-x,1/2-y,-z
1/2+x,1/2-y,z
loop_
_atom_site_type_symbol
_atom_site_label
_atom_site_fract_x
_atom_site_fract_y
_atom_site_fract_z
Si Si1 0.875647 0.292401 0.300557
Si Si2 0.406329 0.202280 0.052332
Si Si3 0.313718 0.796173 0.098625
Si Si4 0.026185 0.291594 0.740075
Si Si5 0.082635 0.699100 0.579228
Si Si6 0.864804 0.799618 0.806818
Si Si7 0.678105 0.802284 0.313615
O O1 0.944502 0.500000 0.430520
O O2 0.942554 0.235657 0.292919
O O3 0.917903 0.230409 0.370719
O O4 0.748814 0.244633 0.231242
O O5 0.365658 0.269138 0.079477
O O6 0.527544 0.266062 0.108891
O O7 0.410463 0.000000 0.056735
O O8 0.312689 0.251748 0.968875
O O9 0.382158 0.736361 0.176659
O O10 0.322082 0.000000 0.102110
O O11 0.121224 0.500000 0.697481
O O12 0.910072 0.235820 0.697823
O O13 0.024985 0.500000 0.739913
O O14 0.205972 0.713664 0.627273
O O15 0.000000 0.774557 0.500000
O O16 0.872790 0.712739 0.762585
O O17 0.856185 0.000000 0.793622
O O18 0.697909 0.000000 0.333253
#
# Coordination Sequence:
#
# PCOD9172015 Si02
#       7
#     8   8   8   8   8   8   8
#     4   8  16  30  50  72  94 126 163 198 236 282
#     4  10  18  29  45  69  96 125 164 208 249 283
#     4   9  17  29  45  67  93 124 162 205 247 286
#     4   9  16  30  49  71  97 124 162 204 241 285
#     4   9  18  34  54  76 101 129 161 194 231 282
#     4  10  18  30  49  72  96 128 168 203 239 287
#     4  10  18  30  51  76  98 124 160 202 243 282
#
# _framework density 19.139906
#
# number of rings (size 3 to 8) (size 9 to 14) (size 15 to 20)
#    0.000    2.714    1.429    2.143    0.000    0.857 
#    0.000    1.429    0.000   17.143    0.000    0.000 
#    0.000    0.000    0.000    0.000    0.000    0.000 
#
# Total GULP energy -156103.452768 kJ/mol
# GULP energy per Si atom -5575.123313 kJ/mol
# Density = 1.909634 g / cm^3
# Si number density = 19.139906 Si / 1000 Ang^3
#
#
#
# Elastic Constant Matrix: (Units=GPa)
#
#
# Indices 1 2 3 4 5 6 
#
# 1 125.7988 -2.3655 46.0681 0.0001 -4.8979 -0.0004
# 2 -2.3655 20.2797 -6.0734 0.0002 -5.6277 -0.0015
# 3 46.0681 -6.0734 111.3917 0.0000 -3.4227 0.0000
# 4 0.0001 0.0002 0.0000 16.1032 0.0000 4.6754
# 5 -4.8979 -5.6277 -3.4227 0.0000 14.0271 0.0000
# 6 -0.0004 -0.0015 0.0000 4.6754 0.0000 13.0266
#
#
#
# Elastic Compliance Matrix: (Units=1/GPa)
#
#
# Indices 1 2 3 4 5 6 
#
# 1 0.009454 0.000706 -0.003790 0.000000 0.002659 0.000000
# 2 0.000706 0.057130 0.003562 -0.000003 0.024036 0.000008
# 3 -0.003790 0.003562 0.010823 0.000000 0.002747 0.000000
# 4 0.000000 -0.000003 0.000000 0.069323 -0.000002 -0.024881
# 5 0.002659 0.024036 0.002747 -0.000002 0.082533 0.000003
# 6 0.000000 0.000008 0.000000 -0.024881 0.000003 0.085696
#
#
# Mechanical properties :
#
#
# Convention : Reuss Voigt Hill
#
# Bulk Modulus (GPa) = 12.76127 36.96984 24.86556
# Shear Modulus (GPa) = 14.70053 23.28745 18.99399
#
# Velocity S-wave (km/s) = 2.77439 3.49190 3.15362
# Velocity P-wave (km/s) = 4.11641 5.96786 5.12641
#
# Compressibility (1/GPa) = 0.07836209
#
# Stress axis : x y z
#
# Youngs Moduli (GPa) = 105.77779 17.50406 92.39449
#
# Poissons Ratio (x) = -0.01235 0.35014
# Poissons Ratio (y) = -0.07466 -0.32907
# Poissons Ratio (z) = 0.40085 -0.06234
#
# Static dielectric constant tensor:
#      x y z
#    x 1.663790 0.000000 0.003740 
#    y 0.000000 1.693470 0.000000 
#    z 0.003740 0.000000 1.667830 
# 
# From -- ./inp_files/280415.got.cif
#   From: 2010.05.17/outbox.cif.g08.bks.cpg/sg12_141_cif.got.tgz:280415.got - 2010.06.03 13:09:07.
