data_PCOD9172376
_publ_section_title
;
Structure prediction by ZEFSAII (Michael W. Deem and Ramdas Pophale) SiO2 
 PCOD9172376
Probable space group: C 2/M
;
_chemical_formula_sum "Si O2"
_cell_formula_units_Z 48
_cell_length_a 17.585054
_cell_length_b 21.336322
_cell_length_c 25.613427
_cell_angle_alpha 90.000000
_cell_angle_beta 162.476173
_cell_angle_gamma 90.000000
_cell_volume 2893.644334
_symmetry_space_group_name_H-M "C 2/M"
_symmetry_group_IT_number 12
_symmetry_cell_setting 'monoclinic'
loop_
_space_group_symop_operation_xyz
x,y,z
-x,y,-z
-x,-y,-z
x,-y,z
1/2+x,1/2+y,z
1/2-x,1/2+y,-z
1/2-x,1/2-y,-z
1/2+x,1/2-y,z
loop_
_atom_site_type_symbol
_atom_site_label
_atom_site_fract_x
_atom_site_fract_y
_atom_site_fract_z
Si Si1 0.727632 0.677979 0.467917
Si Si2 0.703469 0.789453 0.088395
Si Si3 0.008115 0.659553 0.751604
Si Si4 0.629046 0.839922 0.638186
Si Si5 0.976631 0.721008 0.836477
Si Si6 0.466140 0.425694 0.039767
O O1 0.750000 0.750000 0.500000
O O2 0.441808 0.668917 0.261681
O O3 0.818953 0.643945 0.580363
O O4 0.917039 0.669726 0.543604
O O5 0.820845 0.720081 0.153831
O O6 0.500000 0.782168 0.000000
O O7 0.553852 0.814307 0.939893
O O8 0.889953 0.681702 0.729312
O O9 0.199398 0.602439 0.883135
O O10 0.500000 0.861118 0.500000
O O11 0.781432 0.775908 0.724041
O O12 0.823913 0.889272 0.789746
O O13 0.250000 0.750000 0.000000
O O14 0.483125 0.500000 0.057508
O O15 0.500000 0.411479 0.000000
#
# Coordination Sequence:
#
# PCOD9172376 Si02
#       6
#     8   8   8   8   8   8
#     4  10  20  29  47  75 103 142 169 204 265 323
#     4  10  18  30  49  73 107 138 162 205 270 333
#     4  10  18  33  49  73 106 140 173 217 255 318
#     4  12  21  33  51  76 114 143 172 224 263 320
#     4  10  18  29  49  73 101 145 168 202 266 322
#     4  11  22  36  54  73 103 153 190 213 258 313
#
# _framework density 16.588077999999999
#
# number of rings (size 3 to 8) (size 9 to 14) (size 15 to 20)
#    0.000    1.500    5.000    5.500    0.000    0.333 
#    0.000    0.000    0.000    0.000    0.000    0.000 
#    0.000   41.333    0.000    0.000    0.000    0.000 
#
# Total GULP energy -133740.532333 kJ/mol
# GULP energy per Si atom -5572.522181 kJ/mol
# Density = 1.655032 g / cm^3
# Si number density = 16.588078 Si / 1000 Ang^3
#
#
#
# Elastic Constant Matrix: (Units=GPa)
#
#
# Indices 1 2 3 4 5 6 
#
# 1 142.1655 35.8381 60.4810 0.0018 -29.2384 0.0037
# 2 35.8381 50.4398 37.8376 0.0487 -12.7471 0.0031
# 3 60.4810 37.8376 97.0333 0.0466 -23.9252 0.0046
# 4 0.0018 0.0487 0.0466 7.0582 0.0058 -2.9161
# 5 -29.2384 -12.7471 -23.9252 0.0058 28.7139 -0.0024
# 6 0.0037 0.0031 0.0046 -2.9161 -0.0024 14.2327
#
#
#
# Elastic Compliance Matrix: (Units=1/GPa)
#
#
# Indices 1 2 3 4 5 6 
#
# 1 0.010803 -0.003105 -0.003965 0.000043 0.006318 0.000009
# 2 -0.003105 0.029323 -0.008897 -0.000159 0.002443 -0.000035
# 3 -0.003965 -0.008897 0.017969 -0.000069 0.006985 -0.000016
# 4 0.000043 -0.000159 -0.000069 0.154783 -0.000113 0.031714
# 5 0.006318 0.002443 0.006985 -0.000113 0.048165 -0.000019
# 6 0.000009 -0.000035 -0.000016 0.031714 -0.000019 0.076759
#
#
# Mechanical properties :
#
#
# Convention : Reuss Voigt Hill
#
# Bulk Modulus (GPa) = 38.22346 61.99468 50.10907
# Shear Modulus (GPa) = 13.21163 20.36641 16.78902
#
# Velocity S-wave (km/s) = 2.82521 3.50776 3.18483
# Velocity P-wave (km/s) = 5.80820 7.33894 6.61798
#
# Compressibility (1/GPa) = 0.02616194
#
# Stress axis : x y z
#
# Youngs Moduli (GPa) = 92.56728 34.10290 55.65233
#
# Poissons Ratio (x) = 0.10587 0.22066
# Poissons Ratio (y) = 0.28738 0.49513
# Poissons Ratio (z) = 0.36703 0.30341
#
# Static dielectric constant tensor:
#      x y z
#    x 1.691540 -0.000060 0.006460 
#    y -0.000060 1.525570 -0.000060 
#    z 0.006460 -0.000060 1.645000 
# 
# From -- ./inp_files/341252.got.cif
#   From: 2010.05.17/outbox.cif.g08.bks.cpg/sg12_171_cif.got.tgz:341252.got - 2010.06.03 13:09:07.
