data_PCOD9172141
_publ_section_title
;
Structure prediction by ZEFSAII (Michael W. Deem and Ramdas Pophale) SiO2 
 PCOD9172141
Probable space group: C 2/M
;
_chemical_formula_sum "Si O2"
_cell_formula_units_Z 64
_cell_length_a 20.860048
_cell_length_b 7.456787
_cell_length_c 28.163356
_cell_angle_alpha 90.000000
_cell_angle_beta 131.432748
_cell_angle_gamma 90.000000
_cell_volume 3284.415208
_symmetry_space_group_name_H-M "C 2/M"
_symmetry_group_IT_number 12
_symmetry_cell_setting 'monoclinic'
loop_
_space_group_symop_operation_xyz
x,y,z
-x,y,-z
-x,-y,-z
x,-y,z
1/2+x,1/2+y,z
1/2-x,1/2+y,-z
1/2-x,1/2-y,-z
1/2+x,1/2-y,z
loop_
_atom_site_type_symbol
_atom_site_label
_atom_site_fract_x
_atom_site_fract_y
_atom_site_fract_z
Si Si1 0.877224 0.293021 0.807303
Si Si2 0.034307 0.707088 0.808706
Si Si3 0.906176 0.715039 0.466194
Si Si4 0.737025 0.785415 0.329177
Si Si5 0.849594 0.285576 0.540819
Si Si6 0.503849 0.780053 0.947218
Si Si7 0.589288 0.779766 0.329125
Si Si8 0.349988 0.214952 0.053765
O O1 0.855978 0.500000 0.808201
O O2 0.798191 0.214690 0.738620
O O3 0.954467 0.293666 0.806522
O O4 0.921609 0.217552 0.876194
O O5 0.056516 0.500000 0.809108
O O6 0.110978 0.786521 0.877375
O O7 0.994012 0.782899 0.740783
O O8 0.911784 0.500000 0.472791
O O9 0.833457 0.749758 0.391550
O O10 0.876590 0.786041 0.502895
O O11 0.000000 0.783731 0.500000
O O12 0.673057 0.723494 0.339883
O O13 0.726238 0.000000 0.321726
O O14 0.861180 0.500000 0.545595
O O15 0.750000 0.250000 0.500000
O O16 0.900741 0.219469 0.612015
O O17 0.589120 0.723929 0.959912
O O18 0.502873 0.000000 0.946168
O O19 0.500000 0.723862 0.000000
O O20 0.588442 0.000000 0.328113
O O21 0.361320 0.000000 0.060819
O O22 0.250000 0.250000 0.000000
#
# Coordination Sequence:
#
# PCOD9172141 Si02
#       8
#     8   8   8   8   8   8   8   8
#     4   7  11  20  38  64  86 103 136 182 216 243
#     4   7  11  21  38  61  84 105 135 175 209 240
#     4  10  21  33  43  60  91 123 143 166 210 267
#     4   9  15  26  46  68  85 105 141 186 219 245
#     4  10  18  29  47  68  86 108 142 181 216 251
#     4   8  13  23  42  67  89 111 142 179 214 249
#     4   8  13  23  43  67  83  98 135 187 219 235
#     4   9  16  26  43  65  88 115 144 173 208 251
#
# _framework density 19.485965
#
# number of rings (size 3 to 8) (size 9 to 14) (size 15 to 20)
#    0.000    3.500    1.250    3.000    0.000    0.250 
#    0.000    0.000    2.750    7.875    0.000    0.000 
#    0.000    0.000    0.000    0.000    0.000    0.000 
#
# Total GULP energy -178149.272123 kJ/mol
# GULP energy per Si atom -5567.164754 kJ/mol
# Density = 1.944161 g / cm^3
# Si number density = 19.485965 Si / 1000 Ang^3
#
#
#
# Elastic Constant Matrix: (Units=GPa)
#
#
# Indices 1 2 3 4 5 6 
#
# 1 85.2589 2.7486 88.2994 0.0000 5.5867 0.0001
# 2 2.7486 57.5052 5.9997 -0.0002 -2.8496 0.0002
# 3 88.2994 5.9997 241.5618 0.0000 2.2665 0.0000
# 4 0.0000 -0.0002 0.0000 5.0954 0.0000 5.7418
# 5 5.5867 -2.8496 2.2665 0.0000 30.8336 0.0000
# 6 0.0001 0.0002 0.0000 5.7418 0.0000 3.4477
#
#
#
# Elastic Compliance Matrix: (Units=1/GPa)
#
#
# Indices 1 2 3 4 5 6 
#
# 1 0.019146 -0.000337 -0.006962 -0.000001 -0.002988 0.000001
# 2 -0.000337 0.017525 -0.000328 -0.000002 0.001705 0.000002
# 3 -0.006962 -0.000328 0.006686 0.000000 0.000740 0.000000
# 4 -0.000001 -0.000002 0.000000 -0.223868 0.000000 0.372830
# 5 -0.002988 0.001705 0.000740 0.000000 0.033077 0.000000
# 6 0.000001 0.000002 0.000000 0.372830 0.000000 -0.330860
#
#
# Mechanical properties :
#
#
# Convention : Reuss Voigt Hill
#
# Bulk Modulus (GPa) = 35.58437 64.26904 49.92671
# Shear Modulus (GPa) = -11.02115 27.02721 8.00303
#
# Velocity S-wave (km/s) = -2.38080 3.72830 2.02879
# Velocity P-wave (km/s) = 3.27774 7.18244 5.58261
#
# Compressibility (1/GPa) = 0.02810223
#
# Stress axis : x y z
#
# Youngs Moduli (GPa) = 52.22993 57.06284 149.56937
#
# Poissons Ratio (x) = 0.01922 1.04133
# Poissons Ratio (y) = 0.01759 0.04908
# Poissons Ratio (z) = 0.36363 0.01872
#
# Static dielectric constant tensor:
#      x y z
#    x 1.637730 0.000000 -0.007810 
#    y 0.000000 1.761980 0.000000 
#    z -0.007810 0.000000 1.743670 
# 
# From -- ./inp_files/365207.got.cif
#   From: 2010.05.17/outbox.cif.g08.bks.cpg/sg12_183_cif.got.tgz:365207.got - 2010.06.03 13:09:07.
