data_PCOD9172842
_publ_section_title
;
Structure prediction by ZEFSAII (Michael W. Deem and Ramdas Pophale) SiO2 
 PCOD9172842
Probable space group: C 2/M
;
_chemical_formula_sum "Si O2"
_cell_formula_units_Z 64
_cell_length_a 22.215700
_cell_length_b 7.440514
_cell_length_c 15.509372
_cell_angle_alpha 90.000000
_cell_angle_beta 69.132373
_cell_angle_gamma 90.000000
_cell_volume 2395.480938
_symmetry_space_group_name_H-M "C 2/M"
_symmetry_group_IT_number 12
_symmetry_cell_setting 'monoclinic'
loop_
_space_group_symop_operation_xyz
x,y,z
-x,y,-z
-x,-y,-z
x,-y,z
1/2+x,1/2+y,z
1/2-x,1/2+y,-z
1/2-x,1/2-y,-z
1/2+x,1/2-y,z
loop_
_atom_site_type_symbol
_atom_site_label
_atom_site_fract_x
_atom_site_fract_y
_atom_site_fract_z
Si Si1 0.080208 0.794738 0.028658
Si Si2 0.696458 0.279612 0.864572
Si Si3 0.671044 0.218630 0.141135
Si Si4 0.027061 0.217703 0.797756
Si Si5 0.621482 0.789480 0.351608
Si Si6 0.661340 0.297623 0.512824
Si Si7 0.175639 0.781677 0.690706
Si Si8 0.514609 0.206970 0.613106
O O1 0.126330 0.794981 0.089555
O O2 0.013327 0.717983 0.099018
O O3 0.067553 0.000000 0.007741
O O4 0.127198 0.714343 0.932870
O O5 0.694366 0.500000 0.865340
O O6 0.754015 0.227076 0.898251
O O7 0.711724 0.224899 0.758733
O O8 0.648503 0.279510 0.247879
O O9 0.667593 0.000000 0.137574
O O10 0.996742 0.285523 0.723777
O O11 0.101711 0.265904 0.751809
O O12 0.023355 0.000000 0.799788
O O13 0.665028 0.777994 0.414719
O O14 0.548531 0.718546 0.402414
O O15 0.611704 0.000000 0.341909
O O16 0.683638 0.500000 0.495836
O O17 0.689657 0.214825 0.586716
O O18 0.583876 0.298395 0.570171
O O19 0.179386 0.000000 0.683385
O O20 0.526855 0.000000 0.581351
#
# Coordination Sequence:
#
# PCOD9172842 Si02
#       8
#     8   8   8   8   8   8   8   8
#     4  10  19  31  52  81 105 129 165 211 259 299
#     4   9  18  33  54  75  98 134 175 211 249 296
#     4  10  20  35  53  74 102 136 171 207 250 300
#     4   9  17  29  48  76 107 133 163 206 255 298
#     4  10  20  32  47  71 100 133 169 203 247 302
#     4  10  20  32  50  75 101 130 165 208 255 297
#     4   8  16  32  50  72 102 133 168 207 248 298
#     4  10  18  30  48  71 103 137 167 199 245 303
#
# _framework density 26.716974
#
# number of rings (size 3 to 8) (size 9 to 14) (size 15 to 20)
#    0.000    2.500    1.250    2.250    0.000    3.500 
#    0.000    3.125    0.000    7.500    0.000    4.375 
#    0.000    0.000    0.000    0.000    0.000    0.000 
#
# Total GULP energy -178926.390567 kJ/mol
# GULP energy per Si atom -5591.449705 kJ/mol
# Density = 2.665616 g / cm^3
# Si number density = 26.716974 Si / 1000 Ang^3
#
#
#
# Elastic Constant Matrix: (Units=GPa)
#
#
# Indices 1 2 3 4 5 6 
#
# 1 101.8751 14.1710 31.8505 0.0000 9.6377 0.0000
# 2 14.1710 91.0864 -1.0284 -0.0002 -6.5234 0.0002
# 3 31.8505 -1.0284 155.0571 0.0000 6.9347 0.0000
# 4 0.0000 -0.0002 0.0000 38.1903 0.0000 -11.6761
# 5 9.6377 -6.5234 6.9347 0.0000 56.1942 0.0000
# 6 0.0000 0.0002 0.0000 -11.6761 0.0000 18.9472
#
#
#
# Elastic Compliance Matrix: (Units=1/GPa)
#
#
# Indices 1 2 3 4 5 6 
#
# 1 0.010926 -0.001855 -0.002175 0.000000 -0.001821 0.000000
# 2 -0.001855 0.011386 0.000385 0.000000 0.001592 0.000000
# 3 -0.002175 0.000385 0.006918 0.000000 -0.000436 0.000000
# 4 0.000000 0.000000 0.000000 0.032263 0.000000 0.019882
# 5 -0.001821 0.001592 -0.000436 0.000000 0.018346 0.000000
# 6 0.000000 0.000000 0.000000 0.019882 0.000000 0.065031
#
#
# Mechanical properties :
#
#
# Convention : Reuss Voigt Hill
#
# Bulk Modulus (GPa) = 45.57810 48.66719 47.12265
# Shear Modulus (GPa) = 31.35324 42.86803 37.11063
#
# Velocity S-wave (km/s) = 3.42940 4.01000 3.73101
# Velocity P-wave (km/s) = 5.72518 6.30043 6.01968
#
# Compressibility (1/GPa) = 0.02194036
#
# Stress axis : x y z
#
# Youngs Moduli (GPa) = 91.52243 87.83071 144.54815
#
# Poissons Ratio (x) = 0.16291 0.31443
# Poissons Ratio (y) = 0.16976 -0.05570
# Poissons Ratio (z) = 0.19908 -0.03384
#
# Static dielectric constant tensor:
#      x y z
#    x 2.103690 0.000000 -0.018750 
#    y 0.000000 2.024080 0.000000 
#    z -0.018750 0.000000 2.115770 
# 
# From -- ./inp_files/243881.got.cif
#   From: 2010.05.17/outbox.cif.g08.bks.cpg/sg12_122_cif.got.tgz:243881.got - 2010.06.03 13:09:07.
