data_PCOD9172036
_publ_section_title
;
Structure prediction by ZEFSAII (Michael W. Deem and Ramdas Pophale) SiO2 
 PCOD9172036
Probable space group: C 2/M
;
_chemical_formula_sum "Si O2"
_cell_formula_units_Z 64
_cell_length_a 28.397164
_cell_length_b 8.900778
_cell_length_c 21.258654
_cell_angle_alpha 90.000000
_cell_angle_beta 127.738638
_cell_angle_gamma 90.000000
_cell_volume 4249.241202
_symmetry_space_group_name_H-M "C 2/M"
_symmetry_group_IT_number 12
_symmetry_cell_setting 'monoclinic'
loop_
_space_group_symop_operation_xyz
x,y,z
-x,y,-z
-x,-y,-z
x,-y,z
1/2+x,1/2+y,z
1/2-x,1/2+y,-z
1/2-x,1/2-y,-z
1/2+x,1/2-y,z
loop_
_atom_site_type_symbol
_atom_site_label
_atom_site_fract_x
_atom_site_fract_y
_atom_site_fract_z
Si Si1 0.248298 0.680486 0.067991
Si Si2 0.139083 0.679621 0.770673
Si Si3 0.622738 0.820014 0.028462
Si Si4 0.037717 0.820881 0.445472
Si Si5 0.982258 0.820172 0.272839
Si Si6 0.994865 0.679391 0.147852
Si Si7 0.083380 0.678979 0.597251
Si Si8 0.560877 0.672781 0.090959
O O1 0.251678 0.500000 0.066782
O O2 0.303542 0.744089 0.152492
O O3 0.185864 0.720874 0.050156
O O4 0.250000 0.750000 0.000000
O O5 0.140496 0.500000 0.781559
O O6 0.079559 0.744483 0.755000
O O7 0.133245 0.708193 0.690775
O O8 0.609607 0.743104 0.084444
O O9 0.620457 0.000000 0.034990
O O10 0.568829 0.780802 0.936589
O O11 0.087498 0.745711 0.530494
O O12 0.032416 0.787427 0.367024
O O13 0.975323 0.756077 0.421043
O O14 0.039447 0.000000 0.455315
O O15 0.998726 0.757791 0.218284
O O16 0.973971 0.000000 0.264447
O O17 0.996996 0.500000 0.156378
O O18 0.045326 0.735224 0.140780
O O19 0.074457 0.500000 0.586285
O O20 0.574127 0.500000 0.116749
O O21 0.500000 0.676828 0.000000
#
# Coordination Sequence:
#
# PCOD9172036 Si02
#       8
#     8   8   8   8   8   8   8   8
#     4  11  22  34  48  65  88 118 152 189 223 256
#     4  10  20  32  44  61  86 117 153 187 220 259
#     4   9  19  33  46  62  84 112 147 183 219 256
#     4   9  16  25  39  59  83 110 140 176 216 258
#     4  10  19  29  42  63  90 118 148 181 218 261
#     4  10  18  29  46  65  88 116 143 177 219 262
#     4   9  16  26  41  58  79 109 144 180 214 255
#     4   9  17  29  46  66  85 108 140 177 217 261
#
# _framework density 15.061512
#
# number of rings (size 3 to 8) (size 9 to 14) (size 15 to 20)
#    0.000    2.375    0.000    4.125    0.000    7.000 
#    0.000    0.000    0.000    0.000    0.000    0.000 
#    0.000    1.000    0.000    3.250    0.000    5.250 
#
# Total GULP energy -178308.997516 kJ/mol
# GULP energy per Si atom -5572.156172 kJ/mol
# Density = 1.502723 g / cm^3
# Si number density = 15.061512 Si / 1000 Ang^3
#
#
#
# Elastic Constant Matrix: (Units=GPa)
#
#
# Indices 1 2 3 4 5 6 
#
# 1 90.7828 41.8871 54.9560 0.0000 -16.6988 0.0000
# 2 41.8871 63.6563 50.1144 0.0000 -11.4251 0.0000
# 3 54.9560 50.1144 116.3082 0.0000 -20.9466 0.0000
# 4 0.0000 0.0000 0.0000 24.2683 0.0000 -7.1588
# 5 -16.6988 -11.4251 -20.9466 0.0000 19.2734 0.0000
# 6 0.0000 0.0000 0.0000 -7.1588 0.0000 22.0072
#
#
#
# Elastic Compliance Matrix: (Units=1/GPa)
#
#
# Indices 1 2 3 4 5 6 
#
# 1 0.018257 -0.007512 -0.004156 0.000000 0.006848 0.000000
# 2 -0.007512 0.027077 -0.007956 0.000000 0.000895 0.000000
# 3 -0.004156 -0.007956 0.015532 0.000000 0.008563 0.000000
# 4 0.000000 0.000000 0.000000 0.045580 0.000000 0.014827
# 5 0.006848 0.000895 0.008563 0.000000 0.067655 0.000000
# 6 0.000000 0.000000 0.000000 0.014827 0.000000 0.050263
#
#
# Mechanical properties :
#
#
# Convention : Reuss Voigt Hill
#
# Bulk Modulus (GPa) = 46.26069 62.74025 54.50047
# Shear Modulus (GPa) = 18.46256 21.36244 19.91250
#
# Velocity S-wave (km/s) = 3.50496 3.77018 3.63998
# Velocity P-wave (km/s) = 6.86737 7.79094 7.34369
#
# Compressibility (1/GPa) = 0.02161662
#
# Stress axis : x y z
#
# Youngs Moduli (GPa) = 54.77284 36.93207 64.38358
#
# Poissons Ratio (x) = 0.27745 0.26761
# Poissons Ratio (y) = 0.41147 0.51223
# Poissons Ratio (z) = 0.22766 0.29383
#
# Static dielectric constant tensor:
#      x y z
#    x 1.476640 0.000000 -0.019780 
#    y 0.000000 1.502620 0.000000 
#    z -0.019780 0.000000 1.525500 
# 
# From -- ./inp_files/326987.got.cif
#   From: 2010.05.17/outbox.cif.g08.bks.cpg/sg12_164_cif.got.tgz:326987.got - 2010.06.03 13:09:07.
