data_PCOD9172494
_publ_section_title
;
Structure prediction by ZEFSAII (Michael W. Deem and Ramdas Pophale) SiO2 
 PCOD9172494
Probable space group: C 2/M
;
_chemical_formula_sum "Si O2"
_cell_formula_units_Z 56
_cell_length_a 14.067032
_cell_length_b 15.979820
_cell_length_c 12.538838
_cell_angle_alpha 90.000000
_cell_angle_beta 123.695596
_cell_angle_gamma 90.000000
_cell_volume 2345.056381
_symmetry_space_group_name_H-M "C 2/M"
_symmetry_group_IT_number 12
_symmetry_cell_setting 'monoclinic'
loop_
_space_group_symop_operation_xyz
x,y,z
-x,y,-z
-x,-y,-z
x,-y,z
1/2+x,1/2+y,z
1/2-x,1/2+y,-z
1/2-x,1/2-y,-z
1/2+x,1/2-y,z
loop_
_atom_site_type_symbol
_atom_site_label
_atom_site_fract_x
_atom_site_fract_y
_atom_site_fract_z
Si Si1 0.651874 0.272106 0.661919
Si Si2 0.645188 0.090780 0.711097
Si Si3 0.626337 0.840579 0.097105
Si Si4 0.928236 0.617339 0.720792
Si Si5 0.204490 0.154737 0.482960
Si Si6 0.997051 0.811632 0.765183
Si Si7 0.708806 0.402102 0.990901
O O1 0.633508 0.173122 0.630956
O O2 0.778087 0.282463 0.789557
O O3 0.639889 0.333130 0.554939
O O4 0.568171 0.302826 0.700643
O O5 0.535416 0.086922 0.720832
O O6 0.657565 0.000000 0.665818
O O7 0.745808 0.104789 0.860271
O O8 0.598726 0.908112 0.173990
O O9 0.690819 0.871449 0.029237
O O10 0.500000 0.803891 0.000000
O O11 0.816275 0.602676 0.579760
O O12 0.955958 0.716459 0.754419
O O13 0.250000 0.250000 0.500000
O O14 0.117219 0.135685 0.333676
O O15 0.091643 0.850328 0.902093
O O16 0.688339 0.500000 0.954589
#
# Coordination Sequence:
#
# PCOD9172494 Si02
#       7
#     8   8   8   8   8   8   8
#     4   9  19  31  53  79 100 135 178 222 264 313
#     4  10  20  34  51  77 115 146 173 210 260 324
#     4  10  18  29  50  77 104 133 176 224 266 303
#     4   9  18  31  52  79 101 133 178 225 269 303
#     4   9  17  33  55  78  97 126 172 230 270 299
#     4   9  18  32  55  75 103 136 179 222 262 311
#     4  10  21  33  49  77 113 149 175 205 262 326
#
# _framework density 23.880023999999999
#
# number of rings (size 3 to 8) (size 9 to 14) (size 15 to 20)
#    0.000    2.571    1.429    0.429    2.000    2.571 
#    0.000    0.714    0.000   34.714    0.000    0.000 
#    0.000    0.000    0.000    0.000    0.000    0.000 
#
# Total GULP energy -156143.056475 kJ/mol
# GULP energy per Si atom -5576.537731 kJ/mol
# Density = 2.382567 g / cm^3
# Si number density = 23.880024 Si / 1000 Ang^3
#
#
#
# Elastic Constant Matrix: (Units=GPa)
#
#
# Indices 1 2 3 4 5 6 
#
# 1 50.1565 3.7762 24.1534 0.0000 16.7100 0.0000
# 2 3.7762 77.3793 17.3705 0.0000 15.4400 0.0000
# 3 24.1534 17.3705 117.9636 0.0000 45.0963 0.0000
# 4 0.0000 0.0000 0.0000 -11.2218 0.0000 -9.0123
# 5 16.7100 15.4400 45.0963 0.0000 45.8828 0.0000
# 6 0.0000 0.0000 0.0000 -9.0123 0.0000 -7.4967
#
#
#
# Elastic Compliance Matrix: (Units=1/GPa)
#
#
# Indices 1 2 3 4 5 6 
#
# 1 0.023148 0.000667 -0.002450 0.000000 -0.006247 0.000000
# 2 0.000667 0.013885 -0.000484 0.000000 -0.004440 0.000000
# 3 -0.002450 -0.000484 0.013851 0.000000 -0.012559 0.000000
# 4 0.000000 0.000000 0.000000 -2.580071 0.000000 3.101682
# 5 -0.006247 -0.004440 -0.012559 0.000000 0.037907 0.000000
# 6 0.000000 0.000000 0.000000 3.101682 0.000000 -3.862137
#
#
# Mechanical properties :
#
#
# Convention : Reuss Voigt Hill
#
# Bulk Modulus (GPa) = 21.57445 37.34440 29.45942
# Shear Modulus (GPa) = -0.78946 18.77948 8.99501
#
# Velocity S-wave (km/s) = -0.57560 2.80734 1.94292
# Velocity P-wave (km/s) = 2.93469 5.11669 4.17091
#
# Compressibility (1/GPa) = 0.04635112
#
# Stress axis : x y z
#
# Youngs Moduli (GPa) = 43.19970 72.01844 72.19652
#
# Poissons Ratio (x) = -0.04802 0.17686
# Poissons Ratio (y) = -0.02880 0.03494
# Poissons Ratio (z) = 0.10583 0.03485
#
# Static dielectric constant tensor:
#      x y z
#    x 1.994880 0.000000 -0.068010 
#    y 0.000000 1.947600 0.000000 
#    z -0.068010 0.000000 2.054940 
# 
# From -- ./inp_files/216311.got.cif
#   From: 2010.05.17/outbox.cif.g08.bks.cpg/sg12_109_cif.got.tgz:216311.got - 2010.06.03 13:09:07.
