data_PCOD9172699
_publ_section_title
;
Structure prediction by ZEFSAII (Michael W. Deem and Ramdas Pophale) SiO2 
 PCOD9172699
Probable space group: C 2/M
;
_chemical_formula_sum "Si O2"
_cell_formula_units_Z 56
_cell_length_a 25.283944
_cell_length_b 20.778579
_cell_length_c 11.157357
_cell_angle_alpha 90.000000
_cell_angle_beta 148.913865
_cell_angle_gamma 90.000000
_cell_volume 3026.537621
_symmetry_space_group_name_H-M "C 2/M"
_symmetry_group_IT_number 12
_symmetry_cell_setting 'monoclinic'
loop_
_space_group_symop_operation_xyz
x,y,z
-x,y,-z
-x,-y,-z
x,-y,z
1/2+x,1/2+y,z
1/2-x,1/2+y,-z
1/2-x,1/2-y,-z
1/2+x,1/2-y,z
loop_
_atom_site_type_symbol
_atom_site_label
_atom_site_fract_x
_atom_site_fract_y
_atom_site_fract_z
Si Si1 0.569760 0.075964 0.752059
Si Si2 0.821945 0.174791 0.510782
Si Si3 0.254844 0.657573 0.113992
Si Si4 0.543809 0.703554 0.918337
Si Si5 0.729461 0.173602 0.565406
Si Si6 0.592698 0.270850 0.754772
Si Si7 0.992957 0.354954 0.845891
O O1 0.500000 0.092694 0.500000
O O2 0.545251 0.110798 0.832684
O O3 0.560121 0.000000 0.751948
O O4 0.685459 0.097285 0.945218
O O5 0.795627 0.152397 0.327723
O O6 0.745758 0.147452 0.462443
O O7 0.801287 0.251272 0.483353
O O8 0.942616 0.168980 0.771804
O O9 0.346361 0.676241 0.202970
O O10 0.176045 0.718158 0.955354
O O11 0.538568 0.700803 0.765406
O O12 0.534109 0.780244 0.930165
O O13 0.654569 0.674106 0.161739
O O14 0.628528 0.141592 0.422716
O O15 0.500000 0.240679 0.500000
O O16 0.000000 0.377411 0.000000
#
# Coordination Sequence:
#
# PCOD9172699 Si02
#       7
#     8   8   8   8   8   8   8
#     4  11  25  42  59  79 105 142 190 238 280 321
#     4  10  18  30  46  74 110 144 176 212 258 327
#     4  11  21  33  54  75 112 143 178 220 277 326
#     4  11  19  31  49  82 118 148 175 210 270 337
#     4  10  19  29  48  73 109 147 174 207 265 322
#     4  11  21  31  50  84 111 142 176 217 269 337
#     4  11  22  36  56  80 115 148 184 227 269 327
#
# _framework density 18.50299
#
# number of rings (size 3 to 8) (size 9 to 14) (size 15 to 20)
#    0.000    1.286    4.286    4.286    2.000    0.286 
#    0.000    0.000    0.000    0.429    0.000    1.000 
#    0.000    3.429    0.000    0.000    0.000    0.000 
#
# Total GULP energy -155936.112521 kJ/mol
# GULP energy per Si atom -5569.146876 kJ/mol
# Density = 1.846088 g / cm^3
# Si number density = 18.502990 Si / 1000 Ang^3
#
#
#
# Elastic Constant Matrix: (Units=GPa)
#
#
# Indices 1 2 3 4 5 6 
#
# 1 70.4659 21.3747 13.7997 0.0000 -4.0949 0.0000
# 2 21.3747 35.8944 13.5438 0.0000 -3.5667 0.0000
# 3 13.7997 13.5438 111.1740 0.0000 2.3147 0.0000
# 4 0.0000 0.0000 0.0000 12.1101 0.0000 2.5398
# 5 -4.0949 -3.5667 2.3147 0.0000 38.7990 0.0000
# 6 0.0000 0.0000 0.0000 2.5398 0.0000 6.2120
#
#
#
# Elastic Compliance Matrix: (Units=1/GPa)
#
#
# Indices 1 2 3 4 5 6 
#
# 1 0.017451 -0.009925 -0.000978 0.000000 0.000988 0.000000
# 2 -0.009925 0.035176 -0.003103 0.000000 0.002371 0.000000
# 3 -0.000978 -0.003103 0.009514 0.000000 -0.000956 0.000000
# 4 0.000000 0.000000 0.000000 0.090321 0.000000 -0.036928
# 5 0.000988 0.002371 -0.000956 0.000000 0.026153 0.000000
# 6 0.000000 0.000000 0.000000 -0.036928 0.000000 0.176078
#
#
# Mechanical properties :
#
#
# Convention : Reuss Voigt Hill
#
# Bulk Modulus (GPa) = 29.29919 34.99677 32.14798
# Shear Modulus (GPa) = 12.68782 22.67862 17.68322
#
# Velocity S-wave (km/s) = 2.62146 3.50476 3.09479
# Velocity P-wave (km/s) = 5.00319 5.94415 5.49386
#
# Compressibility (1/GPa) = 0.03413063
#
# Stress axis : x y z
#
# Youngs Moduli (GPa) = 57.30471 28.42861 105.10656
#
# Poissons Ratio (x) = 0.28214 0.10275
# Poissons Ratio (y) = 0.56873 0.32612
# Poissons Ratio (z) = 0.05602 0.08821
#
# Static dielectric constant tensor:
#      x y z
#    x 1.677050 0.000000 -0.030660 
#    y 0.000000 1.610730 0.000000 
#    z -0.030660 0.000000 1.723250 
# 
# From -- ./inp_files/184628.got.cif
#   From: 2010.05.17/outbox.cif.g08.bks.cpg/sg12_93_cif.got.tgz:184628.got - 2010.06.03 13:09:07.
