data_PCOD9172899
_publ_section_title
;
Structure prediction by ZEFSAII (Michael W. Deem and Ramdas Pophale) SiO2 
 PCOD9172899
Probable space group: C 2/M
;
_chemical_formula_sum "Si O2"
_cell_formula_units_Z 64
_cell_length_a 21.048036
_cell_length_b 7.393333
_cell_length_c 21.028385
_cell_angle_alpha 90.000000
_cell_angle_beta 102.371084
_cell_angle_gamma 90.000000
_cell_volume 3196.353160
_symmetry_space_group_name_H-M "C 2/M"
_symmetry_group_IT_number 12
_symmetry_cell_setting 'monoclinic'
loop_
_space_group_symop_operation_xyz
x,y,z
-x,y,-z
-x,-y,-z
x,-y,z
1/2+x,1/2+y,z
1/2-x,1/2+y,-z
1/2-x,1/2-y,-z
1/2+x,1/2-y,z
loop_
_atom_site_type_symbol
_atom_site_label
_atom_site_fract_x
_atom_site_fract_y
_atom_site_fract_z
Si Si1 0.802976 0.716546 0.424274
Si Si2 0.845821 0.715921 0.563708
Si Si3 0.282929 0.213972 0.146903
Si Si4 0.258896 0.780967 0.283141
Si Si5 0.861505 0.717364 0.931253
Si Si6 0.897585 0.278558 0.080264
Si Si7 0.960167 0.278550 0.842655
Si Si8 0.111142 0.286591 0.295540
O O1 0.811565 0.500000 0.424271
O O2 0.848155 0.785892 0.491639
O O3 0.728801 0.753851 0.430300
O O4 0.803770 0.782067 0.351744
O O5 0.856424 0.500000 0.563060
O O6 0.887483 0.788114 0.632109
O O7 0.278650 0.286401 0.217883
O O8 0.213018 0.237429 0.099171
O O9 0.340277 0.284357 0.114593
O O10 0.294698 0.000000 0.155683
O O11 0.184150 0.731986 0.282794
O O12 0.260806 0.000000 0.283108
O O13 0.866432 0.500000 0.932847
O O14 0.907785 0.781059 0.884115
O O15 0.884335 0.781325 0.005291
O O16 0.896743 0.500000 0.079070
O O17 0.968020 0.224056 0.120935
O O18 0.958821 0.500000 0.841513
O O19 0.937733 0.215085 0.768227
O O20 0.098021 0.500000 0.298682
#
# Coordination Sequence:
#
# PCOD9172899 Si02
#       8
#     8   8   8   8   8   8   8   8
#     4   8  13  21  32  49  75 105 130 154 190 236
#     4   8  13  20  32  52  77 100 125 160 199 232
#     4  10  19  30  44  63  86 111 137 168 206 247
#     4   9  16  25  38  56  80 109 136 160 194 242
#     4  10  18  30  49  66  80 104 138 176 212 244
#     4   9  18  30  44  63  85 108 138 172 205 246
#     4   9  16  27  44  65  84 105 137 173 207 242
#     4   9  15  24  40  61  80 101 132 170 205 233
#
# _framework density 20.022819999999999
#
# number of rings (size 3 to 8) (size 9 to 14) (size 15 to 20)
#    0.000    3.000    1.250    0.750    0.000    1.500 
#    0.000    0.000    0.000    3.750    0.000    0.875 
#    0.000    7.000    0.000    0.000    0.000  118.375 
#
# Total GULP energy -178345.640905 kJ/mol
# GULP energy per Si atom -5573.301278 kJ/mol
# Density = 1.997725 g / cm^3
# Si number density = 20.022820 Si / 1000 Ang^3
#
#
#
# Elastic Constant Matrix: (Units=GPa)
#
#
# Indices 1 2 3 4 5 6 
#
# 1 26.9660 -19.2249 -25.5939 0.0000 -20.1880 0.0000
# 2 -19.2249 66.8809 -16.8444 0.0000 -8.1443 0.0000
# 3 -25.5939 -16.8444 103.1717 0.0000 -18.7935 0.0000
# 4 0.0000 0.0000 0.0000 65.2458 0.0000 16.7736
# 5 -20.1880 -8.1443 -18.7935 0.0000 -18.1590 0.0000
# 6 0.0000 0.0000 0.0000 16.7736 0.0000 12.4011
#
#
#
# Elastic Compliance Matrix: (Units=1/GPa)
#
#
# Indices 1 2 3 4 5 6 
#
# 1 0.020984 0.003148 0.001020 0.000000 -0.025796 0.000000
# 2 0.003148 0.014767 0.001134 0.000000 -0.011296 0.000000
# 3 0.001020 0.001134 0.008272 0.000000 -0.010204 0.000000
# 4 0.000000 0.000000 0.000000 0.023497 0.000000 -0.031783
# 5 -0.025796 -0.011296 -0.010204 0.000000 -0.010764 0.000000
# 6 0.000000 0.000000 0.000000 -0.031783 0.000000 0.123627
#
#
# Mechanical properties :
#
#
# Convention : Reuss Voigt Hill
#
# Bulk Modulus (GPa) = 18.30605 8.18802 13.24704
# Shear Modulus (GPa) = 26.59732 29.14302 27.87017
#
# Velocity S-wave (km/s) = 3.64861 3.81923 3.73489
# Velocity P-wave (km/s) = 5.18770 4.85251 5.02290
#
# Compressibility (1/GPa) = 0.05462674
#
# Stress axis : x y z
#
# Youngs Moduli (GPa) = 47.65562 67.71944 120.88845
#
# Poissons Ratio (x) = -0.21315 -0.12335
# Poissons Ratio (y) = -0.15000 -0.13710
# Poissons Ratio (z) = -0.04863 -0.07680
#
# Static dielectric constant tensor:
#      x y z
#    x 1.628350 0.000000 0.002240 
#    y 0.000000 1.757000 0.000000 
#    z 0.002240 0.000000 1.769660 
# 
# From -- ./inp_files/276496.got.cif
#   From: 2010.05.17/outbox.cif.g08.bks.cpg/sg12_139_cif.got.tgz:276496.got - 2010.06.03 13:09:07.
