data_PCOD9172424
_publ_section_title
;
Structure prediction by ZEFSAII (Michael W. Deem and Ramdas Pophale) SiO2 
 PCOD9172424
Probable space group: C 2/M
;
_chemical_formula_sum "Si O2"
_cell_formula_units_Z 48
_cell_length_a 25.973240
_cell_length_b 7.388299
_cell_length_c 14.715151
_cell_angle_alpha 90.000000
_cell_angle_beta 124.627128
_cell_angle_gamma 90.000000
_cell_volume 2323.620400
_symmetry_space_group_name_H-M "C 2/M"
_symmetry_group_IT_number 12
_symmetry_cell_setting 'monoclinic'
loop_
_space_group_symop_operation_xyz
x,y,z
-x,y,-z
-x,-y,-z
x,-y,z
1/2+x,1/2+y,z
1/2-x,1/2+y,-z
1/2-x,1/2-y,-z
1/2+x,1/2-y,z
loop_
_atom_site_type_symbol
_atom_site_label
_atom_site_fract_x
_atom_site_fract_y
_atom_site_fract_z
Si Si1 0.313517 0.709916 0.866342
Si Si2 0.826067 0.721568 0.266684
Si Si3 0.019083 0.281409 0.257429
Si Si4 0.374709 0.781097 0.117249
Si Si5 0.063932 0.788573 0.106267
Si Si6 0.441501 0.779304 0.503915
O O1 0.308471 0.500000 0.833446
O O2 0.244146 0.786385 0.785086
O O3 0.372051 0.790235 0.869689
O O4 0.332844 0.718229 0.991408
O O5 0.825622 0.500000 0.265204
O O6 0.848868 0.776794 0.189139
O O7 0.877264 0.777779 0.392076
O O8 0.018208 0.500000 0.257455
O O9 0.057397 0.223833 0.207641
O O10 0.047360 0.220391 0.381709
O O11 0.946697 0.221695 0.176977
O O12 0.374516 0.000000 0.115724
O O13 0.064466 0.000000 0.079453
O O14 0.000000 0.709295 0.000000
O O15 0.500000 0.723932 0.500000
O O16 0.441772 0.000000 0.504633
#
# Coordination Sequence:
#
# PCOD9172424 Si02
#       6
#     8   8   8   8   8   8
#     4  10  20  33  49  70  97 133 167 194 234 287
#     4   9  17  30  49  73 100 127 158 196 241 292
#     4  10  19  30  51  79  98 119 158 205 246 279
#     4  10  18  29  49  77 102 122 151 201 252 287
#     4  10  20  34  49  66  96 136 169 195 229 281
#     4   9  15  28  50  75 100 123 153 197 243 288
#
# _framework density 20.657418
#
# number of rings (size 3 to 8) (size 9 to 14) (size 15 to 20)
#    0.000    2.333    3.333    0.500    0.000    1.000 
#    0.000    0.833    0.000    2.500    0.000    0.000 
#    0.000    0.000    0.000    0.000    0.000    0.000 
#
# Total GULP energy -134062.579694 kJ/mol
# GULP energy per Si atom -5585.940821 kJ/mol
# Density = 2.061040 g / cm^3
# Si number density = 20.657418 Si / 1000 Ang^3
#
#
#
# Elastic Constant Matrix: (Units=GPa)
#
#
# Indices 1 2 3 4 5 6 
#
# 1 127.7204 3.6204 77.5507 0.0000 24.2050 0.0000
# 2 3.6204 69.9001 -12.0534 0.0000 5.2958 0.0000
# 3 77.5507 -12.0534 149.6098 0.0000 17.6113 0.0000
# 4 0.0000 0.0000 0.0000 16.6866 0.0000 -10.2662
# 5 24.2050 5.2958 17.6113 0.0000 39.8001 0.0000
# 6 0.0000 0.0000 0.0000 -10.2662 0.0000 0.1211
#
#
#
# Elastic Compliance Matrix: (Units=1/GPa)
#
#
# Indices 1 2 3 4 5 6 
#
# 1 0.012386 -0.001314 -0.005971 0.000000 -0.004716 0.000000
# 2 -0.001314 0.014903 0.002132 0.000000 -0.002127 0.000000
# 3 -0.005971 0.002132 0.010082 0.000000 -0.001114 0.000000
# 4 0.000000 0.000000 0.000000 -0.001172 0.000000 -0.099312
# 5 -0.004716 -0.002127 -0.001114 0.000000 0.028769 0.000000
# 6 0.000000 0.000000 0.000000 -0.099312 0.000000 -0.161421
#
#
# Mechanical properties :
#
#
# Convention : Reuss Voigt Hill
#
# Bulk Modulus (GPa) = 36.94742 53.94065 45.44404
# Shear Modulus (GPa) = -64.83027 29.86239 -17.48394
#
# Velocity S-wave (km/s) = -5.60818 3.80623 -2.91241
# Velocity P-wave (km/s) = 4.90009 6.74427 3.27676
#
# Compressibility (1/GPa) = 0.02706549
#
# Stress axis : x y z
#
# Youngs Moduli (GPa) = 80.73494 67.10052 99.18583
#
# Poissons Ratio (x) = 0.08816 0.59226
# Poissons Ratio (y) = 0.10608 -0.21148
# Poissons Ratio (z) = 0.48208 -0.14307
#
# Static dielectric constant tensor:
#      x y z
#    x 1.726740 0.000000 0.015680 
#    y 0.000000 1.806510 0.000000 
#    z 0.015680 0.000000 1.690660 
# 
# From -- ./inp_files/164304.got.cif
#   From: 2010.05.17/outbox.cif.g08.bks.cpg/sg12_83_cif.got.tgz:164304.got - 2010.06.03 13:09:07.
