data_PCOD9172479
_publ_section_title
;
Structure prediction by ZEFSAII (Michael W. Deem and Ramdas Pophale) SiO2 
 PCOD9172479
Probable space group: C 2/M
;
_chemical_formula_sum "Si O2"
_cell_formula_units_Z 56
_cell_length_a 32.513351
_cell_length_b 7.467817
_cell_length_c 10.911839
_cell_angle_alpha 90.000000
_cell_angle_beta 104.636708
_cell_angle_gamma 90.000000
_cell_volume 2563.454621
_symmetry_space_group_name_H-M "C 2/M"
_symmetry_group_IT_number 12
_symmetry_cell_setting 'monoclinic'
loop_
_space_group_symop_operation_xyz
x,y,z
-x,y,-z
-x,-y,-z
x,-y,z
1/2+x,1/2+y,z
1/2-x,1/2+y,-z
1/2-x,1/2-y,-z
1/2+x,1/2-y,z
loop_
_atom_site_type_symbol
_atom_site_label
_atom_site_fract_x
_atom_site_fract_y
_atom_site_fract_z
Si Si1 0.099757 0.296640 0.077254
Si Si2 0.525052 0.781241 0.397072
Si Si3 0.718271 0.217099 0.806951
Si Si4 0.612776 0.219609 0.357308
Si Si5 0.796392 0.714429 0.477071
Si Si6 0.311377 0.292893 0.953608
Si Si7 0.978723 0.283254 0.114191
O O1 0.084310 0.500000 0.084273
O O2 0.098975 0.215372 0.211913
O O3 0.147930 0.299908 0.070358
O O4 0.069713 0.223599 0.947421
O O5 0.500000 0.722547 0.500000
O O6 0.574860 0.730519 0.421744
O O7 0.501190 0.719316 0.254763
O O8 0.524490 0.000000 0.398106
O O9 0.703784 0.278686 0.663338
O O10 0.690803 0.277659 0.901551
O O11 0.718477 0.000000 0.809219
O O12 0.766576 0.278096 0.869362
O O13 0.660793 0.280066 0.423761
O O14 0.614039 0.000000 0.355168
O O15 0.799976 0.500000 0.476771
O O16 0.750000 0.750000 0.500000
O O17 0.314386 0.500000 0.920338
O O18 0.980998 0.500000 0.127319
O O19 0.000000 0.234593 0.000000
#
# Coordination Sequence:
#
# PCOD9172479 Si02
#       7
#     8   8   8   8   8   8   8
#     4  10  18  29  50  75 100 130 165 203 248 300
#     4   9  16  26  42  68 101 132 163 206 257 300
#     4   9  19  35  51  69  98 133 167 206 251 297
#     4   9  17  29  46  72 103 132 163 205 251 299
#     4  10  20  33  51  74 103 134 167 206 248 300
#     4  10  20  33  50  72  98 129 166 209 251 297
#     4   9  15  26  44  67  96 127 160 201 247 294
#
# _framework density 21.84552
#
# number of rings (size 3 to 8) (size 9 to 14) (size 15 to 20)
#    0.000    2.571    1.429    1.286    0.000    2.286 
#    0.000    4.286    0.000    0.429    0.000    0.000 
#    0.000    2.857    0.000    0.000    0.000    0.000 
#
# Total GULP energy -156210.595980 kJ/mol
# GULP energy per Si atom -5578.949856 kJ/mol
# Density = 2.179580 g / cm^3
# Si number density = 21.845520 Si / 1000 Ang^3
#
#
#
# Elastic Constant Matrix: (Units=GPa)
#
#
# Indices 1 2 3 4 5 6 
#
# 1 143.6470 -0.7050 62.8087 0.0000 -1.3220 0.0000
# 2 -0.7050 61.5478 2.7978 0.0000 4.0655 0.0000
# 3 62.8087 2.7978 137.7035 0.0000 6.6999 0.0000
# 4 0.0000 0.0000 0.0000 -3.5098 0.0000 8.7455
# 5 -1.3220 4.0655 6.6999 0.0000 22.1525 0.0000
# 6 0.0000 0.0000 0.0000 8.7455 0.0000 57.2434
#
#
#
# Elastic Compliance Matrix: (Units=1/GPa)
#
#
# Indices 1 2 3 4 5 6 
#
# 1 0.008764 0.000172 -0.004085 0.000000 0.001727 0.000000
# 2 0.000172 0.016455 -0.000270 0.000000 -0.002928 0.000000
# 3 -0.004085 -0.000270 0.009277 0.000000 -0.003000 0.000000
# 4 0.000000 0.000000 0.000000 -0.206359 0.000000 0.031527
# 5 0.001727 -0.002928 -0.003000 0.000000 0.046689 0.000000
# 6 0.000000 0.000000 0.000000 0.031527 0.000000 0.012653
#
#
# Mechanical properties :
#
#
# Convention : Reuss Voigt Hill
#
# Bulk Modulus (GPa) = 38.27098 52.52239 45.39668
# Shear Modulus (GPa) = -52.38675 33.71033 -9.33821
#
# Velocity S-wave (km/s) = -4.90231 3.93252 -2.06977
# Velocity P-wave (km/s) = 3.80612 6.68689 3.88767
#
# Compressibility (1/GPa) = 0.02612946
#
# Stress axis : x y z
#
# Youngs Moduli (GPa) = 114.09744 60.77113 107.79680
#
# Poissons Ratio (x) = -0.01045 0.44036
# Poissons Ratio (y) = -0.01963 0.02914
# Poissons Ratio (z) = 0.46610 0.01643
#
# Static dielectric constant tensor:
#      x y z
#    x 1.791170 0.000000 0.030210 
#    y 0.000000 1.872770 0.000000 
#    z 0.030210 0.000000 1.793190 
# 
# From -- ./inp_files/186840.got.cif
#   From: 2010.05.17/outbox.cif.g08.bks.cpg/sg12_94_cif.got.tgz:186840.got - 2010.06.03 13:09:07.
