data_PCOD9172550
_publ_section_title
;
Structure prediction by ZEFSAII (Michael W. Deem and Ramdas Pophale) SiO2 
 PCOD9172550
Probable space group: C 2/M
;
_chemical_formula_sum "Si O2"
_cell_formula_units_Z 56
_cell_length_a 14.339243
_cell_length_b 14.313063
_cell_length_c 15.097323
_cell_angle_alpha 90.000000
_cell_angle_beta 84.130245
_cell_angle_gamma 90.000000
_cell_volume 3082.305860
_symmetry_space_group_name_H-M "C 2/M"
_symmetry_group_IT_number 12
_symmetry_cell_setting 'monoclinic'
loop_
_space_group_symop_operation_xyz
x,y,z
-x,y,-z
-x,-y,-z
x,-y,z
1/2+x,1/2+y,z
1/2-x,1/2+y,-z
1/2-x,1/2-y,-z
1/2+x,1/2-y,z
loop_
_atom_site_type_symbol
_atom_site_label
_atom_site_fract_x
_atom_site_fract_y
_atom_site_fract_z
Si Si1 0.962665 0.771056 0.744389
Si Si2 0.605525 0.391838 0.954581
Si Si3 0.190152 0.890051 0.135404
Si Si4 0.039979 0.895604 0.584690
Si Si5 0.799120 0.730562 0.635623
Si Si6 0.756555 0.895084 0.512428
Si Si7 0.652211 0.241268 0.801052
O O1 0.896787 0.831392 0.815656
O O2 0.890477 0.718509 0.687130
O O3 0.014846 0.843144 0.674996
O O4 0.046628 0.714068 0.781643
O O5 0.604013 0.500000 0.924450
O O6 0.636390 0.322615 0.874504
O O7 0.500000 0.370945 0.000000
O O8 0.675762 0.384125 0.031137
O O9 0.284112 0.840507 0.162477
O O10 0.185527 0.000000 0.160310
O O11 0.148954 0.902198 0.554426
O O12 0.000000 0.847648 0.500000
O O13 0.998052 0.000000 0.593115
O O14 0.783017 0.834660 0.596289
O O15 0.806673 0.665382 0.548197
O O16 0.711892 0.720271 0.711515
O O17 0.723957 0.000000 0.536000
#
# Coordination Sequence:
#
# PCOD9172550 Si02
#       7
#     8   8   8   8   8   8   8
#     4  11  20  34  55  85 118 149 190 242 288 338
#     4  10  20  37  62  92 118 145 186 239 293 347
#     4  10  22  39  60  86 119 156 195 235 285 348
#     4  10  18  29  51  79 107 142 182 235 291 332
#     4  10  22  35  53  83 113 152 191 233 287 341
#     4  10  20  36  54  77 112 150 193 240 285 334
#     4  11  22  36  58  88 119 153 188 238 295 346
#
# _framework density 18.168216000000001
#
# number of rings (size 3 to 8) (size 9 to 14) (size 15 to 20)
#    0.000    1.714    4.286    0.857    0.000    3.429 
#    0.000    0.714    0.000    2.143    0.000    0.000 
#    0.000    0.000    0.000    0.000    0.000    0.000 
#
# Total GULP energy -156011.383454 kJ/mol
# GULP energy per Si atom -5571.835123 kJ/mol
# Density = 1.812686 g / cm^3
# Si number density = 18.168216 Si / 1000 Ang^3
#
#
#
# Elastic Constant Matrix: (Units=GPa)
#
#
# Indices 1 2 3 4 5 6 
#
# 1 121.0844 31.1510 25.6589 0.0000 19.6385 0.0000
# 2 31.1510 55.1270 22.0553 0.0000 4.1869 0.0000
# 3 25.6589 22.0553 55.9953 0.0000 2.6986 0.0000
# 4 0.0000 0.0000 0.0000 14.3716 0.0000 0.5837
# 5 19.6385 4.1869 2.6986 0.0000 33.6593 0.0000
# 6 0.0000 0.0000 0.0000 0.5837 0.0000 20.5046
#
#
#
# Elastic Compliance Matrix: (Units=1/GPa)
#
#
# Indices 1 2 3 4 5 6 
#
# 1 0.010973 -0.004596 -0.002948 0.000000 -0.005594 0.000000
# 2 -0.004596 0.023594 -0.007203 0.000000 0.000324 0.000000
# 3 -0.002948 -0.007203 0.022006 0.000000 0.000852 0.000000
# 4 0.000000 0.000000 0.000000 0.069662 0.000000 -0.001983
# 5 -0.005594 0.000324 0.000852 0.000000 0.032865 0.000000
# 6 0.000000 0.000000 0.000000 -0.001983 0.000000 0.048826
#
#
# Mechanical properties :
#
#
# Convention : Reuss Voigt Hill
#
# Bulk Modulus (GPa) = 36.92972 43.32633 40.12802
# Shear Modulus (GPa) = 20.28835 23.92986 22.10910
#
# Velocity S-wave (km/s) = 3.34532 3.63316 3.49221
# Velocity P-wave (km/s) = 5.94073 6.44197 6.19642
#
# Compressibility (1/GPa) = 0.02707846
#
# Stress axis : x y z
#
# Youngs Moduli (GPa) = 91.13049 42.38328 45.44299
#
# Poissons Ratio (x) = 0.19481 0.13398
# Poissons Ratio (y) = 0.41886 0.32731
# Poissons Ratio (z) = 0.26868 0.30527
#
# Static dielectric constant tensor:
#      x y z
#    x 1.671540 0.000000 0.035110 
#    y 0.000000 1.646500 0.000000 
#    z 0.035110 0.000000 1.636400 
# 
# From -- ./inp_files/214188.got.cif
#   From: 2010.05.17/outbox.cif.g08.bks.cpg/sg12_108_cif.got.tgz:214188.got - 2010.06.03 13:09:07.
