data_PCOD9172152
_publ_section_title
;
Structure prediction by ZEFSAII (Michael W. Deem and Ramdas Pophale) SiO2 
 PCOD9172152
Probable space group: C 2/M
;
_chemical_formula_sum "Si O2"
_cell_formula_units_Z 64
_cell_length_a 24.658473
_cell_length_b 7.613908
_cell_length_c 16.695254
_cell_angle_alpha 90.000000
_cell_angle_beta 80.717059
_cell_angle_gamma 90.000000
_cell_volume 3093.439669
_symmetry_space_group_name_H-M "C 2/M"
_symmetry_group_IT_number 12
_symmetry_cell_setting 'monoclinic'
loop_
_space_group_symop_operation_xyz
x,y,z
-x,y,-z
-x,-y,-z
x,-y,z
1/2+x,1/2+y,z
1/2-x,1/2+y,-z
1/2-x,1/2-y,-z
1/2+x,1/2-y,z
loop_
_atom_site_type_symbol
_atom_site_label
_atom_site_fract_x
_atom_site_fract_y
_atom_site_fract_z
Si Si1 0.439812 0.785710 0.241212
Si Si2 0.800035 0.787437 0.735047
Si Si3 0.319278 0.802217 0.266338
Si Si4 0.806996 0.199376 0.444151
Si Si5 0.477364 0.292238 0.922616
Si Si6 0.103368 0.213887 0.183653
Si Si7 0.521831 0.797277 0.347969
Si Si8 0.617660 0.207348 0.430707
O O1 0.378673 0.719154 0.238927
O O2 0.478271 0.732957 0.158319
O O3 0.466972 0.723064 0.319042
O O4 0.438871 0.000000 0.245964
O O5 0.737965 0.719802 0.748279
O O6 0.835327 0.738984 0.804704
O O7 0.836197 0.731718 0.649601
O O8 0.797379 0.000000 0.730565
O O9 0.314889 0.812182 0.363469
O O10 0.321554 0.000000 0.231784
O O11 0.750000 0.250000 0.500000
O O12 0.856380 0.215781 0.495442
O O13 0.802486 0.000000 0.417570
O O14 0.469101 0.500000 0.937781
O O15 0.420887 0.226420 0.895425
O O16 0.500000 0.215471 0.000000
O O17 0.064238 0.290040 0.262695
O O18 0.098622 0.000000 0.189593
O O19 0.559292 0.721180 0.410829
O O20 0.510250 0.000000 0.372009
O O21 0.610709 0.000000 0.444985
#
# Coordination Sequence:
#
# PCOD9172152 Si02
#       8
#     8   8   8   8   8   8   8   8
#     4   9  18  33  51  72  98 127 159 195 236 287
#     4   9  16  27  45  67  91 121 158 200 240 280
#     4  10  20  33  49  69  95 127 161 198 242 289
#     4  12  23  34  48  68  95 126 162 203 244 284
#     4   9  17  30  50  75 100 125 155 194 239 287
#     4   8  14  25  43  68  93 118 153 195 237 278
#     4   8  15  28  46  67  91 120 155 195 239 281
#     4  10  18  29  47  69  92 120 157 203 246 283
#
# _framework density 20.688942999999998
#
# number of rings (size 3 to 8) (size 9 to 14) (size 15 to 20)
#    0.000    2.625    1.250    1.500    0.000    1.250 
#    0.000    0.625    0.000    4.500    0.000    0.000 
#    0.000    0.000    0.000    0.000    0.000    0.000 
#
# Total GULP energy -178329.142936 kJ/mol
# GULP energy per Si atom -5572.785717 kJ/mol
# Density = 2.064185 g / cm^3
# Si number density = 20.688943 Si / 1000 Ang^3
#
#
#
# Elastic Constant Matrix: (Units=GPa)
#
#
# Indices 1 2 3 4 5 6 
#
# 1 154.1276 -4.6580 39.9463 0.0000 39.7904 0.0000
# 2 -4.6580 59.3621 -7.5297 0.0000 5.9289 0.0000
# 3 39.9463 -7.5297 47.1485 0.0000 30.5649 0.0000
# 4 0.0000 0.0000 0.0000 6.4489 0.0000 -2.9058
# 5 39.7904 5.9289 30.5649 0.0000 32.4986 0.0000
# 6 0.0000 0.0000 0.0000 -2.9058 0.0000 3.1756
#
#
#
# Elastic Compliance Matrix: (Units=1/GPa)
#
#
# Indices 1 2 3 4 5 6 
#
# 1 0.009711 0.002008 0.000098 0.000000 -0.012349 0.000000
# 2 0.002008 0.020846 0.014571 0.000000 -0.019965 0.000000
# 3 0.000098 0.014571 0.064705 0.000000 -0.063633 0.000000
# 4 0.000000 0.000000 0.000000 0.263854 0.000000 0.241435
# 5 -0.012349 -0.019965 -0.063633 0.000000 0.109380 0.000000
# 6 0.000000 0.000000 0.000000 0.241435 0.000000 0.535817
#
#
# Mechanical properties :
#
#
# Convention : Reuss Voigt Hill
#
# Bulk Modulus (GPa) = 7.77511 35.12837 21.45174
# Shear Modulus (GPa) = 4.93179 23.94994 14.44086
#
# Velocity S-wave (km/s) = 1.54562 3.40607 2.64483
# Velocity P-wave (km/s) = 2.63658 5.69953 4.44050
#
# Compressibility (1/GPa) = 0.12861560
#
# Stress axis : x y z
#
# Youngs Moduli (GPa) = 102.97077 47.97189 15.45480
#
# Poissons Ratio (x) = -0.09632 -0.00152
# Poissons Ratio (y) = -0.20676 -0.22519
# Poissons Ratio (z) = -0.01013 -0.69898
#
# Static dielectric constant tensor:
#      x y z
#    x 1.824950 0.000000 0.035880 
#    y 0.000000 1.772870 0.000000 
#    z 0.035880 0.000000 1.733870 
# 
# From -- ./inp_files/287507.got.cif
#   From: 2010.05.17/outbox.cif.g08.bks.cpg/sg12_144_cif.got.tgz:287507.got - 2010.06.03 13:09:07.
