data_PCOD9172735
_publ_section_title
;
Structure prediction by ZEFSAII (Michael W. Deem and Ramdas Pophale) SiO2 
 PCOD9172735
Probable space group: C 2/M
;
_chemical_formula_sum "Si O2"
_cell_formula_units_Z 64
_cell_length_a 25.658425
_cell_length_b 8.742623
_cell_length_c 18.208580
_cell_angle_alpha 90.000000
_cell_angle_beta 102.700544
_cell_angle_gamma 90.000000
_cell_volume 3984.644193
_symmetry_space_group_name_H-M "C 2/M"
_symmetry_group_IT_number 12
_symmetry_cell_setting 'monoclinic'
loop_
_space_group_symop_operation_xyz
x,y,z
-x,y,-z
-x,-y,-z
x,-y,z
1/2+x,1/2+y,z
1/2-x,1/2+y,-z
1/2-x,1/2-y,-z
1/2+x,1/2-y,z
loop_
_atom_site_type_symbol
_atom_site_label
_atom_site_fract_x
_atom_site_fract_y
_atom_site_fract_z
Si Si1 0.705429 0.816940 0.820424
Si Si2 0.192285 0.183785 0.503135
Si Si3 0.722284 0.316178 0.668030
Si Si4 0.490764 0.316800 0.082074
Si Si5 0.905231 0.683057 0.811320
Si Si6 0.875131 0.315501 0.077340
Si Si7 0.661102 0.683922 0.338260
Si Si8 0.817315 0.683990 0.907914
O O1 0.701275 0.745538 0.738452
O O2 0.657861 0.771486 0.860560
O O3 0.761446 0.762264 0.872335
O O4 0.705962 0.000000 0.814824
O O5 0.250000 0.250000 0.500000
O O6 0.185501 0.227487 0.586265
O O7 0.155391 0.228366 0.422742
O O8 0.194988 0.000000 0.502706
O O9 0.727003 0.500000 0.672608
O O10 0.781556 0.248301 0.671649
O O11 0.492639 0.500000 0.085589
O O12 0.538349 0.248711 0.145409
O O13 0.433170 0.258183 0.089640
O O14 0.500000 0.268751 0.000000
O O15 0.907768 0.500000 0.808531
O O16 0.884087 0.749377 0.728229
O O17 0.860993 0.724361 0.859485
O O18 0.880773 0.500000 0.077976
O O19 0.840848 0.272986 0.994471
O O20 0.662174 0.500000 0.332925
O O21 0.810058 0.500000 0.903818
#
# Coordination Sequence:
#
# PCOD9172735 Si02
#       8
#     8   8   8   8   8   8   8   8
#     4  11  22  33  50  75 103 134 171 212 250 292
#     4   8  16  28  44  67  96 132 165 199 242 294
#     4  10  18  30  47  69 101 137 169 198 245 304
#     4  11  23  37  55  77  98 126 168 216 258 295
#     4  11  21  33  53  76 101 135 170 204 251 304
#     4  10  22  39  54  71  97 134 174 211 254 300
#     4  10  18  30  48  72 102 130 166 210 248 290
#     4  10  20  34  52  72  99 135 171 205 249 300
#
# _framework density 16.061658999999999
#
# number of rings (size 3 to 8) (size 9 to 14) (size 15 to 20)
#    0.000    1.875    2.500    2.250    0.000    3.500 
#    0.000    0.000    0.000    0.000    0.000    0.875 
#    0.000    7.000    0.000    0.000    0.000    0.000 
#
# Total GULP energy -178517.487568 kJ/mol
# GULP energy per Si atom -5578.671487 kJ/mol
# Density = 1.602510 g / cm^3
# Si number density = 16.061659 Si / 1000 Ang^3
#
#
#
# Elastic Constant Matrix: (Units=GPa)
#
#
# Indices 1 2 3 4 5 6 
#
# 1 100.3402 38.1727 82.7457 0.0000 -4.7641 0.0000
# 2 38.1727 36.1656 48.1641 0.0000 0.1045 0.0000
# 3 82.7457 48.1641 178.8060 0.0000 13.1970 0.0000
# 4 0.0000 0.0000 0.0000 16.1178 0.0000 1.4806
# 5 -4.7641 0.1045 13.1970 0.0000 13.4080 0.0000
# 6 0.0000 0.0000 0.0000 1.4806 0.0000 23.4776
#
#
#
# Elastic Compliance Matrix: (Units=1/GPa)
#
#
# Indices 1 2 3 4 5 6 
#
# 1 0.022175 -0.012833 -0.007973 0.000000 0.015827 0.000000
# 2 -0.012833 0.052402 -0.008422 0.000000 0.003321 0.000000
# 3 -0.007973 -0.008422 0.012676 0.000000 -0.015244 0.000000
# 4 0.000000 0.000000 0.000000 0.062405 0.000000 -0.003936
# 5 0.015827 0.003321 -0.015244 0.000000 0.095184 0.000000
# 6 0.000000 0.000000 0.000000 -0.003936 0.000000 0.042842
#
#
# Mechanical properties :
#
#
# Convention : Reuss Voigt Hill
#
# Bulk Modulus (GPa) = 34.72562 72.60853 53.66707
# Shear Modulus (GPa) = 14.05534 20.34930 17.20232
#
# Velocity S-wave (km/s) = 2.96140 3.56328 3.27619
# Velocity P-wave (km/s) = 5.77584 7.88883 6.91353
#
# Compressibility (1/GPa) = 0.02879719
#
# Stress axis : x y z
#
# Youngs Moduli (GPa) = 45.09682 19.08334 78.88942
#
# Poissons Ratio (x) = 0.24489 0.62899
# Poissons Ratio (y) = 0.57871 0.66439
# Poissons Ratio (z) = 0.35956 0.16072
#
# Static dielectric constant tensor:
#      x y z
#    x 1.490820 0.000000 -0.003690 
#    y 0.000000 1.537750 0.000000 
#    z -0.003690 0.000000 1.571590 
# 
# From -- ./inp_files/287786.got.cif
#   From: 2010.05.17/outbox.cif.g08.bks.cpg/sg12_144_cif.got.tgz:287786.got - 2010.06.03 13:09:07.
