data_PCOD9172985
_publ_section_title
;
Structure prediction by ZEFSAII (Michael W. Deem and Ramdas Pophale) SiO2 
 PCOD9172985
Probable space group: C 2/M
;
_chemical_formula_sum "Si O2"
_cell_formula_units_Z 64
_cell_length_a 32.163450
_cell_length_b 8.501046
_cell_length_c 15.206984
_cell_angle_alpha 90.000000
_cell_angle_beta 118.438471
_cell_angle_gamma 90.000000
_cell_volume 3656.196157
_symmetry_space_group_name_H-M "C 2/M"
_symmetry_group_IT_number 12
_symmetry_cell_setting 'monoclinic'
loop_
_space_group_symop_operation_xyz
x,y,z
-x,y,-z
-x,-y,-z
x,-y,z
1/2+x,1/2+y,z
1/2-x,1/2+y,-z
1/2-x,1/2-y,-z
1/2+x,1/2-y,z
loop_
_atom_site_type_symbol
_atom_site_label
_atom_site_fract_x
_atom_site_fract_y
_atom_site_fract_z
Si Si1 0.362969 0.690205 0.089109
Si Si2 0.220331 0.189789 0.122315
Si Si3 0.827801 0.187925 0.423890
Si Si4 0.828909 0.312011 0.233609
Si Si5 0.719033 0.810153 0.313299
Si Si6 0.945844 0.808641 0.044089
Si Si7 0.862924 0.312024 0.638324
Si Si8 0.554644 0.309738 0.156447
O O1 0.363145 0.500000 0.090607
O O2 0.360264 0.750613 0.185323
O O3 0.408137 0.744232 0.078130
O O4 0.315952 0.742759 0.988961
O O5 0.274428 0.243237 0.163063
O O6 0.204882 0.248580 0.202829
O O7 0.220037 0.000000 0.123132
O O8 0.842865 0.251908 0.344022
O O9 0.773174 0.241925 0.383749
O O10 0.858690 0.245584 0.536255
O O11 0.827814 0.000000 0.420968
O O12 0.828881 0.500000 0.233852
O O13 0.682493 0.755628 0.350496
O O14 0.718525 0.000000 0.311155
O O15 0.000035 0.762623 0.116799
O O16 0.945150 0.000000 0.043017
O O17 0.933082 0.760634 0.931470
O O18 0.861231 0.500000 0.632700
O O19 0.909257 0.259239 0.737373
O O20 0.556974 0.500000 0.162242
#
# Coordination Sequence:
#
# PCOD9172985 Si02
#       8
#     8   8   8   8   8   8   8   8
#     4  10  18  30  49  73  98 129 167 203 237 283
#     4   9  18  30  47  71 100 131 165 201 238 281
#     4  10  20  35  52  69  92 130 171 204 237 281
#     4  10  20  33  47  69 100 132 163 202 246 286
#     4   9  19  32  47  70 101 131 162 198 239 285
#     4   8  16  31  53  77 100 126 163 204 237 276
#     4  11  21  32  48  74 103 129 158 199 245 291
#     4   9  17  33  54  75  99 130 163 197 238 287
#
# _framework density 17.504532000000001
#
# number of rings (size 3 to 8) (size 9 to 14) (size 15 to 20)
#    0.000    2.500    0.000    3.375    0.000    3.500 
#    0.000    2.500    0.000    0.750    0.000    5.250 
#    0.000    0.000    0.000    0.000    0.000    0.000 
#
# Total GULP energy -178563.374521 kJ/mol
# GULP energy per Si atom -5580.105454 kJ/mol
# Density = 1.746469 g / cm^3
# Si number density = 17.504532 Si / 1000 Ang^3
#
#
#
# Elastic Constant Matrix: (Units=GPa)
#
#
# Indices 1 2 3 4 5 6 
#
# 1 111.0461 22.2858 78.6989 0.0000 -26.3007 0.0000
# 2 22.2858 18.0219 24.0090 0.0000 -4.0425 0.0000
# 3 78.6989 24.0090 150.0057 0.0000 -16.5944 0.0000
# 4 0.0000 0.0000 0.0000 24.5306 0.0000 -3.4320
# 5 -26.3007 -4.0425 -16.5944 0.0000 20.7320 0.0000
# 6 0.0000 0.0000 0.0000 -3.4320 0.0000 19.7813
#
#
#
# Elastic Compliance Matrix: (Units=1/GPa)
#
#
# Indices 1 2 3 4 5 6 
#
# 1 0.020677 -0.012336 -0.006844 0.000000 0.018347 0.000000
# 2 -0.012336 0.078396 -0.006710 0.000000 -0.005734 0.000000
# 3 -0.006844 -0.006710 0.011219 0.000000 -0.001010 0.000000
# 4 0.000000 0.000000 0.000000 0.041780 0.000000 0.007249
# 5 0.018347 -0.005734 -0.001010 0.000000 0.069583 0.000000
# 6 0.000000 0.000000 0.000000 0.007249 0.000000 0.051810
#
#
# Mechanical properties :
#
#
# Convention : Reuss Voigt Hill
#
# Bulk Modulus (GPa) = 17.09044 58.78456 37.93750
# Shear Modulus (GPa) = 14.50337 23.28078 18.89207
#
# Velocity S-wave (km/s) = 2.88158 3.65085 3.28878
# Velocity P-wave (km/s) = 4.56683 7.17126 6.01178
#
# Compressibility (1/GPa) = 0.05851225
#
# Stress axis : x y z
#
# Youngs Moduli (GPa) = 48.36401 12.75581 89.13410
#
# Poissons Ratio (x) = 0.15735 0.61000
# Poissons Ratio (y) = 0.59661 0.59809
# Poissons Ratio (z) = 0.33099 0.08559
#
# Static dielectric constant tensor:
#      x y z
#    x 1.600310 0.000000 0.004140 
#    y 0.000000 1.592590 0.000000 
#    z 0.004140 0.000000 1.574270 
# 
# From -- ./inp_files/249079.got.cif
#   From: 2010.05.17/outbox.cif.g08.bks.cpg/sg12_125_cif.got.tgz:249079.got - 2010.06.03 13:09:07.
