data_PCOD9172955
_publ_section_title
;
Structure prediction by ZEFSAII (Michael W. Deem and Ramdas Pophale) SiO2 
 PCOD9172955
Probable space group: C 2/M
;
_chemical_formula_sum "Si O2"
_cell_formula_units_Z 40
_cell_length_a 8.590746
_cell_length_b 27.000892
_cell_length_c 16.100459
_cell_angle_alpha 90.000000
_cell_angle_beta 143.164221
_cell_angle_gamma 90.000000
_cell_volume 2238.996755
_symmetry_space_group_name_H-M "C 2/M"
_symmetry_group_IT_number 12
_symmetry_cell_setting 'monoclinic'
loop_
_space_group_symop_operation_xyz
x,y,z
-x,y,-z
-x,-y,-z
x,-y,z
1/2+x,1/2+y,z
1/2-x,1/2+y,-z
1/2-x,1/2-y,-z
1/2+x,1/2-y,z
loop_
_atom_site_type_symbol
_atom_site_label
_atom_site_fract_x
_atom_site_fract_y
_atom_site_fract_z
Si Si1 0.172481 0.500000 0.657791
Si Si2 0.827884 0.896587 0.343426
Si Si3 0.552477 0.803053 0.160065
Si Si4 0.699109 0.000000 0.342209
Si Si5 0.702394 0.603413 0.343426
Si Si6 0.072283 0.803053 0.839935
O O1 0.325040 0.551614 0.717457
O O2 0.000000 0.500000 0.500000
O O3 0.983861 0.500000 0.655908
O O4 0.643324 0.849340 0.253315
O O5 0.000000 0.891429 0.500000
O O6 0.021415 0.899110 0.347610
O O7 0.672668 0.948386 0.282542
O O8 0.742684 0.801507 0.161789
O O9 0.564450 0.750000 0.209633
O O10 0.261788 0.809433 0.000000
O O11 0.000000 0.000000 0.500000
O O12 0.616621 0.650660 0.253315
O O13 0.000000 0.608572 0.500000
#
# Coordination Sequence:
#
# PCOD9172955 Si02
#       6
#     4   8   8   4   8   8
#     4  10  18  30  49  72  99 129 161 197 241 288
#     4  10  19  32  51  74 100 128 161 200 241 287
#     4   9  19  35  53  72  96 129 165 200 241 287
#     4  10  18  30  49  72  99 129 161 197 241 288
#     4  10  19  32  51  74 100 128 161 200 241 287
#     4   9  19  35  53  72  96 129 165 200 241 287
#
# _framework density 17.865144000000001
#
# number of rings (size 3 to 8) (size 9 to 14) (size 15 to 20)
#    0.000    2.400    0.000    5.400    0.000    4.000 
#    0.000    5.000    0.000    6.000    0.000    0.000 
#    0.000    0.000    0.000    0.000    0.000    0.000 
#
# Total GULP energy -111526.291344 kJ/mol
# GULP energy per Si atom -5576.314567 kJ/mol
# Density = 1.782448 g / cm^3
# Si number density = 17.865144 Si / 1000 Ang^3
#
#
#
# Elastic Constant Matrix: (Units=GPa)
#
#
# Indices 1 2 3 4 5 6 
#
# 1 63.7077 49.9972 20.1744 0.0000 0.0986 0.0000
# 2 49.9972 229.9854 76.3147 0.0000 -0.3504 0.0000
# 3 20.1744 76.3147 45.8599 0.0000 0.1395 0.0000
# 4 0.0000 0.0000 0.0000 -36.7902 0.0000 0.9546
# 5 0.0986 -0.3504 0.1395 0.0000 18.0743 0.0000
# 6 0.0000 0.0000 0.0000 0.9546 0.0000 34.8581
#
#
#
# Elastic Compliance Matrix: (Units=1/GPa)
#
#
# Indices 1 2 3 4 5 6 
#
# 1 0.019153 -0.003055 -0.003341 0.000000 -0.000138 0.000000
# 2 -0.003055 0.010199 -0.015628 0.000000 0.000335 0.000000
# 3 -0.003341 -0.015628 0.049284 0.000000 -0.000665 0.000000
# 4 0.000000 0.000000 0.000000 -0.027162 0.000000 0.000744
# 5 -0.000138 0.000335 -0.000665 0.000000 0.055339 0.000000
# 6 0.000000 0.000000 0.000000 0.000744 0.000000 0.028667
#
#
# Mechanical properties :
#
#
# Convention : Reuss Voigt Hill
#
# Bulk Modulus (GPa) = 28.91302 70.28062 49.59682
# Shear Modulus (GPa) = 26.16997 16.09955 21.13476
#
# Velocity S-wave (km/s) = 3.83150 3.00521 3.44323
# Velocity P-wave (km/s) = 5.98273 7.17402 6.60529
#
# Compressibility (1/GPa) = 0.03458650
#
# Stress axis : x y z
#
# Youngs Moduli (GPa) = 52.21224 98.05152 20.29041
#
# Poissons Ratio (x) = 0.29958 0.06779
# Poissons Ratio (y) = 0.15952 0.31711
# Poissons Ratio (z) = 0.17443 1.53240
#
# Static dielectric constant tensor:
#      x y z
#    x 1.640830 0.000000 0.000490 
#    y 0.000000 1.637730 0.000000 
#    z 0.000490 0.000000 1.604460 
# 
# From -- ./inp_files/122211.got.cif
#   From: 2010.05.17/outbox.cif.g08.bks.cpg/sg12_62_cif.got.tgz:122211.got - 2010.06.03 13:09:07.
