data_PCOD9172225
_publ_section_title
;
Structure prediction by ZEFSAII (Michael W. Deem and Ramdas Pophale) SiO2 
 PCOD9172225
Probable space group: C 2/M
;
_chemical_formula_sum "Si O2"
_cell_formula_units_Z 36
_cell_length_a 10.439377
_cell_length_b 23.198462
_cell_length_c 8.693635
_cell_angle_alpha 90.000000
_cell_angle_beta 135.931150
_cell_angle_gamma 90.000000
_cell_volume 1464.354471
_symmetry_space_group_name_H-M "C 2/M"
_symmetry_group_IT_number 12
_symmetry_cell_setting 'monoclinic'
loop_
_space_group_symop_operation_xyz
x,y,z
-x,y,-z
-x,-y,-z
x,-y,z
1/2+x,1/2+y,z
1/2-x,1/2+y,-z
1/2-x,1/2-y,-z
1/2+x,1/2-y,z
loop_
_atom_site_type_symbol
_atom_site_label
_atom_site_fract_x
_atom_site_fract_y
_atom_site_fract_z
Si Si1 0.200246 0.352143 0.758877
Si Si2 0.788885 0.763141 0.354089
Si Si3 0.042140 0.435579 0.857112
Si Si4 0.500000 0.629580 0.500000
Si Si5 0.643356 0.435526 0.347148
O O1 0.287354 0.287348 0.822842
O O2 0.329457 0.392805 0.769948
O O3 0.000000 0.354644 0.500000
O O4 0.155649 0.382747 0.881100
O O5 0.750000 0.750000 0.500000
O O6 0.809005 0.831684 0.343470
O O7 0.000000 0.752668 0.500000
O O8 0.126163 0.500000 0.903561
O O9 0.844601 0.437418 0.601388
O O10 0.000000 0.429430 0.000000
O O11 0.492755 0.590699 0.643909
O O12 0.593350 0.500000 0.259370
#
# Coordination Sequence:
#
# PCOD9172225 Si02
#       5
#     8   8   8   4   8
#     4   9  15  27  48  74  90 119 163 204 241 276
#     4   9  16  27  45  72  96 125 158 202 240 294
#     4   9  18  31  48  71 100 131 162 201 248 296
#     4  10  19  28  46  74  99 128 158 200 256 298
#     4  10  18  29  47  74 101 122 159 206 248 293
#
# _framework density 24.584212000000001
#
# number of rings (size 3 to 8) (size 9 to 14) (size 15 to 20)
#    0.667    2.000    2.222    1.000    0.000    2.667 
#    0.000    0.000    0.000    2.667    0.000    6.222 
#    0.000    0.000    0.000    0.000    0.000    0.000 
#
# Total GULP energy -100226.648742 kJ/mol
# GULP energy per Si atom -5568.147152 kJ/mol
# Density = 2.452826 g / cm^3
# Si number density = 24.584212 Si / 1000 Ang^3
#
#
#
# Elastic Constant Matrix: (Units=GPa)
#
#
# Indices 1 2 3 4 5 6 
#
# 1 78.7474 -3.4562 12.4337 0.0000 -20.5135 0.0000
# 2 -3.4562 127.8976 -7.2752 0.0000 -8.5046 0.0000
# 3 12.4337 -7.2752 57.4687 0.0000 5.8609 0.0000
# 4 0.0000 0.0000 0.0000 22.4401 0.0000 -29.0715
# 5 -20.5135 -8.5046 5.8609 0.0000 43.2104 0.0000
# 6 0.0000 0.0000 0.0000 -29.0715 0.0000 37.5971
#
#
#
# Elastic Compliance Matrix: (Units=1/GPa)
#
#
# Indices 1 2 3 4 5 6 
#
# 1 0.015468 0.000721 -0.004075 0.000000 0.008038 0.000000
# 2 0.000721 0.007998 0.000670 0.000000 0.001825 0.000000
# 3 -0.004075 0.000670 0.018811 0.000000 -0.004354 0.000000
# 4 0.000000 0.000000 0.000000-25.635440 0.000000-19.822275
# 5 0.008038 0.001825 -0.004354 0.000000 0.027908 0.000000
# 6 0.000000 0.000000 0.000000-19.822275 0.000000-15.300721
#
#
# Mechanical properties :
#
#
# Convention : Reuss Voigt Hill
#
# Bulk Modulus (GPa) = 27.09377 29.72425 28.40901
# Shear Modulus (GPa) = -0.12240 38.14361 19.01060
#
# Velocity S-wave (km/s) = -0.22338 3.94324 2.78382
# Velocity P-wave (km/s) = 3.31334 5.73143 4.68121
#
# Compressibility (1/GPa) = 0.03690885
#
# Stress axis : x y z
#
# Youngs Moduli (GPa) = 64.65099 125.03535 53.15938
#
# Poissons Ratio (x) = -0.09011 0.21663
# Poissons Ratio (y) = -0.04659 -0.03564
# Poissons Ratio (z) = 0.26345 -0.08382
#
# Static dielectric constant tensor:
#      x y z
#    x 1.922240 0.000000 0.059650 
#    y 0.000000 2.264690 0.000000 
#    z 0.059650 0.000000 1.944870 
# 
# From -- ./inp_files/49676.got.cif
#   From: 2010.05.17/outbox.cif.g08.bks.cpg/sg12_25_cif.got.tgz:49676.got - 2010.06.03 13:09:07.
