data_PCOD9172808
_publ_section_title
;
Structure prediction by ZEFSAII (Michael W. Deem and Ramdas Pophale) SiO2 
 PCOD9172808
Probable space group: C 2/M
;
_chemical_formula_sum "Si O2"
_cell_formula_units_Z 56
_cell_length_a 24.554451
_cell_length_b 8.929020
_cell_length_c 17.120592
_cell_angle_alpha 90.000000
_cell_angle_beta 90.704338
_cell_angle_gamma 90.000000
_cell_volume 3753.357967
_symmetry_space_group_name_H-M "C 2/M"
_symmetry_group_IT_number 12
_symmetry_cell_setting 'monoclinic'
loop_
_space_group_symop_operation_xyz
x,y,z
-x,y,-z
-x,-y,-z
x,-y,z
1/2+x,1/2+y,z
1/2-x,1/2+y,-z
1/2-x,1/2-y,-z
1/2+x,1/2-y,z
loop_
_atom_site_type_symbol
_atom_site_label
_atom_site_fract_x
_atom_site_fract_y
_atom_site_fract_z
Si Si1 0.000678 0.817578 0.090359
Si Si2 0.881206 0.180626 0.850752
Si Si3 0.258459 0.676063 0.416818
Si Si4 0.189970 0.321840 0.723383
Si Si5 0.809724 0.180023 0.001513
Si Si6 0.699401 0.824329 0.264358
Si Si7 0.116318 0.819093 0.847868
O O1 0.056814 0.771403 0.132137
O O2 0.945179 0.773019 0.132207
O O3 0.000871 0.000000 0.088642
O O4 0.000000 0.768252 0.000000
O O5 0.844422 0.221646 0.925323
O O6 0.853164 0.253839 0.775398
O O7 0.880215 0.000000 0.843761
O O8 0.269943 0.500000 0.424527
O O9 0.250000 0.750000 0.500000
O O10 0.304353 0.755853 0.364176
O O11 0.205899 0.691981 0.358300
O O12 0.189893 0.500000 0.722310
O O13 0.246089 0.260821 0.764124
O O14 0.140285 0.255956 0.771140
O O15 0.804746 0.000000 0.001560
O O16 0.750000 0.250000 0.000000
O O17 0.844679 0.221838 0.078574
O O18 0.703834 0.000000 0.245902
O O19 0.117826 0.000000 0.840074
#
# Coordination Sequence:
#
# PCOD9172808 Si02
#       7
#     8   8   8   8   8   8   8
#     4   9  16  30  50  68  89 125 174 218 252 286
#     4  10  18  30  48  69  91 125 170 210 245 289
#     4   9  18  32  52  77 104 130 156 186 236 296
#     4  10  19  31  48  71 101 129 160 198 238 290
#     4  10  20  29  42  63  89 123 162 203 247 289
#     4   9  19  32  47  70 101 129 155 193 243 293
#     4  10  18  31  48  66  93 128 167 210 250 289
#
# _framework density 14.919973000000001
#
# number of rings (size 3 to 8) (size 9 to 14) (size 15 to 20)
#    0.857    1.571    1.429    2.571    0.000    3.429 
#    0.000    0.714    0.000    0.857    0.000    1.000 
#    0.000    8.000    0.000    0.000    0.000    0.000 
#
# Total GULP energy -155887.633073 kJ/mol
# GULP energy per Si atom -5567.415467 kJ/mol
# Density = 1.488601 g / cm^3
# Si number density = 14.919973 Si / 1000 Ang^3
#
#
#
# Elastic Constant Matrix: (Units=GPa)
#
#
# Indices 1 2 3 4 5 6 
#
# 1 130.8707 43.2552 63.5742 0.0000 -8.4865 0.0000
# 2 43.2552 57.8717 50.5124 0.0000 -3.6027 0.0000
# 3 63.5742 50.5124 106.1005 0.0000 -10.7765 0.0000
# 4 0.0000 0.0000 0.0000 22.5646 0.0000 0.0039
# 5 -8.4865 -3.6027 -10.7765 0.0000 11.3554 0.0000
# 6 0.0000 0.0000 0.0000 0.0039 0.0000 19.6187
#
#
#
# Elastic Compliance Matrix: (Units=1/GPa)
#
#
# Indices 1 2 3 4 5 6 
#
# 1 0.011479 -0.004541 -0.004417 0.000000 0.002946 0.000000
# 2 -0.004541 0.031562 -0.012873 0.000000 -0.005597 0.000000
# 3 -0.004417 -0.012873 0.019312 0.000000 0.010942 0.000000
# 4 0.000000 0.000000 0.000000 0.044317 0.000000 -0.000009
# 5 0.002946 -0.005597 0.010942 0.000000 0.098874 0.000000
# 6 0.000000 0.000000 0.000000 -0.000009 0.000000 0.050972
#
#
# Mechanical properties :
#
#
# Convention : Reuss Voigt Hill
#
# Bulk Modulus (GPa) = 53.50600 67.72517 60.61559
# Shear Modulus (GPa) = 16.31815 19.87448 18.09631
#
# Velocity S-wave (km/s) = 3.31072 3.65372 3.48644
# Velocity P-wave (km/s) = 7.11016 7.95552 7.54469
#
# Compressibility (1/GPa) = 0.01868949
#
# Stress axis : x y z
#
# Youngs Moduli (GPa) = 87.11836 31.68403 51.78232
#
# Poissons Ratio (x) = 0.14388 0.22871
# Poissons Ratio (y) = 0.39561 0.66662
# Poissons Ratio (z) = 0.38478 0.40788
#
# Static dielectric constant tensor:
#      x y z
#    x 1.485430 0.000000 0.003690 
#    y 0.000000 1.499940 0.000000 
#    z 0.003690 0.000000 1.491080 
# 
# From -- ./inp_files/318838.got.cif
#   From: 2010.05.17/outbox.cif.g08.bks.cpg/sg12_160_cif.got.tgz:318838.got - 2010.06.03 13:09:07.
