data_PCOD9172598
_publ_section_title
;
Structure prediction by ZEFSAII (Michael W. Deem and Ramdas Pophale) SiO2 
 PCOD9172598
Probable space group: C 2/M
;
_chemical_formula_sum "Si O2"
_cell_formula_units_Z 56
_cell_length_a 22.482768
_cell_length_b 14.290515
_cell_length_c 18.457552
_cell_angle_alpha 90.000000
_cell_angle_beta 148.602499
_cell_angle_gamma 90.000000
_cell_volume 3089.487755
_symmetry_space_group_name_H-M "C 2/M"
_symmetry_group_IT_number 12
_symmetry_cell_setting 'monoclinic'
loop_
_space_group_symop_operation_xyz
x,y,z
-x,y,-z
-x,-y,-z
x,-y,z
1/2+x,1/2+y,z
1/2-x,1/2+y,-z
1/2-x,1/2-y,-z
1/2+x,1/2-y,z
loop_
_atom_site_type_symbol
_atom_site_label
_atom_site_fract_x
_atom_site_fract_y
_atom_site_fract_z
Si Si1 0.019490 0.324122 0.189066
Si Si2 0.189677 0.606860 0.575245
Si Si3 0.579036 0.608500 0.651542
Si Si4 0.535035 0.257002 0.357215
Si Si5 0.735304 0.604150 0.514390
Si Si6 0.602824 0.290211 0.150464
Si Si7 0.154674 0.606288 0.110289
O O1 0.984636 0.291141 0.232865
O O2 0.138592 0.379921 0.321459
O O3 0.054481 0.233260 0.179220
O O4 0.924019 0.376472 0.042499
O O5 0.161516 0.500000 0.562824
O O6 0.082054 0.675000 0.457607
O O7 0.244284 0.608939 0.550760
O O8 0.283543 0.650191 0.725845
O O9 0.500000 0.632099 0.500000
O O10 0.554665 0.500000 0.644517
O O11 0.547428 0.675426 0.684766
O O12 0.711964 0.615190 0.769645
O O13 0.646424 0.318036 0.448737
O O14 0.694477 0.500000 0.491194
O O15 0.626154 0.189112 0.137020
O O16 0.500000 0.337045 0.000000
O O17 0.134893 0.500000 0.116956
#
# Coordination Sequence:
#
# PCOD9172598 Si02
#       7
#     8   8   8   8   8   8   8
#     4  10  19  33  53  82 114 140 180 226 276 329
#     4  10  19  33  50  77 108 137 181 229 273 319
#     4  10  22  38  57  82 112 149 186 225 273 332
#     4  11  19  35  57  79 112 144 186 227 274 327
#     4  10  18  29  54  83 108 139 173 226 282 328
#     4  10  19  33  53  77 110 147 182 221 276 327
#     4  10  22  37  55  83 116 146 182 225 278 336
#
# _framework density 18.125983000000002
#
# number of rings (size 3 to 8) (size 9 to 14) (size 15 to 20)
#    0.000    1.857    2.857    2.571    0.000    4.571 
#    0.000    0.000    0.000    3.857    0.000    2.000 
#    0.000    0.000    0.000    0.000    0.000    0.000 
#
# Total GULP energy -156236.642866 kJ/mol
# GULP energy per Si atom -5579.880102 kJ/mol
# Density = 1.808473 g / cm^3
# Si number density = 18.125983 Si / 1000 Ang^3
#
#
#
# Elastic Constant Matrix: (Units=GPa)
#
#
# Indices 1 2 3 4 5 6 
#
# 1 37.1456 10.0580 18.1197 0.0000 2.6951 0.0000
# 2 10.0580 79.7232 22.2692 0.0000 -3.6475 0.0000
# 3 18.1197 22.2692 100.9528 0.0000 -11.2762 0.0000
# 4 0.0000 0.0000 0.0000 24.7893 0.0000 -0.1807
# 5 2.6951 -3.6475 -11.2762 0.0000 23.6528 0.0000
# 6 0.0000 0.0000 0.0000 -0.1807 0.0000 16.9308
#
#
#
# Elastic Compliance Matrix: (Units=1/GPa)
#
#
# Indices 1 2 3 4 5 6 
#
# 1 0.030896 -0.002606 -0.005713 0.000000 -0.006646 0.000000
# 2 -0.002606 0.013598 -0.002392 0.000000 0.001254 0.000000
# 3 -0.005713 -0.002392 0.012136 0.000000 0.006068 0.000000
# 4 0.000000 0.000000 0.000000 0.040343 0.000000 0.000431
# 5 -0.006646 0.001254 0.006068 0.000000 0.046122 0.000000
# 6 0.000000 0.000000 0.000000 0.000431 0.000000 0.059069
#
#
# Mechanical properties :
#
#
# Convention : Reuss Voigt Hill
#
# Bulk Modulus (GPa) = 28.40236 35.41283 31.90760
# Shear Modulus (GPa) = 21.24764 24.23290 22.74027
#
# Velocity S-wave (km/s) = 3.42748 3.66035 3.54583
# Velocity P-wave (km/s) = 5.60062 6.11913 5.86561
#
# Compressibility (1/GPa) = 0.03520834
#
# Stress axis : x y z
#
# Youngs Moduli (GPa) = 32.36707 73.54224 82.39705
#
# Poissons Ratio (x) = 0.19166 0.47072
# Poissons Ratio (y) = 0.08435 0.19707
# Poissons Ratio (z) = 0.18491 0.17589
#
# Static dielectric constant tensor:
#      x y z
#    x 1.612460 0.000000 -0.024520 
#    y 0.000000 1.634490 0.000000 
#    z -0.024520 0.000000 1.639930 
# 
# From -- ./inp_files/284585.got.cif
#   From: 2010.05.17/outbox.cif.g08.bks.cpg/sg12_143_cif.got.tgz:284585.got - 2010.06.03 13:09:07.
