data_PCOD9172777
_publ_section_title
;
Structure prediction by ZEFSAII (Michael W. Deem and Ramdas Pophale) SiO2 
 PCOD9172777
Probable space group: C 2/M
;
_chemical_formula_sum "Si O2"
_cell_formula_units_Z 36
_cell_length_a 12.615020
_cell_length_b 31.740612
_cell_length_c 12.388675
_cell_angle_alpha 90.000000
_cell_angle_beta 155.002452
_cell_angle_gamma 90.000000
_cell_volume 2096.218258
_symmetry_space_group_name_H-M "C 2/M"
_symmetry_group_IT_number 12
_symmetry_cell_setting 'monoclinic'
loop_
_space_group_symop_operation_xyz
x,y,z
-x,y,-z
-x,-y,-z
x,-y,z
1/2+x,1/2+y,z
1/2-x,1/2+y,-z
1/2-x,1/2-y,-z
1/2+x,1/2-y,z
loop_
_atom_site_type_symbol
_atom_site_label
_atom_site_fract_x
_atom_site_fract_y
_atom_site_fract_z
Si Si1 0.553793 0.951906 0.921084
Si Si2 0.053644 0.096776 0.420510
Si Si3 0.000000 0.714680 0.000000
Si Si4 0.802589 0.317224 0.602528
Si Si5 0.909871 0.258032 0.255894
O O1 0.297796 0.933192 0.636027
O O2 0.599117 0.000000 0.927747
O O3 0.500000 0.952933 0.000000
O O4 0.802530 0.923398 0.138431
O O5 0.140424 0.140865 0.449889
O O6 0.000000 0.103020 0.500000
O O7 0.038060 0.684764 0.138994
O O8 0.229343 0.746281 0.187297
O O9 0.619005 0.277792 0.448230
O O10 0.969504 0.303876 0.653347
O O11 0.750000 0.250000 0.000000
#
# Coordination Sequence:
#
# PCOD9172777 Si02
#       5
#     8   8   4   8   8
#     4   9  18  30  42  61  86 117 151 188 232 274
#     4  10  19  27  46  63  87 118 156 193 224 269
#     4  10  18  30  48  60  89 122 159 194 230 276
#     4  10  20  30  44  67  88 121 161 195 229 268
#     4   9  19  31  44  62  91 117 156 193 234 270
#
# _framework density 17.173784000000001
#
# number of rings (size 3 to 8) (size 9 to 14) (size 15 to 20)
#    0.000    2.444    0.000    2.667   10.889    2.667 
#    0.000    0.000    0.000    0.000    0.000    0.000 
#    0.000    0.000    0.000    6.000    0.000    0.000 
#
# Total GULP energy -100238.388528 kJ/mol
# GULP energy per Si atom -5568.799363 kJ/mol
# Density = 1.713470 g / cm^3
# Si number density = 17.173784 Si / 1000 Ang^3
#
#
#
# Elastic Constant Matrix: (Units=GPa)
#
#
# Indices 1 2 3 4 5 6 
#
# 1 30.8411 27.6473 10.8401 0.0000 19.5674 0.0000
# 2 27.6473 110.9753 29.8204 0.0000 23.1405 0.0000
# 3 10.8401 29.8204 70.7517 0.0000 19.9907 0.0000
# 4 0.0000 0.0000 0.0000 26.8179 0.0000 13.1019
# 5 19.5674 23.1405 19.9907 0.0000 30.5751 0.0000
# 6 0.0000 0.0000 0.0000 13.1019 0.0000 19.5654
#
#
#
# Elastic Compliance Matrix: (Units=1/GPa)
#
#
# Indices 1 2 3 4 5 6 
#
# 1 0.061462 -0.009135 0.004408 0.000000 -0.035303 0.000000
# 2 -0.009135 0.012504 -0.003494 0.000000 -0.001332 0.000000
# 3 0.004408 -0.003494 0.018376 0.000000 -0.012191 0.000000
# 4 0.000000 0.000000 0.000000 0.055420 0.000000 -0.037112
# 5 -0.035303 -0.001332 -0.012191 0.000000 0.064279 0.000000
# 6 0.000000 0.000000 0.000000 -0.037112 0.000000 0.075962
#
#
# Mechanical properties :
#
#
# Convention : Reuss Voigt Hill
#
# Bulk Modulus (GPa) = 13.17525 38.79817 25.98671
# Shear Modulus (GPa) = 15.16325 25.00903 20.08614
#
# Velocity S-wave (km/s) = 2.97464 3.82020 3.42362
# Velocity P-wave (km/s) = 4.41433 6.48838 5.54912
#
# Compressibility (1/GPa) = 0.07589989
#
# Stress axis : x y z
#
# Youngs Moduli (GPa) = 16.27009 79.97709 54.41952
#
# Poissons Ratio (x) = 0.73062 -0.23989
# Poissons Ratio (y) = 0.14863 0.19013
# Poissons Ratio (z) = -0.07172 0.27943
#
# Static dielectric constant tensor:
#      x y z
#    x 1.604110 0.000000 -0.002320 
#    y 0.000000 1.591130 0.000000 
#    z -0.002320 0.000000 1.680690 
# 
# From -- ./inp_files/7382.got.cif
#   From: 2010.05.17/outbox.cif.g08.bks.cpg/sg12_4_cif.got.tgz:7382.got - 2010.06.03 13:09:07.
