data_PCOD9172856
_publ_section_title
;
Structure prediction by ZEFSAII (Michael W. Deem and Ramdas Pophale) SiO2 
 PCOD9172856
Probable space group: C 2/M
;
_chemical_formula_sum "Si O2"
_cell_formula_units_Z 60
_cell_length_a 23.785482
_cell_length_b 9.682379
_cell_length_c 17.626741
_cell_angle_alpha 90.000000
_cell_angle_beta 126.725908
_cell_angle_gamma 90.000000
_cell_volume 3253.662276
_symmetry_space_group_name_H-M "C 2/M"
_symmetry_group_IT_number 12
_symmetry_cell_setting 'monoclinic'
loop_
_space_group_symop_operation_xyz
x,y,z
-x,y,-z
-x,-y,-z
x,-y,z
1/2+x,1/2+y,z
1/2-x,1/2+y,-z
1/2-x,1/2-y,-z
1/2+x,1/2-y,z
loop_
_atom_site_type_symbol
_atom_site_label
_atom_site_fract_x
_atom_site_fract_y
_atom_site_fract_z
Si Si1 0.976941 0.657402 0.702999
Si Si2 0.171154 0.158944 0.763084
Si Si3 0.000000 0.252441 0.000000
Si Si4 0.723920 0.341787 0.235974
Si Si5 0.392307 0.841433 0.786641
Si Si6 0.128189 0.150283 0.009423
Si Si7 0.358074 0.840944 0.119868
Si Si8 0.493621 0.341856 0.409903
O O1 0.959544 0.500000 0.668151
O O2 0.059066 0.659473 0.792539
O O3 0.967977 0.755799 0.624058
O O4 0.932911 0.694249 0.742087
O O5 0.210447 0.244543 0.729509
O O6 0.178882 0.244811 0.847455
O O7 0.088539 0.156054 0.677915
O O8 0.196023 0.000000 0.789133
O O9 0.051681 0.169124 0.985869
O O10 0.947544 0.332874 0.901346
O O11 0.740863 0.500000 0.271030
O O12 0.670288 0.264884 0.248606
O O13 0.681580 0.347850 0.122276
O O14 0.367395 0.000000 0.762287
O O15 0.145659 0.271022 0.965166
O O16 0.131142 0.000000 0.973043
O O17 0.333415 0.000000 0.102029
O O18 0.500000 0.284284 0.500000
O O19 0.519411 0.500000 0.431842
#
# Coordination Sequence:
#
# PCOD9172856 Si02
#       8
#     8   8   4   8   8   8   8   8
#     4   9  18  32  50  79 110 136 169 212 262 309
#     4  10  20  36  56  76 100 134 168 207 259 317
#     4  10  18  30  48  72 102 140 182 228 262 294
#     4  10  22  36  49  71 102 141 181 218 255 300
#     4  10  19  32  51  75 105 141 181 220 258 305
#     4  10  20  32  46  68  99 137 182 223 261 300
#     4  10  19  32  50  73 101 135 173 220 264 304
#     4   9  19  36  59  86 108 128 160 206 263 323
#
# _framework density 18.440757000000001
#
# number of rings (size 3 to 8) (size 9 to 14) (size 15 to 20)
#    0.000    2.267    1.333    1.600    0.000    5.600 
#    0.000    0.000    0.000    0.800    0.000    0.000 
#    0.000    0.000    0.000    0.000    0.000    0.000 
#
# Total GULP energy -167328.115928 kJ/mol
# GULP energy per Si atom -5577.603864 kJ/mol
# Density = 1.839879 g / cm^3
# Si number density = 18.440757 Si / 1000 Ang^3
#
#
#
# Elastic Constant Matrix: (Units=GPa)
#
#
# Indices 1 2 3 4 5 6 
#
# 1 102.7633 64.6756 10.5334 0.0000 -24.3612 0.0000
# 2 64.6756 137.4714 26.0957 0.0000 -25.7904 0.0000
# 3 10.5334 26.0957 34.4248 0.0000 -26.1117 0.0000
# 4 0.0000 0.0000 0.0000 7.1959 0.0000 -9.1039
# 5 -24.3612 -25.7904 -26.1117 0.0000 25.8084 0.0000
# 6 0.0000 0.0000 0.0000 -9.1039 0.0000 25.9298
#
#
#
# Elastic Compliance Matrix: (Units=1/GPa)
#
#
# Indices 1 2 3 4 5 6 
#
# 1 0.024800 -0.008956 0.043721 0.000000 0.058695 0.000000
# 2 -0.008956 0.012187 -0.015791 0.000000 -0.012252 0.000000
# 3 0.043721 -0.015791 0.201979 0.000000 0.229842 0.000000
# 4 0.000000 0.000000 0.000000 0.250030 0.000000 0.087785
# 5 0.058695 -0.012252 0.229842 0.000000 0.314451 0.000000
# 6 0.000000 0.000000 0.000000 0.087785 0.000000 0.069387
#
#
# Mechanical properties :
#
#
# Convention : Reuss Voigt Hill
#
# Bulk Modulus (GPa) = 3.61120 53.02989 28.32055
# Shear Modulus (GPa) = 5.39265 23.34381 14.36823
#
# Velocity S-wave (km/s) = 1.71192 3.56178 2.79436
# Velocity P-wave (km/s) = 2.42282 6.76272 5.07959
#
# Compressibility (1/GPa) = 0.27691602
#
# Stress axis : x y z
#
# Youngs Moduli (GPa) = 40.32211 82.05765 4.95102
#
# Poissons Ratio (x) = 0.73487 -0.21647
# Poissons Ratio (y) = 0.36111 0.07818
# Poissons Ratio (z) = -1.76294 1.29574
#
# Static dielectric constant tensor:
#      x y z
#    x 1.638060 0.000000 0.010480 
#    y 0.000000 1.653110 0.000000 
#    z 0.010480 0.000000 1.614690 
# 
# From -- ./inp_files/288370.got.cif
#   From: 2010.05.17/outbox.cif.g08.bks.cpg/sg12_145_cif.got.tgz:288370.got - 2010.06.03 13:09:07.
