data_PCOD9172964
_publ_section_title
;
Structure prediction by ZEFSAII (Michael W. Deem and Ramdas Pophale) SiO2 
 PCOD9172964
Probable space group: C 2/M
;
_chemical_formula_sum "Si O2"
_cell_formula_units_Z 64
_cell_length_a 23.782914
_cell_length_b 7.408350
_cell_length_c 15.953964
_cell_angle_alpha 90.000000
_cell_angle_beta 86.556215
_cell_angle_gamma 90.000000
_cell_volume 2805.887238
_symmetry_space_group_name_H-M "C 2/M"
_symmetry_group_IT_number 12
_symmetry_cell_setting 'monoclinic'
loop_
_space_group_symop_operation_xyz
x,y,z
-x,y,-z
-x,-y,-z
x,-y,z
1/2+x,1/2+y,z
1/2-x,1/2+y,-z
1/2-x,1/2-y,-z
1/2+x,1/2-y,z
loop_
_atom_site_type_symbol
_atom_site_label
_atom_site_fract_x
_atom_site_fract_y
_atom_site_fract_z
Si Si1 0.538529 0.280411 0.918589
Si Si2 0.338335 0.791103 0.545466
Si Si3 0.772477 0.209442 0.199520
Si Si4 0.464768 0.708607 0.580430
Si Si5 0.845714 0.781918 0.845567
Si Si6 0.662701 0.719695 0.963564
Si Si7 0.283369 0.719447 0.379290
Si Si8 0.467749 0.278867 0.767510
O O1 0.536894 0.500000 0.918812
O O2 0.602216 0.229466 0.931557
O O3 0.513473 0.221715 0.832104
O O4 0.500000 0.221547 0.000000
O O5 0.397879 0.710646 0.567366
O O6 0.326896 0.775938 0.446954
O O7 0.279849 0.717521 0.589778
O O8 0.341651 0.000000 0.569022
O O9 0.705212 0.221172 0.208167
O O10 0.792304 0.285904 0.108567
O O11 0.796290 0.283641 0.284264
O O12 0.789591 0.000000 0.196292
O O13 0.500000 0.789451 0.500000
O O14 0.483071 0.500000 0.584585
O O15 0.475560 0.785514 0.671958
O O16 0.906437 0.723878 0.807374
O O17 0.165666 0.000000 0.968719
O O18 0.833827 0.716442 0.941269
O O19 0.654018 0.500000 0.153753
O O20 0.282306 0.500000 0.379856
O O21 0.467676 0.500000 0.766432
#
# Coordination Sequence:
#
# PCOD9172964 Si02
#       8
#     8   8   8   8   8   8   8   8
#     4   9  14  25  45  69  97 124 159 209 250 282
#     4  10  20  35  56  77  99 132 173 212 255 305
#     4  10  20  32  47  72 104 134 164 198 247 304
#     4  10  21  35  51  75 107 139 171 212 261 308
#     4  10  18  30  49  73 101 131 167 207 245 291
#     4   9  17  28  45  71 101 132 163 203 251 293
#     4   9  19  35  54  76 102 133 168 210 258 310
#     4   9  17  29  49  75  99 129 169 209 251 296
#
# _framework density 22.809184999999999
#
# number of rings (size 3 to 8) (size 9 to 14) (size 15 to 20)
#    0.000    2.500    1.250    1.500    0.000    2.250 
#    0.000    3.750    0.000    0.000    0.000    3.500 
#    0.000    0.000    0.000    0.000    0.000    0.000 
#
# Total GULP energy -178742.204914 kJ/mol
# GULP energy per Si atom -5585.693904 kJ/mol
# Density = 2.275727 g / cm^3
# Si number density = 22.809185 Si / 1000 Ang^3
#
#
#
# Elastic Constant Matrix: (Units=GPa)
#
#
# Indices 1 2 3 4 5 6 
#
# 1 55.6378 -11.0303 24.0760 0.0000 17.2053 0.0000
# 2 -11.0303 74.5592 1.4775 0.0000 -7.8351 0.0000
# 3 24.0760 1.4775 168.8356 0.0000 18.7414 0.0000
# 4 0.0000 0.0000 0.0000 -4.4028 0.0000 3.0842
# 5 17.2053 -7.8351 18.7414 0.0000 28.9411 0.0000
# 6 0.0000 0.0000 0.0000 3.0842 0.0000 11.4548
#
#
#
# Elastic Compliance Matrix: (Units=1/GPa)
#
#
# Indices 1 2 3 4 5 6 
#
# 1 0.022894 0.002193 -0.001981 0.000000 -0.011733 0.000000
# 2 0.002193 0.014067 -0.000769 0.000000 0.003003 0.000000
# 3 -0.001981 -0.000769 0.006577 0.000000 -0.003290 0.000000
# 4 0.000000 0.000000 0.000000 -0.191087 0.000000 0.051451
# 5 -0.011733 0.003003 -0.003290 0.000000 0.044471 0.000000
# 6 0.000000 0.000000 0.000000 0.051451 0.000000 0.073446
#
#
# Mechanical properties :
#
#
# Convention : Reuss Voigt Hill
#
# Bulk Modulus (GPa) = 23.57154 36.45322 30.01238
# Shear Modulus (GPa) = -347.84300 26.16593 -160.83854
#
# Velocity S-wave (km/s) = -12.36254 3.39066 -8.40642
# Velocity P-wave (km/s) = 13.90754 5.59868 9.00207
#
# Compressibility (1/GPa) = 0.04242404
#
# Stress axis : x y z
#
# Youngs Moduli (GPa) = 43.67945 71.08626 152.03672
#
# Poissons Ratio (x) = -0.15591 0.30125
# Poissons Ratio (y) = -0.09580 0.11694
# Poissons Ratio (z) = 0.08655 0.05468
#
# Static dielectric constant tensor:
#      x y z
#    x 1.791540 0.000000 -0.026920 
#    y 0.000000 1.865800 0.000000 
#    z -0.026920 0.000000 1.857920 
# 
# From -- ./inp_files/238576.got.cif
#   From: 2010.05.17/outbox.cif.g08.bks.cpg/sg12_120_cif.got.tgz:238576.got - 2010.06.03 13:09:07.
