data_PCOD9172293
_publ_section_title
;
Structure prediction by ZEFSAII (Michael W. Deem and Ramdas Pophale) SiO2 
 PCOD9172293
Probable space group: C 2/M
;
_chemical_formula_sum "Si O2"
_cell_formula_units_Z 56
_cell_length_a 21.085165
_cell_length_b 8.994043
_cell_length_c 19.346495
_cell_angle_alpha 90.000000
_cell_angle_beta 122.621445
_cell_angle_gamma 90.000000
_cell_volume 3090.122037
_symmetry_space_group_name_H-M "C 2/M"
_symmetry_group_IT_number 12
_symmetry_cell_setting 'monoclinic'
loop_
_space_group_symop_operation_xyz
x,y,z
-x,y,-z
-x,-y,-z
x,-y,z
1/2+x,1/2+y,z
1/2-x,1/2+y,-z
1/2-x,1/2-y,-z
1/2+x,1/2-y,z
loop_
_atom_site_type_symbol
_atom_site_label
_atom_site_fract_x
_atom_site_fract_y
_atom_site_fract_z
Si Si1 0.478621 0.173673 0.067277
Si Si2 0.065817 0.826216 0.235376
Si Si3 0.330237 0.177483 0.062974
Si Si4 0.485006 0.328818 0.414844
Si Si5 0.562445 0.821734 0.747934
Si Si6 0.842528 0.169026 0.524751
Si Si7 0.795273 0.671421 0.632600
O O1 0.531890 0.280441 0.142258
O O2 0.393026 0.208949 0.040468
O O3 0.490837 0.000000 0.095452
O O4 0.500000 0.185769 0.000000
O O5 0.152041 0.774550 0.290829
O O6 0.013389 0.737644 0.259087
O O7 0.059100 0.000000 0.245856
O O8 0.370086 0.222040 0.159375
O O9 0.320189 0.000000 0.059442
O O10 0.250000 0.250000 0.000000
O O11 0.500000 0.263322 0.500000
O O12 0.457909 0.500000 0.407186
O O13 0.435814 0.245419 0.328194
O O14 0.569459 0.332633 0.434840
O O15 0.559918 0.000000 0.743192
O O16 0.822141 0.288663 0.570560
O O17 0.794102 0.197813 0.426918
O O18 0.820684 0.000000 0.534523
O O19 0.809072 0.500000 0.657892
#
# Coordination Sequence:
#
# PCOD9172293 Si02
#       7
#     8   8   8   8   8   8   8
#     4   9  19  37  58  80 108 141 178 221 269 323
#     4  11  20  31  51  78 106 135 172 217 263 315
#     4   9  19  35  57  84 110 139 179 223 272 328
#     4  10  20  34  52  75 104 138 177 222 267 312
#     4  10  20  35  54  77 103 137 183 224 262 314
#     4   9  18  31  47  70  99 130 168 210 255 302
#     4  10  18  29  48  72  99 131 166 209 254 300
#
# _framework density 18.122263
#
# number of rings (size 3 to 8) (size 9 to 14) (size 15 to 20)
#    0.000    2.286    1.429    3.000    0.000    4.000 
#    0.000    1.429    0.000    6.857    0.000    0.000 
#    0.000    0.000    0.000    0.000    0.000    0.000 
#
# Total GULP energy -155958.918192 kJ/mol
# GULP energy per Si atom -5569.961364 kJ/mol
# Density = 1.808102 g / cm^3
# Si number density = 18.122263 Si / 1000 Ang^3
#
#
#
# Elastic Constant Matrix: (Units=GPa)
#
#
# Indices 1 2 3 4 5 6 
#
# 1 34.7183 16.7375 48.0720 0.0000 8.5154 0.0000
# 2 16.7375 54.4247 46.5269 0.0000 6.2556 0.0000
# 3 48.0720 46.5269 128.1512 0.0000 11.7590 0.0000
# 4 0.0000 0.0000 0.0000 30.9306 0.0000 1.6065
# 5 8.5154 6.2556 11.7590 0.0000 33.9124 0.0000
# 6 0.0000 0.0000 0.0000 1.6065 0.0000 18.8730
#
#
#
# Elastic Compliance Matrix: (Units=1/GPa)
#
#
# Indices 1 2 3 4 5 6 
#
# 1 0.061928 0.001596 -0.023091 0.000000 -0.007838 0.000000
# 2 0.001596 0.026770 -0.010151 0.000000 -0.001819 0.000000
# 3 -0.023091 -0.010151 0.020086 0.000000 0.000706 0.000000
# 4 0.000000 0.000000 0.000000 0.032474 0.000000 -0.002764
# 5 -0.007838 -0.001819 0.000706 0.000000 0.031547 0.000000
# 6 0.000000 0.000000 0.000000 -0.002764 0.000000 0.053221
#
#
# Mechanical properties :
#
#
# Convention : Reuss Voigt Hill
#
# Bulk Modulus (GPa) = 21.98167 48.88522 35.43344
# Shear Modulus (GPa) = 16.42134 23.80707 20.11420
#
# Velocity S-wave (km/s) = 3.01348 3.62842 3.33516
# Velocity P-wave (km/s) = 4.92586 6.67740 5.86736
#
# Compressibility (1/GPa) = 0.04549245
#
# Stress axis : x y z
#
# Youngs Moduli (GPa) = 16.14769 37.35491 49.78672
#
# Poissons Ratio (x) = -0.05961 1.14961
# Poissons Ratio (y) = -0.02577 0.50538
# Poissons Ratio (z) = 0.37286 0.37919
#
# Static dielectric constant tensor:
#      x y z
#    x 1.629690 0.000000 0.011800 
#    y 0.000000 1.626060 0.000000 
#    z 0.011800 0.000000 1.676090 
# 
# From -- ./inp_files/288451.got.cif
#   From: 2010.05.17/outbox.cif.g08.bks.cpg/sg12_145_cif.got.tgz:288451.got - 2010.06.03 13:09:07.
