data_PCOD9172528
_publ_section_title
;
Structure prediction by ZEFSAII (Michael W. Deem and Ramdas Pophale) SiO2 
 PCOD9172528
Probable space group: C 2/M
;
_chemical_formula_sum "Si O2"
_cell_formula_units_Z 64
_cell_length_a 11.930900
_cell_length_b 14.315348
_cell_length_c 28.103054
_cell_angle_alpha 90.000000
_cell_angle_beta 141.597716
_cell_angle_gamma 90.000000
_cell_volume 2981.572767
_symmetry_space_group_name_H-M "C 2/M"
_symmetry_group_IT_number 12
_symmetry_cell_setting 'monoclinic'
loop_
_space_group_symop_operation_xyz
x,y,z
-x,y,-z
-x,-y,-z
x,-y,z
1/2+x,1/2+y,z
1/2-x,1/2+y,-z
1/2-x,1/2-y,-z
1/2+x,1/2-y,z
loop_
_atom_site_type_symbol
_atom_site_label
_atom_site_fract_x
_atom_site_fract_y
_atom_site_fract_z
Si Si1 0.673746 0.886681 0.589175
Si Si2 0.077980 0.891565 0.853504
Si Si3 0.764641 0.297984 0.827571
Si Si4 0.029805 0.613300 0.388482
Si Si5 0.560526 0.613560 0.674913
Si Si6 0.436762 0.386100 0.531331
Si Si7 0.597651 0.892725 0.980832
Si Si8 0.805742 0.393443 0.227100
O O1 0.500000 0.861552 0.500000
O O2 0.620961 0.854653 0.624367
O O3 0.864468 0.858434 0.631055
O O4 0.682061 0.000000 0.592029
O O5 0.135399 0.844340 0.823881
O O6 0.869241 0.889056 0.796827
O O7 0.128339 0.000000 0.864380
O O8 0.201833 0.858554 0.939073
O O9 0.705518 0.334605 0.755939
O O10 0.733220 0.187864 0.822510
O O11 0.968190 0.330444 0.905589
O O12 0.030723 0.500000 0.391985
O O13 0.229397 0.644732 0.468537
O O14 0.975908 0.632770 0.316488
O O15 0.580669 0.500000 0.685802
O O16 0.553156 0.638604 0.616533
O O17 0.500000 0.356148 0.500000
O O18 0.435749 0.500000 0.530615
O O19 0.602586 0.000000 0.964630
O O20 0.500000 0.893552 0.000000
O O21 0.823435 0.500000 0.215714
#
# Coordination Sequence:
#
# PCOD9172528 Si02
#       8
#     8   8   8   8   8   8   8   8
#     4   9  14  24  49  79 103 131 174 234 294 343
#     4   9  18  37  63  89 117 151 187 228 287 353
#     4  11  20  33  56  86 118 146 188 241 290 336
#     4   9  16  30  50  71  99 142 192 231 280 342
#     4  10  18  29  50  83 115 142 184 243 302 343
#     4   9  17  30  48  70 103 154 197 224 276 354
#     4   8  15  30  57  90 120 148 180 225 288 353
#     4  10  22  38  56  79 111 156 200 235 280 344
#
# _framework density 21.465181000000001
#
# number of rings (size 3 to 8) (size 9 to 14) (size 15 to 20)
#    0.000    2.625    1.250    2.625    0.000    2.500 
#    2.250    0.625    0.000    4.875    0.000    0.000 
#    0.000    0.000    0.000    0.000    0.000    0.000 
#
# Total GULP energy -178609.713112 kJ/mol
# GULP energy per Si atom -5581.553535 kJ/mol
# Density = 2.141632 g / cm^3
# Si number density = 21.465181 Si / 1000 Ang^3
#
#
#
# Elastic Constant Matrix: (Units=GPa)
#
#
# Indices 1 2 3 4 5 6 
#
# 1 45.3551 10.8772 8.3786 0.0000 -14.5328 0.0000
# 2 10.8772 89.1694 37.6889 0.0000 -8.9203 0.0000
# 3 8.3786 37.6889 126.7558 0.0000 -14.6056 0.0000
# 4 0.0000 0.0000 0.0000 -7.8297 0.0000 -0.4705
# 5 -14.5328 -8.9203 -14.6056 0.0000 13.6339 0.0000
# 6 0.0000 0.0000 0.0000 -0.4705 0.0000 6.7803
#
#
#
# Elastic Compliance Matrix: (Units=1/GPa)
#
#
# Indices 1 2 3 4 5 6 
#
# 1 0.034170 -0.001430 0.002573 0.000000 0.038244 0.000000
# 2 -0.001430 0.013181 -0.003430 0.000000 0.003426 0.000000
# 3 0.002573 -0.003430 0.010035 0.000000 0.011249 0.000000
# 4 0.000000 0.000000 0.000000 -0.127188 0.000000 -0.008826
# 5 0.038244 0.003426 0.011249 0.000000 0.128405 0.000000
# 6 0.000000 0.000000 0.000000 -0.008826 0.000000 0.146873
#
#
# Mechanical properties :
#
#
# Convention : Reuss Voigt Hill
#
# Bulk Modulus (GPa) = 18.93464 41.68552 30.31008
# Shear Modulus (GPa) = 21.96307 16.13927 19.05117
#
# Velocity S-wave (km/s) = 3.20221 2.74502 2.98239
# Velocity P-wave (km/s) = 4.74473 5.43223 5.10008
#
# Compressibility (1/GPa) = 0.05281325
#
# Stress axis : x y z
#
# Youngs Moduli (GPa) = 29.26532 75.86390 99.64949
#
# Poissons Ratio (x) = 0.10848 -0.25642
# Poissons Ratio (y) = 0.04185 0.34181
# Poissons Ratio (z) = -0.07531 0.26022
#
# Static dielectric constant tensor:
#      x y z
#    x 1.766050 0.000000 -0.002380 
#    y 0.000000 1.832040 0.000000 
#    z -0.002380 0.000000 1.806070 
# 
# From -- ./inp_files/358461.got.cif
#   From: 2010.05.17/outbox.cif.g08.bks.cpg/sg12_180_cif.got.tgz:358461.got - 2010.06.03 13:09:07.
