data_PCOD9172900
_publ_section_title
;
Structure prediction by ZEFSAII (Michael W. Deem and Ramdas Pophale) SiO2 
 PCOD9172900
Probable space group: C 2/M
;
_chemical_formula_sum "Si O2"
_cell_formula_units_Z 64
_cell_length_a 17.193844
_cell_length_b 14.038147
_cell_length_c 16.489049
_cell_angle_alpha 90.000000
_cell_angle_beta 94.483107
_cell_angle_gamma 90.000000
_cell_volume 3967.779984
_symmetry_space_group_name_H-M "C 2/M"
_symmetry_group_IT_number 12
_symmetry_cell_setting 'monoclinic'
loop_
_space_group_symop_operation_xyz
x,y,z
-x,y,-z
-x,-y,-z
x,-y,z
1/2+x,1/2+y,z
1/2-x,1/2+y,-z
1/2-x,1/2-y,-z
1/2+x,1/2-y,z
loop_
_atom_site_type_symbol
_atom_site_label
_atom_site_fract_x
_atom_site_fract_y
_atom_site_fract_z
Si Si1 0.140502 0.260800 0.828564
Si Si2 0.414594 0.294432 0.997867
Si Si3 0.252784 0.387766 0.240649
Si Si4 0.239804 0.891066 0.074126
Si Si5 0.040166 0.384308 0.703415
Si Si6 0.865401 0.615967 0.632418
Si Si7 0.353358 0.107370 0.927633
Si Si8 0.909008 0.390407 0.465218
O O1 0.107996 0.220643 0.910378
O O2 0.173236 0.176252 0.775425
O O3 0.214925 0.325117 0.859200
O O4 0.077183 0.327802 0.780563
O O5 0.500000 0.337519 0.000000
O O6 0.346494 0.354760 0.950788
O O7 0.412846 0.191606 0.952476
O O8 0.272511 0.500000 0.249271
O O9 0.206336 0.355470 0.316997
O O10 0.191421 0.380264 0.160760
O O11 0.240695 0.000000 0.100733
O O12 0.288320 0.884855 0.993558
O O13 0.045758 0.500000 0.712622
O O14 0.087808 0.353397 0.626041
O O15 0.949072 0.361111 0.680161
O O16 0.864599 0.500000 0.628563
O O17 0.865208 0.652535 0.539480
O O18 0.386483 0.000000 0.932805
O O19 0.882703 0.500000 0.455877
O O20 0.000000 0.392664 0.500000
#
# Coordination Sequence:
#
# PCOD9172900 Si02
#       8
#     8   8   8   8   8   8   8   8
#     4  11  20  32  47  67  92 118 148 189 228 267
#     4  11  22  33  46  65  88 115 152 191 227 267
#     4  10  18  30  49  66  87 120 152 184 222 264
#     4  10  19  35  50  61  84 119 155 183 222 272
#     4   9  17  28  46  73  98 119 144 178 222 266
#     4   8  15  27  47  71  93 119 148 180 219 266
#     4   9  17  32  49  63  85 115 143 180 229 271
#     4   7  11  24  43  65  96 124 142 168 214 268
#
# _framework density 16.129926999999999
#
# number of rings (size 3 to 8) (size 9 to 14) (size 15 to 20)
#    0.000    2.625    2.500    2.625    1.750    1.000 
#    0.000    0.625    0.000    0.000    0.000    0.000 
#    0.000    4.500    0.000    0.000    0.000    1.500 
#
# Total GULP energy -178196.139203 kJ/mol
# GULP energy per Si atom -5568.629350 kJ/mol
# Density = 1.609321 g / cm^3
# Si number density = 16.129927 Si / 1000 Ang^3
#
#
#
# Elastic Constant Matrix: (Units=GPa)
#
#
# Indices 1 2 3 4 5 6 
#
# 1 42.1710 13.9046 -0.0269 0.0000 -0.0672 0.0000
# 2 13.9046 36.0074 11.6537 0.0000 -9.1451 0.0000
# 3 -0.0269 11.6537 17.4269 0.0000 -7.3866 0.0000
# 4 0.0000 0.0000 0.0000 9.4614 0.0000 5.7299
# 5 -0.0672 -9.1451 -7.3866 0.0000 17.2982 0.0000
# 6 0.0000 0.0000 0.0000 5.7299 0.0000 13.9565
#
#
#
# Elastic Compliance Matrix: (Units=1/GPa)
#
#
# Indices 1 2 3 4 5 6 
#
# 1 0.028566 -0.014724 0.008105 0.000000 -0.004212 0.000000
# 2 -0.014724 0.044673 -0.024310 0.000000 0.013180 0.000000
# 3 0.008105 -0.024310 0.083293 0.000000 0.022747 0.000000
# 4 0.000000 0.000000 0.000000 0.140666 0.000000 -0.057750
# 5 -0.004212 0.013180 0.022747 0.000000 0.074474 0.000000
# 6 0.000000 0.000000 0.000000 -0.057750 0.000000 0.095361
#
#
# Mechanical properties :
#
#
# Convention : Reuss Voigt Hill
#
# Bulk Modulus (GPa) = 10.56257 16.29646 13.42951
# Shear Modulus (GPa) = 8.92141 12.81483 10.86812
#
# Velocity S-wave (km/s) = 2.35435 2.82170 2.59855
# Velocity P-wave (km/s) = 3.73541 4.55425 4.16500
#
# Compressibility (1/GPa) = 0.09467392
#
# Stress axis : x y z
#
# Youngs Moduli (GPa) = 35.00629 22.38483 12.00580
#
# Poissons Ratio (x) = 0.32960 -0.09731
# Poissons Ratio (y) = 0.51544 0.29186
# Poissons Ratio (z) = -0.28372 0.54418
#
# Static dielectric constant tensor:
#      x y z
#    x 1.532100 0.000000 -0.025250 
#    y 0.000000 1.544560 0.000000 
#    z -0.025250 0.000000 1.566290 
# 
# From -- ./inp_files/269885.got.cif
#   From: 2010.05.17/outbox.cif.g08.bks.cpg/sg12_135_cif.got.tgz:269885.got - 2010.06.03 13:09:07.
