data_PCOD9172243
_publ_section_title
;
Structure prediction by ZEFSAII (Michael W. Deem and Ramdas Pophale) SiO2 
 PCOD9172243
Probable space group: C 2/M
;
_chemical_formula_sum "Si O2"
_cell_formula_units_Z 56
_cell_length_a 27.582426
_cell_length_b 8.762547
_cell_length_c 13.553842
_cell_angle_alpha 90.000000
_cell_angle_beta 60.446395
_cell_angle_gamma 90.000000
_cell_volume 2849.652357
_symmetry_space_group_name_H-M "C 2/M"
_symmetry_group_IT_number 12
_symmetry_cell_setting 'monoclinic'
loop_
_space_group_symop_operation_xyz
x,y,z
-x,y,-z
-x,-y,-z
x,-y,z
1/2+x,1/2+y,z
1/2-x,1/2+y,-z
1/2-x,1/2-y,-z
1/2+x,1/2-y,z
loop_
_atom_site_type_symbol
_atom_site_label
_atom_site_fract_x
_atom_site_fract_y
_atom_site_fract_z
Si Si1 0.811907 0.320811 0.028636
Si Si2 0.282938 0.181615 0.374661
Si Si3 0.118375 0.316666 0.236266
Si Si4 0.093846 0.818588 0.742107
Si Si5 0.483345 0.317489 0.763672
Si Si6 0.721416 0.818217 0.246691
Si Si7 0.911040 0.820544 0.029844
O O1 0.798522 0.500000 0.037188
O O2 0.758433 0.224689 0.113682
O O3 0.857726 0.285877 0.066691
O O4 0.844713 0.273621 0.897075
O O5 0.250000 0.250000 0.500000
O O6 0.346585 0.238834 0.318074
O O7 0.251169 0.239521 0.308713
O O8 0.281922 0.000000 0.377373
O O9 0.114179 0.500000 0.240951
O O10 0.057204 0.249921 0.278973
O O11 0.157538 0.270438 0.288575
O O12 0.069395 0.802412 0.877828
O O13 0.046989 0.763199 0.712105
O O14 0.102483 0.000000 0.717919
O O15 0.484529 0.500000 0.751227
O O16 0.453724 0.285613 0.899166
O O17 0.722766 0.000000 0.258736
O O18 0.894675 0.000000 0.035117
#
# Coordination Sequence:
#
# PCOD9172243 Si02
#       7
#     8   8   8   8   8   8   8
#     4  10  18  29  47  77 113 149 191 230 270 323
#     4  12  26  43  63  86 109 138 182 236 291 339
#     4   9  20  34  50  77 116 155 189 226 270 324
#     4  10  19  34  56  81 113 148 185 229 278 330
#     4   9  18  31  51  81 115 154 192 223 262 323
#     4  11  21  36  56  78 109 149 187 230 283 332
#     4   9  16  28  48  75 112 153 189 223 267 324
#
# _framework density 19.651520000000001
#
# number of rings (size 3 to 8) (size 9 to 14) (size 15 to 20)
#    0.000    2.000    1.429    3.000    0.000    4.000 
#    0.000    0.000    0.000    5.143    0.000    6.000 
#    0.000    0.000    0.000    0.000    0.000    0.000 
#
# Total GULP energy -156188.895521 kJ/mol
# GULP energy per Si atom -5578.174840 kJ/mol
# Density = 1.960679 g / cm^3
# Si number density = 19.651520 Si / 1000 Ang^3
#
#
#
# Elastic Constant Matrix: (Units=GPa)
#
#
# Indices 1 2 3 4 5 6 
#
# 1 201.4565 58.8365 33.8593 0.0000 -20.3457 0.0000
# 2 58.8365 57.7902 18.8483 0.0000 -5.7637 0.0000
# 3 33.8593 18.8483 33.4010 0.0000 -4.2643 0.0000
# 4 0.0000 0.0000 0.0000 21.2466 0.0000 -1.5114
# 5 -20.3457 -5.7637 -4.2643 0.0000 12.3575 0.0000
# 6 0.0000 0.0000 0.0000 -1.5114 0.0000 26.7189
#
#
#
# Elastic Compliance Matrix: (Units=1/GPa)
#
#
# Indices 1 2 3 4 5 6 
#
# 1 0.008430 -0.006419 -0.003697 0.000000 0.009611 0.000000
# 2 -0.006419 0.026532 -0.008614 0.000000 -0.001166 0.000000
# 3 -0.003697 -0.008614 0.038975 0.000000 0.003345 0.000000
# 4 0.000000 0.000000 0.000000 0.047256 0.000000 0.002673
# 5 0.009611 -0.001166 0.003345 0.000000 0.097356 0.000000
# 6 0.000000 0.000000 0.000000 0.002673 0.000000 0.037578
#
#
# Mechanical properties :
#
#
# Convention : Reuss Voigt Hill
#
# Bulk Modulus (GPa) = 27.41400 57.30401 42.35900
# Shear Modulus (GPa) = 16.35336 24.13817 20.24576
#
# Velocity S-wave (km/s) = 2.88786 3.50853 3.21322
# Velocity P-wave (km/s) = 5.00999 6.75547 5.94712
#
# Compressibility (1/GPa) = 0.03647771
#
# Stress axis : x y z
#
# Youngs Moduli (GPa) = 118.61733 37.69001 25.65747
#
# Poissons Ratio (x) = 0.24192 0.09486
# Poissons Ratio (y) = 0.76138 0.22102
# Poissons Ratio (z) = 0.43853 0.32467
#
# Static dielectric constant tensor:
#      x y z
#    x 1.756790 0.000000 0.008710 
#    y 0.000000 1.656710 0.000000 
#    z 0.008710 0.000000 1.703420 
# 
# From -- ./inp_files/248900.got.cif
#   From: 2010.05.17/outbox.cif.g08.bks.cpg/sg12_125_cif.got.tgz:248900.got - 2010.06.03 13:09:07.
