data_PCOD9172130
_publ_section_title
;
Structure prediction by ZEFSAII (Michael W. Deem and Ramdas Pophale) SiO2 
 PCOD9172130
Probable space group: C 2/M
;
_chemical_formula_sum "Si O2"
_cell_formula_units_Z 48
_cell_length_a 24.151477
_cell_length_b 13.354789
_cell_length_c 28.425820
_cell_angle_alpha 90.000000
_cell_angle_beta 20.948864
_cell_angle_gamma 90.000000
_cell_volume 3278.021498
_symmetry_space_group_name_H-M "C 2/M"
_symmetry_group_IT_number 12
_symmetry_cell_setting 'monoclinic'
loop_
_space_group_symop_operation_xyz
x,y,z
-x,y,-z
-x,-y,-z
x,-y,z
1/2+x,1/2+y,z
1/2-x,1/2+y,-z
1/2-x,1/2-y,-z
1/2+x,1/2-y,z
loop_
_atom_site_type_symbol
_atom_site_label
_atom_site_fract_x
_atom_site_fract_y
_atom_site_fract_z
Si Si1 0.870465 0.884985 0.878698
Si Si2 0.019552 0.690976 0.158888
Si Si3 0.748640 0.619497 0.184583
Si Si4 0.017419 0.193268 0.665717
Si Si5 0.363774 0.883765 0.377460
Si Si6 0.440555 0.119315 0.122706
O O1 0.946515 0.805814 0.854102
O O2 0.940863 0.860941 0.771619
O O3 0.897375 0.000000 0.869658
O O4 0.687268 0.862338 0.022538
O O5 0.937030 0.676475 0.174586
O O6 0.926266 0.641901 0.275865
O O7 0.716103 0.500000 0.208721
O O8 0.601537 0.678946 0.282421
O O9 0.808717 0.644273 0.189169
O O10 0.894918 0.637093 0.033856
O O11 0.182357 0.143037 0.524246
O O12 0.049780 0.307462 0.655726
O O13 0.389383 0.000000 0.367838
O O14 0.432027 0.000000 0.138707
#
# Coordination Sequence:
#
# PCOD9172130 Si02
#       6
#     8   8   8   8   8   8
#     4  10  18  29  47  66  87 119 154 185 219 266
#     4  10  19  29  44  68  93 117 145 186 233 264
#     4   9  16  27  46  67  87 117 153 186 218 262
#     4  10  19  31  48  68  90 122 155 181 218 269
#     4  10  20  31  45  68  97 121 144 184 231 268
#     4   9  16  27  45  67  90 116 148 187 226 262
#
# _framework density 14.642979
#
# number of rings (size 3 to 8) (size 9 to 14) (size 15 to 20)
#    0.000    2.333    1.667    4.000    0.000    0.000 
#    0.000    0.833    0.000    4.000    0.000    2.333 
#    0.000    8.000    0.000    0.000    0.000    0.000 
#
# Total GULP energy -133806.295017 kJ/mol
# GULP energy per Si atom -5575.262292 kJ/mol
# Density = 1.460965 g / cm^3
# Si number density = 14.642979 Si / 1000 Ang^3
#
#
#
# Elastic Constant Matrix: (Units=GPa)
#
#
# Indices 1 2 3 4 5 6 
#
# 1 118.3738 51.6410 49.1310 -0.0014 -16.4020 0.0001
# 2 51.6410 109.8003 37.5904 -0.0056 -6.8307 -0.0002
# 3 49.1310 37.5904 90.7008 -0.0031 2.6899 0.0007
# 4 -0.0014 -0.0056 -0.0031 3.6905 0.0006 -4.2934
# 5 -16.4020 -6.8307 2.6899 0.0006 25.6517 -0.0001
# 6 0.0001 -0.0002 0.0007 -4.2934 -0.0001 13.1136
#
#
#
# Elastic Compliance Matrix: (Units=1/GPa)
#
#
# Indices 1 2 3 4 5 6 
#
# 1 0.013875 -0.003891 -0.006155 -0.000011 0.008481 -0.000003
# 2 -0.003891 0.011990 -0.002891 0.000023 0.001008 0.000008
# 3 -0.006155 -0.002891 0.015746 0.000011 -0.006357 0.000003
# 4 -0.000011 0.000023 0.000011 0.437660 -0.000011 0.143289
# 5 0.008481 0.001008 -0.006357 -0.000011 0.045342 -0.000003
# 6 -0.000003 0.000008 0.000003 0.143289 -0.000003 0.123169
#
#
# Mechanical properties :
#
#
# Convention : Reuss Voigt Hill
#
# Bulk Modulus (GPa) = 63.54554 66.17776 64.86165
# Shear Modulus (GPa) = 7.36484 20.52534 13.94509
#
# Velocity S-wave (km/s) = 2.24511 3.74802 3.08935
# Velocity P-wave (km/s) = 7.08601 8.00140 7.55758
#
# Compressibility (1/GPa) = 0.01573675
#
# Stress axis : x y z
#
# Youngs Moduli (GPa) = 72.07249 83.40271 63.50801
#
# Poissons Ratio (x) = 0.32451 0.39088
# Poissons Ratio (y) = 0.28043 0.18363
# Poissons Ratio (z) = 0.44359 0.24115
#
# Static dielectric constant tensor:
#      x y z
#    x 1.477100 0.000000 0.002390 
#    y 0.000000 1.474320 0.000000 
#    z 0.002390 0.000000 1.482660 
# 
# From -- ./inp_files/94984.got.cif
#   From: 2010.05.17/outbox.cif.g08.bks.cpg/sg12_48_cif.got.tgz:94984.got - 2010.06.03 13:09:07.
