data_PCOD9172561
_publ_section_title
;
Structure prediction by ZEFSAII (Michael W. Deem and Ramdas Pophale) SiO2 
 PCOD9172561
Probable space group: C 2/M
;
_chemical_formula_sum "Si O2"
_cell_formula_units_Z 64
_cell_length_a 26.970391
_cell_length_b 16.214348
_cell_length_c 18.729891
_cell_angle_alpha 90.000000
_cell_angle_beta 21.536562
_cell_angle_gamma 90.000000
_cell_volume 3006.770676
_symmetry_space_group_name_H-M "C 2/M"
_symmetry_group_IT_number 12
_symmetry_cell_setting 'monoclinic'
loop_
_space_group_symop_operation_xyz
x,y,z
-x,y,-z
-x,-y,-z
x,-y,z
1/2+x,1/2+y,z
1/2-x,1/2+y,-z
1/2-x,1/2-y,-z
1/2+x,1/2-y,z
loop_
_atom_site_type_symbol
_atom_site_label
_atom_site_fract_x
_atom_site_fract_y
_atom_site_fract_z
Si Si1 0.189677 0.179642 0.365257
Si Si2 0.327355 0.800084 0.957375
Si Si3 0.529619 0.318544 0.118095
Si Si4 0.976714 0.651346 0.950007
Si Si5 0.689118 0.146670 0.283700
Si Si6 0.927919 0.907378 0.672802
Si Si7 0.438307 0.907779 0.691151
Si Si8 0.254736 0.331567 0.542263
O O1 0.173299 0.263607 0.341936
O O2 0.231143 0.191181 0.392667
O O3 0.045871 0.134552 0.561048
O O4 0.316706 0.133160 0.156237
O O5 0.206924 0.854060 0.151859
O O6 0.250000 0.750000 0.000000
O O7 0.409606 0.741257 0.900405
O O8 0.424649 0.861429 0.783911
O O9 0.509845 0.250475 0.081705
O O10 0.398043 0.365880 0.322297
O O11 0.654113 0.374740 0.928360
O O12 0.110591 0.621149 0.728215
O O13 0.000000 0.626990 0.000000
O O14 0.635583 0.142326 0.273903
O O15 0.591931 0.089867 0.459537
O O16 0.000000 0.910997 0.500000
O O17 0.897452 0.000000 0.738443
O O18 0.381774 0.000000 0.769788
O O19 0.250000 0.250000 0.500000
#
# Coordination Sequence:
#
# PCOD9172561 Si02
#       8
#     8   8   8   8   8   8   8   8
#     4  10  19  32  56  81 106 152 195 233 293 348
#     4  12  22  35  56  82 115 152 195 237 274 345
#     4  10  18  29  51  82 105 145 187 228 290 331
#     4   8  16  30  49  76 110 134 169 241 299 333
#     4  10  19  32  52  77 107 144 197 226 266 339
#     4  11  24  38  54  82 123 161 195 239 288 350
#     4  11  23  36  50  76 116 156 187 229 277 325
#     4   9  17  31  51  82 115 134 179 254 310 330
#
# _framework density 21.285295999999999
#
# number of rings (size 3 to 8) (size 9 to 14) (size 15 to 20)
#    0.000    1.875    1.250    4.875    3.500    0.000 
#    0.000    0.000    0.000    3.375    0.000   15.750 
#    0.000  340.000    0.000    0.000    0.000    0.000 
#
# Total GULP energy -178219.481636 kJ/mol
# GULP energy per Si atom -5569.358801 kJ/mol
# Density = 2.123685 g / cm^3
# Si number density = 21.285296 Si / 1000 Ang^3
#
#
#
# Elastic Constant Matrix: (Units=GPa)
#
#
# Indices 1 2 3 4 5 6 
#
# 1 64.3428 11.6101 -5.6969 -0.0001 -0.4019 0.0000
# 2 11.6101 35.3000 -0.2597 -0.0001 0.8480 0.0000
# 3 -5.6969 -0.2597 161.2793 -0.0003 3.0771 0.0001
# 4 -0.0001 -0.0001 -0.0003 -20.9877 0.0001 6.1782
# 5 -0.4019 0.8480 3.0771 0.0001 27.8934 0.0000
# 6 0.0000 0.0000 0.0001 6.1782 0.0000 -0.1951
#
#
#
# Elastic Compliance Matrix: (Units=1/GPa)
#
#
# Indices 1 2 3 4 5 6 
#
# 1 0.016579 -0.005457 0.000570 0.000000 0.000342 0.000000
# 2 -0.005457 0.030146 -0.000125 0.000000 -0.000981 0.000000
# 3 0.000570 -0.000125 0.006233 0.000000 -0.000676 0.000000
# 4 0.000000 0.000000 0.000000 0.005725 0.000000 0.181308
# 5 0.000342 -0.000981 -0.000676 0.000000 0.035960 0.000000
# 6 0.000000 0.000000 0.000000 0.181308 0.000000 0.615915
#
#
# Mechanical properties :
#
#
# Convention : Reuss Voigt Hill
#
# Bulk Modulus (GPa) = 23.29141 30.24767 26.76954
# Shear Modulus (GPa) = 6.80370 18.36004 12.58187
#
# Velocity S-wave (km/s) = 1.78980 2.94014 2.43391
# Velocity P-wave (km/s) = 3.90351 5.07615 4.52795
#
# Compressibility (1/GPa) = 0.04293429
#
# Stress axis : x y z
#
# Youngs Moduli (GPa) = 60.31723 33.17194 160.42979
#
# Poissons Ratio (x) = 0.18101 -0.09149
# Poissons Ratio (y) = 0.32914 0.02013
# Poissons Ratio (z) = -0.03440 0.00416
#
# Static dielectric constant tensor:
#      x y z
#    x 1.819520 0.000000 -0.036860 
#    y 0.000000 1.754200 0.000000 
#    z -0.036860 0.000000 1.888580 
# 
# From -- ./inp_files/330339.got.cif
#   From: 2010.05.17/outbox.cif.g08.bks.cpg/sg12_166_cif.got.tgz:330339.got - 2010.06.03 13:09:07.
