data_PCOD9172924
_publ_section_title
;
Structure prediction by ZEFSAII (Michael W. Deem and Ramdas Pophale) SiO2 
 PCOD9172924
Probable space group: C 2/M
;
_chemical_formula_sum "Si O2"
_cell_formula_units_Z 48
_cell_length_a 15.868727
_cell_length_b 7.976260
_cell_length_c 21.466309
_cell_angle_alpha 90.000000
_cell_angle_beta 137.587114
_cell_angle_gamma 90.000000
_cell_volume 1832.569303
_symmetry_space_group_name_H-M "C 2/M"
_symmetry_group_IT_number 12
_symmetry_cell_setting 'monoclinic'
loop_
_space_group_symop_operation_xyz
x,y,z
-x,y,-z
-x,-y,-z
x,-y,z
1/2+x,1/2+y,z
1/2-x,1/2+y,-z
1/2-x,1/2-y,-z
1/2+x,1/2-y,z
loop_
_atom_site_type_symbol
_atom_site_label
_atom_site_fract_x
_atom_site_fract_y
_atom_site_fract_z
Si Si1 0.213503 0.203187 0.892114
Si Si2 0.444017 0.695342 0.721711
Si Si3 0.831483 0.194668 0.398663
Si Si4 0.393598 0.803635 0.564821
Si Si5 0.480090 0.300790 0.060601
Si Si6 0.754217 0.699120 0.773810
O O1 0.335565 0.262298 0.995903
O O2 0.235234 0.267145 0.832788
O O3 0.069904 0.252956 0.824859
O O4 0.215397 0.000000 0.894134
O O5 0.421827 0.500000 0.724766
O O6 0.316123 0.792039 0.664031
O O7 0.467582 0.707388 0.659543
O O8 0.906287 0.266789 0.498234
O O9 0.828525 0.272137 0.327569
O O10 0.863565 0.000000 0.411637
O O11 0.250000 0.750000 0.500000
O O12 0.408609 0.000000 0.583664
O O13 0.505666 0.500000 0.929418
O O14 0.598960 0.226322 0.160632
O O15 0.500000 0.239126 0.000000
O O16 0.732402 0.500000 0.764274
#
# Coordination Sequence:
#
# PCOD9172924 Si02
#       6
#     8   8   8   8   8   8
#     4   9  18  33  52  72  95 126 162 197 234 280
#     4  10  19  32  51  73  97 125 159 198 238 281
#     4  10  19  32  51  73  97 125 159 198 238 281
#     4  10  18  30  49  70  95 127 161 195 233 282
#     4   9  17  29  48  73  98 125 157 195 238 283
#     4   9  18  33  52  72  95 126 162 197 234 280
#
# _framework density 26.192734999999999
#
# number of rings (size 3 to 8) (size 9 to 14) (size 15 to 20)
#    0.000    2.500    0.000    5.000    0.000    4.667 
#    0.000    1.667    0.000    5.000    0.000    0.000 
#    0.000    0.000    0.000    0.000    0.000    0.000 
#
# Total GULP energy -134221.253684 kJ/mol
# GULP energy per Si atom -5592.552237 kJ/mol
# Density = 2.613312 g / cm^3
# Si number density = 26.192735 Si / 1000 Ang^3
#
#
#
# Elastic Constant Matrix: (Units=GPa)
#
#
# Indices 1 2 3 4 5 6 
#
# 1 80.5146 -8.0132 19.2819 0.0000 6.1217 0.0000
# 2 -8.0132 56.8385 3.4179 0.0000 6.8833 0.0000
# 3 19.2819 3.4179 213.6140 0.0000 15.0320 0.0000
# 4 0.0000 0.0000 0.0000 20.8292 0.0000 9.3128
# 5 6.1217 6.8833 15.0320 0.0000 49.8217 0.0000
# 6 0.0000 0.0000 0.0000 9.3128 0.0000 8.0551
#
#
#
# Elastic Compliance Matrix: (Units=1/GPa)
#
#
# Indices 1 2 3 4 5 6 
#
# 1 0.013009 0.002088 -0.001098 0.000000 -0.001556 0.000000
# 2 0.002088 0.018231 -0.000291 0.000000 -0.002688 0.000000
# 3 -0.001098 -0.000291 0.004876 0.000000 -0.001296 0.000000
# 4 0.000000 0.000000 0.000000 0.099382 0.000000 -0.114901
# 5 -0.001556 -0.002688 -0.001296 0.000000 0.021025 0.000000
# 6 0.000000 0.000000 0.000000 -0.114901 0.000000 0.256989
#
#
# Mechanical properties :
#
#
# Convention : Reuss Voigt Hill
#
# Bulk Modulus (GPa) = 26.65597 42.26007 34.45802
# Shear Modulus (GPa) = 11.77524 38.15988 24.96756
#
# Velocity S-wave (km/s) = 2.12259 3.82106 3.09078
# Velocity P-wave (km/s) = 4.02568 5.96964 5.09130
#
# Compressibility (1/GPa) = 0.03751505
#
# Stress axis : x y z
#
# Youngs Moduli (GPa) = 76.86839 54.85122 205.07199
#
# Poissons Ratio (x) = -0.11456 0.22522
# Poissons Ratio (y) = -0.16054 0.05970
# Poissons Ratio (z) = 0.08442 0.01597
#
# Static dielectric constant tensor:
#      x y z
#    x 3.913950 0.000000 0.589510 
#    y 0.000000 1.909450 0.000000 
#    z 0.589510 0.000000 2.347730 
# 
# From -- ./inp_files/342052.got.cif
#   From: 2010.05.17/outbox.cif.g08.bks.cpg/sg12_172_cif.got.tgz:342052.got - 2010.06.03 13:09:07.
