data_PCOD9172984
_publ_section_title
;
Structure prediction by ZEFSAII (Michael W. Deem and Ramdas Pophale) SiO2 
 PCOD9172984
Probable space group: C 2/M
;
_chemical_formula_sum "Si O2"
_cell_formula_units_Z 64
_cell_length_a 20.805663
_cell_length_b 8.106595
_cell_length_c 28.003575
_cell_angle_alpha 90.000000
_cell_angle_beta 131.231062
_cell_angle_gamma 90.000000
_cell_volume 3552.095851
_symmetry_space_group_name_H-M "C 2/M"
_symmetry_group_IT_number 12
_symmetry_cell_setting 'monoclinic'
loop_
_space_group_symop_operation_xyz
x,y,z
-x,y,-z
-x,-y,-z
x,-y,z
1/2+x,1/2+y,z
1/2-x,1/2+y,-z
1/2-x,1/2-y,-z
1/2+x,1/2-y,z
loop_
_atom_site_type_symbol
_atom_site_label
_atom_site_fract_x
_atom_site_fract_y
_atom_site_fract_z
Si Si1 0.501358 0.800711 0.446047
Si Si2 0.416246 0.196216 0.176059
Si Si3 0.238769 0.702030 0.830294
Si Si4 0.847780 0.195938 0.550670
Si Si5 0.980724 0.804963 0.691310
Si Si6 0.873309 0.691201 0.306447
Si Si7 0.094674 0.798004 0.033348
Si Si8 0.848069 0.197019 0.042900
O O1 0.500000 0.741986 0.500000
O O2 0.587608 0.760593 0.458747
O O3 0.419307 0.735888 0.375673
O O4 0.495070 0.000000 0.443611
O O5 0.332002 0.252445 0.164788
O O6 0.498364 0.269162 0.243531
O O7 0.402123 0.243066 0.114551
O O8 0.420304 0.000000 0.181888
O O9 0.237511 0.500000 0.828550
O O10 0.206766 0.761220 0.762536
O O11 0.331407 0.754619 0.893716
O O12 0.750000 0.250000 0.500000
O O13 0.891009 0.240254 0.622998
O O14 0.849331 0.000000 0.547499
O O15 0.050976 0.703366 0.695757
O O16 0.994940 0.000000 0.689708
O O17 0.853908 0.500000 0.307369
O O18 0.095552 0.000000 0.034023
O O19 0.118442 0.742981 0.991751
O O20 0.000000 0.743599 0.000000
O O21 0.850906 0.000000 0.043873
O O22 0.750000 0.250000 0.000000
#
# Coordination Sequence:
#
# PCOD9172984 Si02
#       8
#     8   8   8   8   8   8   8   8
#     4   9  17  30  49  73 102 134 169 209 254 301
#     4  10  18  30  49  73  98 127 161 203 249 295
#     4   8  13  24  43  67  90 115 157 199 236 283
#     4  10  20  33  52  76 104 136 172 210 253 305
#     4   9  17  29  46  73 101 126 161 207 250 291
#     4   8  14  25  44  68  94 125 161 202 243 290
#     4   9  17  29  46  68  95 126 160 199 240 287
#     4  11  20  31  49  74 100 126 162 206 250 293
#
# _framework density 18.017531000000002
#
# number of rings (size 3 to 8) (size 9 to 14) (size 15 to 20)
#    0.000    2.750    1.250    2.250    0.000    1.750 
#    0.000    0.000    2.750    1.500    0.000    0.000 
#    0.000    0.000    0.000    0.000    0.000    0.000 
#
# Total GULP energy -178173.838032 kJ/mol
# GULP energy per Si atom -5567.932438 kJ/mol
# Density = 1.797652 g / cm^3
# Si number density = 18.017531 Si / 1000 Ang^3
#
#
#
# Elastic Constant Matrix: (Units=GPa)
#
#
# Indices 1 2 3 4 5 6 
#
# 1 82.1023 7.2236 80.9857 0.0000 3.9426 0.0000
# 2 7.2236 23.3177 15.8523 0.0000 1.0640 0.0000
# 3 80.9857 15.8523 224.3801 0.0000 0.6004 0.0000
# 4 0.0000 0.0000 0.0000 20.3621 0.0000 -0.6806
# 5 3.9426 1.0640 0.6004 0.0000 26.7984 0.0000
# 6 0.0000 0.0000 0.0000 -0.6806 0.0000 13.7031
#
#
#
# Elastic Compliance Matrix: (Units=1/GPa)
#
#
# Indices 1 2 3 4 5 6 
#
# 1 0.019131 -0.001174 -0.006815 0.000000 -0.002615 0.000000
# 2 -0.001174 0.045201 -0.002765 0.000000 -0.001560 0.000000
# 3 -0.006815 -0.002765 0.007109 0.000000 0.000953 0.000000
# 4 0.000000 0.000000 0.000000 0.049192 0.000000 0.002443
# 5 -0.002615 -0.001560 0.000953 0.000000 0.037741 0.000000
# 6 0.000000 0.000000 0.000000 0.002443 0.000000 0.073098
#
#
# Mechanical properties :
#
#
# Convention : Reuss Voigt Hill
#
# Bulk Modulus (GPa) = 20.02720 59.76922 39.89821
# Shear Modulus (GPa) = 18.54422 27.22197 22.88310
#
# Velocity S-wave (km/s) = 3.21165 3.89120 3.56764
# Velocity P-wave (km/s) = 4.98923 7.30981 6.25803
#
# Compressibility (1/GPa) = 0.04993210
#
# Stress axis : x y z
#
# Youngs Moduli (GPa) = 52.27052 22.12344 140.66024
#
# Poissons Ratio (x) = 0.02598 0.95861
# Poissons Ratio (y) = 0.06137 0.38899
# Poissons Ratio (z) = 0.35623 0.06118
#
# Static dielectric constant tensor:
#      x y z
#    x 1.587440 0.000000 -0.004820 
#    y 0.000000 1.649220 0.000000 
#    z -0.004820 0.000000 1.684450 
# 
# From -- ./inp_files/365238.got.cif
#   From: 2010.05.17/outbox.cif.g08.bks.cpg/sg12_183_cif.got.tgz:365238.got - 2010.06.03 13:09:07.
