data_PCOD9172602
_publ_section_title
;
Structure prediction by ZEFSAII (Michael W. Deem and Ramdas Pophale) SiO2 
 PCOD9172602
Probable space group: C 2/M
;
_chemical_formula_sum "Si O2"
_cell_formula_units_Z 40
_cell_length_a 12.376052
_cell_length_b 27.547472
_cell_length_c 8.238071
_cell_angle_alpha 90.000000
_cell_angle_beta 33.235191
_cell_angle_gamma 90.000000
_cell_volume 1539.327511
_symmetry_space_group_name_H-M "C 2/M"
_symmetry_group_IT_number 12
_symmetry_cell_setting 'monoclinic'
loop_
_space_group_symop_operation_xyz
x,y,z
-x,y,-z
-x,-y,-z
x,-y,z
1/2+x,1/2+y,z
1/2-x,1/2+y,-z
1/2-x,1/2-y,-z
1/2+x,1/2-y,z
loop_
_atom_site_type_symbol
_atom_site_label
_atom_site_fract_x
_atom_site_fract_y
_atom_site_fract_z
Si Si1 0.088121 0.946919 0.205561
Si Si2 0.776734 0.821643 0.818092
Si Si3 0.476797 0.920111 0.852422
Si Si4 0.271428 0.117346 0.710313
Si Si5 0.767229 0.719602 0.769800
O O1 0.000000 0.938042 0.500000
O O2 0.013708 0.000000 0.245087
O O3 0.321489 0.950201 0.947449
O O4 0.111713 0.905447 0.034943
O O5 0.704191 0.774158 0.809927
O O6 0.000000 0.836368 0.500000
O O7 0.628236 0.866653 0.996782
O O8 0.796367 0.800581 0.975506
O O9 0.683456 0.914805 0.502886
O O10 0.500000 0.940668 0.000000
O O11 0.500000 0.119877 0.500000
O O12 0.226537 0.172674 0.711615
O O13 0.000000 0.725412 0.500000
#
# Coordination Sequence:
#
# PCOD9172602 Si02
#       5
#     8   8   8   8   8
#     4  10  21  39  64  87 103 131 188 239 272 327
#     4  10  18  29  55  81 104 145 194 232 262 310
#     4  11  22  36  53  82 121 150 178 222 280 333
#     4   9  17  34  56  79 108 145 187 224 262 327
#     4   9  15  29  54  79 103 138 196 232 261 311
#
# _framework density 25.985374
#
# number of rings (size 3 to 8) (size 9 to 14) (size 15 to 20)
#    0.000    2.200    6.000    0.600    0.000    4.000 
#    0.000    2.000    0.000    2.400    0.000    0.000 
#    0.000    0.000    0.000    0.000    0.000    0.000 
#
# Total GULP energy -111471.671225 kJ/mol
# GULP energy per Si atom -5573.583561 kJ/mol
# Density = 2.592623 g / cm^3
# Si number density = 25.985374 Si / 1000 Ang^3
#
#
#
# Elastic Constant Matrix: (Units=GPa)
#
#
# Indices 1 2 3 4 5 6 
#
# 1 31.9196 -11.1937 10.8088 0.0000 -16.6664 0.0000
# 2 -11.1937 198.4210 30.3935 0.0000 -0.3268 0.0000
# 3 10.8088 30.3935 160.5091 0.0000 -4.8691 0.0000
# 4 0.0000 0.0000 0.0000 769.7004 0.0000 233.1055
# 5 -16.6664 -0.3268 -4.8691 0.0000 37.2988 0.0000
# 6 0.0000 0.0000 0.0000 233.1055 0.0000 70.4657
#
#
#
# Elastic Compliance Matrix: (Units=1/GPa)
#
#
# Indices 1 2 3 4 5 6 
#
# 1 0.043230 0.002912 -0.002887 0.000000 0.018965 0.000000
# 2 0.002912 0.005387 -0.001180 0.000000 0.001194 0.000000
# 3 -0.002887 -0.001180 0.006635 0.000000 -0.000434 0.000000
# 4 0.000000 0.000000 0.000000 -0.699711 0.000000 2.314694
# 5 0.018965 0.001194 -0.000434 0.000000 0.035239 0.000000
# 6 0.000000 0.000000 0.000000 2.314694 0.000000 -7.642980
#
#
# Mechanical properties :
#
#
# Convention : Reuss Voigt Hill
#
# Bulk Modulus (GPa) = 18.88855 50.09632 34.49244
# Shear Modulus (GPa) = -0.60737 199.54906 99.47085
#
# Velocity S-wave (km/s) = -0.48399 8.77266 6.19376
# Velocity P-wave (km/s) = 2.64053 11.04234 8.02825
#
# Compressibility (1/GPa) = 0.05294213
#
# Stress axis : x y z
#
# Youngs Moduli (GPa) = 23.13192 185.63948 150.71918
#
# Poissons Ratio (x) = -0.54064 0.43517
# Poissons Ratio (y) = -0.06737 0.17783
# Poissons Ratio (z) = 0.06679 0.21904
#
# Static dielectric constant tensor:
#      x y z
#    x 2.117460 0.000000 0.079020 
#    y 0.000000 2.174420 0.000000 
#    z 0.079020 0.000000 2.023860 
# 
# From -- ./inp_files/41888.got.cif
#   From: 2010.05.17/outbox.cif.g08.bks.cpg/sg12_21_cif.got.tgz:41888.got - 2010.06.03 13:09:07.
