data_PCOD9172481
_publ_section_title
;
Structure prediction by ZEFSAII (Michael W. Deem and Ramdas Pophale) SiO2 
 PCOD9172481
Probable space group: C 2/M
;
_chemical_formula_sum "Si O2"
_cell_formula_units_Z 56
_cell_length_a 19.721342
_cell_length_b 8.986295
_cell_length_c 17.598619
_cell_angle_alpha 90.000000
_cell_angle_beta 67.608510
_cell_angle_gamma 90.000000
_cell_volume 2883.705104
_symmetry_space_group_name_H-M "C 2/M"
_symmetry_group_IT_number 12
_symmetry_cell_setting 'monoclinic'
loop_
_space_group_symop_operation_xyz
x,y,z
-x,y,-z
-x,-y,-z
x,-y,z
1/2+x,1/2+y,z
1/2-x,1/2+y,-z
1/2-x,1/2-y,-z
1/2+x,1/2-y,z
loop_
_atom_site_type_symbol
_atom_site_label
_atom_site_fract_x
_atom_site_fract_y
_atom_site_fract_z
Si Si1 0.997667 0.174702 0.112571
Si Si2 0.706964 0.323821 0.119738
Si Si3 0.051313 0.678988 0.409073
Si Si4 0.805420 0.821750 0.702282
Si Si5 0.860156 0.672884 0.228722
Si Si6 0.506264 0.173359 0.732345
Si Si7 0.636771 0.825967 0.003890
O O1 0.916854 0.247545 0.147297
O O2 0.023510 0.222299 0.187433
O O3 0.061017 0.236977 0.031407
O O4 0.992323 0.000000 0.107148
O O5 0.695310 0.500000 0.106960
O O6 0.677941 0.291297 0.215938
O O7 0.673165 0.222817 0.068728
O O8 0.795308 0.300274 0.082112
O O9 0.056251 0.500000 0.410406
O O10 0.132482 0.746405 0.374384
O O11 0.000000 0.729848 0.500000
O O12 0.015375 0.717111 0.342785
O O13 0.721726 0.769078 0.726397
O O14 0.807082 0.000000 0.690858
O O15 0.855023 0.500000 0.207513
O O16 0.906373 0.678793 0.287718
O O17 0.483957 0.000000 0.755283
O O18 0.619065 0.000000 0.011175
#
# Coordination Sequence:
#
# PCOD9172481 Si02
#       7
#     8   8   8   8   8   8   8
#     4  10  18  29  50  75 100 132 175 217 248 290
#     4   9  19  32  49  74 103 134 173 215 257 299
#     4  10  21  36  55  80 108 135 165 205 254 309
#     4  10  20  36  56  78 104 133 168 217 262 301
#     4   8  17  34  54  74 100 137 176 208 253 308
#     4   8  16  33  54  74 100 137 174 204 245 303
#     4  10  18  30  47  72 105 140 173 210 255 304
#
# _framework density 19.419460999999998
#
# number of rings (size 3 to 8) (size 9 to 14) (size 15 to 20)
#    0.857    1.857    0.000    2.143    0.000    4.857 
#    0.000    1.429    0.000    4.286    0.000    0.000 
#    0.000    0.000    0.000    0.000    0.000    0.000 
#
# Total GULP energy -156085.438549 kJ/mol
# GULP energy per Si atom -5574.479948 kJ/mol
# Density = 1.937526 g / cm^3
# Si number density = 19.419461 Si / 1000 Ang^3
#
#
#
# Elastic Constant Matrix: (Units=GPa)
#
#
# Indices 1 2 3 4 5 6 
#
# 1 88.9051 21.5654 42.8330 0.0000 -24.9993 0.0000
# 2 21.5654 44.9248 35.5456 0.0000 -16.1179 0.0001
# 3 42.8330 35.5456 125.8119 0.0000 -31.9847 0.0000
# 4 0.0000 0.0000 0.0000 23.4810 0.0000 -9.9332
# 5 -24.9993 -16.1179 -31.9847 0.0000 31.8458 0.0000
# 6 0.0000 0.0001 0.0000 -9.9332 0.0000 20.0093
#
#
#
# Elastic Compliance Matrix: (Units=1/GPa)
#
#
# Indices 1 2 3 4 5 6 
#
# 1 0.015364 -0.002462 -0.002398 0.000000 0.008407 0.000000
# 2 -0.002462 0.030912 -0.005921 0.000000 0.007766 0.000000
# 3 -0.002398 -0.005921 0.012351 0.000000 0.007525 0.000000
# 4 0.000000 0.000000 0.000000 0.053909 0.000000 0.026762
# 5 0.008407 0.007766 0.007525 0.000000 0.049489 0.000000
# 6 0.000000 0.000000 0.000000 0.026762 0.000000 0.063262
#
#
# Mechanical properties :
#
#
# Convention : Reuss Voigt Hill
#
# Bulk Modulus (GPa) = 26.97951 51.05884 39.01918
# Shear Modulus (GPa) = 19.28975 25.71375 22.50175
#
# Velocity S-wave (km/s) = 3.15512 3.64280 3.40769
# Velocity P-wave (km/s) = 5.21500 6.63649 5.96822
#
# Compressibility (1/GPa) = 0.03706516
#
# Stress axis : x y z
#
# Youngs Moduli (GPa) = 65.08573 32.34949 80.96587
#
# Poissons Ratio (x) = 0.07964 0.19416
# Poissons Ratio (y) = 0.16023 0.47942
# Poissons Ratio (z) = 0.15608 0.19155
#
# Static dielectric constant tensor:
#      x y z
#    x 1.750480 0.000000 0.000550 
#    y 0.000000 1.649700 0.000000 
#    z 0.000550 0.000000 1.676480 
# 
# From -- ./inp_files/323563.got.cif
#   From: 2010.05.17/outbox.cif.g08.bks.cpg/sg12_162_cif.got.tgz:323563.got - 2010.06.03 13:09:07.
