data_PCOD9172433
_publ_section_title
;
Structure prediction by ZEFSAII (Michael W. Deem and Ramdas Pophale) SiO2 
 PCOD9172433
Probable space group: C 2/M
;
_chemical_formula_sum "Si O2"
_cell_formula_units_Z 60
_cell_length_a 5.653746
_cell_length_b 29.860073
_cell_length_c 17.769317
_cell_angle_alpha 90.000000
_cell_angle_beta 72.022560
_cell_angle_gamma 90.000000
_cell_volume 2853.380861
_symmetry_space_group_name_H-M "C 2/M"
_symmetry_group_IT_number 12
_symmetry_cell_setting 'monoclinic'
loop_
_space_group_symop_operation_xyz
x,y,z
-x,y,-z
-x,-y,-z
x,-y,z
1/2+x,1/2+y,z
1/2-x,1/2+y,-z
1/2-x,1/2-y,-z
1/2+x,1/2-y,z
loop_
_atom_site_type_symbol
_atom_site_label
_atom_site_fract_x
_atom_site_fract_y
_atom_site_fract_z
Si Si1 0.652629 0.766355 0.204952
Si Si2 0.196726 0.548285 0.824719
Si Si3 0.375164 0.951840 0.430494
Si Si4 0.988847 0.233175 0.609182
Si Si5 0.161795 0.923101 0.697121
Si Si6 0.622363 0.630470 0.384713
Si Si7 0.943648 0.629982 0.783286
Si Si8 0.297891 0.500000 0.953366
O O1 0.446923 0.743164 0.172045
O O2 0.581675 0.748461 0.297182
O O3 0.611416 0.818878 0.194218
O O4 0.060380 0.500000 0.827111
O O5 0.411785 0.550773 0.740691
O O6 0.325603 0.541921 0.893372
O O7 0.033466 0.592745 0.834047
O O8 0.500000 0.951932 0.500000
O O9 0.594185 0.950506 0.346619
O O10 0.223638 0.906154 0.433143
O O11 0.241533 0.000000 0.433799
O O12 0.785611 0.259582 0.579328
O O13 0.932828 0.181774 0.593572
O O14 0.211985 0.891460 0.762878
O O15 0.116408 0.891381 0.630508
O O16 0.834094 0.632307 0.299580
O O17 0.500000 0.500000 0.000000
O O18 0.000000 0.500000 0.000000
#
# Coordination Sequence:
#
# PCOD9172433 Si02
#       8
#     8   8   8   8   8   8   8   4
#     4  10  18  29  49  77 118 160 192 244 310 367
#     4   9  22  35  57  89 124 165 201 249 300 356
#     4  10  23  40  56  77 112 158 211 266 319 378
#     4  10  18  30  54  81 114 149 192 244 317 373
#     4  10  20  33  58  83 119 155 201 255 314 362
#     4  10  20  33  53  83 108 153 200 254 319 375
#     4  10  19  31  52  83 122 153 201 247 311 362
#     4  10  24  44  66  90 131 181 211 238 292 359
#
# _framework density 21.027685000000002
#
# number of rings (size 3 to 8) (size 9 to 14) (size 15 to 20)
#    0.400    1.733    2.667    2.000    5.600    6.400 
#    0.000    1.333    0.000    0.800    0.000    0.000 
#    0.000    3.200    0.000    0.000    0.000    0.000 
#
# Total GULP energy -167073.334270 kJ/mol
# GULP energy per Si atom -5569.111142 kJ/mol
# Density = 2.097983 g / cm^3
# Si number density = 21.027685 Si / 1000 Ang^3
#
#
#
# Elastic Constant Matrix: (Units=GPa)
#
#
# Indices 1 2 3 4 5 6 
#
# 1 112.9389 60.0570 10.9831 0.0000 22.0335 0.0000
# 2 60.0570 206.0731 25.4905 0.0000 28.9361 0.0000
# 3 10.9831 25.4905 38.0080 0.0000 12.9316 0.0000
# 4 0.0000 0.0000 0.0000 28.0804 0.0000 32.3165
# 5 22.0335 28.9361 12.9316 0.0000 31.2005 0.0000
# 6 0.0000 0.0000 0.0000 32.3165 0.0000 9.0561
#
#
#
# Elastic Compliance Matrix: (Units=1/GPa)
#
#
# Indices 1 2 3 4 5 6 
#
# 1 0.011289 -0.002526 0.000404 0.000000 -0.005797 0.000000
# 2 -0.002526 0.006324 -0.002471 0.000000 -0.003057 0.000000
# 3 0.000404 -0.002471 0.031628 0.000000 -0.011103 0.000000
# 4 0.000000 0.000000 0.000000 -0.011463 0.000000 0.040904
# 5 -0.005797 -0.003057 -0.011103 0.000000 0.043581 0.000000
# 6 0.000000 0.000000 0.000000 0.040904 0.000000 -0.035542
#
#
# Mechanical properties :
#
#
# Convention : Reuss Voigt Hill
#
# Bulk Modulus (GPa) = 24.96546 61.12015 43.04281
# Shear Modulus (GPa) = 73.14750 31.03336 52.09043
#
# Velocity S-wave (km/s) = 5.90439 3.84583 4.98258
# Velocity P-wave (km/s) = 7.64074 6.98929 7.32226
#
# Compressibility (1/GPa) = 0.04005534
#
# Stress axis : x y z
#
# Youngs Moduli (GPa) = 88.57937 158.13489 31.61740
#
# Poissons Ratio (x) = 0.39946 -0.01278
# Poissons Ratio (y) = 0.22376 0.07813
# Poissons Ratio (z) = -0.03581 0.39077
#
# Static dielectric constant tensor:
#      x y z
#    x 1.822260 0.000000 -0.000280 
#    y 0.000000 1.800950 0.000000 
#    z -0.000280 0.000000 1.796570 
# 
# From -- ./inp_files/298464.got.cif
#   From: 2010.05.17/outbox.cif.g08.bks.cpg/sg12_150_cif.got.tgz:298464.got - 2010.06.03 13:09:07.
