data_PCOD9172219
_publ_section_title
;
Structure prediction by ZEFSAII (Michael W. Deem and Ramdas Pophale) SiO2 
 PCOD9172219
Probable space group: C 2/M
;
_chemical_formula_sum "Si O2"
_cell_formula_units_Z 56
_cell_length_a 25.427313
_cell_length_b 7.656936
_cell_length_c 14.034424
_cell_angle_alpha 90.000000
_cell_angle_beta 124.758846
_cell_angle_gamma 90.000000
_cell_volume 2244.857600
_symmetry_space_group_name_H-M "C 2/M"
_symmetry_group_IT_number 12
_symmetry_cell_setting 'monoclinic'
loop_
_space_group_symop_operation_xyz
x,y,z
-x,y,-z
-x,-y,-z
x,-y,z
1/2+x,1/2+y,z
1/2-x,1/2+y,-z
1/2-x,1/2-y,-z
1/2+x,1/2-y,z
loop_
_atom_site_type_symbol
_atom_site_label
_atom_site_fract_x
_atom_site_fract_y
_atom_site_fract_z
Si Si1 0.146786 0.214430 0.196693
Si Si2 0.400320 0.197070 0.331433
Si Si3 0.286527 0.203740 0.332274
Si Si4 0.065505 0.803777 0.949745
Si Si5 0.850168 0.788759 0.579729
Si Si6 0.321850 0.804200 0.053473
Si Si7 0.990163 0.792433 0.690026
O O1 0.216896 0.273451 0.232152
O O2 0.146166 0.264127 0.306529
O O3 0.145476 0.000000 0.192101
O O4 0.085690 0.275566 0.072155
O O5 0.350565 0.285976 0.352842
O O6 0.357935 0.194741 0.191494
O O7 0.467006 0.267134 0.359477
O O8 0.413432 0.000000 0.378015
O O9 0.295358 0.214602 0.455080
O O10 0.286618 0.000000 0.303292
O O11 0.135433 0.812416 0.971389
O O12 0.022564 0.720746 0.821489
O O13 0.040699 0.000000 0.941359
O O14 0.918266 0.728889 0.606745
O O15 0.845075 0.000000 0.571173
O O16 0.323418 0.000000 0.015994
O O17 0.250000 0.750000 0.000000
O O18 0.987352 0.000000 0.701965
#
# Coordination Sequence:
#
# PCOD9172219 Si02
#       7
#     8   8   8   8   8   8   8
#     4   9  18  34  56  78 103 134 171 213 258 305
#     4   9  19  34  52  73 101 136 173 210 253 304
#     4  10  20  35  54  76 100 134 177 215 252 301
#     4   9  17  32  53  75 101 134 168 208 254 304
#     4  10  21  36  53  76 105 137 171 213 258 303
#     4  10  18  29  47  73 104 136 168 208 256 307
#     4   9  19  34  53  79 107 133 168 209 256 308
#
# _framework density 24.945905
#
# number of rings (size 3 to 8) (size 9 to 14) (size 15 to 20)
#    0.000    2.571    0.000    1.714    0.000    5.143 
#    0.000    8.571    0.000    0.000    0.000    5.000 
#    0.000    0.000    0.000    0.000    0.000    0.000 
#
# Total GULP energy -156308.424885 kJ/mol
# GULP energy per Si atom -5582.443746 kJ/mol
# Density = 2.488913 g / cm^3
# Si number density = 24.945905 Si / 1000 Ang^3
#
#
#
# Elastic Constant Matrix: (Units=GPa)
#
#
# Indices 1 2 3 4 5 6 
#
# 1 65.7785 0.8687 3.3465 0.0000 5.3472 0.0000
# 2 0.8687 57.6082 -4.3697 0.0000 -1.3042 0.0000
# 3 3.3465 -4.3697 120.6050 0.0000 1.6668 0.0000
# 4 0.0000 0.0000 0.0000 14.2171 0.0000 -8.3218
# 5 5.3472 -1.3042 1.6668 0.0000 37.3923 0.0000
# 6 0.0000 0.0000 0.0000 -8.3218 0.0000 8.8417
#
#
#
# Elastic Compliance Matrix: (Units=1/GPa)
#
#
# Indices 1 2 3 4 5 6 
#
# 1 0.015406 -0.000313 -0.000408 0.000000 -0.002196 0.000000
# 2 -0.000313 0.017425 0.000631 0.000000 0.000624 0.000000
# 3 -0.000408 0.000631 0.008330 0.000000 -0.000291 0.000000
# 4 0.000000 0.000000 0.000000 0.156625 0.000000 0.147415
# 5 -0.002196 0.000624 -0.000291 0.000000 0.027092 0.000000
# 6 0.000000 0.000000 0.000000 0.147415 0.000000 0.251847
#
#
# Mechanical properties :
#
#
# Convention : Reuss Voigt Hill
#
# Bulk Modulus (GPa) = 24.40158 27.07584 25.73871
# Shear Modulus (GPa) = 10.19230 28.36663 19.27946
#
# Velocity S-wave (km/s) = 2.02352 3.37579 2.78304
# Velocity P-wave (km/s) = 3.90673 5.10607 4.54613
#
# Compressibility (1/GPa) = 0.04098096
#
# Stress axis : x y z
#
# Youngs Moduli (GPa) = 64.91001 57.38756 120.05143
#
# Poissons Ratio (x) = 0.01796 0.04904
# Poissons Ratio (y) = 0.02032 -0.07580
# Poissons Ratio (z) = 0.02651 -0.03623
#
# Static dielectric constant tensor:
#      x y z
#    x 2.048980 0.000000 -0.027100 
#    y 0.000000 1.983720 0.000000 
#    z -0.027100 0.000000 1.978890 
# 
# From -- ./inp_files/238927.got.cif
#   From: 2010.05.17/outbox.cif.g08.bks.cpg/sg12_120_cif.got.tgz:238927.got - 2010.06.03 13:09:07.
