data_PCOD9172127
_publ_section_title
;
Structure prediction by ZEFSAII (Michael W. Deem and Ramdas Pophale) SiO2 
 PCOD9172127
Probable space group: C 2/M
;
_chemical_formula_sum "Si O2"
_cell_formula_units_Z 64
_cell_length_a 24.781251
_cell_length_b 13.980863
_cell_length_c 15.127420
_cell_angle_alpha 90.000000
_cell_angle_beta 39.913191
_cell_angle_gamma 90.000000
_cell_volume 3362.824366
_symmetry_space_group_name_H-M "C 2/M"
_symmetry_group_IT_number 12
_symmetry_cell_setting 'monoclinic'
loop_
_space_group_symop_operation_xyz
x,y,z
-x,y,-z
-x,-y,-z
x,-y,z
1/2+x,1/2+y,z
1/2-x,1/2+y,-z
1/2-x,1/2-y,-z
1/2+x,1/2-y,z
loop_
_atom_site_type_symbol
_atom_site_label
_atom_site_fract_x
_atom_site_fract_y
_atom_site_fract_z
Si Si1 0.607755 0.190287 0.608034
Si Si2 0.192337 0.609718 0.666629
Si Si3 0.408191 0.389293 0.132725
Si Si4 0.922063 0.385270 0.034343
Si Si5 0.771243 0.383773 0.691548
Si Si6 0.612626 0.605757 0.629877
Si Si7 0.588170 0.116276 0.342979
Si Si8 0.066870 0.389989 0.176378
O O1 0.643420 0.177899 0.661497
O O2 0.683589 0.165274 0.448151
O O3 0.572250 0.297579 0.643041
O O4 0.533828 0.115381 0.685504
O O5 0.165139 0.500000 0.680861
O O6 0.162248 0.629941 0.803285
O O7 0.290799 0.613425 0.523596
O O8 0.414066 0.500000 0.095817
O O9 0.325806 0.351732 0.186181
O O10 0.390575 0.389742 0.259667
O O11 0.500000 0.346453 0.000000
O O12 0.933041 0.500000 0.009291
O O13 0.918870 0.345253 0.938776
O O14 0.000000 0.357214 0.000000
O O15 0.772376 0.500000 0.677614
O O16 0.830943 0.360745 0.699136
O O17 0.580502 0.500000 0.644531
O O18 0.500000 0.147909 0.500000
O O19 0.598943 0.152158 0.228845
O O20 0.582624 0.000000 0.345758
O O21 0.096202 0.500000 0.136257
#
# Coordination Sequence:
#
# PCOD9172127 Si02
#       8
#     8   8   8   8   8   8   8   8
#     4  12  19  28  49  75  99 140 175 202 256 315
#     4  10  18  30  47  69 100 133 169 204 246 313
#     4   9  18  34  52  70 101 141 175 214 262 302
#     4   9  16  26  42  68 104 142 165 189 240 307
#     4  10  18  29  50  81 111 138 169 210 257 312
#     4  10  22  36  47  66  99 133 171 221 258 304
#     4   9  16  26  44  75 112 144 169 199 251 314
#     4  10  18  29  46  76 115 139 162 201 245 312
#
# _framework density 19.031621000000001
#
# number of rings (size 3 to 8) (size 9 to 14) (size 15 to 20)
#    0.000    2.125    3.750    1.500    0.000    0.000 
#    2.250    0.000    0.000    0.000    0.000    7.000 
#    0.000    8.000    0.000    2.000    0.000    0.000 
#
# Total GULP energy -178331.726690 kJ/mol
# GULP energy per Si atom -5572.866459 kJ/mol
# Density = 1.898830 g / cm^3
# Si number density = 19.031621 Si / 1000 Ang^3
#
#
#
# Elastic Constant Matrix: (Units=GPa)
#
#
# Indices 1 2 3 4 5 6 
#
# 1 96.8928 7.4220 63.2582 0.0000 11.8646 0.0000
# 2 7.4220 75.3840 0.4461 0.0000 6.6480 0.0000
# 3 63.2582 0.4461 125.6218 0.0000 7.9080 0.0000
# 4 0.0000 0.0000 0.0000 -43.3610 0.0000 12.9464
# 5 11.8646 6.6480 7.9080 0.0000 26.5581 0.0000
# 6 0.0000 0.0000 0.0000 12.9464 0.0000 0.2515
#
#
#
# Elastic Compliance Matrix: (Units=1/GPa)
#
#
# Indices 1 2 3 4 5 6 
#
# 1 0.016054 -0.001132 -0.007793 0.000000 -0.004568 0.000000
# 2 -0.001132 0.013648 0.000718 0.000000 -0.003125 0.000000
# 3 -0.007793 0.000718 0.011897 0.000000 -0.000241 0.000000
# 4 0.000000 0.000000 0.000000 -0.001409 0.000000 0.072523
# 5 -0.004568 -0.003125 -0.000241 0.000000 0.040548 0.000000
# 6 0.000000 0.000000 0.000000 0.072523 0.000000 0.242897
#
#
# Mechanical properties :
#
#
# Convention : Reuss Voigt Hill
#
# Bulk Modulus (GPa) = 39.70290 48.90567 44.30429
# Shear Modulus (GPa) = 14.34950 11.80789 13.07869
#
# Velocity S-wave (km/s) = 2.74885 2.49356 2.62431
# Velocity P-wave (km/s) = 5.56613 5.83466 5.70197
#
# Compressibility (1/GPa) = 0.02518707
#
# Stress axis : x y z
#
# Youngs Moduli (GPa) = 62.28816 73.27002 84.05376
#
# Poissons Ratio (x) = 0.08291 0.65501
# Poissons Ratio (y) = 0.07049 -0.06036
# Poissons Ratio (z) = 0.48540 -0.05261
#
# Static dielectric constant tensor:
#      x y z
#    x 1.656850 0.000000 0.009780 
#    y 0.000000 1.719800 0.000000 
#    z 0.009780 0.000000 1.684680 
# 
# From -- ./inp_files/240686.got.cif
#   From: 2010.05.17/outbox.cif.g08.bks.cpg/sg12_121_cif.got.tgz:240686.got - 2010.06.03 13:09:07.
