data_PCOD9172423
_publ_section_title
;
Structure prediction by ZEFSAII (Michael W. Deem and Ramdas Pophale) SiO2 
 PCOD9172423
Probable space group: C 2/M
;
_chemical_formula_sum "Si O2"
_cell_formula_units_Z 56
_cell_length_a 12.027980
_cell_length_b 18.461072
_cell_length_c 18.208834
_cell_angle_alpha 90.000000
_cell_angle_beta 127.498913
_cell_angle_gamma 90.000000
_cell_volume 3207.781119
_symmetry_space_group_name_H-M "C 2/M"
_symmetry_group_IT_number 12
_symmetry_cell_setting 'monoclinic'
loop_
_space_group_symop_operation_xyz
x,y,z
-x,y,-z
-x,-y,-z
x,-y,z
1/2+x,1/2+y,z
1/2-x,1/2+y,-z
1/2-x,1/2-y,-z
1/2+x,1/2-y,z
loop_
_atom_site_type_symbol
_atom_site_label
_atom_site_fract_x
_atom_site_fract_y
_atom_site_fract_z
Si Si1 0.567632 0.193581 0.104327
Si Si2 0.793228 0.305814 0.579537
Si Si3 0.596433 0.836231 0.703844
Si Si4 0.483310 0.917065 0.185915
Si Si5 0.813896 0.917430 0.366593
Si Si6 0.634028 0.695332 0.259192
Si Si7 0.619057 0.334643 0.749723
O O1 0.478912 0.133359 0.112714
O O2 0.583666 0.261443 0.166356
O O3 0.723539 0.160516 0.155814
O O4 0.500000 0.213025 0.000000
O O5 0.750000 0.250000 0.500000
O O6 0.681398 0.365488 0.560616
O O7 0.822612 0.257792 0.664679
O O8 0.937225 0.344827 0.612126
O O9 0.601821 0.880193 0.781971
O O10 0.728158 0.850727 0.704865
O O11 0.606044 0.749989 0.722526
O O12 0.647354 0.916635 0.277439
O O13 0.442776 0.000000 0.156952
O O14 0.889638 0.882641 0.326865
O O15 0.854297 0.000000 0.396109
O O16 0.505868 0.652255 0.243711
#
# Coordination Sequence:
#
# PCOD9172423 Si02
#       7
#     8   8   8   8   8   8   8
#     4  10  18  29  49  77 100 129 166 212 260 290
#     4  10  18  30  53  79  96 132 168 207 252 294
#     4   9  16  32  50  70 102 130 168 206 245 304
#     4   9  16  30  50  72  99 132 168 209 252 296
#     4   9  16  31  53  76 101 132 166 206 255 296
#     4  10  18  34  47  73 105 128 172 205 241 307
#     4   9  16  32  50  71 103 133 163 206 248 295
#
# _framework density 17.457550000000001
#
# number of rings (size 3 to 8) (size 9 to 14) (size 15 to 20)
#    0.000    2.571    7.143    0.000    0.000    1.429 
#    0.000    0.714    0.000    7.714    0.000    5.000 
#    0.000    0.000    0.000    0.000    0.000    0.000 
#
# Total GULP energy -155890.785064 kJ/mol
# GULP energy per Si atom -5567.528038 kJ/mol
# Density = 1.741782 g / cm^3
# Si number density = 17.457550 Si / 1000 Ang^3
#
#
#
# Elastic Constant Matrix: (Units=GPa)
#
#
# Indices 1 2 3 4 5 6 
#
# 1 153.6762 33.2271 30.3074 0.0000 -26.9223 0.0000
# 2 33.2271 75.5014 31.3215 0.0000 -18.0536 0.0000
# 3 30.3074 31.3215 84.5166 0.0000 -11.8333 0.0000
# 4 0.0000 0.0000 0.0000 14.6166 0.0000 -5.9498
# 5 -26.9223 -18.0536 -11.8333 0.0000 15.7979 0.0000
# 6 0.0000 0.0000 0.0000 -5.9498 0.0000 19.3451
#
#
#
# Elastic Compliance Matrix: (Units=1/GPa)
#
#
# Indices 1 2 3 4 5 6 
#
# 1 0.009395 -0.000014 -0.001256 0.000000 0.015054 0.000000
# 2 -0.000014 0.019731 -0.004640 0.000000 0.019049 0.000000
# 3 -0.001256 -0.004640 0.014478 0.000000 0.003401 0.000000
# 4 0.000000 0.000000 0.000000 0.078206 0.000000 0.024053
# 5 0.015054 0.019049 0.003401 0.000000 0.113271 0.000000
# 6 0.000000 0.000000 0.000000 0.024053 0.000000 0.059091
#
#
# Mechanical properties :
#
#
# Convention : Reuss Voigt Hill
#
# Bulk Modulus (GPa) = 31.46244 55.93400 43.69822
# Shear Modulus (GPa) = 15.79345 24.54114 20.16729
#
# Velocity S-wave (km/s) = 3.01105 3.75341 3.40254
# Velocity P-wave (km/s) = 5.49089 7.13398 6.36568
#
# Compressibility (1/GPa) = 0.03178393
#
# Stress axis : x y z
#
# Youngs Moduli (GPa) = 106.43656 50.68256 69.06882
#
# Poissons Ratio (x) = 0.00070 0.08676
# Poissons Ratio (y) = 0.00148 0.32049
# Poissons Ratio (z) = 0.13371 0.23517
#
# Static dielectric constant tensor:
#      x y z
#    x 1.671760 0.000000 0.020420 
#    y 0.000000 1.592520 0.000000 
#    z 0.020420 0.000000 1.600760 
# 
# From -- ./inp_files/207312.got.cif
#   From: 2010.05.17/outbox.cif.g08.bks.cpg/sg12_104_cif.got.tgz:207312.got - 2010.06.03 13:09:07.
