data_PCOD9172549
_publ_section_title
;
Structure prediction by ZEFSAII (Michael W. Deem and Ramdas Pophale) SiO2 
 PCOD9172549
Probable space group: C 2/M
;
_chemical_formula_sum "Si O2"
_cell_formula_units_Z 64
_cell_length_a 13.008177
_cell_length_b 13.907568
_cell_length_c 19.062715
_cell_angle_alpha 90.000000
_cell_angle_beta 117.696325
_cell_angle_gamma 90.000000
_cell_volume 3053.538494
_symmetry_space_group_name_H-M "C 2/M"
_symmetry_group_IT_number 12
_symmetry_cell_setting 'monoclinic'
loop_
_space_group_symop_operation_xyz
x,y,z
-x,y,-z
-x,-y,-z
x,-y,z
1/2+x,1/2+y,z
1/2-x,1/2+y,-z
1/2-x,1/2-y,-z
1/2+x,1/2-y,z
loop_
_atom_site_type_symbol
_atom_site_label
_atom_site_fract_x
_atom_site_fract_y
_atom_site_fract_z
Si Si1 0.404306 0.105299 0.046100
Si Si2 0.774287 0.390154 0.455601
Si Si3 0.633641 0.686172 0.542529
Si Si4 0.825294 0.115526 0.292798
Si Si5 0.941409 0.888165 0.715719
Si Si6 0.958400 0.803998 0.120856
Si Si7 0.708639 0.807910 0.121810
Si Si8 0.344823 0.393146 0.953069
O O1 0.471977 0.194942 0.099660
O O2 0.280495 0.105841 0.047558
O O3 0.455347 0.000000 0.071376
O O4 0.370849 0.128614 0.955195
O O5 0.819727 0.500000 0.469072
O O6 0.705972 0.370032 0.506385
O O7 0.859502 0.299977 0.472651
O O8 0.678316 0.380436 0.363685
O O9 0.500000 0.653946 0.500000
O O10 0.686246 0.663718 0.635296
O O11 0.733256 0.151508 0.206213
O O12 0.952961 0.141856 0.302107
O O13 0.819749 0.000000 0.297681
O O14 0.949552 0.834539 0.791977
O O15 0.963374 0.000000 0.738886
O O16 0.835149 0.809717 0.123517
O O17 0.935169 0.868717 0.044480
O O18 0.665107 0.697811 0.101749
O O19 0.361743 0.500000 0.929134
#
# Coordination Sequence:
#
# PCOD9172549 Si02
#       8
#     8   8   8   8   8   8   8   8
#     4   8  12  19  32  53  90 137 176 214 264 317
#     4  10  22  39  60  86 115 148 184 225 277 337
#     4  11  22  38  61  87 114 145 183 229 279 335
#     4  10  18  29  51  79 106 137 179 231 278 321
#     4   9  16  28  49  77 105 135 177 227 272 318
#     4   8  13  20  35  61  95 132 175 221 265 312
#     4   8  14  22  34  62  97 132 175 223 268 316
#     4   8  12  19  32  54  91 135 174 216 266 317
#
# _framework density 20.959288999999998
#
# number of rings (size 3 to 8) (size 9 to 14) (size 15 to 20)
#    0.000    3.000    1.250    2.625    0.000    3.750 
#    0.000    0.625    0.000    4.500    0.000    3.500 
#    0.000   14.000    0.000    0.000    0.000    1.500 
#
# Total GULP energy -178822.784263 kJ/mol
# GULP energy per Si atom -5588.212008 kJ/mol
# Density = 2.091158 g / cm^3
# Si number density = 20.959289 Si / 1000 Ang^3
#
#
#
# Elastic Constant Matrix: (Units=GPa)
#
#
# Indices 1 2 3 4 5 6 
#
# 1 51.7629 5.1152 9.9175 0.0000 -10.5761 0.0000
# 2 5.1152 109.7843 27.9544 0.0000 -18.4093 0.0000
# 3 9.9175 27.9544 109.3665 0.0000 -27.4906 0.0000
# 4 0.0000 0.0000 0.0000 26.1450 0.0000 0.1816
# 5 -10.5761 -18.4093 -27.4906 0.0000 25.5264 0.0000
# 6 0.0000 0.0000 0.0000 0.1816 0.0000 25.2798
#
#
#
# Elastic Compliance Matrix: (Units=1/GPa)
#
#
# Indices 1 2 3 4 5 6 
#
# 1 0.021144 0.000522 0.000337 0.000000 0.009500 0.000000
# 2 0.000522 0.010464 -0.001057 0.000000 0.006625 0.000000
# 3 0.000337 -0.001057 0.012651 0.000000 0.013003 0.000000
# 4 0.000000 0.000000 0.000000 0.038250 0.000000 -0.000275
# 5 0.009500 0.006625 0.013003 0.000000 0.061892 0.000000
# 6 0.000000 0.000000 0.000000 -0.000275 0.000000 0.039559
#
#
# Mechanical properties :
#
#
# Convention : Reuss Voigt Hill
#
# Bulk Modulus (GPa) = 22.79759 39.65421 31.22590
# Shear Modulus (GPa) = 25.12841 30.58534 27.85688
#
# Velocity S-wave (km/s) = 3.46629 3.82419 3.64963
# Velocity P-wave (km/s) = 5.18854 6.20161 5.71755
#
# Compressibility (1/GPa) = 0.04386428
#
# Stress axis : x y z
#
# Youngs Moduli (GPa) = 47.29547 95.56155 79.04226
#
# Poissons Ratio (x) = -0.04988 -0.02665
# Poissons Ratio (y) = -0.02469 0.08353
# Poissons Ratio (z) = -0.01595 0.10099
#
# Static dielectric constant tensor:
#      x y z
#    x 1.864900 0.000000 -0.006760 
#    y 0.000000 1.730830 0.000000 
#    z -0.006760 0.000000 1.693810 
# 
# From -- ./inp_files/270334.got.cif
#   From: 2010.05.17/outbox.cif.g08.bks.cpg/sg12_136_cif.got.tgz:270334.got - 2010.06.03 13:09:07.
