data_PCOD9172126
_publ_section_title
;
Structure prediction by ZEFSAII (Michael W. Deem and Ramdas Pophale) SiO2 
 PCOD9172126
Probable space group: C 2/M
;
_chemical_formula_sum "Si O2"
_cell_formula_units_Z 56
_cell_length_a 20.250184
_cell_length_b 7.620237
_cell_length_c 19.449309
_cell_angle_alpha 90.000000
_cell_angle_beta 117.030053
_cell_angle_gamma 90.000000
_cell_volume 2673.414927
_symmetry_space_group_name_H-M "C 2/M"
_symmetry_group_IT_number 12
_symmetry_cell_setting 'monoclinic'
loop_
_space_group_symop_operation_xyz
x,y,z
-x,y,-z
-x,-y,-z
x,-y,z
1/2+x,1/2+y,z
1/2-x,1/2+y,-z
1/2-x,1/2-y,-z
1/2+x,1/2-y,z
loop_
_atom_site_type_symbol
_atom_site_label
_atom_site_fract_x
_atom_site_fract_y
_atom_site_fract_z
Si Si1 0.265241 0.711048 0.176167
Si Si2 0.980679 0.715756 0.679866
Si Si3 0.912509 0.709152 0.157218
Si Si4 0.937034 0.286306 0.417674
Si Si5 0.771467 0.294905 0.338229
Si Si6 0.675989 0.210535 0.008849
Si Si7 0.181373 0.694814 0.420126
O O1 0.264161 0.500000 0.177971
O O2 0.341521 0.764170 0.173938
O O3 0.261613 0.777928 0.251966
O O4 0.197351 0.773285 0.095165
O O5 0.978448 0.500000 0.681561
O O6 0.899263 0.783072 0.620888
O O7 0.015560 0.776780 0.768427
O O8 0.037552 0.763869 0.646426
O O9 0.921794 0.500000 0.154053
O O10 0.889801 0.779607 0.071155
O O11 0.935069 0.500000 0.418787
O O12 0.854116 0.227093 0.394429
O O13 0.000000 0.227606 0.500000
O O14 0.767191 0.500000 0.354997
O O15 0.711804 0.199455 0.356884
O O16 0.667553 0.000000 0.009402
O O17 0.750000 0.250000 0.000000
O O18 0.164854 0.500000 0.437418
O O19 0.250000 0.750000 0.500000
#
# Coordination Sequence:
#
# PCOD9172126 Si02
#       7
#     8   8   8   8   8   8   8
#     4  10  18  29  46  76 112 138 164 207 264 309
#     4   9  17  31  53  77 100 133 175 217 255 301
#     4   9  15  29  51  75 101 135 179 213 249 303
#     4   9  16  28  50  76  96 121 164 213 256 298
#     4  11  21  35  56  77 102 137 176 215 256 307
#     4   8  15  25  43  71 104 136 166 207 252 302
#     4  11  23  39  57  77 104 137 174 215 261 312
#
# _framework density 20.946992000000002
#
# number of rings (size 3 to 8) (size 9 to 14) (size 15 to 20)
#    0.000    2.429    1.429    2.143    0.000    2.857 
#    0.000    1.429    0.000    2.571    0.000    6.000 
#    0.000    0.000    0.000    0.000    0.000    0.000 
#
# Total GULP energy -156105.800252 kJ/mol
# GULP energy per Si atom -5575.207152 kJ/mol
# Density = 2.089932 g / cm^3
# Si number density = 20.946992 Si / 1000 Ang^3
#
#
#
# Elastic Constant Matrix: (Units=GPa)
#
#
# Indices 1 2 3 4 5 6 
#
# 1 30.0069 -10.1092 -12.2261 0.0000 10.9193 0.0000
# 2 -10.1092 43.1672 -1.7771 0.0000 8.2235 0.0000
# 3 -12.2261 -1.7771 121.7717 0.0000 17.4706 0.0000
# 4 0.0000 0.0000 0.0000 12.5529 0.0000 -0.3927
# 5 10.9193 8.2235 17.4706 0.0000 28.7757 0.0000
# 6 0.0000 0.0000 0.0000 -0.3927 0.0000 9.3015
#
#
#
# Elastic Compliance Matrix: (Units=1/GPa)
#
#
# Indices 1 2 3 4 5 6 
#
# 1 0.056984 0.020278 0.010900 0.000000 -0.034036 0.000000
# 2 0.020278 0.031965 0.005386 0.000000 -0.020100 0.000000
# 3 0.010900 0.005386 0.011173 0.000000 -0.012459 0.000000
# 4 0.000000 0.000000 0.000000 0.079768 0.000000 0.003367
# 5 -0.034036 -0.020100 -0.012459 0.000000 0.060975 0.000000
# 6 0.000000 0.000000 0.000000 0.003367 0.000000 0.107652
#
#
# Mechanical properties :
#
#
# Convention : Reuss Voigt Hill
#
# Bulk Modulus (GPa) = 5.77201 16.30234 11.03718
# Shear Modulus (GPa) = 15.00876 24.72989 19.86933
#
# Velocity S-wave (km/s) = 2.67968 3.43970 3.08320
# Velocity P-wave (km/s) = 3.51223 4.85541 4.23738
#
# Compressibility (1/GPa) = 0.17324973
#
# Stress axis : x y z
#
# Youngs Moduli (GPa) = 17.54884 31.28397 89.50498
#
# Poissons Ratio (x) = -0.63436 -0.97564
# Poissons Ratio (y) = -0.35585 -0.48208
# Poissons Ratio (z) = -0.19129 -0.16850
#
# Static dielectric constant tensor:
#      x y z
#    x 1.706180 0.000000 0.025230 
#    y 0.000000 1.784880 0.000000 
#    z 0.025230 0.000000 1.824320 
# 
# From -- ./inp_files/319319.got.cif
#   From: 2010.05.17/outbox.cif.g08.bks.cpg/sg12_160_cif.got.tgz:319319.got - 2010.06.03 13:09:07.
