data_PCOD9172452
_publ_section_title
;
Structure prediction by ZEFSAII (Michael W. Deem and Ramdas Pophale) SiO2 
 PCOD9172452
Probable space group: C 2/M
;
_chemical_formula_sum "Si O2"
_cell_formula_units_Z 42
_cell_length_a 21.840731
_cell_length_b 7.338655
_cell_length_c 9.607897
_cell_angle_alpha 90.000000
_cell_angle_beta 76.234493
_cell_angle_gamma 90.000000
_cell_volume 1495.737561
_symmetry_space_group_name_H-M "C 2/M"
_symmetry_group_IT_number 12
_symmetry_cell_setting 'monoclinic'
loop_
_space_group_symop_operation_xyz
x,y,z
-x,y,-z
-x,-y,-z
x,-y,z
1/2+x,1/2+y,z
1/2-x,1/2+y,-z
1/2-x,1/2-y,-z
1/2+x,1/2-y,z
loop_
_atom_site_type_symbol
_atom_site_label
_atom_site_fract_x
_atom_site_fract_y
_atom_site_fract_z
Si Si1 0.750232 0.777285 0.715987
Si Si2 0.837537 0.293358 0.002856
Si Si3 0.440080 0.707680 0.741560
Si Si4 0.000000 0.500000 0.500000
Si Si5 0.437041 0.720031 0.187477
Si Si6 0.852878 0.790792 0.465920
O O1 0.722933 0.718404 0.879601
O O2 0.816867 0.713216 0.618230
O O3 0.700089 0.712366 0.627395
O O4 0.749879 0.000000 0.714661
O O5 0.825154 0.500000 0.971754
O O6 0.891209 0.293411 0.095021
O O7 0.871600 0.205449 0.852416
O O8 0.455293 0.500000 0.694286
O O9 0.457240 0.841326 0.607473
O O10 0.489344 0.759183 0.840064
O O11 0.430093 0.500000 0.182505
O O12 0.410952 0.791519 0.350937
O O13 0.868734 0.000000 0.490220
#
# Coordination Sequence:
#
# PCOD9172452 Si02
#       6
#     8   8   8   2   8   8
#     4   8  14  23  39  66 104 141 169 196 234 296
#     4  10  18  29  49  80 113 143 171 206 257 319
#     4  11  23  39  57  78 104 133 179 220 269 318
#     4  12  26  44  58  74  96 136 182 238 272 308
#     4   9  18  30  49  78 110 140 170 208 261 320
#     4   8  13  24  40  64 103 142 168 196 237 297
#
# _framework density 28.079794
#
# number of rings (size 3 to 8) (size 9 to 14) (size 15 to 20)
#    0.000    2.667    0.952    1.429    1.333    3.048 
#    0.000    0.000    0.000    0.000    0.000    1.333 
#    0.000    0.000    0.000    0.000    0.000    0.000 
#
# Total GULP energy -117228.109694 kJ/mol
# GULP energy per Si atom -5582.290938 kJ/mol
# Density = 2.801588 g / cm^3
# Si number density = 28.079794 Si / 1000 Ang^3
#
#
#
# Elastic Constant Matrix: (Units=GPa)
#
#
# Indices 1 2 3 4 5 6 
#
# 1 82.8214 8.1932 65.4268 0.0000 -25.1036 0.0000
# 2 8.1932 172.4107 33.2551 0.0000 -17.2831 0.0000
# 3 65.4268 33.2551 180.6990 0.0000 -32.1251 0.0000
# 4 0.0000 0.0000 0.0000 23.0705 0.0000 -10.8770
# 5 -25.1036 -17.2831 -32.1251 0.0000 95.2750 0.0000
# 6 0.0000 0.0000 0.0000 -10.8770 0.0000 9.9546
#
#
#
# Elastic Compliance Matrix: (Units=1/GPa)
#
#
# Indices 1 2 3 4 5 6 
#
# 1 0.017569 0.000592 -0.005987 0.000000 0.002718 0.000000
# 2 0.000592 0.006086 -0.001181 0.000000 0.000862 0.000000
# 3 -0.005987 -0.001181 0.008085 0.000000 0.000934 0.000000
# 4 0.000000 0.000000 0.000000 0.089402 0.000000 0.097687
# 5 0.002718 0.000862 0.000934 0.000000 0.011683 0.000000
# 6 0.000000 0.000000 0.000000 0.097687 0.000000 0.207196
#
#
# Mechanical properties :
#
#
# Convention : Reuss Voigt Hill
#
# Bulk Modulus (GPa) = 53.79700 72.18682 62.99191
# Shear Modulus (GPa) = 13.91323 47.59706 30.75515
#
# Velocity S-wave (km/s) = 2.22837 4.12158 3.31309
# Velocity P-wave (km/s) = 5.08144 6.95798 6.09239
#
# Compressibility (1/GPa) = 0.01858840
#
# Stress axis : x y z
#
# Youngs Moduli (GPa) = 56.91819 164.30592 123.67957
#
# Poissons Ratio (x) = -0.09733 0.74049
# Poissons Ratio (y) = -0.03372 0.14611
# Poissons Ratio (z) = 0.34078 0.19410
#
# Static dielectric constant tensor:
#      x y z
#    x 2.214940 0.000000 0.020500 
#    y 0.000000 2.005850 0.000000 
#    z 0.020500 0.000000 2.210140 
# 
# From -- ./inp_files/107939.got.cif
#   From: 2010.05.17/outbox.cif.g08.bks.cpg/sg12_54_cif.got.tgz:107939.got - 2010.06.03 13:09:07.
