data_PCOD9172287
_publ_section_title
;
Structure prediction by ZEFSAII (Michael W. Deem and Ramdas Pophale) SiO2 
 PCOD9172287
Probable space group: C 2/M
;
_chemical_formula_sum "Si O2"
_cell_formula_units_Z 48
_cell_length_a 19.453928
_cell_length_b 7.909898
_cell_length_c 19.067179
_cell_angle_alpha 90.000000
_cell_angle_beta 59.761479
_cell_angle_gamma 90.000000
_cell_volume 2534.815839
_symmetry_space_group_name_H-M "C 2/M"
_symmetry_group_IT_number 12
_symmetry_cell_setting 'monoclinic'
loop_
_space_group_symop_operation_xyz
x,y,z
-x,y,-z
-x,-y,-z
x,-y,z
1/2+x,1/2+y,z
1/2-x,1/2+y,-z
1/2-x,1/2-y,-z
1/2+x,1/2-y,z
loop_
_atom_site_type_symbol
_atom_site_label
_atom_site_fract_x
_atom_site_fract_y
_atom_site_fract_z
Si Si1 0.082801 0.704350 0.424420
Si Si2 0.741123 0.203982 0.424185
Si Si3 0.837805 0.193950 0.250182
Si Si4 0.816839 0.804516 0.749375
Si Si5 0.083457 0.792467 0.925226
Si Si6 0.243262 0.201476 0.922671
O O1 0.081633 0.500000 0.425021
O O2 0.157324 0.761698 0.434040
O O3 0.103870 0.761312 0.334570
O O4 0.000000 0.764093 0.500000
O O5 0.750000 0.250000 0.500000
O O6 0.812526 0.270339 0.337631
O O7 0.741927 0.000000 0.417892
O O8 0.754237 0.197012 0.249831
O O9 0.899865 0.268493 0.162803
O O10 0.862092 0.000000 0.249961
O O11 0.810952 0.770788 0.835192
O O12 0.797833 0.000000 0.746727
O O13 0.158480 0.739849 0.934220
O O14 0.083826 0.000000 0.923437
O O15 0.000000 0.737843 0.000000
O O16 0.245625 0.000000 0.916278
O O17 0.250000 0.250000 0.000000
#
# Coordination Sequence:
#
# PCOD9172287 Si02
#       6
#     8   8   8   8   8   8
#     4   9  18  34  53  70  93 127 162 195 236 286
#     4   9  17  29  46  68  93 122 155 190 231 278
#     4   8  15  29  47  66  90 123 158 189 229 283
#     4  10  18  29  48  72  96 123 159 199 237 282
#     4   8  14  27  49  72  91 116 153 194 234 277
#     4  10  19  32  50  71  98 129 161 197 237 284
#
# _framework density 18.936285999999999
#
# number of rings (size 3 to 8) (size 9 to 14) (size 15 to 20)
#    0.000    3.000    0.000    4.000    0.000    3.000 
#    0.000    1.667    0.000   14.500    0.000    0.000 
#    0.000    0.000    0.000    0.000    0.000    0.000 
#
# Total GULP energy -133642.049531 kJ/mol
# GULP energy per Si atom -5568.418730 kJ/mol
# Density = 1.889319 g / cm^3
# Si number density = 18.936286 Si / 1000 Ang^3
#
#
#
# Elastic Constant Matrix: (Units=GPa)
#
#
# Indices 1 2 3 4 5 6 
#
# 1 46.4087 7.1698 74.6543 -0.0001 -6.0986 -0.0001
# 2 7.1698 36.1841 10.9047 -0.0003 -2.7744 -0.0002
# 3 74.6543 10.9047 249.1531 0.0000 -9.1469 0.0000
# 4 -0.0001 -0.0003 0.0000 23.7815 0.0000 9.7311
# 5 -6.0986 -2.7744 -9.1469 0.0000 35.9881 -0.0001
# 6 -0.0001 -0.0002 0.0000 9.7311 -0.0001 8.1704
#
#
#
# Elastic Compliance Matrix: (Units=1/GPa)
#
#
# Indices 1 2 3 4 5 6 
#
# 1 0.042840 -0.004433 -0.012505 0.000000 0.003740 0.000001
# 2 -0.004433 0.028589 0.000132 0.000000 0.001486 0.000000
# 3 -0.012505 0.000132 0.007750 0.000000 -0.000139 0.000000
# 4 0.000000 0.000000 0.000000 0.082024 0.000000 -0.097693
# 5 0.003740 0.001486 -0.000139 0.000000 0.028500 0.000001
# 6 0.000001 0.000000 0.000000 -0.097693 0.000001 0.238748
#
#
# Mechanical properties :
#
#
# Convention : Reuss Voigt Hill
#
# Bulk Modulus (GPa) = 21.94647 57.46706 39.70677
# Shear Modulus (GPa) = 10.47665 29.52247 19.99956
#
# Velocity S-wave (km/s) = 2.35470 3.95275 3.25337
# Velocity P-wave (km/s) = 4.35977 7.15862 5.92678
#
# Compressibility (1/GPa) = 0.04556541
#
# Stress axis : x y z
#
# Youngs Moduli (GPa) = 23.34285 34.97832 129.03936
#
# Poissons Ratio (x) = 0.15507 1.61362
# Poissons Ratio (y) = 0.10349 -0.01699
# Poissons Ratio (z) = 0.29190 -0.00461
#
# Static dielectric constant tensor:
#      x y z
#    x 1.628610 0.000000 -0.010710 
#    y 0.000000 1.690960 0.000000 
#    z -0.010710 0.000000 1.715110 
# 
# From -- ./inp_files/280053.got.cif
#   From: 2010.05.17/outbox.cif.g08.bks.cpg/sg12_141_cif.got.tgz:280053.got - 2010.06.03 13:09:07.
