data_PCOD9172451
_publ_section_title
;
Structure prediction by ZEFSAII (Michael W. Deem and Ramdas Pophale) SiO2 
 PCOD9172451
Probable space group: C 2/M
;
_chemical_formula_sum "Si O2"
_cell_formula_units_Z 64
_cell_length_a 21.081448
_cell_length_b 8.515439
_cell_length_c 25.013147
_cell_angle_alpha 90.000000
_cell_angle_beta 53.321507
_cell_angle_gamma 90.000000
_cell_volume 3601.224023
_symmetry_space_group_name_H-M "C 2/M"
_symmetry_group_IT_number 12
_symmetry_cell_setting 'monoclinic'
loop_
_space_group_symop_operation_xyz
x,y,z
-x,y,-z
-x,-y,-z
x,-y,z
1/2+x,1/2+y,z
1/2-x,1/2+y,-z
1/2-x,1/2-y,-z
1/2+x,1/2-y,z
loop_
_atom_site_type_symbol
_atom_site_label
_atom_site_fract_x
_atom_site_fract_y
_atom_site_fract_z
Si Si1 0.467237 0.311872 0.364933
Si Si2 0.680392 0.811595 0.496765
Si Si3 0.683260 0.810909 0.992907
Si Si4 0.582352 0.689732 0.730107
Si Si5 0.236407 0.308461 0.351814
Si Si6 0.703106 0.688720 0.152526
Si Si7 0.643384 0.811861 0.293391
Si Si8 0.930853 0.688534 0.861945
O O1 0.464625 0.500000 0.367224
O O2 0.402737 0.246768 0.438498
O O3 0.442960 0.260834 0.317080
O O4 0.555146 0.255239 0.333406
O O5 0.750000 0.750000 0.500000
O O6 0.698026 0.758749 0.427314
O O7 0.682077 0.000000 0.496783
O O8 0.601830 0.763270 0.062832
O O9 0.684571 0.000000 0.991942
O O10 0.750000 0.750000 0.000000
O O11 0.715881 0.761138 0.918582
O O12 0.580123 0.500000 0.732623
O O13 0.671980 0.741215 0.695995
O O14 0.517793 0.753806 0.803684
O O15 0.236538 0.500000 0.351699
O O16 0.187326 0.256763 0.324964
O O17 0.700821 0.500000 0.157409
O O18 0.690736 0.760364 0.216805
O O19 0.630117 0.742056 0.151360
O O20 0.638508 0.000000 0.296996
O O21 0.927501 0.500000 0.859773
#
# Coordination Sequence:
#
# PCOD9172451 Si02
#       8
#     8   8   8   8   8   8   8   8
#     4  11  22  37  58  83 112 142 177 222 272 321
#     4  11  21  38  61  84 110 142 182 224 271 321
#     4   8  16  28  44  70 106 141 173 215 265 314
#     4  10  19  35  56  77 107 144 179 218 270 320
#     4   9  21  40  58  77 106 144 180 218 267 323
#     4  10  18  31  50  74 108 146 176 214 272 321
#     4  11  22  37  57  80 107 142 184 223 264 318
#     4  10  18  29  49  80 109 136 180 226 261 311
#
# _framework density 17.771735
#
# number of rings (size 3 to 8) (size 9 to 14) (size 15 to 20)
#    0.000    2.000    2.500    1.875    0.000    2.000 
#    0.000    6.250    0.000    0.750    0.000    5.250 
#    0.000    0.000    0.000    0.000    0.000    0.000 
#
# Total GULP energy -178504.656279 kJ/mol
# GULP energy per Si atom -5578.270509 kJ/mol
# Density = 1.773129 g / cm^3
# Si number density = 17.771735 Si / 1000 Ang^3
#
#
#
# Elastic Constant Matrix: (Units=GPa)
#
#
# Indices 1 2 3 4 5 6 
#
# 1 110.7471 19.4365 75.9345 -0.0002 2.5479 -0.0002
# 2 19.4365 29.9142 26.4037 -0.0006 -0.4280 -0.0011
# 3 75.9345 26.4037 193.6777 0.0000 -8.2324 0.0002
# 4 -0.0002 -0.0006 0.0000 30.4098 0.0000 -3.2310
# 5 2.5479 -0.4280 -8.2324 0.0000 23.5666 -0.0001
# 6 -0.0002 -0.0011 0.0002 -3.2310 -0.0001 21.0625
#
#
#
# Elastic Compliance Matrix: (Units=1/GPa)
#
#
# Indices 1 2 3 4 5 6 
#
# 1 0.013069 -0.004429 -0.004653 0.000000 -0.003119 0.000000
# 2 -0.004429 0.039533 -0.003656 0.000001 -0.000080 0.000002
# 3 -0.004653 -0.003656 0.007617 0.000000 0.003098 0.000000
# 4 0.000000 0.000001 0.000000 0.033429 0.000000 0.005128
# 5 -0.003119 -0.000080 0.003098 0.000000 0.043851 0.000000
# 6 0.000000 0.000002 0.000000 0.005128 0.000000 0.048265
#
#
# Mechanical properties :
#
#
# Convention : Reuss Voigt Hill
#
# Bulk Modulus (GPa) = 28.78298 64.20983 46.49641
# Shear Modulus (GPa) = 22.43959 29.17872 25.80915
#
# Velocity S-wave (km/s) = 3.55724 4.05638 3.81499
# Velocity P-wave (km/s) = 5.75353 7.62547 6.75466
#
# Compressibility (1/GPa) = 0.03474275
#
# Stress axis : x y z
#
# Youngs Moduli (GPa) = 76.51854 25.29542 131.27785
#
# Poissons Ratio (x) = 0.11204 0.61077
# Poissons Ratio (y) = 0.33893 0.47999
# Poissons Ratio (z) = 0.35600 0.09249
#
# Static dielectric constant tensor:
#      x y z
#    x 1.572430 0.000000 -0.000060 
#    y 0.000000 1.614500 0.000000 
#    z -0.000060 0.000000 1.634640 
# 
# From -- ./inp_files/345999.got.cif
#   From: 2010.05.17/outbox.cif.g08.bks.cpg/sg12_173_cif.got.tgz:345999.got - 2010.06.03 13:09:07.
