data_PCOD9172136
_publ_section_title
;
Structure prediction by ZEFSAII (Michael W. Deem and Ramdas Pophale) SiO2 
 PCOD9172136
Probable space group: C 2/M
;
_chemical_formula_sum "Si O2"
_cell_formula_units_Z 40
_cell_length_a 21.404865
_cell_length_b 7.475298
_cell_length_c 14.892467
_cell_angle_alpha 90.000000
_cell_angle_beta 119.989170
_cell_angle_gamma 90.000000
_cell_volume 2063.885814
_symmetry_space_group_name_H-M "C 2/M"
_symmetry_group_IT_number 12
_symmetry_cell_setting 'monoclinic'
loop_
_space_group_symop_operation_xyz
x,y,z
-x,y,-z
-x,-y,-z
x,-y,z
1/2+x,1/2+y,z
1/2-x,1/2+y,-z
1/2-x,1/2-y,-z
1/2+x,1/2-y,z
loop_
_atom_site_type_symbol
_atom_site_label
_atom_site_fract_x
_atom_site_fract_y
_atom_site_fract_z
Si Si1 0.483374 0.784417 0.269150
Si Si2 0.713122 0.285649 0.069306
Si Si3 0.950016 0.787374 0.043419
Si Si4 0.343049 0.780598 0.280918
Si Si5 0.573451 0.791192 0.493049
O O1 0.484557 0.737248 0.166172
O O2 0.407424 0.726051 0.259162
O O3 0.548406 0.716116 0.379225
O O4 0.484066 0.000000 0.276440
O O5 0.709612 0.500000 0.075751
O O6 0.767344 0.220727 0.185757
O O7 0.750000 0.250000 0.000000
O O8 0.631716 0.214555 0.014152
O O9 0.943611 0.000000 0.024069
O O10 0.000000 0.714298 0.000000
O O11 0.365499 0.717641 0.396608
O O12 0.343672 0.000000 0.282980
O O13 0.500000 0.785555 0.500000
O O14 0.591416 0.000000 0.491757
#
# Coordination Sequence:
#
# PCOD9172136 Si02
#       5
#     8   8   8   8   8
#     4   9  15  26  46  68  87 110 145 187 222 253
#     4  10  18  29  47  67  88 115 148 185 221 256
#     4  10  21  33  43  61  93 128 152 172 212 270
#     4   8  13  23  42  68  90 107 137 183 227 259
#     4   7  11  20  38  65  90 107 131 178 228 260
#
# _framework density 19.380918000000001
#
# number of rings (size 3 to 8) (size 9 to 14) (size 15 to 20)
#    0.000    3.200    2.000    2.400    0.000    0.400 
#    0.000    0.000    0.000    7.800    0.000    0.000 
#    0.000    0.000    0.000    0.000    0.000    0.000 
#
# Total GULP energy -111411.667134 kJ/mol
# GULP energy per Si atom -5570.583357 kJ/mol
# Density = 1.933681 g / cm^3
# Si number density = 19.380918 Si / 1000 Ang^3
#
#
#
# Elastic Constant Matrix: (Units=GPa)
#
#
# Indices 1 2 3 4 5 6 
#
# 1 97.8370 6.4830 90.9983 0.0000 -5.1636 0.0000
# 2 6.4830 55.2730 2.2960 0.0000 3.5125 0.0000
# 3 90.9983 2.2960 225.2561 0.0000 9.0564 0.0000
# 4 0.0000 0.0000 0.0000 17.5094 0.0000 -11.7196
# 5 -5.1636 3.5125 9.0564 0.0000 19.1322 0.0000
# 6 0.0000 0.0000 0.0000 -11.7196 0.0000 12.4646
#
#
#
# Elastic Compliance Matrix: (Units=1/GPa)
#
#
# Indices 1 2 3 4 5 6 
#
# 1 0.017861 -0.002342 -0.007546 0.000000 0.008822 0.000000
# 2 -0.002342 0.018613 0.000937 0.000000 -0.004493 0.000000
# 3 -0.007546 0.000937 0.007714 0.000000 -0.005860 0.000000
# 4 0.000000 0.000000 0.000000 0.154076 0.000000 0.144867
# 5 0.008822 -0.004493 -0.005860 0.000000 0.058248 0.000000
# 6 0.000000 0.000000 0.000000 0.144867 0.000000 0.216436
#
#
# Mechanical properties :
#
#
# Convention : Reuss Voigt Hill
#
# Bulk Modulus (GPa) = 38.04369 64.21341 51.12855
# Shear Modulus (GPa) = 10.00779 28.39382 19.20081
#
# Velocity S-wave (km/s) = 2.27485 3.83174 3.15096
# Velocity P-wave (km/s) = 5.15480 7.26502 6.29891
#
# Compressibility (1/GPa) = 0.02628557
#
# Stress axis : x y z
#
# Youngs Moduli (GPa) = 55.98944 53.72501 129.63638
#
# Poissons Ratio (x) = 0.12583 0.97825
# Poissons Ratio (y) = 0.13113 -0.12147
# Poissons Ratio (z) = 0.42250 -0.05034
#
# Static dielectric constant tensor:
#      x y z
#    x 1.641020 0.000000 0.022020 
#    y 0.000000 1.744680 0.000000 
#    z 0.022020 0.000000 1.727640 
# 
# From -- ./inp_files/152702.got.cif
#   From: 2010.05.17/outbox.cif.g08.bks.cpg/sg12_77_cif.got.tgz:152702.got - 2010.06.03 13:09:07.
