data_PCOD9172766
_publ_section_title
;
Structure prediction by ZEFSAII (Michael W. Deem and Ramdas Pophale) SiO2 
 PCOD9172766
Probable space group: C 2/M
;
_chemical_formula_sum "Si O2"
_cell_formula_units_Z 48
_cell_length_a 18.204112
_cell_length_b 22.634084
_cell_length_c 13.045232
_cell_angle_alpha 90.000000
_cell_angle_beta 150.865927
_cell_angle_gamma 90.000000
_cell_volume 2616.879877
_symmetry_space_group_name_H-M "C 2/M"
_symmetry_group_IT_number 12
_symmetry_cell_setting 'monoclinic'
loop_
_space_group_symop_operation_xyz
x,y,z
-x,y,-z
-x,-y,-z
x,-y,z
1/2+x,1/2+y,z
1/2-x,1/2+y,-z
1/2-x,1/2-y,-z
1/2+x,1/2-y,z
loop_
_atom_site_type_symbol
_atom_site_label
_atom_site_fract_x
_atom_site_fract_y
_atom_site_fract_z
Si Si1 0.744880 0.770370 0.821192
Si Si2 0.898877 0.148468 0.289962
Si Si3 0.360273 0.876656 0.165652
Si Si4 0.322064 0.567758 0.889411
Si Si5 0.029284 0.829091 0.232549
Si Si6 0.300881 0.851252 0.429495
O O1 0.677515 0.706328 0.753540
O O2 0.680376 0.812966 0.832564
O O3 0.697894 0.800525 0.657011
O O4 0.925305 0.777112 0.057269
O O5 0.000000 0.118566 0.500000
O O6 0.003873 0.168776 0.322801
O O7 0.761181 0.112733 0.071491
O O8 0.322265 0.921682 0.211475
O O9 0.531393 0.871805 0.340118
O O10 0.365593 0.500000 0.939612
O O11 0.279588 0.594386 0.727661
O O12 0.448035 0.611363 0.090074
O O13 0.197962 0.829336 0.396933
#
# Coordination Sequence:
#
# PCOD9172766 Si02
#       6
#     8   8   8   8   8   8
#     4   9  16  31  49  66  90 127 160 188 235 291
#     4  10  19  34  50  62  86 132 176 200 224 275
#     4   9  18  30  47  69  98 125 154 193 235 279
#     4   9  17  31  52  76 100 128 153 177 229 304
#     4   9  19  32  47  70 102 126 154 197 241 278
#     4  10  18  30  47  73 104 125 145 195 251 286
#
# _framework density 18.342454
#
# number of rings (size 3 to 8) (size 9 to 14) (size 15 to 20)
#    0.000    3.333    0.000    7.000    0.000    2.667 
#    0.000   10.000    0.000    8.000    0.000    0.000 
#    0.000   12.000    0.000    0.000    0.000    0.000 
#
# Total GULP energy -133776.166366 kJ/mol
# GULP energy per Si atom -5574.006932 kJ/mol
# Density = 1.830071 g / cm^3
# Si number density = 18.342454 Si / 1000 Ang^3
#
#
#
# Elastic Constant Matrix: (Units=GPa)
#
#
# Indices 1 2 3 4 5 6 
#
# 1 96.3301 1.8491 61.6401 0.0000 15.6110 0.0000
# 2 1.8491 31.9955 -15.0543 0.0000 2.4699 0.0000
# 3 61.6401 -15.0543 77.5481 0.0000 -2.5069 0.0000
# 4 0.0000 0.0000 0.0000 4.6409 0.0000 2.5353
# 5 15.6110 2.4699 -2.5069 0.0000 29.4177 0.0000
# 6 0.0000 0.0000 0.0000 2.5353 0.0000 4.8555
#
#
#
# Elastic Compliance Matrix: (Units=1/GPa)
#
#
# Indices 1 2 3 4 5 6 
#
# 1 0.031986 -0.013955 -0.028724 0.000000 -0.018250 0.000000
# 2 -0.013955 0.040643 0.019164 0.000000 0.005626 0.000000
# 3 -0.028724 0.019164 0.039998 0.000000 0.017042 0.000000
# 4 0.000000 0.000000 0.000000 0.301467 0.000000 -0.157409
# 5 -0.018250 0.005626 0.017042 0.000000 0.044658 0.000000
# 6 0.000000 0.000000 0.000000 -0.157409 0.000000 0.288141
#
#
# Mechanical properties :
#
#
# Convention : Reuss Voigt Hill
#
# Bulk Modulus (GPa) = 15.24418 33.63818 24.44118
# Shear Modulus (GPa) = 6.12904 18.27875 12.20390
#
# Velocity S-wave (km/s) = 1.82995 3.16021 2.58221
# Velocity P-wave (km/s) = 3.57685 5.62980 4.71638
#
# Compressibility (1/GPa) = 0.06559881
#
# Stress axis : x y z
#
# Youngs Moduli (GPa) = 31.26358 24.60421 25.00148
#
# Poissons Ratio (x) = 0.34334 0.71813
# Poissons Ratio (y) = 0.43627 -0.47913
# Poissons Ratio (z) = 0.89800 -0.47151
#
# Static dielectric constant tensor:
#      x y z
#    x 1.659740 0.000000 0.015840 
#    y 0.000000 1.631840 0.000000 
#    z 0.015840 0.000000 1.697510 
# 
# From -- ./inp_files/235305.got.cif
#   From: 2010.05.17/outbox.cif.g08.bks.cpg/sg12_118_cif.got.tgz:235305.got - 2010.06.03 13:09:07.
