data_PCOD9172176
_publ_section_title
;
Structure prediction by ZEFSAII (Michael W. Deem and Ramdas Pophale) SiO2 
 PCOD9172176
Probable space group: C 2/M
;
_chemical_formula_sum "Si O2"
_cell_formula_units_Z 48
_cell_length_a 28.421523
_cell_length_b 8.809978
_cell_length_c 12.166054
_cell_angle_alpha 90.000000
_cell_angle_beta 110.047735
_cell_angle_gamma 90.000000
_cell_volume 2861.711589
_symmetry_space_group_name_H-M "C 2/M"
_symmetry_group_IT_number 12
_symmetry_cell_setting 'monoclinic'
loop_
_space_group_symop_operation_xyz
x,y,z
-x,y,-z
-x,-y,-z
x,-y,z
1/2+x,1/2+y,z
1/2-x,1/2+y,-z
1/2-x,1/2-y,-z
1/2+x,1/2-y,z
loop_
_atom_site_type_symbol
_atom_site_label
_atom_site_fract_x
_atom_site_fract_y
_atom_site_fract_z
Si Si1 0.375339 0.817580 0.106384
Si Si2 0.352644 0.319193 0.751167
Si Si3 0.818689 0.318943 0.266518
Si Si4 0.783710 0.679389 0.873239
Si Si5 0.198969 0.819939 0.509386
Si Si6 0.556000 0.317561 0.019732
O O1 0.364141 0.770446 0.222678
O O2 0.380393 0.000000 0.107528
O O3 0.325121 0.778963 0.996965
O O4 0.420561 0.746068 0.074107
O O5 0.343799 0.500000 0.764078
O O6 0.310628 0.223395 0.780803
O O7 0.344580 0.293368 0.615885
O O8 0.405416 0.279612 0.850241
O O9 0.820102 0.500000 0.277859
O O10 0.767414 0.271411 0.164426
O O11 0.815498 0.247209 0.384373
O O12 0.773686 0.500000 0.871275
O O13 0.250000 0.750000 0.500000
O O14 0.206511 0.000000 0.526542
O O15 0.554829 0.500000 0.010607
O O16 0.500000 0.262942 0.000000
#
# Coordination Sequence:
#
# PCOD9172176 Si02
#       6
#     8   8   8   8   8   8
#     4   9  20  34  48  71 100 130 164 204 249 298
#     4   9  18  32  49  71 100 130 161 202 248 291
#     4  11  21  32  46  67 101 138 169 202 242 287
#     4  10  18  29  47  70  97 130 168 203 241 292
#     4  11  21  32  48  70 100 137 174 204 235 285
#     4   9  18  34  57  80  98 120 156 206 260 307
#
# _framework density 16.773178999999999
#
# number of rings (size 3 to 8) (size 9 to 14) (size 15 to 20)
#    0.000    2.167    1.667    2.000    0.000    3.000 
#    0.000    0.000    0.000    1.000    0.000    7.000 
#    0.000    0.000    0.000    0.000    0.000    0.000 
#
# Total GULP energy -133814.482597 kJ/mol
# GULP energy per Si atom -5575.603442 kJ/mol
# Density = 1.673500 g / cm^3
# Si number density = 16.773179 Si / 1000 Ang^3
#
#
#
# Elastic Constant Matrix: (Units=GPa)
#
#
# Indices 1 2 3 4 5 6 
#
# 1 121.8065 31.0818 64.8687 0.0000 -21.3478 0.0000
# 2 31.0818 32.4644 35.5671 0.0000 -10.6636 0.0000
# 3 64.8687 35.5671 93.3820 0.0000 -31.5758 0.0000
# 4 0.0000 0.0000 0.0000 22.0022 0.0000 -4.4089
# 5 -21.3478 -10.6636 -31.5758 0.0000 24.4935 0.0000
# 6 0.0000 0.0000 0.0000 -4.4089 0.0000 19.9154
#
#
#
# Elastic Compliance Matrix: (Units=1/GPa)
#
#
# Indices 1 2 3 4 5 6 
#
# 1 0.013406 -0.004508 -0.007637 0.000000 -0.000124 0.000000
# 2 -0.004508 0.054755 -0.019485 0.000000 -0.005210 0.000000
# 3 -0.007637 -0.019485 0.032470 0.000000 0.026720 0.000000
# 4 0.000000 0.000000 0.000000 0.047560 0.000000 0.010529
# 5 -0.000124 -0.005210 0.026720 0.000000 0.072896 0.000000
# 6 0.000000 0.000000 0.000000 0.010529 0.000000 0.052543
#
#
# Mechanical properties :
#
#
# Convention : Reuss Voigt Hill
#
# Bulk Modulus (GPa) = 26.75953 56.74312 41.75132
# Shear Modulus (GPa) = 14.31238 21.02457 17.66848
#
# Velocity S-wave (km/s) = 2.92428 3.54427 3.24910
# Velocity P-wave (km/s) = 5.23357 7.11704 6.24670
#
# Compressibility (1/GPa) = 0.03736986
#
# Stress axis : x y z
#
# Youngs Moduli (GPa) = 74.59552 18.26318 30.79745
#
# Poissons Ratio (x) = 0.08234 0.23521
# Poissons Ratio (y) = 0.33630 0.60008
# Poissons Ratio (z) = 0.56971 0.35585
#
# Static dielectric constant tensor:
#      x y z
#    x 1.556700 0.000000 -0.003080 
#    y 0.000000 1.560700 0.000000 
#    z -0.003080 0.000000 1.599000 
# 
# From -- ./inp_files/172287.got.cif
#   From: 2010.05.17/outbox.cif.g08.bks.cpg/sg12_87_cif.got.tgz:172287.got - 2010.06.03 13:09:07.
