data_PCOD9172179
_publ_section_title
;
Structure prediction by ZEFSAII (Michael W. Deem and Ramdas Pophale) SiO2 
 PCOD9172179
Probable space group: C 2/M
;
_chemical_formula_sum "Si O2"
_cell_formula_units_Z 64
_cell_length_a 20.136858
_cell_length_b 9.375815
_cell_length_c 21.994572
_cell_angle_alpha 90.000000
_cell_angle_beta 117.275306
_cell_angle_gamma 90.000000
_cell_volume 3690.859742
_symmetry_space_group_name_H-M "C 2/M"
_symmetry_group_IT_number 12
_symmetry_cell_setting 'monoclinic'
loop_
_space_group_symop_operation_xyz
x,y,z
-x,y,-z
-x,-y,-z
x,-y,z
1/2+x,1/2+y,z
1/2-x,1/2+y,-z
1/2-x,1/2-y,-z
1/2+x,1/2-y,z
loop_
_atom_site_type_symbol
_atom_site_label
_atom_site_fract_x
_atom_site_fract_y
_atom_site_fract_z
Si Si1 0.735440 0.669777 0.930996
Si Si2 0.508913 0.833012 0.072854
Si Si3 0.865215 0.335720 0.565082
Si Si4 0.221733 0.168423 0.292977
Si Si5 0.314727 0.832695 0.841296
Si Si6 0.205698 0.164633 0.569505
Si Si7 0.935288 0.168768 0.701634
Si Si8 0.436427 0.330167 0.152181
O O1 0.743939 0.500000 0.944891
O O2 0.789873 0.710732 0.898581
O O3 0.650688 0.696905 0.873600
O O4 0.750000 0.750000 0.000000
O O5 0.595969 0.822091 0.126242
O O6 0.461003 0.747083 0.100976
O O7 0.486910 0.000000 0.064992
O O8 0.500000 0.782016 0.000000
O O9 0.885024 0.500000 0.561586
O O10 0.851969 0.246503 0.498255
O O11 0.784819 0.335973 0.566101
O O12 0.921089 0.258818 0.635059
O O13 0.221293 0.238580 0.226549
O O14 0.277339 0.250163 0.361769
O O15 0.138256 0.186415 0.286661
O O16 0.237226 0.000000 0.297821
O O17 0.294210 0.000000 0.824888
O O18 0.185070 0.000000 0.571404
O O19 0.007929 0.213840 0.770270
O O20 0.940422 0.000000 0.689359
O O21 0.446812 0.500000 0.149035
#
# Coordination Sequence:
#
# PCOD9172179 Si02
#       8
#     8   8   8   8   8   8   8   8
#     4  10  22  39  57  75 100 133 171 214 258 308
#     4  10  20  33  51  74 100 129 163 205 254 308
#     4   9  16  25  40  65  97 133 170 203 243 294
#     4  10  18  29  47  71 100 132 168 210 252 297
#     4  10  20  34  51  73 101 133 168 207 256 308
#     4   9  16  26  41  64  98 136 169 203 247 295
#     4   9  17  29  45  68  99 130 164 206 252 297
#     4  10  20  35  53  75 100 131 169 211 256 302
#
# _framework density 17.340133000000002
#
# number of rings (size 3 to 8) (size 9 to 14) (size 15 to 20)
#    0.000    2.375    1.250    1.875    0.000    6.250 
#    0.000    0.000    0.000    0.000    0.000    0.875 
#    0.000    7.000    0.000    0.000    0.000    0.000 
#
# Total GULP energy -178492.152631 kJ/mol
# GULP energy per Si atom -5577.879770 kJ/mol
# Density = 1.730067 g / cm^3
# Si number density = 17.340133 Si / 1000 Ang^3
#
#
#
# Elastic Constant Matrix: (Units=GPa)
#
#
# Indices 1 2 3 4 5 6 
#
# 1 14.3541 3.8439 -18.2465 0.0000 -4.0846 0.0000
# 2 3.8439 70.7001 47.7284 0.0000 -5.6936 0.0000
# 3 -18.2465 47.7284 96.4073 0.0000 -3.3858 0.0000
# 4 0.0000 0.0000 0.0000 36.4152 0.0000 -3.4196
# 5 -4.0846 -5.6936 -3.3858 0.0000 17.9293 0.0000
# 6 0.0000 0.0000 0.0000 -3.4196 0.0000 14.9968
#
#
#
# Elastic Compliance Matrix: (Units=1/GPa)
#
#
# Indices 1 2 3 4 5 6 
#
# 1 0.150942 -0.038619 0.048788 0.000000 0.031337 0.000000
# 2 -0.038619 0.031542 -0.023035 0.000000 -0.003131 0.000000
# 3 0.048788 -0.023035 0.031352 0.000000 0.009720 0.000000
# 4 0.000000 0.000000 0.000000 0.028062 0.000000 0.006399
# 5 0.031337 -0.003131 0.009720 0.000000 0.063755 0.000000
# 6 0.000000 0.000000 0.000000 0.006399 0.000000 0.068140
#
#
# Mechanical properties :
#
#
# Convention : Reuss Voigt Hill
#
# Bulk Modulus (GPa) = 5.31620 27.56811 16.44216
# Shear Modulus (GPa) = 10.81724 23.74398 17.28061
#
# Velocity S-wave (km/s) = 2.50036 3.70443 3.16027
# Velocity P-wave (km/s) = 3.37761 5.85064 4.77694
#
# Compressibility (1/GPa) = 0.18810424
#
# Stress axis : x y z
#
# Youngs Moduli (GPa) = 6.62506 31.70372 31.89630
#
# Poissons Ratio (x) = 1.22435 -1.55614
# Poissons Ratio (y) = 0.25585 0.73472
# Poissons Ratio (z) = -0.32322 0.73028
#
# Static dielectric constant tensor:
#      x y z
#    x 1.572250 0.000000 0.013270 
#    y 0.000000 1.581440 0.000000 
#    z 0.013270 0.000000 1.580260 
# 
# From -- ./inp_files/320112.got.cif
#   From: 2010.05.17/outbox.cif.g08.bks.cpg/sg12_161_cif.got.tgz:320112.got - 2010.06.03 13:09:07.
