data_PCOD9172556
_publ_section_title
;
Structure prediction by ZEFSAII (Michael W. Deem and Ramdas Pophale) SiO2 
 PCOD9172556
Probable space group: C 2/M
;
_chemical_formula_sum "Si O2"
_cell_formula_units_Z 56
_cell_length_a 18.141198
_cell_length_b 14.284890
_cell_length_c 12.484410
_cell_angle_alpha 90.000000
_cell_angle_beta 55.773118
_cell_angle_gamma 90.000000
_cell_volume 2674.977670
_symmetry_space_group_name_H-M "C 2/M"
_symmetry_group_IT_number 12
_symmetry_cell_setting 'monoclinic'
loop_
_space_group_symop_operation_xyz
x,y,z
-x,y,-z
-x,-y,-z
x,-y,z
1/2+x,1/2+y,z
1/2-x,1/2+y,-z
1/2-x,1/2-y,-z
1/2+x,1/2-y,z
loop_
_atom_site_type_symbol
_atom_site_label
_atom_site_fract_x
_atom_site_fract_y
_atom_site_fract_z
Si Si1 0.889998 0.793347 0.092457
Si Si2 0.837234 0.745793 0.499775
Si Si3 0.578914 0.101324 0.851097
Si Si4 0.616334 0.605398 0.115341
Si Si5 0.405777 0.601980 0.286606
Si Si6 0.983005 0.391006 0.338301
Si Si7 0.585795 0.281036 0.353770
O O1 0.865794 0.689369 0.152194
O O2 0.863832 0.863227 0.209725
O O3 0.853673 0.828533 0.007989
O O4 0.000000 0.792039 0.000000
O O5 0.750000 0.750000 0.500000
O O6 0.896342 0.821049 0.386064
O O7 0.887385 0.646277 0.457706
O O8 0.835425 0.772634 0.624610
O O9 0.530051 0.121893 0.778462
O O10 0.625360 0.000000 0.802665
O O11 0.500000 0.091665 0.000000
O O12 0.655534 0.500000 0.081474
O O13 0.510755 0.594665 0.180128
O O14 0.616475 0.652891 0.231918
O O15 0.371155 0.500000 0.347399
O O16 0.999896 0.500000 0.347722
O O17 0.054253 0.318597 0.329116
O O18 0.500000 0.310219 0.500000
#
# Coordination Sequence:
#
# PCOD9172556 Si02
#       7
#     8   8   8   8   8   8   8
#     4   9  15  27  46  75 110 131 161 211 259 311
#     4  11  23  37  51  73 107 140 179 219 266 318
#     4   9  15  24  47  80 109 133 162 212 271 314
#     4  10  18  29  51  81 107 135 169 211 259 310
#     4  10  18  31  50  75 103 135 170 210 258 307
#     4  10  19  35  56  80 105 137 179 223 268 313
#     4  10  19  34  52  76 104 140 174 223 264 310
#
# _framework density 20.934754000000002
#
# number of rings (size 3 to 8) (size 9 to 14) (size 15 to 20)
#    0.000    2.143    4.286    2.143    0.000    5.714 
#    0.000    0.000    0.000    0.857    0.000    0.000 
#    0.000    0.000    0.000    0.000    0.000    0.000 
#
# Total GULP energy -155934.082535 kJ/mol
# GULP energy per Si atom -5569.074376 kJ/mol
# Density = 2.088711 g / cm^3
# Si number density = 20.934754 Si / 1000 Ang^3
#
#
#
# Elastic Constant Matrix: (Units=GPa)
#
#
# Indices 1 2 3 4 5 6 
#
# 1 58.4667 29.0832 31.5446 0.0000 26.3227 0.0000
# 2 29.0832 121.0071 35.9379 0.0000 25.3571 0.0000
# 3 31.5446 35.9379 97.2359 0.0000 52.9671 0.0000
# 4 0.0000 0.0000 0.0000 12.8586 0.0000 9.4236
# 5 26.3227 25.3571 52.9671 0.0000 37.7036 0.0000
# 6 0.0000 0.0000 0.0000 9.4236 0.0000 7.3334
#
#
#
# Elastic Compliance Matrix: (Units=1/GPa)
#
#
# Indices 1 2 3 4 5 6 
#
# 1 0.026643 -0.002936 0.006383 0.000000 -0.025594 0.000000
# 2 -0.002936 0.009944 -0.000836 0.000000 -0.003463 0.000000
# 3 0.006383 -0.000836 0.045340 0.000000 -0.067590 0.000000
# 4 0.000000 0.000000 0.000000 1.334955 0.000000 -1.715452
# 5 -0.025594 -0.003463 -0.067590 0.000000 0.141671 0.000000
# 6 0.000000 0.000000 0.000000 -1.715452 0.000000 2.340763
#
#
# Mechanical properties :
#
#
# Convention : Reuss Voigt Hill
#
# Bulk Modulus (GPa) = 11.47462 52.20457 31.83960
# Shear Modulus (GPa) = 1.27449 23.58872 12.43160
#
# Velocity S-wave (km/s) = 0.78110 3.36039 2.43950
# Velocity P-wave (km/s) = 2.51128 6.32829 4.81423
#
# Compressibility (1/GPa) = 0.08714884
#
# Stress axis : x y z
#
# Youngs Moduli (GPa) = 37.53343 100.56670 22.05538
#
# Poissons Ratio (x) = 0.29527 -0.14079
# Poissons Ratio (y) = 0.11020 0.01845
# Poissons Ratio (z) = -0.23959 0.08412
#
# Static dielectric constant tensor:
#      x y z
#    x 1.798640 0.000000 -0.030400 
#    y 0.000000 1.844940 0.000000 
#    z -0.030400 0.000000 1.795350 
# 
# From -- ./inp_files/166631.got.cif
#   From: 2010.05.17/outbox.cif.g08.bks.cpg/sg12_84_cif.got.tgz:166631.got - 2010.06.03 13:09:07.
