data_PCOD9172847
_publ_section_title
;
Structure prediction by ZEFSAII (Michael W. Deem and Ramdas Pophale) SiO2 
 PCOD9172847
Probable space group: C 2/M
;
_chemical_formula_sum "Si O2"
_cell_formula_units_Z 64
_cell_length_a 25.685472
_cell_length_b 9.058503
_cell_length_c 17.962577
_cell_angle_alpha 90.000000
_cell_angle_beta 102.545586
_cell_angle_gamma 90.000000
_cell_volume 4079.598201
_symmetry_space_group_name_H-M "C 2/M"
_symmetry_group_IT_number 12
_symmetry_cell_setting 'monoclinic'
loop_
_space_group_symop_operation_xyz
x,y,z
-x,y,-z
-x,-y,-z
x,-y,z
1/2+x,1/2+y,z
1/2-x,1/2+y,-z
1/2-x,1/2-y,-z
1/2+x,1/2-y,z
loop_
_atom_site_type_symbol
_atom_site_label
_atom_site_fract_x
_atom_site_fract_y
_atom_site_fract_z
Si Si1 0.570864 0.176651 0.915926
Si Si2 0.240446 0.822520 0.077105
Si Si3 0.619912 0.323372 0.076994
Si Si4 0.652341 0.176897 0.806169
Si Si5 0.025750 0.676141 0.337896
Si Si6 0.048241 0.676859 0.176249
Si Si7 0.912340 0.822555 0.340610
Si Si8 0.438438 0.670000 0.509422
O O1 0.610782 0.210444 0.860136
O O2 0.510610 0.213913 0.873784
O O3 0.573417 0.000000 0.929692
O O4 0.589656 0.259206 0.995499
O O5 0.182152 0.781508 0.088991
O O6 0.288941 0.782398 0.146836
O O7 0.242083 0.000000 0.068611
O O8 0.250000 0.750000 0.000000
O O9 0.616149 0.500000 0.075846
O O10 0.592265 0.257951 0.141319
O O11 0.633189 0.261013 0.727017
O O12 0.650043 0.000000 0.792960
O O13 0.018250 0.500000 0.339111
O O14 0.048475 0.713725 0.263782
O O15 0.062175 0.731265 0.417380
O O16 0.968116 0.752704 0.329947
O O17 0.054603 0.500000 0.170905
O O18 0.906083 0.782490 0.426035
O O19 0.916211 0.000000 0.338144
O O20 0.500000 0.672245 0.500000
O O21 0.425671 0.500000 0.523913
#
# Coordination Sequence:
#
# PCOD9172847 Si02
#       8
#     8   8   8   8   8   8   8   8
#     4  10  19  34  52  69  95 132 165 197 243 290
#     4  10  21  36  53  72  95 124 163 207 248 292
#     4  11  23  35  49  73  97 124 166 207 244 288
#     4  10  19  33  52  72  96 129 165 202 244 287
#     4  10  18  30  48  71  97 130 169 199 232 286
#     4  10  21  35  49  69  98 132 167 198 236 289
#     4  10  19  30  46  71 103 131 159 197 243 293
#     4   8  16  29  43  66 100 133 158 189 240 293
#
# _framework density 15.687818999999999
#
# number of rings (size 3 to 8) (size 9 to 14) (size 15 to 20)
#    0.000    2.125    2.500    2.250    0.000    7.250 
#    0.000    0.000    0.000    0.000    0.000    0.875 
#    0.000    0.000    0.000    0.000    0.000    0.000 
#
# Total GULP energy -178505.000712 kJ/mol
# GULP energy per Si atom -5578.281272 kJ/mol
# Density = 1.565211 g / cm^3
# Si number density = 15.687819 Si / 1000 Ang^3
#
#
#
# Elastic Constant Matrix: (Units=GPa)
#
#
# Indices 1 2 3 4 5 6 
#
# 1 96.9036 41.0275 74.0279 0.0000 -6.4154 0.0000
# 2 41.0275 39.9283 61.2937 0.0000 -0.5424 0.0000
# 3 74.0279 61.2937 160.6341 0.0000 9.6008 0.0000
# 4 0.0000 0.0000 0.0000 23.9655 0.0000 2.4237
# 5 -6.4154 -0.5424 9.6008 0.0000 13.5310 0.0000
# 6 0.0000 0.0000 0.0000 2.4237 0.0000 18.2050
#
#
#
# Elastic Compliance Matrix: (Units=1/GPa)
#
#
# Indices 1 2 3 4 5 6 
#
# 1 0.020804 -0.012698 -0.005536 0.000000 0.013283 0.000000
# 2 -0.012698 0.073647 -0.023044 0.000000 0.013282 0.000000
# 3 -0.005536 -0.023044 0.018569 0.000000 -0.016724 0.000000
# 4 0.000000 0.000000 0.000000 0.042296 0.000000 -0.005631
# 5 0.013283 0.013282 -0.016724 0.000000 0.092601 0.000000
# 6 0.000000 0.000000 0.000000 -0.005631 0.000000 0.055680
#
#
# Mechanical properties :
#
#
# Convention : Reuss Voigt Hill
#
# Bulk Modulus (GPa) = 32.82490 72.24046 52.53268
# Shear Modulus (GPa) = 12.61642 19.21477 15.91559
#
# Velocity S-wave (km/s) = 2.83895 3.50354 3.18861
# Velocity P-wave (km/s) = 5.63164 7.90665 6.86406
#
# Compressibility (1/GPa) = 0.03046468
#
# Stress axis : x y z
#
# Youngs Moduli (GPa) = 48.06659 13.57825 53.85217
#
# Poissons Ratio (x) = 0.17241 0.29815
# Poissons Ratio (y) = 0.61034 1.24097
# Poissons Ratio (z) = 0.26612 0.31290
#
# Static dielectric constant tensor:
#      x y z
#    x 1.503520 0.000000 0.010980 
#    y 0.000000 1.523110 0.000000 
#    z 0.010980 0.000000 1.528950 
# 
# From -- ./inp_files/287545.got.cif
#   From: 2010.05.17/outbox.cif.g08.bks.cpg/sg12_144_cif.got.tgz:287545.got - 2010.06.03 13:09:07.
