data_PCOD9172901
_publ_section_title
;
Structure prediction by ZEFSAII (Michael W. Deem and Ramdas Pophale) SiO2 
 PCOD9172901
Probable space group: C 2/M
;
_chemical_formula_sum "Si O2"
_cell_formula_units_Z 56
_cell_length_a 19.473698
_cell_length_b 7.301363
_cell_length_c 24.124370
_cell_angle_alpha 90.000000
_cell_angle_beta 135.955177
_cell_angle_gamma 90.000000
_cell_volume 2384.685846
_symmetry_space_group_name_H-M "C 2/M"
_symmetry_group_IT_number 12
_symmetry_cell_setting 'monoclinic'
loop_
_space_group_symop_operation_xyz
x,y,z
-x,y,-z
-x,-y,-z
x,-y,z
1/2+x,1/2+y,z
1/2-x,1/2+y,-z
1/2-x,1/2-y,-z
1/2+x,1/2-y,z
loop_
_atom_site_type_symbol
_atom_site_label
_atom_site_fract_x
_atom_site_fract_y
_atom_site_fract_z
Si Si1 0.355767 0.781898 0.531624
Si Si2 0.703902 0.723537 0.216833
Si Si3 0.434722 0.778208 0.688845
Si Si4 0.114785 0.278383 0.871067
Si Si5 0.294986 0.722986 0.904852
Si Si6 0.774019 0.711802 0.373249
Si Si7 0.482740 0.291310 0.070568
O O1 0.250000 0.750000 0.500000
O O2 0.430718 0.715712 0.622437
O O3 0.344001 0.708571 0.462333
O O4 0.370007 0.000000 0.534641
O O5 0.703898 0.500000 0.221082
O O6 0.741863 0.772376 0.177813
O O7 0.761934 0.790316 0.304617
O O8 0.589172 0.786390 0.149069
O O9 0.530844 0.723664 0.778320
O O10 0.336409 0.716316 0.664390
O O11 0.430892 0.000000 0.686207
O O12 0.115310 0.500000 0.874622
O O13 0.219533 0.216370 0.908212
O O14 0.082562 0.207358 0.911718
O O15 0.297563 0.500000 0.908203
O O16 0.406643 0.787100 0.981311
O O17 0.803734 0.500000 0.383954
O O18 0.504394 0.500000 0.066190
#
# Coordination Sequence:
#
# PCOD9172901 Si02
#       7
#     8   8   8   8   8   8   8
#     4   8  14  23  37  59  85 108 133 169 209 246
#     4   9  16  27  45  67  87 109 142 183 217 247
#     4   9  16  26  40  60  87 115 138 165 208 259
#     4  10  19  30  45  64  89 118 143 172 213 262
#     4   9  18  30  44  64  88 115 145 176 215 259
#     4   9  15  25  43  65  84 105 139 180 212 239
#     4  10  18  30  49  67  83 108 147 189 217 244
#
# _framework density 23.483177999999999
#
# number of rings (size 3 to 8) (size 9 to 14) (size 15 to 20)
#    0.000    2.857    1.429    0.857    0.000    1.714 
#    0.000    0.000    0.000    5.143    0.000    6.000 
#    0.000    0.000    0.000   22.286    0.000   16.000 
#
# Total GULP energy -156239.634552 kJ/mol
# GULP energy per Si atom -5579.986948 kJ/mol
# Density = 2.342973 g / cm^3
# Si number density = 23.483178 Si / 1000 Ang^3
#
#
#
# Elastic Constant Matrix: (Units=GPa)
#
#
# Indices 1 2 3 4 5 6 
#
# 1 56.9675 -5.7025 -4.4992 0.0000 -20.6626 0.0000
# 2 -5.7025 101.1849 3.2380 0.0000 -3.3328 0.0002
# 3 -4.4992 3.2380 135.8741 0.0000 -40.4327 0.0000
# 4 0.0000 0.0000 0.0000 -4.0189 0.0000 -1.0794
# 5 -20.6626 -3.3328 -40.4327 0.0000 35.3629 0.0000
# 6 0.0000 0.0002 0.0000 -1.0794 0.0000 7.8426
#
#
#
# Elastic Compliance Matrix: (Units=1/GPa)
#
#
# Indices 1 2 3 4 5 6 
#
# 1 0.028198 0.002189 0.008861 0.000000 0.026813 0.000000
# 2 0.002189 0.010084 0.000751 0.000000 0.003088 0.000000
# 3 0.008861 0.000751 0.013940 0.000000 0.021186 0.000000
# 4 0.000000 0.000000 0.000000 -0.239953 0.000000 -0.033025
# 5 0.026813 0.003088 0.021186 0.000000 0.068460 0.000000
# 6 0.000000 0.000000 0.000000 -0.033025 0.000000 0.122964
#
#
# Mechanical properties :
#
#
# Convention : Reuss Voigt Hill
#
# Bulk Modulus (GPa) = 13.18865 31.12212 22.15539
# Shear Modulus (GPa) = 931.74197 27.90332 479.82265
#
# Velocity S-wave (km/s) = 19.94070 3.45081 14.30978
# Velocity P-wave (km/s) = 23.14743 5.39992 16.80718
#
# Compressibility (1/GPa) = 0.07582278
#
# Stress axis : x y z
#
# Youngs Moduli (GPa) = 35.46326 99.16764 71.73737
#
# Poissons Ratio (x) = -0.21706 -0.63563
# Poissons Ratio (y) = -0.07762 -0.05388
# Poissons Ratio (z) = -0.31422 -0.07449
#
# Static dielectric constant tensor:
#      x y z
#    x 1.838910 0.000000 -0.031400 
#    y 0.000000 1.880360 0.000000 
#    z -0.031400 0.000000 1.917080 
# 
# From -- ./inp_files/276366.got.cif
#   From: 2010.05.17/outbox.cif.g08.bks.cpg/sg12_139_cif.got.tgz:276366.got - 2010.06.03 13:09:07.
