data_PCOD9172965
_publ_section_title
;
Structure prediction by ZEFSAII (Michael W. Deem and Ramdas Pophale) SiO2 
 PCOD9172965
Probable space group: C 2/M
;
_chemical_formula_sum "Si O2"
_cell_formula_units_Z 52
_cell_length_a 23.070566
_cell_length_b 8.187547
_cell_length_c 20.359337
_cell_angle_alpha 90.000000
_cell_angle_beta 136.829215
_cell_angle_gamma 90.000000
_cell_volume 2631.134740
_symmetry_space_group_name_H-M "C 2/M"
_symmetry_group_IT_number 12
_symmetry_cell_setting 'monoclinic'
loop_
_space_group_symop_operation_xyz
x,y,z
-x,y,-z
-x,-y,-z
x,-y,z
1/2+x,1/2+y,z
1/2-x,1/2+y,-z
1/2-x,1/2-y,-z
1/2+x,1/2-y,z
loop_
_atom_site_type_symbol
_atom_site_label
_atom_site_fract_x
_atom_site_fract_y
_atom_site_fract_z
Si Si1 0.059261 0.801549 0.274337
Si Si2 0.262896 0.301653 0.637379
Si Si3 0.500000 0.244396 0.500000
Si Si4 0.079688 0.696530 0.437317
Si Si5 0.380738 0.696243 0.082493
Si Si6 0.814267 0.683713 0.293705
Si Si7 0.225384 0.192427 0.880433
O O1 0.148881 0.743538 0.319306
O O2 0.048305 0.737322 0.339148
O O3 0.978086 0.749881 0.164523
O O4 0.061599 0.000000 0.278996
O O5 0.266661 0.500000 0.644447
O O6 0.179964 0.266163 0.525208
O O7 0.241246 0.242016 0.693026
O O8 0.533371 0.301619 0.455805
O O9 0.409786 0.173641 0.400747
O O10 0.067276 0.500000 0.440942
O O11 0.382142 0.500000 0.086381
O O12 0.334793 0.760112 0.111136
O O13 0.319997 0.744322 0.972636
O O14 0.783989 0.500000 0.256594
O O15 0.808818 0.770916 0.219892
O O16 0.227586 0.000000 0.891060
#
# Coordination Sequence:
#
# PCOD9172965 Si02
#       7
#     8   8   4   8   8   8   8
#     4  10  19  33  51  72  98 127 163 204 241 279
#     4   8  17  32  49  70  98 132 166 197 231 283
#     4  10  19  32  51  76 103 132 165 196 229 284
#     4  10  18  30  49  73 101 132 164 196 236 284
#     4   9  19  34  52  72  95 126 162 198 240 294
#     4  10  18  32  53  73  97 131 166 196 233 283
#     4  10  20  34  51  74 100 123 154 201 252 290
#
# _framework density 19.763335999999999
#
# number of rings (size 3 to 8) (size 9 to 14) (size 15 to 20)
#    0.000    2.462    0.000    4.154    0.000    1.231 
#    0.000    5.385    0.000    4.615    0.000    0.000 
#    0.000    0.000    0.000    0.000    0.000    0.000 
#
# Total GULP energy -144747.878979 kJ/mol
# GULP energy per Si atom -5567.226115 kJ/mol
# Density = 1.971835 g / cm^3
# Si number density = 19.763336 Si / 1000 Ang^3
#
#
#
# Elastic Constant Matrix: (Units=GPa)
#
#
# Indices 1 2 3 4 5 6 
#
# 1 87.2174 9.5504 43.0057 0.0000 10.0967 0.0000
# 2 9.5504 14.8686 10.2454 0.0000 7.1273 0.0000
# 3 43.0057 10.2454 100.9198 0.0000 1.6739 0.0000
# 4 0.0000 0.0000 0.0000 6.1671 0.0000 -0.7593
# 5 10.0967 7.1273 1.6739 0.0000 26.4788 0.0000
# 6 0.0000 0.0000 0.0000 -0.7593 0.0000 3.2342
#
#
#
# Elastic Compliance Matrix: (Units=1/GPa)
#
#
# Indices 1 2 3 4 5 6 
#
# 1 0.015397 -0.003486 -0.006132 0.000000 -0.004545 0.000000
# 2 -0.003486 0.084133 -0.006709 0.000000 -0.020893 -0.000001
# 3 -0.006132 -0.006709 0.013148 0.000000 0.003313 0.000000
# 4 0.000000 0.000000 0.000000 0.166977 0.000000 0.039203
# 5 -0.004545 -0.020893 0.003313 0.000000 0.044913 0.000000
# 6 0.000000 -0.000001 0.000000 0.039203 0.000000 0.318400
#
#
# Mechanical properties :
#
#
# Convention : Reuss Voigt Hill
#
# Bulk Modulus (GPa) = 12.49623 36.51209 24.50416
# Shear Modulus (GPa) = 7.11949 16.52299 11.82124
#
# Velocity S-wave (km/s) = 1.90005 2.89458 2.44834
# Velocity P-wave (km/s) = 3.33920 5.44850 4.51865
#
# Compressibility (1/GPa) = 0.08002415
#
# Stress axis : x y z
#
# Youngs Moduli (GPa) = 64.94745 11.88594 76.05668
#
# Poissons Ratio (x) = 0.04143 0.46638
# Poissons Ratio (y) = 0.22639 0.51028
# Poissons Ratio (z) = 0.39826 0.07975
#
# Static dielectric constant tensor:
#      x y z
#    x 1.716680 0.000000 0.013210 
#    y 0.000000 1.723450 0.000000 
#    z 0.013210 0.000000 1.669050 
# 
# From -- ./inp_files/324410.got.cif
#   From: 2010.05.17/outbox.cif.g08.bks.cpg/sg12_163_cif.got.tgz:324410.got - 2010.06.03 13:09:07.
