data_PCOD9172415
_publ_section_title
;
Structure prediction by ZEFSAII (Michael W. Deem and Ramdas Pophale) SiO2 
 PCOD9172415
Probable space group: C 2/M
;
_chemical_formula_sum "Si O2"
_cell_formula_units_Z 40
_cell_length_a 24.740447
_cell_length_b 9.174007
_cell_length_c 21.970354
_cell_angle_alpha 90.000000
_cell_angle_beta 29.931353
_cell_angle_gamma 90.000000
_cell_volume 2488.119142
_symmetry_space_group_name_H-M "C 2/M"
_symmetry_group_IT_number 12
_symmetry_cell_setting 'monoclinic'
loop_
_space_group_symop_operation_xyz
x,y,z
-x,y,-z
-x,-y,-z
x,-y,z
1/2+x,1/2+y,z
1/2-x,1/2+y,-z
1/2-x,1/2-y,-z
1/2+x,1/2-y,z
loop_
_atom_site_type_symbol
_atom_site_label
_atom_site_fract_x
_atom_site_fract_y
_atom_site_fract_z
Si Si1 0.846803 0.326309 0.201201
Si Si2 0.915790 0.173568 0.343843
Si Si3 0.651429 0.325244 0.061434
Si Si4 0.235260 0.326654 0.417801
Si Si5 0.402097 0.825660 0.011524
O O1 0.830329 0.500000 0.223125
O O2 0.764327 0.241952 0.324654
O O3 0.844801 0.289532 0.131590
O O4 0.969845 0.295958 0.103560
O O5 0.868640 0.257986 0.447720
O O6 0.836314 0.207680 0.364542
O O7 0.037960 0.209604 0.206023
O O8 0.908151 0.000000 0.362035
O O9 0.663335 0.500000 0.048834
O O10 0.750000 0.250000 0.000000
O O11 0.641394 0.262691 0.003130
O O12 0.225448 0.500000 0.423314
O O13 0.390955 0.000000 0.012363
#
# Coordination Sequence:
#
# PCOD9172415 Si02
#       5
#     8   8   8   8   8
#     4   9  17  30  50  75 105 135 163 203 254 304
#     4   9  19  33  47  70 102 134 168 204 250 302
#     4  11  22  36  53  74 102 136 173 211 249 295
#     4  10  18  29  49  76 103 131 165 207 253 300
#     4   9  18  32  50  74 102 135 171 204 247 301
#
# _framework density 16.0764
#
# number of rings (size 3 to 8) (size 9 to 14) (size 15 to 20)
#    0.000    2.400    2.000    2.400    0.000    3.200 
#    0.000    2.000    0.000    1.200    0.000    8.400 
#    0.000    0.000    0.000    0.000    0.000    0.000 
#
# Total GULP energy -111541.841643 kJ/mol
# GULP energy per Si atom -5577.092082 kJ/mol
# Density = 1.603981 g / cm^3
# Si number density = 16.076400 Si / 1000 Ang^3
#
#
#
# Elastic Constant Matrix: (Units=GPa)
#
#
# Indices 1 2 3 4 5 6 
#
# 1 102.5802 59.5203 75.4185 0.0000 14.0421 0.0000
# 2 59.5203 51.5230 66.9747 0.0002 14.1935 -0.0001
# 3 75.4185 66.9747 127.6800 0.0004 27.1774 -0.0001
# 4 0.0000 0.0002 0.0004 28.4288 -0.0001 6.0888
# 5 14.0421 14.1935 27.1774 -0.0001 29.3956 0.0000
# 6 0.0000 -0.0001 -0.0001 6.0888 0.0000 27.7263
#
#
#
# Elastic Compliance Matrix: (Units=1/GPa)
#
#
# Indices 1 2 3 4 5 6 
#
# 1 0.029790 -0.036265 0.000907 0.000000 0.002442 0.000000
# 2 -0.036265 0.105157 -0.033140 0.000000 -0.002811 0.000000
# 3 0.000907 -0.033140 0.026601 0.000000 -0.009026 0.000000
# 4 0.000000 0.000000 0.000000 0.036912 0.000000 -0.008106
# 5 0.002442 -0.002811 -0.009026 0.000000 0.042554 0.000000
# 6 0.000000 0.000000 0.000000 -0.008106 0.000000 0.037847
#
#
# Mechanical properties :
#
#
# Convention : Reuss Voigt Hill
#
# Bulk Modulus (GPa) = 40.73262 76.17890 58.45576
# Shear Modulus (GPa) = 11.79130 22.43480 17.11305
#
# Velocity S-wave (km/s) = 2.71117 3.73971 3.26618
# Velocity P-wave (km/s) = 5.93233 8.13238 7.11787
#
# Compressibility (1/GPa) = 0.02455035
#
# Stress axis : x y z
#
# Youngs Moduli (GPa) = 33.56869 9.50962 37.59202
#
# Poissons Ratio (x) = 0.34487 -0.03409
# Poissons Ratio (y) = 1.21737 1.24582
# Poissons Ratio (z) = -0.03045 0.31515
#
# Static dielectric constant tensor:
#      x y z
#    x 1.517770 0.000000 0.009110 
#    y 0.000000 1.528760 0.000000 
#    z 0.009110 0.000000 1.529550 
# 
# From -- ./inp_files/162358.got.cif
#   From: 2010.05.17/outbox.cif.g08.bks.cpg/sg12_82_cif.got.tgz:162358.got - 2010.06.03 13:09:07.
