data_PCOD9172523
_publ_section_title
;
Structure prediction by ZEFSAII (Michael W. Deem and Ramdas Pophale) SiO2 
 PCOD9172523
Probable space group: C 2/M
;
_chemical_formula_sum "Si O2"
_cell_formula_units_Z 64
_cell_length_a 20.648163
_cell_length_b 18.618830
_cell_length_c 15.545803
_cell_angle_alpha 90.000000
_cell_angle_beta 34.139349
_cell_angle_gamma 90.000000
_cell_volume 3354.057246
_symmetry_space_group_name_H-M "C 2/M"
_symmetry_group_IT_number 12
_symmetry_cell_setting 'monoclinic'
loop_
_space_group_symop_operation_xyz
x,y,z
-x,y,-z
-x,-y,-z
x,-y,z
1/2+x,1/2+y,z
1/2-x,1/2+y,-z
1/2-x,1/2-y,-z
1/2+x,1/2-y,z
loop_
_atom_site_type_symbol
_atom_site_label
_atom_site_fract_x
_atom_site_fract_y
_atom_site_fract_z
Si Si1 0.721353 0.668690 0.436773
Si Si2 0.692363 0.913868 0.490484
Si Si3 0.915948 0.085848 0.166580
Si Si4 0.491097 0.674025 0.782297
Si Si5 0.039243 0.585457 0.183711
Si Si6 0.972490 0.294599 0.130506
Si Si7 0.632371 0.416115 0.371556
Si Si8 0.700356 0.415887 0.102470
O O1 0.760943 0.615724 0.470006
O O2 0.599976 0.699718 0.604708
O O3 0.834437 0.716988 0.296624
O O4 0.692259 0.627649 0.381108
O O5 0.782121 0.889530 0.318256
O O6 0.557794 0.893831 0.639155
O O7 0.697599 0.000000 0.485540
O O8 0.967551 0.109742 0.200760
O O9 0.915801 0.000000 0.159191
O O10 0.000000 0.114866 0.000000
O O11 0.462771 0.737502 0.879823
O O12 0.389717 0.640171 0.837653
O O13 0.031740 0.500000 0.176060
O O14 0.007285 0.628771 0.132643
O O15 0.169409 0.600052 0.069326
O O16 0.000000 0.290045 0.000000
O O17 0.500000 0.393220 0.500000
O O18 0.627961 0.500000 0.402268
O O19 0.696558 0.410569 0.210103
O O20 0.671500 0.500000 0.113436
#
# Coordination Sequence:
#
# PCOD9172523 Si02
#       8
#     8   8   8   8   8   8   8   8
#     4  10  19  33  52  76 107 141 175 216 266 324
#     4   8  15  28  50  76 104 137 173 218 268 316
#     4   9  17  30  51  78 104 135 179 231 276 308
#     4  11  21  34  52  77 109 142 178 219 268 322
#     4   9  19  36  55  78 105 138 181 220 267 332
#     4  11  23  37  54  77 106 144 181 223 269 316
#     4  10  18  29  50  82 114 140 171 219 274 324
#     4  10  20  34  55  81 111 145 179 220 268 325
#
# _framework density 19.081368000000001
#
# number of rings (size 3 to 8) (size 9 to 14) (size 15 to 20)
#    0.000    2.250    1.250    2.250    0.000    2.250 
#    0.000    0.000    0.000    0.750    0.000    4.375 
#    0.000    0.000    0.000    0.000    0.000    0.000 
#
# Total GULP energy -178294.660531 kJ/mol
# GULP energy per Si atom -5571.708142 kJ/mol
# Density = 1.903794 g / cm^3
# Si number density = 19.081368 Si / 1000 Ang^3
#
#
#
# Elastic Constant Matrix: (Units=GPa)
#
#
# Indices 1 2 3 4 5 6 
#
# 1 49.3520 24.9325 35.5073 0.0000 0.3872 0.0000
# 2 24.9325 44.4102 25.2961 0.0000 -2.8206 0.0000
# 3 35.5073 25.2961 144.8952 0.0000 -1.0769 0.0000
# 4 0.0000 0.0000 0.0000 1.1410 0.0000 6.6228
# 5 0.3872 -2.8206 -1.0769 0.0000 24.8560 0.0000
# 6 0.0000 0.0000 0.0000 6.6228 0.0000 29.4514
#
#
#
# Elastic Compliance Matrix: (Units=1/GPa)
#
#
# Indices 1 2 3 4 5 6 
#
# 1 0.031514 -0.014920 -0.005136 0.000001 -0.002407 0.000000
# 2 -0.014920 0.032243 -0.001945 -0.000001 0.003807 0.000000
# 3 -0.005136 -0.001945 0.008501 0.000001 0.000228 0.000000
# 4 0.000001 -0.000001 0.000001 -2.871009 -0.000004 0.645607
# 5 -0.002407 0.003807 0.000228 -0.000004 0.040711 0.000001
# 6 0.000000 0.000000 0.000000 0.645607 0.000001 -0.111224
#
#
# Mechanical properties :
#
#
# Convention : Reuss Voigt Hill
#
# Bulk Modulus (GPa) = 35.38849 45.56991 40.47920
# Shear Modulus (GPa) = -1.77567 21.28445 9.75439
#
# Velocity S-wave (km/s) = -0.96571 3.34347 2.26343
# Velocity P-wave (km/s) = 4.16448 6.23208 5.30008
#
# Compressibility (1/GPa) = 0.02825778
#
# Stress axis : x y z
#
# Youngs Moduli (GPa) = 31.73188 31.01446 117.62946
#
# Poissons Ratio (x) = 0.46273 0.60412
# Poissons Ratio (y) = 0.47344 0.22874
# Poissons Ratio (z) = 0.16297 0.06031
#
# Static dielectric constant tensor:
#      x y z
#    x 1.611650 0.000000 -0.024960 
#    y 0.000000 1.677010 0.000000 
#    z -0.024960 0.000000 1.753170 
# 
# From -- ./inp_files/226813.got.cif
#   From: 2010.05.17/outbox.cif.g08.bks.cpg/sg12_114_cif.got.tgz:226813.got - 2010.06.03 13:09:07.
