data_PCOD9172979
_publ_section_title
;
Structure prediction by ZEFSAII (Michael W. Deem and Ramdas Pophale) SiO2 
 PCOD9172979
Probable space group: C 2/M
;
_chemical_formula_sum "Si O2"
_cell_formula_units_Z 52
_cell_length_a 17.082326
_cell_length_b 20.048738
_cell_length_c 20.108999
_cell_angle_alpha 90.000000
_cell_angle_beta 25.269071
_cell_angle_gamma 90.000000
_cell_volume 2939.814275
_symmetry_space_group_name_H-M "C 2/M"
_symmetry_group_IT_number 12
_symmetry_cell_setting 'monoclinic'
loop_
_space_group_symop_operation_xyz
x,y,z
-x,y,-z
-x,-y,-z
x,-y,z
1/2+x,1/2+y,z
1/2-x,1/2+y,-z
1/2-x,1/2-y,-z
1/2+x,1/2-y,z
loop_
_atom_site_type_symbol
_atom_site_label
_atom_site_fract_x
_atom_site_fract_y
_atom_site_fract_z
Si Si1 0.134533 0.349803 0.260884
Si Si2 0.360586 0.305444 0.871748
Si Si3 0.777097 0.303091 0.582089
Si Si4 0.763230 0.074638 0.286635
Si Si5 0.000000 0.799240 0.500000
Si Si6 0.321531 0.423419 0.000831
Si Si7 0.781332 0.294365 0.168613
O O1 0.163251 0.404637 0.296048
O O2 0.255928 0.286487 0.191956
O O3 0.930109 0.321605 0.411117
O O4 0.190267 0.383055 0.149953
O O5 0.575708 0.288374 0.711322
O O6 0.340214 0.377964 0.921406
O O7 0.294131 0.309077 0.847195
O O8 0.250000 0.250000 0.000000
O O9 0.773284 0.368119 0.632051
O O10 0.863925 0.244524 0.559155
O O11 0.983229 0.075448 0.110903
O O12 0.713033 0.000000 0.346740
O O13 0.149055 0.825718 0.328750
O O14 0.269078 0.500000 0.028337
O O15 0.000000 0.310043 0.000000
#
# Coordination Sequence:
#
# PCOD9172979 Si02
#       7
#     8   8   8   8   4   8   8
#     4  11  19  30  50  80 115 152 183 224 267 345
#     4  11  22  37  58  81 110 153 193 239 289 341
#     4  10  20  33  47  80 113 148 187 228 274 328
#     4  10  18  30  49  73 113 161 191 214 259 333
#     4  10  20  34  53  78 115 150 180 238 274 336
#     4  10  21  35  52  80 114 152 196 233 276 338
#     4  11  21  37  57  81 111 145 189 237 293 340
#
# _framework density 17.688192000000001
#
# number of rings (size 3 to 8) (size 9 to 14) (size 15 to 20)
#    0.000    1.538    4.615    2.769    0.000    5.538 
#    2.769    0.000    0.000    0.462    0.000    0.538 
#    0.000    0.000    0.000    0.000    0.000    0.000 
#
# Total GULP energy -144837.551887 kJ/mol
# GULP energy per Si atom -5570.675073 kJ/mol
# Density = 1.764793 g / cm^3
# Si number density = 17.688192 Si / 1000 Ang^3
#
#
#
# Elastic Constant Matrix: (Units=GPa)
#
#
# Indices 1 2 3 4 5 6 
#
# 1 97.7028 5.4860 60.1863 0.0000 -5.8112 -0.0038
# 2 5.4860 23.6088 7.4798 -0.0040 8.1636 0.0036
# 3 60.1863 7.4798 136.8561 0.0012 -4.1479 -0.0005
# 4 0.0000 -0.0040 0.0012 2.1330 0.0066 -3.9478
# 5 -5.8112 8.1636 -4.1479 0.0066 23.8296 0.0011
# 6 -0.0038 0.0036 -0.0005 -3.9478 0.0011 18.8813
#
#
#
# Elastic Compliance Matrix: (Units=1/GPa)
#
#
# Indices 1 2 3 4 5 6 
#
# 1 0.014302 -0.002551 -0.006050 -0.000010 0.003308 0.000001
# 2 -0.002551 0.049886 -0.002153 0.000220 -0.018087 0.000037
# 3 -0.006050 -0.002153 0.010116 -0.000023 0.001023 -0.000005
# 4 -0.000010 0.000220 -0.000023 0.764757 -0.000300 0.159901
# 5 0.003308 -0.018087 0.001023 -0.000300 0.049146 -0.000061
# 6 0.000001 0.000037 -0.000005 0.159901 -0.000061 0.086395
#
#
# Mechanical properties :
#
#
# Convention : Reuss Voigt Hill
#
# Bulk Modulus (GPa) = 18.94041 44.94132 31.94086
# Shear Modulus (GPa) = 4.93238 21.30318 13.11778
#
# Velocity S-wave (km/s) = 1.67170 3.47417 2.72621
# Velocity P-wave (km/s) = 3.80227 6.44638 5.29212
#
# Compressibility (1/GPa) = 0.05279716
#
# Stress axis : x y z
#
# Youngs Moduli (GPa) = 69.92014 20.04569 98.85042
#
# Poissons Ratio (x) = 0.05113 0.59805
# Poissons Ratio (y) = 0.17834 0.21282
# Poissons Ratio (z) = 0.42302 0.04316
#
# Static dielectric constant tensor:
#      x y z
#    x 1.576130 0.000000 0.020830 
#    y 0.000000 1.599260 0.000010 
#    z 0.020830 0.000010 1.709170 
# 
# From -- ./inp_files/106349.got.cif
#   From: 2010.05.17/outbox.cif.g08.bks.cpg/sg12_54_cif.got.tgz:106349.got - 2010.06.03 13:09:07.
