data_PCOD9172631
_publ_section_title
;
Structure prediction by ZEFSAII (Michael W. Deem and Ramdas Pophale) SiO2 
 PCOD9172631
Probable space group: C 2/M
;
_chemical_formula_sum "Si O2"
_cell_formula_units_Z 30
_cell_length_a 22.930075
_cell_length_b 5.405073
_cell_length_c 17.744675
_cell_angle_alpha 90.000000
_cell_angle_beta 144.449072
_cell_angle_gamma 90.000000
_cell_volume 1278.703363
_symmetry_space_group_name_H-M "C 2/M"
_symmetry_group_IT_number 12
_symmetry_cell_setting 'monoclinic'
loop_
_space_group_symop_operation_xyz
x,y,z
-x,y,-z
-x,-y,-z
x,-y,z
1/2+x,1/2+y,z
1/2-x,1/2+y,-z
1/2-x,1/2-y,-z
1/2+x,1/2-y,z
loop_
_atom_site_type_symbol
_atom_site_label
_atom_site_fract_x
_atom_site_fract_y
_atom_site_fract_z
Si Si1 0.271843 0.500000 0.934144
Si Si2 0.736828 0.500000 0.637798
Si Si3 0.188958 0.000000 0.853105
Si Si4 0.792275 0.000000 0.689939
Si Si5 0.000000 0.500000 0.000000
Si Si6 0.526146 0.500000 0.930435
Si Si7 0.865234 0.500000 0.615927
Si Si8 0.540522 0.500000 0.340311
O O1 0.222351 0.253015 0.849929
O O2 0.254298 0.500000 0.005926
O O3 0.390693 0.500000 0.046351
O O4 0.768320 0.751696 0.709265
O O5 0.805703 0.500000 0.632629
O O6 0.622052 0.500000 0.493965
O O7 0.070865 0.000000 0.745438
O O8 0.907592 0.000000 0.790188
O O9 0.719715 0.000000 0.539781
O O10 0.961492 0.730218 0.015937
O O11 0.931002 0.254565 0.672924
#
# Coordination Sequence:
#
# PCOD9172631 Si02
#       8
#     4   4   4   4   2   4   4   4
#     4  10  22  35  52  76 106 149 186 228 245 317
#     4  10  19  28  44  76 108 137 182 210 242 334
#     4  10  21  35  47  78 113 147 198 204 243 304
#     4  10  19  31  48  77 100 139 175 198 274 338
#     4  10  24  42  56  86  98 130 192 242 294 330
#     4  11  22  39  62  76 112 139 176 240 285 321
#     4  10  19  28  44  75 106 140 181 212 244 328
#     4  10  18  30  45  62 108 152 170 219 240 278
#
# _framework density 23.461264
#
# number of rings (size 3 to 8) (size 9 to 14) (size 15 to 20)
#    0.000    1.867    0.000    6.400    5.600    0.000 
#    0.000    0.000    0.000    0.000    0.000    0.000 
#    0.000  298.667    0.000    0.000    0.000    0.000 
#
# Total GULP energy -83513.428541 kJ/mol
# GULP energy per Si atom -5567.561903 kJ/mol
# Density = 2.340787 g / cm^3
# Si number density = 23.461264 Si / 1000 Ang^3
#
#
#
# Elastic Constant Matrix: (Units=GPa)
#
#
# Indices 1 2 3 4 5 6 
#
# 1 44.7269 33.2424 8.7947 0.0000 6.2217 0.0000
# 2 33.2424 303.1491 53.6407 0.0002 18.4945 0.0002
# 3 8.7947 53.6407 92.5231 0.0000 27.6905 0.0000
# 4 0.0000 0.0002 0.0000 22.7998 0.0000 37.6035
# 5 6.2217 18.4945 27.6905 0.0000 29.0007 0.0000
# 6 0.0000 0.0002 0.0000 37.6035 0.0000 42.4762
#
#
#
# Elastic Compliance Matrix: (Units=1/GPa)
#
#
# Indices 1 2 3 4 5 6 
#
# 1 0.024727 -0.002522 0.000305 0.000000 -0.003988 0.000000
# 2 -0.002522 0.003937 -0.002035 0.000000 -0.000027 0.000000
# 3 0.000305 -0.002035 0.016227 0.000000 -0.014262 0.000000
# 4 0.000000 0.000000 0.000000 -0.095328 0.000000 0.084393
# 5 -0.003988 -0.000027 -0.014262 0.000000 0.048972 0.000000
# 6 0.000000 0.000000 0.000000 0.084393 0.000000 -0.051169
#
#
# Mechanical properties :
#
#
# Convention : Reuss Voigt Hill
#
# Bulk Modulus (GPa) = 27.48148 70.19496 48.83822
# Shear Modulus (GPa) = -156.24272 41.83675 -57.20298
#
# Velocity S-wave (km/s) = -8.16949 4.22741 -4.94316
# Velocity P-wave (km/s) = 8.78911 7.33570 3.42316
#
# Compressibility (1/GPa) = 0.03638815
#
# Stress axis : x y z
#
# Youngs Moduli (GPa) = 40.44123 254.00356 61.62563
#
# Poissons Ratio (x) = 0.64066 -0.01882
# Poissons Ratio (y) = 0.10200 0.12539
# Poissons Ratio (z) = -0.01235 0.51682
#
# Static dielectric constant tensor:
#      x y z
#    x 1.866790 0.000000 -0.082700 
#    y 0.000000 2.723200 0.000000 
#    z -0.082700 0.000000 1.926730 
# 
# From -- ./inp_files/170961.got.cif
#   From: 2010.05.17/outbox.cif.g08.bks.cpg/sg12_86_cif.got.tgz:170961.got - 2010.06.03 13:09:07.
