data_PCOD9172354
_publ_section_title
;
Structure prediction by ZEFSAII (Michael W. Deem and Ramdas Pophale) SiO2 
 PCOD9172354
Probable space group: C 2/M
;
_chemical_formula_sum "Si O2"
_cell_formula_units_Z 64
_cell_length_a 15.765455
_cell_length_b 18.284897
_cell_length_c 23.558708
_cell_angle_alpha 90.000000
_cell_angle_beta 147.014286
_cell_angle_gamma 90.000000
_cell_volume 3697.366228
_symmetry_space_group_name_H-M "C 2/M"
_symmetry_group_IT_number 12
_symmetry_cell_setting 'monoclinic'
loop_
_space_group_symop_operation_xyz
x,y,z
-x,y,-z
-x,-y,-z
x,-y,z
1/2+x,1/2+y,z
1/2-x,1/2+y,-z
1/2-x,1/2-y,-z
1/2+x,1/2-y,z
loop_
_atom_site_type_symbol
_atom_site_label
_atom_site_fract_x
_atom_site_fract_y
_atom_site_fract_z
Si Si1 0.140853 0.123480 0.622167
Si Si2 0.041620 0.231142 0.722460
Si Si3 0.243939 0.770872 0.262413
Si Si4 0.613420 0.875922 0.394398
Si Si5 0.015832 0.420318 0.220261
Si Si6 0.089786 0.269818 0.880297
Si Si7 0.415856 0.915221 0.392332
Si Si8 0.450532 0.581526 0.619218
O O1 0.171234 0.209518 0.650921
O O2 0.301779 0.090301 0.691299
O O3 0.000000 0.113475 0.500000
O O4 0.089272 0.086595 0.651714
O O5 0.184507 0.253502 0.760151
O O6 0.079171 0.240360 0.809668
O O7 0.907997 0.289355 0.628940
O O8 0.982302 0.149222 0.678421
O O9 0.289937 0.851855 0.309115
O O10 0.060672 0.757114 0.168478
O O11 0.514082 0.910254 0.287239
O O12 0.541625 0.900934 0.413436
O O13 0.791381 0.900884 0.495996
O O14 0.960960 0.500000 0.173225
O O15 0.926816 0.356745 0.137907
O O16 0.250000 0.250000 0.000000
O O17 0.500000 0.904428 0.500000
O O18 0.361738 0.000000 0.359254
O O19 0.440132 0.500000 0.638003
#
# Coordination Sequence:
#
# PCOD9172354 Si02
#       8
#     8   8   8   8   8   8   8   8
#     4  10  18  29  48  77 112 146 171 199 250 315
#     4   9  21  37  53  75 104 139 174 216 262 314
#     4   9  20  36  53  75 104 138 175 217 262 314
#     4  10  19  32  50  73 107 146 177 203 249 310
#     4  10  19  33  54  80 109 135 169 220 264 304
#     4  10  22  40  60  78  97 134 184 225 269 318
#     4  10  20  32  48  73 107 145 178 208 248 303
#     4  11  20  29  47  78 113 144 173 203 246 308
#
# _framework density 17.309618
#
# number of rings (size 3 to 8) (size 9 to 14) (size 15 to 20)
#    0.000    2.125    1.250    2.250    1.750    1.000 
#    0.000    1.250    0.000    0.000    0.000   10.500 
#    0.000    0.000    0.000    0.000    0.000    0.000 
#
# Total GULP energy -178428.839828 kJ/mol
# GULP energy per Si atom -5575.901245 kJ/mol
# Density = 1.727022 g / cm^3
# Si number density = 17.309618 Si / 1000 Ang^3
#
#
#
# Elastic Constant Matrix: (Units=GPa)
#
#
# Indices 1 2 3 4 5 6 
#
# 1 54.3673 25.7677 20.8087 0.0002 0.9292 0.0000
# 2 25.7677 163.3078 51.2799 0.0004 3.8029 0.0002
# 3 20.8087 51.2799 73.5047 0.0010 8.8456 0.0004
# 4 0.0002 0.0004 0.0010 1.7493 0.0003 -1.0850
# 5 0.9292 3.8029 8.8456 0.0003 14.3681 0.0001
# 6 0.0000 0.0002 0.0004 -1.0850 0.0001 10.4099
#
#
#
# Elastic Compliance Matrix: (Units=1/GPa)
#
#
# Indices 1 2 3 4 5 6 
#
# 1 0.021122 -0.001823 -0.004970 0.000001 0.002176 0.000000
# 2 -0.001823 0.008024 -0.005228 0.000001 0.001213 0.000000
# 3 -0.004970 -0.005228 0.019930 -0.000008 -0.010565 -0.000001
# 4 0.000001 0.000001 -0.000008 0.611162 -0.000009 0.063700
# 5 0.002176 0.001213 -0.010565 -0.000009 0.075641 -0.000001
# 6 0.000000 0.000000 -0.000001 0.063700 -0.000001 0.102702
#
#
# Mechanical properties :
#
#
# Convention : Reuss Voigt Hill
#
# Bulk Modulus (GPa) = 39.94322 54.09915 47.02119
# Shear Modulus (GPa) = 5.74074 18.19370 11.96722
#
# Velocity S-wave (km/s) = 1.82310 3.24555 2.63223
# Velocity P-wave (km/s) = 5.24952 6.73546 6.03837
#
# Compressibility (1/GPa) = 0.02503554
#
# Stress axis : x y z
#
# Youngs Moduli (GPa) = 47.34326 124.61916 50.17534
#
# Poissons Ratio (x) = 0.22718 0.24935
# Poissons Ratio (y) = 0.08631 0.26232
# Poissons Ratio (z) = 0.23528 0.65151
#
# Static dielectric constant tensor:
#      x y z
#    x 1.625310 0.000000 0.001110 
#    y 0.000000 1.631610 0.000000 
#    z 0.001110 0.000000 1.530150 
# 
# From -- ./inp_files/344390.got.cif
#   From: 2010.05.17/outbox.cif.g08.bks.cpg/sg12_173_cif.got.tgz:344390.got - 2010.06.03 13:09:07.
