data_PCOD9172981
_publ_section_title
;
Structure prediction by ZEFSAII (Michael W. Deem and Ramdas Pophale) SiO2 
 PCOD9172981
Probable space group: C 2/M
;
_chemical_formula_sum "Si O2"
_cell_formula_units_Z 56
_cell_length_a 5.398826
_cell_length_b 14.290559
_cell_length_c 31.825025
_cell_angle_alpha 90.000000
_cell_angle_beta 104.720172
_cell_angle_gamma 90.000000
_cell_volume 2374.782660
_symmetry_space_group_name_H-M "C 2/M"
_symmetry_group_IT_number 12
_symmetry_cell_setting 'monoclinic'
loop_
_space_group_symop_operation_xyz
x,y,z
-x,y,-z
-x,-y,-z
x,-y,z
1/2+x,1/2+y,z
1/2-x,1/2+y,-z
1/2-x,1/2-y,-z
1/2+x,1/2-y,z
loop_
_atom_site_type_symbol
_atom_site_label
_atom_site_fract_x
_atom_site_fract_y
_atom_site_fract_z
Si Si1 0.820194 0.113770 0.731486
Si Si2 0.586076 0.113344 0.880378
Si Si3 0.705253 0.350072 0.583743
Si Si4 0.256523 0.613699 0.318974
Si Si5 0.222185 0.645062 0.981426
Si Si6 0.152887 0.361155 0.549448
Si Si7 0.011635 0.114218 0.830491
O O1 0.525042 0.138406 0.710411
O O2 0.016955 0.140660 0.703105
O O3 0.920220 0.147783 0.780886
O O4 0.826839 0.000000 0.733022
O O5 0.646286 0.147619 0.929642
O O6 0.302195 0.141736 0.853493
O O7 0.807433 0.141457 0.857303
O O8 0.587999 0.000000 0.882208
O O9 0.706828 0.341688 0.633821
O O10 0.439805 0.398953 0.560199
O O11 0.698813 0.249155 0.560766
O O12 0.967985 0.394972 0.578739
O O13 0.264799 0.500000 0.324491
O O14 0.500000 0.601115 0.000000
O O15 0.250000 0.750000 0.000000
O O16 0.000000 0.601194 0.000000
O O17 0.000000 0.374670 0.500000
O O18 0.010166 0.000000 0.829244
#
# Coordination Sequence:
#
# PCOD9172981 Si02
#       7
#     8   8   8   8   8   8   8
#     4   9  17  30  47  70 102 136 164 191 232 289
#     4  10  19  31  51  79 104 125 159 212 258 285
#     4  10  18  30  49  73  95 122 158 202 246 286
#     4  10  19  30  47  73 104 134 161 191 233 292
#     4  10  21  36  52  73  99 135 172 202 240 300
#     4  10  19  33  53  71  88 118 164 213 251 286
#     4   9  17  30  49  75 104 130 161 205 250 283
#
# _framework density 23.581105999999998
#
# number of rings (size 3 to 8) (size 9 to 14) (size 15 to 20)
#    0.000    2.286    0.000    4.714    0.000    4.000 
#    0.000    0.000    0.000    4.714    0.000   80.000 
#    0.000    0.000    0.000    0.000    0.000    0.000 
#
# Total GULP energy -156647.154422 kJ/mol
# GULP energy per Si atom -5594.541229 kJ/mol
# Density = 2.352743 g / cm^3
# Si number density = 23.581106 Si / 1000 Ang^3
#
#
#
# Elastic Constant Matrix: (Units=GPa)
#
#
# Indices 1 2 3 4 5 6 
#
# 1 147.3767 -5.4913 -10.9596 0.0000 -0.2737 0.0000
# 2 -5.4913 95.7804 -9.1029 0.0000 0.9182 0.0000
# 3 -10.9596 -9.1029 95.5935 0.0000 1.1154 0.0000
# 4 0.0000 0.0000 0.0000 -1.3591 0.0000 -32.2288
# 5 -0.2737 0.9182 1.1154 0.0000 51.4089 0.0000
# 6 0.0000 0.0000 0.0000 -32.2288 0.0000 -32.1297
#
#
#
# Elastic Compliance Matrix: (Units=1/GPa)
#
#
# Indices 1 2 3 4 5 6 
#
# 1 0.006865 0.000473 0.000832 0.000000 0.000010 0.000000
# 2 0.000473 0.010571 0.001063 0.000000 -0.000209 0.000000
# 3 0.000832 0.001063 0.010660 0.000000 -0.000246 0.000000
# 4 0.000000 0.000000 0.000000 0.032290 0.000000 -0.032390
# 5 0.000010 -0.000209 -0.000246 0.000000 0.019461 0.000000
# 6 0.000000 0.000000 0.000000 -0.032390 0.000000 0.001366
#
#
# Mechanical properties :
#
#
# Convention : Reuss Voigt Hill
#
# Bulk Modulus (GPa) = 30.45870 31.96032 31.20951
# Shear Modulus (GPa) = 57.19412 27.87098 42.53255
#
# Velocity S-wave (km/s) = 4.93020 3.44164 4.25157
# Velocity P-wave (km/s) = 6.73452 5.41996 6.11268
#
# Compressibility (1/GPa) = 0.03283134
#
# Stress axis : x y z
#
# Youngs Moduli (GPa) = 145.67013 94.60117 93.80462
#
# Poissons Ratio (x) = -0.04470 -0.07804
# Poissons Ratio (y) = -0.06884 -0.09973
# Poissons Ratio (z) = -0.12119 -0.10058
#
# Static dielectric constant tensor:
#      x y z
#    x 1.881770 0.000000 0.001920 
#    y 0.000000 1.786100 0.000000 
#    z 0.001920 0.000000 1.800020 
# 
# From -- ./inp_files/354959.got.cif
#   From: 2010.05.17/outbox.cif.g08.bks.cpg/sg12_178_cif.got.tgz:354959.got - 2010.06.03 13:09:07.
