data_PCOD9172310
_publ_section_title
;
Structure prediction by ZEFSAII (Michael W. Deem and Ramdas Pophale) SiO2 
 PCOD9172310
Probable space group: C 2/M
;
_chemical_formula_sum "Si O2"
_cell_formula_units_Z 64
_cell_length_a 19.393699
_cell_length_b 7.292890
_cell_length_c 25.355678
_cell_angle_alpha 90.000000
_cell_angle_beta 43.428526
_cell_angle_gamma 90.000000
_cell_volume 2465.336082
_symmetry_space_group_name_H-M "C 2/M"
_symmetry_group_IT_number 12
_symmetry_cell_setting 'monoclinic'
loop_
_space_group_symop_operation_xyz
x,y,z
-x,y,-z
-x,-y,-z
x,-y,z
1/2+x,1/2+y,z
1/2-x,1/2+y,-z
1/2-x,1/2-y,-z
1/2+x,1/2-y,z
loop_
_atom_site_type_symbol
_atom_site_label
_atom_site_fract_x
_atom_site_fract_y
_atom_site_fract_z
Si Si1 0.826483 0.225834 0.631926
Si Si2 0.727746 0.776522 0.881917
Si Si3 0.549475 0.209563 0.050004
Si Si4 0.096345 0.779061 0.138460
Si Si5 0.793153 0.233619 0.536212
Si Si6 0.927807 0.774902 0.310011
Si Si7 0.670010 0.222431 0.801903
Si Si8 0.516266 0.702222 0.369064
O O1 0.831778 0.309589 0.571335
O O2 0.724128 0.278162 0.718529
O O3 0.913280 0.281116 0.624766
O O4 0.832893 0.000000 0.620594
O O5 0.816834 0.716735 0.870319
O O6 0.735348 0.725113 0.816771
O O7 0.727071 0.000000 0.884069
O O8 0.621630 0.713164 0.965226
O O9 0.608569 0.210524 0.072507
O O10 0.441772 0.290961 0.124349
O O11 0.529114 0.000000 0.045476
O O12 0.989607 0.727016 0.223543
O O13 0.098693 0.000000 0.135458
O O14 0.750000 0.250000 0.500000
O O15 0.681866 0.190466 0.622377
O O16 0.905042 0.181247 0.454742
O O17 0.995868 0.717760 0.322585
O O18 0.915311 0.000000 0.320197
O O19 0.666806 0.000000 0.801414
O O20 0.560973 0.500000 0.333666
#
# Coordination Sequence:
#
# PCOD9172310 Si02
#       8
#     8   8   8   8   8   8   8   8
#     4  10  18  29  48  73  97 119 152 202 251 290
#     4   9  17  30  49  73 100 132 169 206 246 296
#     4  10  19  31  49  75 106 134 163 206 258 305
#     4  10  19  32  51  73  99 134 175 211 244 294
#     4  10  19  29  43  66  94 121 148 184 239 298
#     4   9  18  32  48  67  93 127 165 200 236 286
#     4   9  17  29  48  74 100 128 164 206 252 300
#     4   9  17  30  49  72  96 121 153 199 250 293
#
# _framework density 25.959949000000002
#
# number of rings (size 3 to 8) (size 9 to 14) (size 15 to 20)
#    0.000    2.500    0.000    3.000    0.000    6.000 
#    0.000    0.625    0.000    4.500    0.000    1.750 
#    0.000    0.000    0.000    0.000    0.000    0.000 
#
# Total GULP energy -178229.634256 kJ/mol
# GULP energy per Si atom -5569.676070 kJ/mol
# Density = 2.590086 g / cm^3
# Si number density = 25.959949 Si / 1000 Ang^3
#
#
#
# Elastic Constant Matrix: (Units=GPa)
#
#
# Indices 1 2 3 4 5 6 
#
# 1 122.7469 -3.7701 11.0678 0.0010 9.8666 -0.0029
# 2 -3.7701 108.5069 4.2517 0.0072 0.2223 0.0084
# 3 11.0678 4.2517 141.0683 -0.0004 17.8869 0.0010
# 4 0.0010 0.0072 -0.0004 -10.3709 -0.0002 13.0758
# 5 9.8666 0.2223 17.8869 -0.0002 60.3693 -0.0004
# 6 -0.0029 0.0084 0.0010 13.0758 -0.0004 -17.5697
#
#
#
# Elastic Compliance Matrix: (Units=1/GPa)
#
#
# Indices 1 2 3 4 5 6 
#
# 1 0.008299 0.000311 -0.000507 -0.000008 -0.001207 -0.000007
# 2 0.000311 0.009239 -0.000303 0.000194 0.000005 0.000148
# 3 -0.000507 -0.000303 0.007405 0.000000 -0.002110 0.000000
# 4 -0.000008 0.000194 0.000000 -1.563426 -0.000011 -1.163538
# 5 -0.001207 0.000005 -0.002110 -0.000011 0.017387 -0.000008
# 6 -0.000007 0.000148 0.000000 -1.163538 -0.000008 -0.922848
#
#
# Mechanical properties :
#
#
# Convention : Reuss Voigt Hill
#
# Bulk Modulus (GPa) = 41.76633 43.93566 42.85099
# Shear Modulus (GPa) = -2.05342 30.53725 14.24191
#
# Velocity S-wave (km/s) = -0.89034 3.43348 2.34479
# Velocity P-wave (km/s) = 3.88159 5.71660 4.88601
#
# Compressibility (1/GPa) = 0.02394273
#
# Stress axis : x y z
#
# Youngs Moduli (GPa) = 120.49381 108.24088 135.03890
#
# Poissons Ratio (x) = -0.03363 0.06852
# Poissons Ratio (y) = -0.03744 0.04098
# Poissons Ratio (z) = 0.06114 0.03285
#
# Static dielectric constant tensor:
#      x y z
#    x 2.019110 -0.000010 -0.038460 
#    y -0.000010 2.069520 0.000000 
#    z -0.038460 0.000000 1.934250 
# 
# From -- ./inp_files/276498.got.cif
#   From: 2010.05.17/outbox.cif.g08.bks.cpg/sg12_139_cif.got.tgz:276498.got - 2010.06.03 13:09:07.
