data_PCOD9172013
_publ_section_title
;
Structure prediction by ZEFSAII (Michael W. Deem and Ramdas Pophale) SiO2 
 PCOD9172013
Probable space group: C 2/M
;
_chemical_formula_sum "Si O2"
_cell_formula_units_Z 48
_cell_length_a 27.705692
_cell_length_b 8.431384
_cell_length_c 17.904536
_cell_angle_alpha 90.000000
_cell_angle_beta 139.211205
_cell_angle_gamma 90.000000
_cell_volume 2732.280937
_symmetry_space_group_name_H-M "C 2/M"
_symmetry_group_IT_number 12
_symmetry_cell_setting 'monoclinic'
loop_
_space_group_symop_operation_xyz
x,y,z
-x,y,-z
-x,-y,-z
x,-y,z
1/2+x,1/2+y,z
1/2-x,1/2+y,-z
1/2-x,1/2-y,-z
1/2+x,1/2-y,z
loop_
_atom_site_type_symbol
_atom_site_label
_atom_site_fract_x
_atom_site_fract_y
_atom_site_fract_z
Si Si1 0.382210 0.189022 0.857834
Si Si2 0.555530 0.307725 0.499178
Si Si3 0.281373 0.679364 0.318350
Si Si4 0.028082 0.682393 0.302456
Si Si5 0.999083 0.813458 0.112095
Si Si6 0.817444 0.178923 0.535058
O O1 0.300518 0.252031 0.783828
O O2 0.421586 0.263508 0.830910
O O3 0.375742 0.000000 0.837365
O O4 0.438480 0.222982 0.991277
O O5 0.500000 0.262664 0.500000
O O6 0.560349 0.500000 0.501370
O O7 0.639627 0.248294 0.613761
O O8 0.525594 0.252184 0.383335
O O9 0.277265 0.500000 0.281372
O O10 0.293556 0.667222 0.421277
O O11 0.005757 0.500000 0.277026
O O12 0.990120 0.771406 0.188703
O O13 0.113932 0.703974 0.381729
O O14 0.990224 0.000000 0.090225
O O15 0.750000 0.250000 0.500000
O O16 0.838546 0.000000 0.584528
#
# Coordination Sequence:
#
# PCOD9172013 Si02
#       6
#     8   8   8   8   8   8
#     4  10  18  31  50  73 103 136 169 202 242 292
#     4   9  18  35  57  78 100 127 160 203 258 313
#     4   8  16  29  47  71  97 126 159 195 239 296
#     4  11  21  33  49  71  99 131 168 209 252 296
#     4  11  21  33  48  70 101 136 175 209 243 291
#     4  10  18  29  45  69 100 132 164 198 243 297
#
# _framework density 17.567740000000001
#
# number of rings (size 3 to 8) (size 9 to 14) (size 15 to 20)
#    0.000    2.167    0.000    7.000    0.000    1.667 
#    0.000    7.500    0.000    1.000    0.000    0.000 
#    0.000    0.000    0.000    0.000    0.000    0.000 
#
# Total GULP energy -133688.562119 kJ/mol
# GULP energy per Si atom -5570.356755 kJ/mol
# Density = 1.752776 g / cm^3
# Si number density = 17.567740 Si / 1000 Ang^3
#
#
#
# Elastic Constant Matrix: (Units=GPa)
#
#
# Indices 1 2 3 4 5 6 
#
# 1 118.8503 5.9735 35.6631 0.0000 4.6058 0.0000
# 2 5.9735 37.2756 -5.2033 0.0000 2.1653 0.0000
# 3 35.6631 -5.2033 62.3801 0.0000 1.0885 0.0000
# 4 0.0000 0.0000 0.0000 16.1713 0.0000 -7.1723
# 5 4.6058 2.1653 1.0885 0.0000 25.2492 0.0000
# 6 0.0000 0.0000 0.0000 -7.1723 0.0000 15.6441
#
#
#
# Elastic Compliance Matrix: (Units=1/GPa)
#
#
# Indices 1 2 3 4 5 6 
#
# 1 0.010436 -0.002447 -0.006146 0.000000 -0.001429 0.000000
# 2 -0.002447 0.027867 0.003760 0.000000 -0.002105 0.000000
# 3 -0.006146 0.003760 0.019859 0.000000 -0.000058 0.000000
# 4 0.000000 0.000000 0.000000 0.077622 0.000000 0.035587
# 5 -0.001429 -0.002105 -0.000058 0.000000 0.040049 0.000000
# 6 0.000000 0.000000 0.000000 0.035587 0.000000 0.080237
#
#
# Mechanical properties :
#
#
# Convention : Reuss Voigt Hill
#
# Bulk Modulus (GPa) = 20.62004 32.37473 26.49738
# Shear Modulus (GPa) = 17.73672 23.55110 20.64391
#
# Velocity S-wave (km/s) = 3.18090 3.66538 3.43170
# Velocity P-wave (km/s) = 5.02531 6.03173 5.55138
#
# Compressibility (1/GPa) = 0.04849651
#
# Stress axis : x y z
#
# Youngs Moduli (GPa) = 95.81776 35.88519 50.35496
#
# Poissons Ratio (x) = 0.08782 0.30947
# Poissons Ratio (y) = 0.23450 -0.18935
# Poissons Ratio (z) = 0.58888 -0.13494
#
# Static dielectric constant tensor:
#      x y z
#    x 4.773750 0.000000 1.064970 
#    y 0.000000 1.617860 0.000000 
#    z 1.064970 0.000000 1.972560 
# 
# From -- ./inp_files/291694.got.cif
#   From: 2010.05.17/outbox.cif.g08.bks.cpg/sg12_146_cif.got.tgz:291694.got - 2010.06.03 13:09:07.
