data_PCOD9172851
_publ_section_title
;
Structure prediction by ZEFSAII (Michael W. Deem and Ramdas Pophale) SiO2 
 PCOD9172851
Probable space group: C 2/M
;
_chemical_formula_sum "Si O2"
_cell_formula_units_Z 64
_cell_length_a 14.776257
_cell_length_b 7.419862
_cell_length_c 23.912467
_cell_angle_alpha 90.000000
_cell_angle_beta 85.340781
_cell_angle_gamma 90.000000
_cell_volume 2613.046425
_symmetry_space_group_name_H-M "C 2/M"
_symmetry_group_IT_number 12
_symmetry_cell_setting 'monoclinic'
loop_
_space_group_symop_operation_xyz
x,y,z
-x,y,-z
-x,-y,-z
x,-y,z
1/2+x,1/2+y,z
1/2-x,1/2+y,-z
1/2-x,1/2-y,-z
1/2+x,1/2-y,z
loop_
_atom_site_type_symbol
_atom_site_label
_atom_site_fract_x
_atom_site_fract_y
_atom_site_fract_z
Si Si1 0.015648 0.779392 0.905760
Si Si2 0.353534 0.793668 0.690368
Si Si3 0.676409 0.719727 0.746916
Si Si4 0.481544 0.219817 0.588619
Si Si5 0.520737 0.717656 0.220100
Si Si6 0.856829 0.714574 0.489504
Si Si7 0.214617 0.782031 0.873014
Si Si8 0.160770 0.801917 0.038326
O O1 0.990072 0.726117 0.843569
O O2 0.937072 0.710957 0.950762
O O3 0.120350 0.727617 0.908548
O O4 0.014244 0.000000 0.906377
O O5 0.252950 0.713499 0.700505
O O6 0.430620 0.713416 0.646601
O O7 0.394545 0.791878 0.750571
O O8 0.341026 0.000000 0.672298
O O9 0.677555 0.500000 0.745909
O O10 0.572544 0.774695 0.744262
O O11 0.703207 0.770358 0.809107
O O12 0.413338 0.271036 0.541544
O O13 0.582849 0.281860 0.566276
O O14 0.485989 0.000000 0.591527
O O15 0.525938 0.500000 0.220652
O O16 0.864280 0.500000 0.487830
O O17 0.750000 0.750000 0.500000
O O18 0.299802 0.700251 0.900417
O O19 0.222210 0.000000 0.875386
O O20 0.139715 0.000000 0.018040
O O21 0.250000 0.750000 0.000000
#
# Coordination Sequence:
#
# PCOD9172851 Si02
#       8
#     8   8   8   8   8   8   8   8
#     4   8  17  34  54  70  94 131 162 186 233 295
#     4  10  18  30  48  72 100 130 158 192 235 285
#     4   8  16  30  50  72  96 125 158 190 231 284
#     4   8  17  32  48  67  98 133 161 188 239 301
#     4   9  17  32  51  73  98 127 160 195 232 279
#     4   9  17  33  53  70  90 126 168 205 240 282
#     4   9  17  34  55  72  91 123 161 195 229 279
#     4  11  22  35  50  72  97 124 157 197 241 286
#
# _framework density 24.492487000000001
#
# number of rings (size 3 to 8) (size 9 to 14) (size 15 to 20)
#    0.000    3.000    0.000    3.375    0.000    1.500 
#    0.000   11.250    0.000    0.000    0.000    0.000 
#    0.000    0.000    0.000    0.000    0.000    0.000 
#
# Total GULP energy -178599.147392 kJ/mol
# GULP energy per Si atom -5581.223356 kJ/mol
# Density = 2.443674 g / cm^3
# Si number density = 24.492487 Si / 1000 Ang^3
#
#
#
# Elastic Constant Matrix: (Units=GPa)
#
#
# Indices 1 2 3 4 5 6 
#
# 1 164.3292 -3.0405 46.2207 0.0000 -57.1656 0.0000
# 2 -3.0405 75.4096 3.1770 0.0000 -8.2590 0.0000
# 3 46.2207 3.1770 53.6580 0.0000 -36.5914 0.0000
# 4 0.0000 0.0000 0.0000 1.8554 0.0000 -1.2704
# 5 -57.1656 -8.2590 -36.5914 0.0000 44.5704 0.0000
# 6 0.0000 0.0000 0.0000 -1.2704 0.0000 3.3039
#
#
#
# Elastic Compliance Matrix: (Units=1/GPa)
#
#
# Indices 1 2 3 4 5 6 
#
# 1 0.011311 0.002120 0.000664 0.000000 0.015445 0.000000
# 2 0.002120 0.014034 0.002205 0.000000 0.007130 0.000000
# 3 0.000664 0.002205 0.042698 0.000000 0.036315 0.000000
# 4 0.000000 0.000000 0.000000 0.731558 0.000000 0.281291
# 5 0.015445 0.007130 0.036315 0.000000 0.073380 0.000000
# 6 0.000000 0.000000 0.000000 0.281291 0.000000 0.410828
#
#
# Mechanical properties :
#
#
# Convention : Reuss Voigt Hill
#
# Bulk Modulus (GPa) = 12.81710 42.90126 27.85918
# Shear Modulus (GPa) = 3.84663 26.41526 15.13095
#
# Velocity S-wave (km/s) = 1.25457 3.28762 2.48821
# Velocity P-wave (km/s) = 2.70980 5.65379 4.43331
#
# Compressibility (1/GPa) = 0.07802077
#
# Stress axis : x y z
#
# Youngs Moduli (GPa) = 88.41240 71.25388 23.42009
#
# Poissons Ratio (x) = -0.15103 -0.01555
# Poissons Ratio (y) = -0.18740 -0.05165
# Poissons Ratio (z) = -0.05870 -0.15713
#
# Static dielectric constant tensor:
#      x y z
#    x 1.946400 0.000000 -0.073300 
#    y 0.000000 1.954790 0.000000 
#    z -0.073300 0.000000 1.993340 
# 
# From -- ./inp_files/359837.got.cif
#   From: 2010.05.17/outbox.cif.g08.bks.cpg/sg12_180_cif.got.tgz:359837.got - 2010.06.03 13:09:07.
