data_PCOD9172341
_publ_section_title
;
Structure prediction by ZEFSAII (Michael W. Deem and Ramdas Pophale) SiO2 
 PCOD9172341
Probable space group: C 2/M
;
_chemical_formula_sum "Si O2"
_cell_formula_units_Z 56
_cell_length_a 19.744982
_cell_length_b 8.691209
_cell_length_c 18.477944
_cell_angle_alpha 90.000000
_cell_angle_beta 81.078028
_cell_angle_gamma 90.000000
_cell_volume 3132.591548
_symmetry_space_group_name_H-M "C 2/M"
_symmetry_group_IT_number 12
_symmetry_cell_setting 'monoclinic'
loop_
_space_group_symop_operation_xyz
x,y,z
-x,y,-z
-x,-y,-z
x,-y,z
1/2+x,1/2+y,z
1/2-x,1/2+y,-z
1/2-x,1/2-y,-z
1/2+x,1/2-y,z
loop_
_atom_site_type_symbol
_atom_site_label
_atom_site_fract_x
_atom_site_fract_y
_atom_site_fract_z
Si Si1 0.447153 0.182259 0.311385
Si Si2 0.642982 0.682473 0.555657
Si Si3 0.717654 0.315556 0.401911
Si Si4 0.522065 0.184038 0.915188
Si Si5 0.788081 0.184698 0.764968
Si Si6 0.859182 0.182325 0.195356
Si Si7 0.065653 0.815665 0.199872
O O1 0.418617 0.233085 0.393694
O O2 0.390564 0.235556 0.261385
O O3 0.516824 0.263069 0.273939
O O4 0.454827 0.000000 0.305973
O O5 0.632881 0.500000 0.563679
O O6 0.658144 0.722124 0.469441
O O7 0.713464 0.729815 0.584558
O O8 0.730297 0.500000 0.405620
O O9 0.701197 0.279852 0.321867
O O10 0.592375 0.263581 0.878152
O O11 0.465680 0.238620 0.866387
O O12 0.530062 0.000000 0.908722
O O13 0.500000 0.224166 0.000000
O O14 0.718904 0.266882 0.801206
O O15 0.856160 0.227802 0.797199
O O16 0.778726 0.000000 0.772347
O O17 0.864684 0.000000 0.204379
O O18 0.061065 0.000000 0.193957
#
# Coordination Sequence:
#
# PCOD9172341 Si02
#       7
#     8   8   8   8   8   8   8
#     4  11  20  33  52  74 105 144 184 227 273 318
#     4  10  18  29  48  76 103 135 185 232 272 317
#     4   9  18  31  49  73 105 142 177 224 278 320
#     4  10  21  39  62  85 110 141 175 213 261 316
#     4  10  20  36  55  79 111 145 178 218 271 324
#     4  11  21  33  56  85 109 139 179 221 262 312
#     4  10  21  36  57  82 109 141 178 220 267 318
#
# _framework density 17.876573
#
# number of rings (size 3 to 8) (size 9 to 14) (size 15 to 20)
#    0.000    1.857    1.429    5.571    0.000    2.857 
#    0.000    1.429    0.000    4.286    0.000    0.000 
#    0.000    0.000    0.000    0.000    0.000    0.000 
#
# Total GULP energy -156337.426648 kJ/mol
# GULP energy per Si atom -5583.479523 kJ/mol
# Density = 1.783589 g / cm^3
# Si number density = 17.876573 Si / 1000 Ang^3
#
#
#
# Elastic Constant Matrix: (Units=GPa)
#
#
# Indices 1 2 3 4 5 6 
#
# 1 93.1419 14.7410 33.1090 0.0000 -7.0515 0.0000
# 2 14.7410 34.7869 19.6546 0.0000 -1.9962 0.0000
# 3 33.1090 19.6546 97.3279 0.0000 -15.0229 0.0000
# 4 0.0000 0.0000 0.0000 24.5165 0.0000 -5.5542
# 5 -7.0515 -1.9962 -15.0229 0.0000 16.5782 0.0000
# 6 0.0000 0.0000 0.0000 -5.5542 0.0000 26.9410
#
#
#
# Elastic Compliance Matrix: (Units=1/GPa)
#
#
# Indices 1 2 3 4 5 6 
#
# 1 0.012590 -0.003357 -0.003303 0.000000 0.001958 0.000000
# 2 -0.003357 0.033423 -0.006054 0.000000 -0.002889 0.000000
# 3 -0.003303 -0.006054 0.014290 0.000000 0.010816 0.000000
# 4 0.000000 0.000000 0.000000 0.042787 0.000000 0.008821
# 5 0.001958 -0.002889 0.010816 0.000000 0.070606 0.000000
# 6 0.000000 0.000000 0.000000 0.008821 0.000000 0.038937
#
#
# Mechanical properties :
#
#
# Convention : Reuss Voigt Hill
#
# Bulk Modulus (GPa) = 28.67200 40.02955 34.35077
# Shear Modulus (GPa) = 20.02526 24.12396 22.07461
#
# Velocity S-wave (km/s) = 3.35056 3.67750 3.51783
# Velocity P-wave (km/s) = 5.57154 6.36183 5.97975
#
# Compressibility (1/GPa) = 0.03487724
#
# Stress axis : x y z
#
# Youngs Moduli (GPa) = 79.42958 29.91917 69.97903
#
# Poissons Ratio (x) = 0.10042 0.23112
# Poissons Ratio (y) = 0.26661 0.42363
# Poissons Ratio (z) = 0.26234 0.18112
#
# Static dielectric constant tensor:
#      x y z
#    x 1.593040 0.000000 -0.014930 
#    y 0.000000 1.598950 0.000000 
#    z -0.014930 0.000000 1.615790 
# 
# From -- ./inp_files/280218.got.cif
#   From: 2010.05.17/outbox.cif.g08.bks.cpg/sg12_141_cif.got.tgz:280218.got - 2010.06.03 13:09:07.
