data_PCOD9172610
_publ_section_title
;
Structure prediction by ZEFSAII (Michael W. Deem and Ramdas Pophale) SiO2 
 PCOD9172610
Probable space group: C 2/M
;
_chemical_formula_sum "Si O2"
_cell_formula_units_Z 28
_cell_length_a 20.110217
_cell_length_b 5.606785
_cell_length_c 15.905828
_cell_angle_alpha 90.000000
_cell_angle_beta 136.047128
_cell_angle_gamma 90.000000
_cell_volume 1244.766792
_symmetry_space_group_name_H-M "C 2/M"
_symmetry_group_IT_number 12
_symmetry_cell_setting 'monoclinic'
loop_
_space_group_symop_operation_xyz
x,y,z
-x,y,-z
-x,-y,-z
x,-y,z
1/2+x,1/2+y,z
1/2-x,1/2+y,-z
1/2-x,1/2-y,-z
1/2+x,1/2-y,z
loop_
_atom_site_type_symbol
_atom_site_label
_atom_site_fract_x
_atom_site_fract_y
_atom_site_fract_z
Si Si1 0.907295 0.000000 0.973907
Si Si2 0.716776 0.000000 0.578112
Si Si3 0.646928 0.249532 0.858426
Si Si4 0.830061 0.500000 0.653859
Si Si5 0.805765 0.500000 0.261256
Si Si6 0.531273 0.000000 0.929655
O O1 0.911982 0.750107 0.027822
O O2 0.809059 0.000000 0.833765
O O3 0.000000 0.000000 0.000000
O O4 0.776040 0.748423 0.629386
O O5 0.660699 0.000000 0.438861
O O6 0.656676 0.000000 0.610162
O O7 0.596839 0.500000 0.824807
O O8 0.596574 0.000000 0.833956
O O9 0.668562 0.216582 0.778171
O O10 0.750000 0.250000 0.000000
O O11 0.931509 0.500000 0.790943
O O12 0.500000 0.000000 0.000000
#
# Coordination Sequence:
#
# PCOD9172610 Si02
#       6
#     4   4   8   4   4   4
#     4  10  20  28  42  64  88 120 151 180 209 254
#     4  10  20  30  48  65  84 122 155 191 228 262
#     4   8  16  28  43  64  92 117 135 184 233 274
#     4  10  20  34  43  61  92 120 159 194 218 252
#     4  10  20  28  50  67  96 117 156 177 228 280
#     4  10  18  30  43  57  84 119 150 182 217 249
#
# _framework density 22.494171999999999
#
# number of rings (size 3 to 8) (size 9 to 14) (size 15 to 20)
#    0.857    1.714    0.000    4.286    4.000    0.000 
#    0.000    0.000    0.000    0.000    0.000    0.000 
#    0.000    6.857    0.000    0.000    0.000    0.000 
#
# Total GULP energy -78024.636869 kJ/mol
# GULP energy per Si atom -5573.188348 kJ/mol
# Density = 2.244297 g / cm^3
# Si number density = 22.494172 Si / 1000 Ang^3
#
#
#
# Elastic Constant Matrix: (Units=GPa)
#
#
# Indices 1 2 3 4 5 6 
#
# 1 44.1459 19.8283 12.1491 0.0000 -20.5690 0.0000
# 2 19.8283 224.8171 35.1580 0.0000 -15.5317 0.0008
# 3 12.1491 35.1580 120.9306 0.0000 -30.7637 0.0000
# 4 0.0000 0.0000 0.0000 24.7244 0.0000 -10.2446
# 5 -20.5690 -15.5317 -30.7637 0.0000 42.8933 0.0000
# 6 0.0000 0.0008 0.0000 -10.2446 0.0000 36.1550
#
#
#
# Elastic Compliance Matrix: (Units=1/GPa)
#
#
# Indices 1 2 3 4 5 6 
#
# 1 0.029922 -0.001825 0.001231 0.000000 0.014571 0.000000
# 2 -0.001825 0.004798 -0.001214 0.000000 -0.000008 0.000000
# 3 0.001231 -0.001214 0.010442 0.000000 0.007640 0.000000
# 4 0.000000 0.000000 0.000000 0.045826 0.000000 0.012985
# 5 0.014571 -0.000008 0.007640 0.000000 0.035778 0.000000
# 6 0.000000 0.000000 0.000000 0.012985 0.000000 0.031338
#
#
# Mechanical properties :
#
#
# Convention : Reuss Voigt Hill
#
# Bulk Modulus (GPa) = 24.06886 58.24048 41.15467
# Shear Modulus (GPa) = 28.47896 42.27175 35.37535
#
# Velocity S-wave (km/s) = 3.56203 4.33971 3.96996
# Velocity P-wave (km/s) = 5.25744 7.14551 6.27292
#
# Compressibility (1/GPa) = 0.04154746
#
# Stress axis : x y z
#
# Youngs Moduli (GPa) = 33.42008 208.40885 95.76768
#
# Poissons Ratio (x) = 0.38033 -0.11791
# Poissons Ratio (y) = 0.06099 0.11624
# Poissons Ratio (z) = -0.04115 0.25295
#
# Static dielectric constant tensor:
#      x y z
#    x 3.394440 0.000000 -1.785050 
#    y 0.000000 1.923850 0.000000 
#    z -1.785050 0.000000 3.623980 
# 
# From -- ./inp_files/228604.got.cif
#   From: 2010.05.17/outbox.cif.g08.bks.cpg/sg12_115_cif.got.tgz:228604.got - 2010.06.03 13:09:07.
