data_PCOD9172077
_publ_section_title
;
Structure prediction by ZEFSAII (Michael W. Deem and Ramdas Pophale) SiO2 
 PCOD9172077
Probable space group: C 2/M
;
_chemical_formula_sum "Si O2"
_cell_formula_units_Z 64
_cell_length_a 25.761503
_cell_length_b 8.538783
_cell_length_c 19.969626
_cell_angle_alpha 90.000000
_cell_angle_beta 63.670521
_cell_angle_gamma 90.000000
_cell_volume 3937.044466
_symmetry_space_group_name_H-M "C 2/M"
_symmetry_group_IT_number 12
_symmetry_cell_setting 'monoclinic'
loop_
_space_group_symop_operation_xyz
x,y,z
-x,y,-z
-x,-y,-z
x,-y,z
1/2+x,1/2+y,z
1/2-x,1/2+y,-z
1/2-x,1/2-y,-z
1/2+x,1/2-y,z
loop_
_atom_site_type_symbol
_atom_site_label
_atom_site_fract_x
_atom_site_fract_y
_atom_site_fract_z
Si Si1 0.385022 0.812097 0.591483
Si Si2 0.755987 0.689781 0.160183
Si Si3 0.809845 0.688761 0.997343
Si Si4 0.080065 0.689362 0.578020
Si Si5 0.745338 0.310698 0.316364
Si Si6 0.300299 0.189364 0.422445
Si Si7 0.635609 0.188120 0.166140
Si Si8 0.954962 0.185845 0.679069
O O1 0.411131 0.764265 0.504726
O O2 0.319815 0.749142 0.635145
O O3 0.423080 0.752166 0.631292
O O4 0.383466 0.000000 0.594485
O O5 0.752273 0.500000 0.161336
O O6 0.765823 0.740029 0.230869
O O7 0.693974 0.754097 0.170458
O O8 0.804750 0.737840 0.077853
O O9 0.809654 0.500000 0.996697
O O10 0.857987 0.738008 0.915627
O O11 0.750000 0.750000 0.000000
O O12 0.076882 0.500000 0.581816
O O13 0.137138 0.739652 0.586140
O O14 0.020879 0.757196 0.640289
O O15 0.743842 0.500000 0.317605
O O16 0.784944 0.259612 0.355849
O O17 0.250000 0.250000 0.500000
O O18 0.299342 0.000000 0.425020
O O19 0.580882 0.254679 0.236451
O O20 0.634297 0.000000 0.170196
O O21 0.952284 0.000000 0.678278
#
# Coordination Sequence:
#
# PCOD9172077 Si02
#       8
#     8   8   8   8   8   8   8   8
#     4  11  21  34  52  72  98 130 163 199 241 293
#     4   9  16  28  45  70 101 129 158 195 238 286
#     4   8  15  26  42  65  95 128 159 190 231 286
#     4  10  22  38  52  69  95 130 168 206 244 285
#     4  10  19  30  50  76 102 130 161 198 242 286
#     4  10  20  35  53  73  97 128 165 204 245 286
#     4  10  18  29  46  68  96 131 163 194 237 291
#     4  12  24  35  49  71  98 129 165 207 247 291
#
# _framework density 16.255849000000001
#
# number of rings (size 3 to 8) (size 9 to 14) (size 15 to 20)
#    0.000    2.000    2.500    2.250    0.000    3.500 
#    0.000    0.000    0.000    0.000    0.000    0.875 
#    0.000    7.000    0.000    0.000    0.000    0.000 
#
# Total GULP energy -178436.167298 kJ/mol
# GULP energy per Si atom -5576.130228 kJ/mol
# Density = 1.621885 g / cm^3
# Si number density = 16.255849 Si / 1000 Ang^3
#
#
#
# Elastic Constant Matrix: (Units=GPa)
#
#
# Indices 1 2 3 4 5 6 
#
# 1 82.9830 16.4580 75.5134 -0.0001 -9.1510 0.0000
# 2 16.4580 13.1863 26.2633 -0.0003 3.9624 -0.0011
# 3 75.5134 26.2633 186.6447 0.0000 6.8134 0.0000
# 4 -0.0001 -0.0003 0.0000 18.8974 0.0000 -5.5132
# 5 -9.1510 3.9624 6.8134 0.0000 14.8106 -0.0001
# 6 0.0000 -0.0011 0.0000 -5.5132 -0.0001 17.6734
#
#
#
# Elastic Compliance Matrix: (Units=1/GPa)
#
#
# Indices 1 2 3 4 5 6 
#
# 1 0.028612 -0.026733 -0.008870 -0.000001 0.028911 -0.000002
# 2 -0.026733 0.137703 -0.006726 0.000005 -0.050264 0.000010
# 3 -0.008870 -0.006726 0.010198 0.000000 -0.008372 -0.000001
# 4 -0.000001 0.000005 0.000000 0.058215 -0.000002 0.018160
# 5 0.028911 -0.050264 -0.008372 -0.000002 0.102682 -0.000003
# 6 -0.000002 0.000010 -0.000001 0.018160 -0.000003 0.062247
#
#
# Mechanical properties :
#
#
# Convention : Reuss Voigt Hill
#
# Bulk Modulus (GPa) = 10.88660 57.69814 34.29237
# Shear Modulus (GPa) = 9.71000 21.24824 15.47912
#
# Velocity S-wave (km/s) = 2.44667 3.61932 3.08915
# Velocity P-wave (km/s) = 3.83317 7.28264 5.81936
#
# Compressibility (1/GPa) = 0.09185602
#
# Stress axis : x y z
#
# Youngs Moduli (GPa) = 34.95024 7.26202 98.05474
#
# Poissons Ratio (x) = 0.19413 0.86972
# Poissons Ratio (y) = 0.93432 0.65951
# Poissons Ratio (z) = 0.31000 0.04884
#
# Static dielectric constant tensor:
#      x y z
#    x 1.510880 0.000000 0.024160 
#    y 0.000000 1.549350 0.000000 
#    z 0.024160 0.000000 1.584170 
# 
# From -- ./inp_files/323694.got.cif
#   From: 2010.05.17/outbox.cif.g08.bks.cpg/sg12_162_cif.got.tgz:323694.got - 2010.06.03 13:09:07.
