data_PCOD9172252
_publ_section_title
;
Structure prediction by ZEFSAII (Michael W. Deem and Ramdas Pophale) SiO2 
 PCOD9172252
Probable space group: C 2/M
;
_chemical_formula_sum "Si O2"
_cell_formula_units_Z 56
_cell_length_a 24.614647
_cell_length_b 7.348258
_cell_length_c 15.868524
_cell_angle_alpha 90.000000
_cell_angle_beta 63.479987
_cell_angle_gamma 90.000000
_cell_volume 2568.207197
_symmetry_space_group_name_H-M "C 2/M"
_symmetry_group_IT_number 12
_symmetry_cell_setting 'monoclinic'
loop_
_space_group_symop_operation_xyz
x,y,z
-x,y,-z
-x,-y,-z
x,-y,z
1/2+x,1/2+y,z
1/2-x,1/2+y,-z
1/2-x,1/2-y,-z
1/2+x,1/2-y,z
loop_
_atom_site_type_symbol
_atom_site_label
_atom_site_fract_x
_atom_site_fract_y
_atom_site_fract_z
Si Si1 0.350488 0.209512 0.432688
Si Si2 0.751455 0.778706 0.368188
Si Si3 0.216602 0.288026 0.208752
Si Si4 0.339411 0.780750 0.040719
Si Si5 0.893307 0.277314 0.823689
Si Si6 0.468388 0.222873 0.267814
Si Si7 0.941789 0.721394 0.095929
O O1 0.304840 0.285319 0.534484
O O2 0.312628 0.215253 0.371565
O O3 0.416722 0.286845 0.368094
O O4 0.359496 0.000000 0.451071
O O5 0.741189 0.713981 0.280280
O O6 0.753979 0.000000 0.368821
O O7 0.204700 0.500000 0.233747
O O8 0.270385 0.275281 0.103522
O O9 0.154692 0.213331 0.212705
O O10 0.381224 0.718279 0.089754
O O11 0.340549 0.000000 0.039557
O O12 0.368999 0.720730 0.932510
O O13 0.892742 0.500000 0.824398
O O14 0.962684 0.221487 0.762266
O O15 0.450077 0.280390 0.186032
O O16 0.467327 0.000000 0.268875
O O17 0.941133 0.500000 0.097249
O O18 0.000000 0.774959 0.000000
#
# Coordination Sequence:
#
# PCOD9172252 Si02
#       7
#     8   8   8   8   8   8   8
#     4   9  17  30  51  74  90 111 149 192 228 266
#     4   9  18  32  47  67  96 122 145 181 229 275
#     4  10  20  32  45  63  93 128 154 179 223 274
#     4  10  18  29  48  70  89 116 157 195 224 258
#     4   9  17  29  44  65  93 123 152 186 226 267
#     4   9  15  25  43  68  93 114 144 188 231 265
#     4   9  14  22  39  66  92 108 133 182 232 261
#
# _framework density 21.805095000000001
#
# number of rings (size 3 to 8) (size 9 to 14) (size 15 to 20)
#    0.000    2.714    1.429    1.286    0.000    1.714 
#    0.000    0.714    0.000    6.429    0.000    0.000 
#    0.000    5.714    0.000    0.000    0.000    0.000 
#
# Total GULP energy -156383.935979 kJ/mol
# GULP energy per Si atom -5585.140571 kJ/mol
# Density = 2.175547 g / cm^3
# Si number density = 21.805095 Si / 1000 Ang^3
#
#
#
# Elastic Constant Matrix: (Units=GPa)
#
#
# Indices 1 2 3 4 5 6 
#
# 1 114.0366 -10.0688 44.9984 0.0000 -22.2581 -0.0001
# 2 -10.0688 80.6760 -7.7564 -0.0002 3.0825 -0.0009
# 3 44.9984 -7.7564 72.6927 0.0000 -26.8395 0.0000
# 4 0.0000 -0.0002 0.0000 -0.3114 0.0000 -17.0750
# 5 -22.2581 3.0825 -26.8395 0.0000 32.0204 0.0000
# 6 -0.0001 -0.0009 0.0000 -17.0750 0.0000 -68.0406
#
#
#
# Elastic Compliance Matrix: (Units=1/GPa)
#
#
# Indices 1 2 3 4 5 6 
#
# 1 0.011848 0.000773 -0.006138 0.000000 0.003017 0.000000
# 2 0.000773 0.012575 0.000890 0.000000 0.000073 0.000000
# 3 -0.006138 0.000890 0.023235 0.000000 0.015123 0.000000
# 4 0.000000 0.000000 0.000000 0.251659 0.000000 -0.063155
# 5 0.003017 0.000073 0.015123 0.000000 0.045996 0.000000
# 6 0.000000 0.000000 0.000000 -0.063155 0.000000 0.001152
#
#
# Mechanical properties :
#
#
# Convention : Reuss Voigt Hill
#
# Bulk Modulus (GPa) = 25.83433 35.75018 30.79225
# Shear Modulus (GPa) = 13.57529 8.74916 11.16223
#
# Velocity S-wave (km/s) = 2.49785 2.00528 2.26500
# Velocity P-wave (km/s) = 4.49361 4.66824 4.58176
#
# Compressibility (1/GPa) = 0.03870818
#
# Stress axis : x y z
#
# Youngs Moduli (GPa) = 84.40089 79.52572 43.03888
#
# Poissons Ratio (x) = -0.06150 0.26417
# Poissons Ratio (y) = -0.06527 -0.03830
# Poissons Ratio (z) = 0.51805 -0.07078
#
# Static dielectric constant tensor:
#      x y z
#    x 1.767450 0.000000 -0.002900 
#    y 0.000000 1.857900 0.000000 
#    z -0.002900 0.000000 1.769650 
# 
# From -- ./inp_files/231813.got.cif
#   From: 2010.05.17/outbox.cif.g08.bks.cpg/sg12_116_cif.got.tgz:231813.got - 2010.06.03 13:09:07.
