data_PCOD9172322
_publ_section_title
;
Structure prediction by ZEFSAII (Michael W. Deem and Ramdas Pophale) SiO2 
 PCOD9172322
Probable space group: C 2/M
;
_chemical_formula_sum "Si O2"
_cell_formula_units_Z 56
_cell_length_a 8.781123
_cell_length_b 34.354472
_cell_length_c 12.700893
_cell_angle_alpha 90.000000
_cell_angle_beta 36.664409
_cell_angle_gamma 90.000000
_cell_volume 2287.885541
_symmetry_space_group_name_H-M "C 2/M"
_symmetry_group_IT_number 12
_symmetry_cell_setting 'monoclinic'
loop_
_space_group_symop_operation_xyz
x,y,z
-x,y,-z
-x,-y,-z
x,-y,z
1/2+x,1/2+y,z
1/2-x,1/2+y,-z
1/2-x,1/2-y,-z
1/2+x,1/2-y,z
loop_
_atom_site_type_symbol
_atom_site_label
_atom_site_fract_x
_atom_site_fract_y
_atom_site_fract_z
Si Si1 0.139640 0.627260 0.031269
Si Si2 0.091909 0.926718 0.829990
Si Si3 0.658289 0.345677 0.520935
Si Si4 0.352248 0.000000 0.262008
Si Si5 0.973222 0.770758 0.681625
Si Si6 0.878976 0.579881 0.366714
Si Si7 0.383287 0.500000 0.835944
Si Si8 0.493599 0.794672 0.203641
O O1 0.977029 0.604329 0.210612
O O2 0.118135 0.673536 0.059397
O O3 0.420912 0.610067 0.892013
O O4 0.000000 0.617159 0.000000
O O5 0.389287 0.921201 0.680698
O O6 0.034363 0.961552 0.783111
O O7 0.000000 0.938113 0.000000
O O8 0.500000 0.343343 0.500000
O O9 0.537188 0.315837 0.670455
O O10 0.917443 0.323271 0.344315
O O11 0.675294 0.391203 0.532327
O O12 0.314009 0.962063 0.355910
O O13 0.185587 0.000000 0.248484
O O14 0.634985 0.000000 0.051535
O O15 0.250000 0.750000 0.500000
O O16 0.859466 0.741995 0.831179
O O17 0.758585 0.775890 0.710873
#
# Coordination Sequence:
#
# PCOD9172322 Si02
#       8
#     8   8   8   4   8   8   4   8
#     4  10  19  33  48  71 110 148 176 212 268 328
#     4  10  18  29  48  74 109 144 185 228 265 307
#     4   8  16  32  55  79 103 131 175 231 279 324
#     4  11  19  28  50  77 109 149 190 221 258 315
#     4   9  16  33  57  78  97 126 172 233 279 317
#     4  10  19  31  51  81 108 141 186 229 269 314
#     4  11  18  29  48  76 108 155 190 222 251 310
#     4   9  18  32  54  79 100 130 175 224 274 326
#
# _framework density 24.476749000000002
#
# number of rings (size 3 to 8) (size 9 to 14) (size 15 to 20)
#    0.000    2.429    2.857    2.786    0.000    0.000 
#    0.000    9.643    0.000    3.429    0.000    4.000 
#    0.000    0.000    0.000    0.000    0.000    0.000 
#
# Total GULP energy -156305.759998 kJ/mol
# GULP energy per Si atom -5582.348571 kJ/mol
# Density = 2.442104 g / cm^3
# Si number density = 24.476749 Si / 1000 Ang^3
#
#
#
# Elastic Constant Matrix: (Units=GPa)
#
#
# Indices 1 2 3 4 5 6 
#
# 1 145.2686 89.6197 18.7869 0.0000 -5.1739 0.0000
# 2 89.6197 239.5541 33.4682 0.0000 3.2869 0.0000
# 3 18.7869 33.4682 66.6043 0.0000 13.5708 0.0000
# 4 0.0000 0.0000 0.0000 14.8942 0.0000 8.6685
# 5 -5.1739 3.2869 13.5708 0.0000 16.5692 0.0000
# 6 0.0000 0.0000 0.0000 8.6685 0.0000 -42.5573
#
#
#
# Elastic Compliance Matrix: (Units=1/GPa)
#
#
# Indices 1 2 3 4 5 6 
#
# 1 0.009367 -0.003288 -0.002063 0.000000 0.005267 0.000000
# 2 -0.003288 0.005662 -0.001776 0.000000 -0.000695 0.000000
# 3 -0.002063 -0.001776 0.019862 0.000000 -0.016560 0.000000
# 4 0.000000 0.000000 0.000000 0.060024 0.000000 0.012226
# 5 0.005267 -0.000695 -0.016560 0.000000 0.075699 0.000000
# 6 0.000000 0.000000 0.000000 0.012226 0.000000 -0.021007
#
#
# Mechanical properties :
#
#
# Convention : Reuss Voigt Hill
#
# Bulk Modulus (GPa) = 48.45615 81.68629 65.07122
# Shear Modulus (GPa) = 29.28420 18.41804 23.85112
#
# Velocity S-wave (km/s) = 3.46267 2.74610 3.12499
# Velocity P-wave (km/s) = 5.98553 6.59547 6.29789
#
# Compressibility (1/GPa) = 0.02063722
#
# Stress axis : x y z
#
# Youngs Moduli (GPa) = 106.76046 176.60755 50.34623
#
# Poissons Ratio (x) = 0.58073 0.10386
# Poissons Ratio (y) = 0.35106 0.08942
# Poissons Ratio (z) = 0.22023 0.31366
#
# Static dielectric constant tensor:
#      x y z
#    x 1.901180 0.000000 0.015760 
#    y 0.000000 1.940390 0.000000 
#    z 0.015760 0.000000 2.124940 
# 
# From -- ./inp_files/200889.got.cif
#   From: 2010.05.17/outbox.cif.g08.bks.cpg/sg12_101_cif.got.tgz:200889.got - 2010.06.03 13:09:07.
