data_PCOD9172482
_publ_section_title
;
Structure prediction by ZEFSAII (Michael W. Deem and Ramdas Pophale) SiO2 
 PCOD9172482
Probable space group: C 2/M
;
_chemical_formula_sum "Si O2"
_cell_formula_units_Z 48
_cell_length_a 13.026761
_cell_length_b 22.887713
_cell_length_c 11.988129
_cell_angle_alpha 90.000000
_cell_angle_beta 127.642941
_cell_angle_gamma 90.000000
_cell_volume 2830.240737
_symmetry_space_group_name_H-M "C 2/M"
_symmetry_group_IT_number 12
_symmetry_cell_setting 'monoclinic'
loop_
_space_group_symop_operation_xyz
x,y,z
-x,y,-z
-x,-y,-z
x,-y,z
1/2+x,1/2+y,z
1/2-x,1/2+y,-z
1/2-x,1/2-y,-z
1/2+x,1/2-y,z
loop_
_atom_site_type_symbol
_atom_site_label
_atom_site_fract_x
_atom_site_fract_y
_atom_site_fract_z
Si Si1 0.981132 0.116456 0.824096
Si Si2 0.103257 0.068558 0.469095
Si Si3 0.284831 0.714713 0.693645
Si Si4 0.304916 0.566618 0.896591
Si Si5 0.572628 0.860858 0.665308
Si Si6 0.313652 0.834717 0.610702
O O1 0.960567 0.095540 0.684813
O O2 0.919463 0.180481 0.803411
O O3 0.891271 0.075232 0.842516
O O4 0.125324 0.107333 0.965447
O O5 0.230539 0.107350 0.578637
O O6 0.000000 0.073617 0.500000
O O7 0.133585 0.000000 0.472426
O O8 0.173524 0.691510 0.703129
O O9 0.295715 0.783991 0.689976
O O10 0.241293 0.690833 0.543012
O O11 0.309237 0.500000 0.936632
O O12 0.162625 0.587357 0.769013
O O13 0.500000 0.874907 0.500000
O O14 0.463491 0.845886 0.682684
#
# Coordination Sequence:
#
# PCOD9172482 Si02
#       6
#     8   8   8   8   8   8
#     4   9  17  31  49  73 100 128 165 205 243 286
#     4  10  20  32  49  73  99 131 171 207 235 278
#     4   8  16  29  47  69  95 124 160 202 243 290
#     4  10  18  29  50  75 101 133 161 196 248 297
#     4   9  18  30  46  73 101 125 160 204 249 295
#     4   9  17  30  48  69  95 127 158 198 248 288
#
# _framework density 16.959689000000001
#
# number of rings (size 3 to 8) (size 9 to 14) (size 15 to 20)
#    0.000    2.833    0.000    3.000    0.000    5.667 
#    0.000    0.833    0.000    5.000    0.000    3.500 
#    0.000    0.000    0.000    0.000    0.000    0.000 
#
# Total GULP energy -133641.727129 kJ/mol
# GULP energy per Si atom -5568.405297 kJ/mol
# Density = 1.692109 g / cm^3
# Si number density = 16.959689 Si / 1000 Ang^3
#
#
#
# Elastic Constant Matrix: (Units=GPa)
#
#
# Indices 1 2 3 4 5 6 
#
# 1 66.6748 33.6489 23.0542 0.0000 4.9542 0.0000
# 2 33.6489 66.9191 31.6190 0.0000 4.5011 0.0000
# 3 23.0542 31.6190 73.6658 0.0000 11.9996 0.0000
# 4 0.0000 0.0000 0.0000 16.1750 0.0000 -6.2588
# 5 4.9542 4.5011 11.9996 0.0000 21.1011 0.0000
# 6 0.0000 0.0000 0.0000 -6.2588 0.0000 11.3692
#
#
#
# Elastic Compliance Matrix: (Units=1/GPa)
#
#
# Indices 1 2 3 4 5 6 
#
# 1 0.020505 -0.009150 -0.002230 0.000000 -0.001594 0.000000
# 2 -0.009150 0.022835 -0.007158 0.000000 0.001347 0.000000
# 3 -0.002230 -0.007158 0.018748 0.000000 -0.008611 0.000000
# 4 0.000000 0.000000 0.000000 0.078558 0.000000 0.043246
# 5 -0.001594 0.001347 -0.008611 0.000000 0.052375 0.000000
# 6 0.000000 0.000000 0.000000 0.043246 0.000000 0.111764
#
#
# Mechanical properties :
#
#
# Convention : Reuss Voigt Hill
#
# Bulk Modulus (GPa) = 39.97859 42.65598 41.31729
# Shear Modulus (GPa) = 14.27764 17.65822 15.96793
#
# Velocity S-wave (km/s) = 2.90463 3.23024 3.07175
# Velocity P-wave (km/s) = 5.90534 6.25449 6.08242
#
# Compressibility (1/GPa) = 0.02501339
#
# Stress axis : x y z
#
# Youngs Moduli (GPa) = 48.76758 43.79157 53.34003
#
# Poissons Ratio (x) = 0.40068 0.11897
# Poissons Ratio (y) = 0.44621 0.38178
# Poissons Ratio (z) = 0.10877 0.31344
#
# Static dielectric constant tensor:
#      x y z
#    x 1.567400 0.000000 0.007140 
#    y 0.000000 1.583590 0.000000 
#    z 0.007140 0.000000 1.593290 
# 
# From -- ./inp_files/135540.got.cif
#   From: 2010.05.17/outbox.cif.g08.bks.cpg/sg12_68_cif.got.tgz:135540.got - 2010.06.03 13:09:07.
