data_PCOD9172118
_publ_section_title
;
Structure prediction by ZEFSAII (Michael W. Deem and Ramdas Pophale) SiO2 
 PCOD9172118
Probable space group: C 2/M
;
_chemical_formula_sum "Si O2"
_cell_formula_units_Z 64
_cell_length_a 28.361837
_cell_length_b 13.813039
_cell_length_c 19.863557
_cell_angle_alpha 90.000000
_cell_angle_beta 155.206905
_cell_angle_gamma 90.000000
_cell_volume 3263.244996
_symmetry_space_group_name_H-M "C 2/M"
_symmetry_group_IT_number 12
_symmetry_cell_setting 'monoclinic'
loop_
_space_group_symop_operation_xyz
x,y,z
-x,y,-z
-x,-y,-z
x,-y,z
1/2+x,1/2+y,z
1/2-x,1/2+y,-z
1/2-x,1/2-y,-z
1/2+x,1/2-y,z
loop_
_atom_site_type_symbol
_atom_site_label
_atom_site_fract_x
_atom_site_fract_y
_atom_site_fract_z
Si Si1 0.076593 0.759166 0.039883
Si Si2 0.157508 0.108768 0.655615
Si Si3 0.397664 0.611592 0.270933
Si Si4 0.795195 0.389017 0.595516
Si Si5 0.945071 0.386518 0.106807
Si Si6 0.522203 0.254620 0.741300
Si Si7 0.944189 0.887165 0.764778
Si Si8 0.723315 0.251847 0.622828
O O1 0.099758 0.675333 0.014576
O O2 0.005682 0.837484 0.906509
O O3 0.180644 0.808916 0.214594
O O4 0.000000 0.715205 0.000000
O O5 0.168070 0.143352 0.746651
O O6 0.207076 0.168544 0.659588
O O7 0.025864 0.105636 0.464169
O O8 0.200263 0.000000 0.709825
O O9 0.365829 0.500000 0.211205
O O10 0.404886 0.688481 0.219864
O O11 0.786984 0.500000 0.611554
O O12 0.918275 0.377649 0.723994
O O13 0.691554 0.377945 0.409468
O O14 0.772920 0.309582 0.623572
O O15 0.918115 0.500000 0.071697
O O16 0.917288 0.331608 0.140205
O O17 0.485280 0.332876 0.750293
O O18 0.402604 0.216227 0.556292
O O19 0.970850 0.000000 0.794655
#
# Coordination Sequence:
#
# PCOD9172118 Si02
#       8
#     8   8   8   8   8   8   8   8
#     4  11  22  32  46  67  98 131 159 191 237 285
#     4   8  14  24  43  72 103 123 144 191 245 291
#     4   8  13  25  46  75 100 117 146 194 250 286
#     4   9  17  30  49  67  88 123 168 206 233 266
#     4  10  21  34  46  65  94 132 167 197 230 274
#     4   9  18  30  52  71  93 123 158 200 237 280
#     4   9  19  33  49  67  90 123 164 203 239 276
#     4  10  18  29  46  72  99 126 156 191 237 286
#
# _framework density 19.612380000000002
#
# number of rings (size 3 to 8) (size 9 to 14) (size 15 to 20)
#    0.000    2.750    1.250    1.500    1.750    6.000 
#    0.000    0.625    0.000    3.000    0.000    9.625 
#    0.000    0.000    0.000    0.000    0.000    0.000 
#
# Total GULP energy -178323.410006 kJ/mol
# GULP energy per Si atom -5572.606563 kJ/mol
# Density = 1.956774 g / cm^3
# Si number density = 19.612380 Si / 1000 Ang^3
#
#
#
# Elastic Constant Matrix: (Units=GPa)
#
#
# Indices 1 2 3 4 5 6 
#
# 1 57.0739 17.7271 3.1058 0.0000 -18.6704 0.0000
# 2 17.7271 67.7940 28.6520 0.0000 -12.0905 0.0000
# 3 3.1058 28.6520 100.7805 0.0000 -22.3439 0.0000
# 4 0.0000 0.0000 0.0000 6.9114 0.0000 -0.3468
# 5 -18.6704 -12.0905 -22.3439 0.0000 21.9609 0.0000
# 6 0.0000 0.0000 0.0000 -0.3468 0.0000 16.5144
#
#
#
# Elastic Compliance Matrix: (Units=1/GPa)
#
#
# Indices 1 2 3 4 5 6 
#
# 1 0.027814 -0.005194 0.006751 0.000000 0.027656 0.000000
# 2 -0.005194 0.018297 -0.004891 0.000000 0.000682 0.000000
# 3 0.006751 -0.004891 0.015212 0.000000 0.018524 0.000000
# 4 0.000000 0.000000 0.000000 0.144842 0.000000 0.003042
# 5 0.027656 0.000682 0.018524 0.000000 0.088270 0.000000
# 6 0.000000 0.000000 0.000000 0.003042 0.000000 0.060617
#
#
# Mechanical properties :
#
#
# Convention : Reuss Voigt Hill
#
# Bulk Modulus (GPa) = 18.29632 36.06869 27.18251
# Shear Modulus (GPa) = 13.16004 20.82157 16.99080
#
# Velocity S-wave (km/s) = 2.59319 3.26184 2.94654
# Velocity P-wave (km/s) = 4.27965 5.71111 5.04640
#
# Compressibility (1/GPa) = 0.05465580
#
# Stress axis : x y z
#
# Youngs Moduli (GPa) = 35.95320 54.65291 65.73787
#
# Poissons Ratio (x) = 0.28387 -0.44380
# Poissons Ratio (y) = 0.18674 0.32151
# Poissons Ratio (z) = -0.24272 0.26729
#
# Static dielectric constant tensor:
#      x y z
#    x 1.738340 0.000000 0.069720 
#    y 0.000000 1.674580 0.000000 
#    z 0.069720 0.000000 1.784420 
# 
# From -- ./inp_files/224804.got.cif
#   From: 2010.05.17/outbox.cif.g08.bks.cpg/sg12_113_cif.got.tgz:224804.got - 2010.06.03 13:09:07.
