data_PCOD9172718
_publ_section_title
;
Structure prediction by ZEFSAII (Michael W. Deem and Ramdas Pophale) SiO2 
 PCOD9172718
Probable space group: C 2/M
;
_chemical_formula_sum "Si O2"
_cell_formula_units_Z 64
_cell_length_a 26.699349
_cell_length_b 7.421176
_cell_length_c 15.313427
_cell_angle_alpha 90.000000
_cell_angle_beta 105.540785
_cell_angle_gamma 90.000000
_cell_volume 2923.280305
_symmetry_space_group_name_H-M "C 2/M"
_symmetry_group_IT_number 12
_symmetry_cell_setting 'monoclinic'
loop_
_space_group_symop_operation_xyz
x,y,z
-x,y,-z
-x,-y,-z
x,-y,z
1/2+x,1/2+y,z
1/2-x,1/2+y,-z
1/2-x,1/2-y,-z
1/2+x,1/2-y,z
loop_
_atom_site_type_symbol
_atom_site_label
_atom_site_fract_x
_atom_site_fract_y
_atom_site_fract_z
Si Si1 0.045858 0.707843 0.958419
Si Si2 0.757725 0.794851 0.743785
Si Si3 0.689113 0.215375 0.412464
Si Si4 0.168753 0.278776 0.591026
Si Si5 0.969480 0.280664 0.241543
Si Si6 0.552749 0.779683 0.574793
Si Si7 0.412767 0.785102 0.727946
Si Si8 0.858407 0.205120 0.881574
O O1 0.029614 0.500000 0.938219
O O2 0.050526 0.782787 0.862470
O O3 0.101539 0.711175 0.031543
O O4 0.000000 0.785978 0.000000
O O5 0.784524 0.799082 0.660267
O O6 0.701609 0.717301 0.691165
O O7 0.801865 0.714566 0.828431
O O8 0.749467 0.000000 0.769728
O O9 0.697636 0.279424 0.515016
O O10 0.627924 0.247885 0.367242
O O11 0.697315 0.000000 0.411266
O O12 0.170018 0.500000 0.591424
O O13 0.108690 0.224693 0.563030
O O14 0.965218 0.500000 0.241730
O O15 0.947180 0.221491 0.323775
O O16 0.029942 0.228859 0.268810
O O17 0.500000 0.722075 0.500000
O O18 0.551846 0.000000 0.571514
O O19 0.390564 0.703982 0.806195
O O20 0.413932 0.000000 0.744390
O O21 0.849710 0.000000 0.905763
#
# Coordination Sequence:
#
# PCOD9172718 Si02
#       8
#     8   8   8   8   8   8   8   8
#     4  10  18  30  47  67  93 122 146 182 234 278
#     4   9  18  30  43  62  93 126 152 183 228 275
#     4   9  16  25  43  68  91 118 153 188 224 266
#     4   9  16  27  42  63  92 122 151 188 232 270
#     4   9  16  26  42  64  91 121 149 177 225 278
#     4   9  16  26  43  69  96 119 148 189 227 264
#     4   9  15  26  42  63  93 122 146 180 225 273
#     4  10  19  29  42  64  91 121 153 184 221 271
#
# _framework density 21.893214
#
# number of rings (size 3 to 8) (size 9 to 14) (size 15 to 20)
#    0.000    2.750    1.250    1.500    0.000    3.750 
#    0.000    0.000    0.000    0.750    0.000    3.500 
#    0.000    8.000    0.000    0.000    0.000    0.375 
#
# Total GULP energy -178333.497881 kJ/mol
# GULP energy per Si atom -5572.921809 kJ/mol
# Density = 2.184338 g / cm^3
# Si number density = 21.893214 Si / 1000 Ang^3
#
#
#
# Elastic Constant Matrix: (Units=GPa)
#
#
# Indices 1 2 3 4 5 6 
#
# 1 88.2622 -2.8177 34.3998 0.0000 19.4786 0.0000
# 2 -2.8177 55.3379 4.6350 0.0000 -0.3255 0.0000
# 3 34.3998 4.6350 113.1271 0.0000 14.1669 0.0000
# 4 0.0000 0.0000 0.0000 8.8875 0.0000 4.5498
# 5 19.4786 -0.3255 14.1669 0.0000 35.5131 0.0000
# 6 0.0000 0.0000 0.0000 4.5498 0.0000 2.3078
#
#
#
# Elastic Compliance Matrix: (Units=1/GPa)
#
#
# Indices 1 2 3 4 5 6 
#
# 1 0.014141 0.000980 -0.003547 0.000000 -0.006332 0.000000
# 2 0.000980 0.018209 -0.001050 0.000000 0.000048 0.000000
# 3 -0.003547 -0.001050 0.010230 0.000000 -0.002145 0.000000
# 4 0.000000 0.000000 0.000000-12.119055 0.000000 23.892973
# 5 -0.006332 0.000048 -0.002145 0.000000 0.032488 0.000000
# 6 0.000000 0.000000 0.000000 23.892973 0.000000-46.672180
#
#
# Mechanical properties :
#
#
# Convention : Reuss Voigt Hill
#
# Bulk Modulus (GPa) = 28.29239 36.57349 32.43294
# Shear Modulus (GPa) = -0.08518 24.04236 11.97859
#
# Velocity S-wave (km/s) = -0.19747 3.31745 2.34163
# Velocity P-wave (km/s) = 3.59151 5.60497 4.70716
#
# Compressibility (1/GPa) = 0.03534520
#
# Stress axis : x y z
#
# Youngs Moduli (GPa) = 70.71571 54.91809 97.75283
#
# Poissons Ratio (x) = -0.05381 0.34675
# Poissons Ratio (y) = -0.06929 0.10265
# Poissons Ratio (z) = 0.25084 0.05767
#
# Static dielectric constant tensor:
#      x y z
#    x 1.810070 0.000000 0.045310 
#    y 0.000000 1.844990 0.000000 
#    z 0.045310 0.000000 1.813430 
# 
# From -- ./inp_files/244122.got.cif
#   From: 2010.05.17/outbox.cif.g08.bks.cpg/sg12_123_cif.got.tgz:244122.got - 2010.06.03 13:09:07.
