data_PCOD9172577
_publ_section_title
;
Structure prediction by ZEFSAII (Michael W. Deem and Ramdas Pophale) SiO2 
 PCOD9172577
Probable space group: C 2/M
;
_chemical_formula_sum "Si O2"
_cell_formula_units_Z 56
_cell_length_a 14.854309
_cell_length_b 9.154301
_cell_length_c 21.184536
_cell_angle_alpha 90.000000
_cell_angle_beta 99.907752
_cell_angle_gamma 90.000000
_cell_volume 2837.728028
_symmetry_space_group_name_H-M "C 2/M"
_symmetry_group_IT_number 12
_symmetry_cell_setting 'monoclinic'
loop_
_space_group_symop_operation_xyz
x,y,z
-x,y,-z
-x,-y,-z
x,-y,z
1/2+x,1/2+y,z
1/2-x,1/2+y,-z
1/2-x,1/2-y,-z
1/2+x,1/2-y,z
loop_
_atom_site_type_symbol
_atom_site_label
_atom_site_fract_x
_atom_site_fract_y
_atom_site_fract_z
Si Si1 0.218951 0.336698 0.935006
Si Si2 0.001517 0.333254 0.929775
Si Si3 0.426231 0.173221 0.674942
Si Si4 0.747896 0.173737 0.432176
Si Si5 0.970780 0.173590 0.803218
Si Si6 0.334701 0.822840 0.201077
Si Si7 0.866571 0.327171 0.343804
O O1 0.256802 0.500000 0.944454
O O2 0.108755 0.342216 0.926168
O O3 0.233273 0.283702 0.864545
O O4 0.250000 0.250000 0.000000
O O5 0.965213 0.500000 0.927725
O O6 0.952426 0.241884 0.869701
O O7 0.000000 0.269881 0.000000
O O8 0.347423 0.204964 0.615347
O O9 0.413799 0.261858 0.738160
O O10 0.526781 0.203851 0.658191
O O11 0.424843 0.000000 0.689842
O O12 0.750000 0.250000 0.500000
O O13 0.826515 0.235208 0.395967
O O14 0.756189 0.000000 0.440337
O O15 0.073154 0.231188 0.799514
O O16 0.965674 0.000000 0.804578
O O17 0.312363 0.797427 0.271582
O O18 0.352137 0.000000 0.197970
O O19 0.858562 0.500000 0.356584
#
# Coordination Sequence:
#
# PCOD9172577 Si02
#       7
#     8   8   8   8   8   8   8
#     4   9  17  30  48  71  99 136 177 220 270 324
#     4   9  18  34  52  68  98 143 185 221 271 338
#     4   9  20  40  62  82 113 158 194 221 277 355
#     4  11  24  41  61  88 121 153 188 234 283 340
#     4  10  18  29  52  82 107 134 178 237 282 317
#     4   8  16  33  54  73 102 147 187 218 272 344
#     4   9  18  37  63  85 110 149 195 237 279 336
#
# _framework density 19.734096999999998
#
# number of rings (size 3 to 8) (size 9 to 14) (size 15 to 20)
#    0.000    2.714    0.000    3.429    0.000    6.571 
#    2.571    2.857    0.000    0.000    0.000    0.000 
#    0.000    0.000    0.000    0.000    0.000    0.000 
#
# Total GULP energy -156109.564546 kJ/mol
# GULP energy per Si atom -5575.341591 kJ/mol
# Density = 1.968918 g / cm^3
# Si number density = 19.734097 Si / 1000 Ang^3
#
#
#
# Elastic Constant Matrix: (Units=GPa)
#
#
# Indices 1 2 3 4 5 6 
#
# 1 54.1764 28.2768 37.7477 0.0000 3.2907 0.0000
# 2 28.2768 75.4857 91.6480 0.0000 7.3510 0.0000
# 3 37.7477 91.6480 194.7571 0.0000 -1.2406 0.0000
# 4 0.0000 0.0000 0.0000 36.7184 0.0000 -0.9793
# 5 3.2907 7.3510 -1.2406 0.0000 25.3080 0.0000
# 6 0.0000 0.0000 0.0000 -0.9793 0.0000 17.4375
#
#
#
# Elastic Compliance Matrix: (Units=1/GPa)
#
#
# Indices 1 2 3 4 5 6 
#
# 1 0.023039 -0.007255 -0.001057 0.000000 -0.000940 0.000000
# 2 -0.007255 0.035763 -0.015488 0.000000 -0.010204 0.000000
# 3 -0.001057 -0.015488 0.012661 0.000000 0.005257 0.000000
# 4 0.000000 0.000000 0.000000 0.027275 0.000000 0.001532
# 5 -0.000940 -0.010204 0.005257 0.000000 0.042857 0.000000
# 6 0.000000 0.000000 0.000000 0.001532 0.000000 0.057434
#
#
# Mechanical properties :
#
#
# Convention : Reuss Voigt Hill
#
# Bulk Modulus (GPa) = 41.90698 71.08490 56.49594
# Shear Modulus (GPa) = 19.63984 27.00922 23.32453
#
# Velocity S-wave (km/s) = 3.15814 3.70355 3.44167
# Velocity P-wave (km/s) = 5.88051 7.37482 6.66964
#
# Compressibility (1/GPa) = 0.02386238
#
# Stress axis : x y z
#
# Youngs Moduli (GPa) = 43.40522 27.96159 78.98028
#
# Poissons Ratio (x) = 0.20286 0.08350
# Poissons Ratio (y) = 0.31491 1.22326
# Poissons Ratio (z) = 0.04589 0.43307
#
# Static dielectric constant tensor:
#      x y z
#    x 1.727970 0.000000 -0.005430 
#    y 0.000000 1.668580 0.000000 
#    z -0.005430 0.000000 1.722130 
# 
# From -- ./inp_files/313319.got.cif
#   From: 2010.05.17/outbox.cif.g08.bks.cpg/sg12_157_cif.got.tgz:313319.got - 2010.06.03 13:09:07.
