data_PCOD9172190
_publ_section_title
;
Structure prediction by ZEFSAII (Michael W. Deem and Ramdas Pophale) SiO2 
 PCOD9172190
Probable space group: C 2/M
;
_chemical_formula_sum "Si O2"
_cell_formula_units_Z 56
_cell_length_a 28.139349
_cell_length_b 8.918698
_cell_length_c 18.691337
_cell_angle_alpha 90.000000
_cell_angle_beta 48.819707
_cell_angle_gamma 90.000000
_cell_volume 3530.563184
_symmetry_space_group_name_H-M "C 2/M"
_symmetry_group_IT_number 12
_symmetry_cell_setting 'monoclinic'
loop_
_space_group_symop_operation_xyz
x,y,z
-x,y,-z
-x,-y,-z
x,-y,z
1/2+x,1/2+y,z
1/2-x,1/2+y,-z
1/2-x,1/2-y,-z
1/2+x,1/2-y,z
loop_
_atom_site_type_symbol
_atom_site_label
_atom_site_fract_x
_atom_site_fract_y
_atom_site_fract_z
Si Si1 0.429747 0.328349 0.604374
Si Si2 0.432845 0.672319 0.024680
Si Si3 0.005329 0.678919 0.167682
Si Si4 0.875414 0.679168 0.214583
Si Si5 0.253498 0.319798 0.575305
Si Si6 0.500790 0.319686 0.326420
Si Si7 0.122852 0.678317 0.477409
O O1 0.500000 0.329774 0.500000
O O2 0.406128 0.500000 0.625223
O O3 0.443536 0.282056 0.672158
O O4 0.388759 0.224579 0.593645
O O5 0.418198 0.500000 0.022415
O O6 0.444804 0.766352 0.941182
O O7 0.500000 0.676071 0.000000
O O8 0.384322 0.740988 0.129641
O O9 0.008347 0.500000 0.173660
O O10 0.935682 0.717010 0.204927
O O11 0.013913 0.760981 0.234347
O O12 0.877721 0.500000 0.201039
O O13 0.810690 0.717332 0.318419
O O14 0.258434 0.500000 0.565792
O O15 0.250000 0.250000 0.500000
O O16 0.313826 0.252679 0.555699
O O17 0.493290 0.500000 0.335412
O O18 0.436502 0.244458 0.419311
O O19 0.124611 0.500000 0.483887
#
# Coordination Sequence:
#
# PCOD9172190 Si02
#       7
#     8   8   8   8   8   8   8
#     4   8  16  31  48  66  90 121 155 193 237 280
#     4   9  17  29  46  67  91 121 155 190 231 278
#     4  10  18  29  47  71  98 123 152 192 236 281
#     4   9  19  33  47  65  91 125 160 194 231 271
#     4  11  22  35  50  69  96 128 163 199 234 273
#     4  10  19  31  48  70  96 124 156 195 239 282
#     4  11  21  32  47  68  95 127 162 195 232 280
#
# _framework density 15.861490999999999
#
# number of rings (size 3 to 8) (size 9 to 14) (size 15 to 20)
#    0.000    2.286    0.000    4.714    0.000    7.714 
#    0.000    0.000    0.000    0.000    0.000    1.000 
#    0.000    0.000    0.000    0.000    0.000    0.000 
#
# Total GULP energy -156160.741846 kJ/mol
# GULP energy per Si atom -5577.169352 kJ/mol
# Density = 1.582539 g / cm^3
# Si number density = 15.861491 Si / 1000 Ang^3
#
#
#
# Elastic Constant Matrix: (Units=GPa)
#
#
# Indices 1 2 3 4 5 6 
#
# 1 94.7347 52.8313 60.0219 -0.0018 17.7215 0.0004
# 2 52.8313 80.7001 59.2682 -0.0046 9.5373 0.0027
# 3 60.0219 59.2682 112.8135 -0.0021 17.2090 0.0025
# 4 -0.0018 -0.0046 -0.0021 28.2885 0.0008 7.1722
# 5 17.7215 9.5373 17.2090 0.0008 23.4840 -0.0012
# 6 0.0004 0.0027 0.0025 7.1722 -0.0012 22.4217
#
#
#
# Elastic Compliance Matrix: (Units=1/GPa)
#
#
# Indices 1 2 3 4 5 6 
#
# 1 0.019879 -0.008463 -0.004916 -0.000001 -0.007962 0.000001
# 2 -0.008463 0.023784 -0.008436 0.000003 0.002909 -0.000003
# 3 -0.004916 -0.008436 0.016689 0.000000 -0.005094 -0.000001
# 4 -0.000001 0.000003 0.000000 0.038470 -0.000003 -0.012306
# 5 -0.007962 0.002909 -0.005094 -0.000003 0.051141 0.000004
# 6 0.000001 -0.000003 -0.000001 -0.012306 0.000004 0.048536
#
#
# Mechanical properties :
#
#
# Convention : Reuss Voigt Hill
#
# Bulk Modulus (GPa) = 59.80287 70.27677 65.03982
# Shear Modulus (GPa) = 20.18534 22.58065 21.38300
#
# Velocity S-wave (km/s) = 3.57122 3.77718 3.67564
# Velocity P-wave (km/s) = 7.40202 7.96401 7.68815
#
# Compressibility (1/GPa) = 0.01672161
#
# Stress axis : x y z
#
# Youngs Moduli (GPa) = 50.30310 42.04519 59.91961
#
# Poissons Ratio (x) = 0.35582 0.29458
# Poissons Ratio (y) = 0.42571 0.50551
# Poissons Ratio (z) = 0.24730 0.35471
#
# Static dielectric constant tensor:
#      x y z
#    x 1.523410 0.000000 0.014960 
#    y 0.000000 1.530460 0.000000 
#    z 0.014960 0.000000 1.518630 
# 
# From -- ./inp_files/291837.got.cif
#   From: 2010.05.17/outbox.cif.g08.bks.cpg/sg12_146_cif.got.tgz:291837.got - 2010.06.03 13:09:07.
