data_PCOD9172397
_publ_section_title
;
Structure prediction by ZEFSAII (Michael W. Deem and Ramdas Pophale) SiO2 
 PCOD9172397
Probable space group: C 2/M
;
_chemical_formula_sum "Si O2"
_cell_formula_units_Z 64
_cell_length_a 30.414994
_cell_length_b 8.520836
_cell_length_c 16.074924
_cell_angle_alpha 90.000000
_cell_angle_beta 61.865823
_cell_angle_gamma 90.000000
_cell_volume 3673.766048
_symmetry_space_group_name_H-M "C 2/M"
_symmetry_group_IT_number 12
_symmetry_cell_setting 'monoclinic'
loop_
_space_group_symop_operation_xyz
x,y,z
-x,y,-z
-x,-y,-z
x,-y,z
1/2+x,1/2+y,z
1/2-x,1/2+y,-z
1/2-x,1/2-y,-z
1/2+x,1/2-y,z
loop_
_atom_site_type_symbol
_atom_site_label
_atom_site_fract_x
_atom_site_fract_y
_atom_site_fract_z
Si Si1 0.681094 0.310368 0.725680
Si Si2 0.211283 0.187373 0.345744
Si Si3 0.456607 0.312347 0.722907
Si Si4 0.345710 0.310312 0.436525
Si Si5 0.077326 0.191275 0.894909
Si Si6 0.441088 0.187811 0.439030
Si Si7 0.616674 0.812503 0.342580
Si Si8 0.478543 0.691312 0.889609
O O1 0.682080 0.500000 0.726268
O O2 0.733036 0.248791 0.714200
O O3 0.674405 0.261090 0.635264
O O4 0.632010 0.256493 0.819141
O O5 0.190166 0.238848 0.455458
O O6 0.171445 0.249275 0.314679
O O7 0.211076 0.000000 0.344605
O O8 0.454341 0.500000 0.725889
O O9 0.505666 0.259840 0.628924
O O10 0.408385 0.247615 0.718948
O O11 0.463259 0.254881 0.811844
O O12 0.349440 0.500000 0.433792
O O13 0.400102 0.242147 0.408314
O O14 0.034182 0.239355 0.868242
O O15 0.077696 0.000000 0.893900
O O16 0.058619 0.239718 0.003004
O O17 0.418616 0.238529 0.548290
O O18 0.445230 0.000000 0.435500
O O19 0.617854 0.000000 0.341725
O O20 0.478625 0.500000 0.888346
#
# Coordination Sequence:
#
# PCOD9172397 Si02
#       8
#     8   8   8   8   8   8   8   8
#     4  10  18  29  49  74  98 127 162 197 235 283
#     4  10  20  33  48  68  97 130 162 199 240 280
#     4  11  20  30  49  74  98 125 159 198 239 285
#     4   9  18  31  47  70  99 129 162 197 234 279
#     4   8  14  27  48  73 100 127 155 189 230 278
#     4  10  20  32  47  69  98 130 162 196 235 281
#     4  10  21  36  50  66  93 128 165 202 238 279
#     4   8  15  28  47  73 101 126 154 190 232 279
#
# _framework density 17.420815000000001
#
# number of rings (size 3 to 8) (size 9 to 14) (size 15 to 20)
#    0.000    2.500    0.000    3.750    0.000    6.000 
#    0.000    0.000    0.000    2.250    0.000    5.250 
#    0.000    0.000    0.000    0.000    0.000    0.000 
#
# Total GULP energy -178557.137570 kJ/mol
# GULP energy per Si atom -5579.910549 kJ/mol
# Density = 1.738116 g / cm^3
# Si number density = 17.420815 Si / 1000 Ang^3
#
#
#
# Elastic Constant Matrix: (Units=GPa)
#
#
# Indices 1 2 3 4 5 6 
#
# 1 168.1381 27.3657 84.3348 0.0000 -3.8362 0.0000
# 2 27.3657 15.9051 17.9869 0.0000 -0.9802 0.0000
# 3 84.3348 17.9869 74.1202 0.0000 -3.5499 0.0000
# 4 0.0000 0.0000 0.0000 6.6191 0.0000 -4.4593
# 5 -3.8362 -0.9802 -3.5499 0.0000 29.7160 0.0000
# 6 0.0000 0.0000 0.0000 -4.4593 0.0000 29.7970
#
#
#
# Elastic Compliance Matrix: (Units=1/GPa)
#
#
# Indices 1 2 3 4 5 6 
#
# 1 0.014694 -0.008787 -0.014594 0.000000 -0.000136 0.000000
# 2 -0.008787 0.091912 -0.012286 0.000000 0.000430 0.000000
# 3 -0.014594 -0.012286 0.033158 0.000000 0.001672 0.000000
# 4 0.000000 0.000000 0.000000 0.168017 0.000000 0.025145
# 5 -0.000136 0.000430 0.001672 0.000000 0.033848 0.000000
# 6 0.000000 0.000000 0.000000 0.025145 0.000000 0.037323
#
#
# Mechanical properties :
#
#
# Convention : Reuss Voigt Hill
#
# Bulk Modulus (GPa) = 14.61319 57.50424 36.05872
# Shear Modulus (GPa) = 10.56865 21.79147 16.18006
#
# Velocity S-wave (km/s) = 2.46574 3.54063 3.05089
# Velocity P-wave (km/s) = 4.06362 7.05658 5.75796
#
# Compressibility (1/GPa) = 0.06843134
#
# Stress axis : x y z
#
# Youngs Moduli (GPa) = 68.05303 10.87993 30.15885
#
# Poissons Ratio (x) = 0.09561 0.44012
# Poissons Ratio (y) = 0.59800 0.37052
# Poissons Ratio (z) = 0.99314 0.13367
#
# Static dielectric constant tensor:
#      x y z
#    x 1.577130 0.000000 0.007040 
#    y 0.000000 1.594640 0.000000 
#    z 0.007040 0.000000 1.595460 
# 
# From -- ./inp_files/243827.got.cif
#   From: 2010.05.17/outbox.cif.g08.bks.cpg/sg12_122_cif.got.tgz:243827.got - 2010.06.03 13:09:07.
