data_PCOD9172908
_publ_section_title
;
Structure prediction by ZEFSAII (Michael W. Deem and Ramdas Pophale) SiO2 
 PCOD9172908
Probable space group: C 2/M
;
_chemical_formula_sum "Si O2"
_cell_formula_units_Z 56
_cell_length_a 18.158810
_cell_length_b 29.156144
_cell_length_c 9.633591
_cell_angle_alpha 90.000000
_cell_angle_beta 41.924207
_cell_angle_gamma 90.000000
_cell_volume 3407.828046
_symmetry_space_group_name_H-M "C 2/M"
_symmetry_group_IT_number 12
_symmetry_cell_setting 'monoclinic'
loop_
_space_group_symop_operation_xyz
x,y,z
-x,y,-z
-x,-y,-z
x,-y,z
1/2+x,1/2+y,z
1/2-x,1/2+y,-z
1/2-x,1/2-y,-z
1/2+x,1/2-y,z
loop_
_atom_site_type_symbol
_atom_site_label
_atom_site_fract_x
_atom_site_fract_y
_atom_site_fract_z
Si Si1 0.355147 0.625016 0.909195
Si Si2 0.304785 0.664509 0.246070
Si Si3 0.715948 0.300915 0.196213
Si Si4 0.867601 0.947907 0.661314
Si Si5 0.914956 0.717651 0.511913
Si Si6 0.059710 0.253147 0.053390
Si Si7 0.880406 0.130464 0.440939
O O1 0.303352 0.670881 0.915766
O O2 0.326460 0.582987 0.848117
O O3 0.487264 0.631213 0.727855
O O4 0.312862 0.623332 0.124528
O O5 0.182391 0.686279 0.414265
O O6 0.343867 0.646032 0.339789
O O7 0.387244 0.704653 0.072439
O O8 0.642978 0.255574 0.309755
O O9 0.673167 0.333733 0.377862
O O10 0.839814 0.285561 0.045317
O O11 0.846691 0.919446 0.549098
O O12 0.000000 0.949557 0.500000
O O13 0.826807 0.000000 0.715746
O O14 0.000000 0.693850 0.500000
O O15 0.975005 0.744377 0.300677
O O16 0.000000 0.271600 0.000000
#
# Coordination Sequence:
#
# PCOD9172908 Si02
#       7
#     8   8   8   8   8   8   8
#     4  10  18  30  49  68  93 124 155 188 225 277
#     4  11  21  31  45  68  95 125 161 194 230 273
#     4  10  19  31  46  64  87 127 169 193 222 272
#     4   8  16  31  50  71  94 121 149 180 226 284
#     4  11  21  32  45  63  93 128 163 200 229 258
#     4  11  21  31  44  63  94 128 163 201 231 259
#     4  10  18  30  49  69  95 123 152 191 231 275
#
# _framework density 16.432753000000002
#
# number of rings (size 3 to 8) (size 9 to 14) (size 15 to 20)
#    0.000    1.857    0.000    7.714    0.000    4.571 
#    0.000    0.714    0.000    3.429    0.000    0.000 
#    0.000   72.000    0.000    0.000    0.000    0.000 
#
# Total GULP energy -156164.814302 kJ/mol
# GULP energy per Si atom -5577.314796 kJ/mol
# Density = 1.639535 g / cm^3
# Si number density = 16.432753 Si / 1000 Ang^3
#
#
#
# Elastic Constant Matrix: (Units=GPa)
#
#
# Indices 1 2 3 4 5 6 
#
# 1 104.2082 42.8641 29.1730 0.0000 10.8008 0.0000
# 2 42.8641 87.1408 18.0774 0.0000 2.2685 0.0000
# 3 29.1730 18.0774 49.2732 0.0000 1.7530 0.0000
# 4 0.0000 0.0000 0.0000 -102.2817 0.0000 -5.2851
# 5 10.8008 2.2685 1.7530 0.0000 30.0001 0.0000
# 6 0.0000 0.0000 0.0000 -5.2851 0.0000 13.1977
#
#
#
# Elastic Compliance Matrix: (Units=1/GPa)
#
#
# Indices 1 2 3 4 5 6 
#
# 1 0.014023 -0.005516 -0.006127 0.000000 -0.004274 0.000000
# 2 -0.005516 0.014604 -0.002128 0.000000 0.001006 0.000000
# 3 -0.006127 -0.002128 0.024670 0.000000 0.000925 0.000000
# 4 0.000000 0.000000 0.000000 -0.009579 0.000000 -0.003836
# 5 -0.004274 0.001006 0.000925 0.000000 0.034742 0.000000
# 6 0.000000 0.000000 0.000000 -0.003836 0.000000 0.074235
#
#
# Mechanical properties :
#
#
# Convention : Reuss Voigt Hill
#
# Bulk Modulus (GPa) = 38.82564 46.76123 42.79344
# Shear Modulus (GPa) = 26.47991 -1.78295 12.34848
#
# Velocity S-wave (km/s) = 4.01859 -1.04276 2.74424
# Velocity P-wave (km/s) = 6.72387 5.20270 6.01159
#
# Compressibility (1/GPa) = 0.02575617
#
# Stress axis : x y z
#
# Youngs Moduli (GPa) = 71.31086 68.47406 40.53430
#
# Poissons Ratio (x) = 0.37767 0.24835
# Poissons Ratio (y) = 0.39332 0.08626
# Poissons Ratio (z) = 0.43692 0.14572
#
# Static dielectric constant tensor:
#      x y z
#    x 1.585970 0.000000 0.001360 
#    y 0.000000 1.552890 0.000000 
#    z 0.001360 0.000000 1.576160 
# 
# From -- ./inp_files/54327.got.cif
#   From: 2010.05.17/outbox.cif.g08.bks.cpg/sg12_28_cif.got.tgz:54327.got - 2010.06.03 13:09:07.
