data_PCOD9172516
_publ_section_title
;
Structure prediction by ZEFSAII (Michael W. Deem and Ramdas Pophale) SiO2 
 PCOD9172516
Probable space group: C 2/M
;
_chemical_formula_sum "Si O2"
_cell_formula_units_Z 64
_cell_length_a 22.546266
_cell_length_b 8.343459
_cell_length_c 19.984561
_cell_angle_alpha 90.000000
_cell_angle_beta 60.174833
_cell_angle_gamma 90.000000
_cell_volume 3261.432730
_symmetry_space_group_name_H-M "C 2/M"
_symmetry_group_IT_number 12
_symmetry_cell_setting 'monoclinic'
loop_
_space_group_symop_operation_xyz
x,y,z
-x,y,-z
-x,-y,-z
x,-y,z
1/2+x,1/2+y,z
1/2-x,1/2+y,-z
1/2-x,1/2-y,-z
1/2+x,1/2-y,z
loop_
_atom_site_type_symbol
_atom_site_label
_atom_site_fract_x
_atom_site_fract_y
_atom_site_fract_z
Si Si1 0.475867 0.813147 0.251609
Si Si2 0.770090 0.806275 0.878729
Si Si3 0.612172 0.190185 0.967405
Si Si4 0.101644 0.185140 0.830261
Si Si5 0.785729 0.690868 0.583482
Si Si6 0.745184 0.310326 0.260334
Si Si7 0.352127 0.805765 0.409985
Si Si8 0.602331 0.688479 0.113231
O O1 0.434315 0.791214 0.205673
O O2 0.424310 0.755769 0.338385
O O3 0.545689 0.718783 0.201365
O O4 0.491139 0.000000 0.253598
O O5 0.691593 0.754170 0.930870
O O6 0.789515 0.769081 0.790969
O O7 0.825447 0.744216 0.900147
O O8 0.770149 0.000000 0.885207
O O9 0.583277 0.270881 0.916924
O O10 0.611585 0.000000 0.956436
O O11 0.579602 0.230697 0.056752
O O12 0.182842 0.217017 0.778204
O O13 0.085503 0.000000 0.825926
O O14 0.789257 0.500000 0.588778
O O15 0.795649 0.770119 0.649871
O O16 0.710240 0.737538 0.599003
O O17 0.836890 0.740628 0.495144
O O18 0.761169 0.500000 0.249812
O O19 0.348367 0.000000 0.407582
O O20 0.608700 0.500000 0.096810
#
# Coordination Sequence:
#
# PCOD9172516 Si02
#       8
#     8   8   8   8   8   8   8   8
#     4  11  22  37  54  74 106 146 178 210 259 321
#     4   8  18  35  56  78 104 136 174 218 264 308
#     4  10  20  37  58  80 105 136 171 215 268 320
#     4  11  21  34  53  80 107 137 174 217 261 308
#     4  10  18  29  50  81 108 134 173 216 260 310
#     4  10  18  32  53  79 109 141 171 211 265 317
#     4   9  19  33  50  73 107 143 173 211 260 314
#     4  11  22  37  55  78 104 136 178 223 261 305
#
# _framework density 19.623277999999999
#
# number of rings (size 3 to 8) (size 9 to 14) (size 15 to 20)
#    0.000    2.000    1.250    4.125    0.000    1.500 
#    0.000    9.375    0.000    0.750    0.000    5.250 
#    0.000    0.000    0.000    0.000    0.000    0.000 
#
# Total GULP energy -178666.885695 kJ/mol
# GULP energy per Si atom -5583.340178 kJ/mol
# Density = 1.957861 g / cm^3
# Si number density = 19.623278 Si / 1000 Ang^3
#
#
#
# Elastic Constant Matrix: (Units=GPa)
#
#
# Indices 1 2 3 4 5 6 
#
# 1 25.2740 -8.4070 2.5453 -0.0001 4.4241 0.0002
# 2 -8.4070 28.9655 6.1362 -0.0002 3.1500 0.0005
# 3 2.5453 6.1362 113.4155 0.0000 11.6583 0.0000
# 4 -0.0001 -0.0002 0.0000 29.3748 0.0000 1.5125
# 5 4.4241 3.1500 11.6583 0.0000 24.2139 0.0000
# 6 0.0002 0.0005 0.0000 1.5125 0.0000 14.9225
#
#
#
# Elastic Compliance Matrix: (Units=1/GPa)
#
#
# Indices 1 2 3 4 5 6 
#
# 1 0.046280 0.014689 -0.000808 0.000000 -0.009978 -0.000001
# 2 0.014689 0.039926 -0.001767 0.000000 -0.007027 -0.000002
# 3 -0.000808 -0.001767 0.009355 0.000000 -0.004127 0.000000
# 4 0.000000 0.000000 0.000000 0.034221 0.000000 -0.003469
# 5 -0.009978 -0.007027 -0.004127 0.000000 0.046023 0.000000
# 6 -0.000001 -0.000002 0.000000 -0.003469 0.000000 0.067365
#
#
# Mechanical properties :
#
#
# Convention : Reuss Voigt Hill
#
# Bulk Modulus (GPa) = 8.34807 18.68934 13.51870
# Shear Modulus (GPa) = 19.31456 24.86093 22.08775
#
# Velocity S-wave (km/s) = 3.14071 3.56323 3.35862
# Velocity P-wave (km/s) = 4.17318 5.14525 4.68450
#
# Compressibility (1/GPa) = 0.11978821
#
# Stress axis : x y z
#
# Youngs Moduli (GPa) = 21.60746 25.04650 106.89373
#
# Poissons Ratio (x) = -0.36790 0.08634
# Poissons Ratio (y) = -0.31739 0.18893
# Poissons Ratio (z) = 0.01745 0.04427
#
# Static dielectric constant tensor:
#      x y z
#    x 1.679400 0.000000 -0.012570 
#    y 0.000000 1.682440 0.000000 
#    z -0.012570 0.000000 1.732790 
# 
# From -- ./inp_files/324077.got.cif
#   From: 2010.05.17/outbox.cif.g08.bks.cpg/sg12_163_cif.got.tgz:324077.got - 2010.06.03 13:09:07.
