data_PCOD9172827
_publ_section_title
;
Structure prediction by ZEFSAII (Michael W. Deem and Ramdas Pophale) SiO2 
 PCOD9172827
Probable space group: C 2/M
;
_chemical_formula_sum "Si O2"
_cell_formula_units_Z 56
_cell_length_a 20.827275
_cell_length_b 8.669004
_cell_length_c 18.700335
_cell_angle_alpha 90.000000
_cell_angle_beta 99.199224
_cell_angle_gamma 90.000000
_cell_volume 3332.952322
_symmetry_space_group_name_H-M "C 2/M"
_symmetry_group_IT_number 12
_symmetry_cell_setting 'monoclinic'
loop_
_space_group_symop_operation_xyz
x,y,z
-x,y,-z
-x,-y,-z
x,-y,z
1/2+x,1/2+y,z
1/2-x,1/2+y,-z
1/2-x,1/2-y,-z
1/2+x,1/2-y,z
loop_
_atom_site_type_symbol
_atom_site_label
_atom_site_fract_x
_atom_site_fract_y
_atom_site_fract_z
Si Si1 0.569549 0.815339 0.547634
Si Si2 0.959629 0.184999 0.304816
Si Si3 0.611107 0.686845 0.310904
Si Si4 0.055790 0.685266 0.847020
Si Si5 0.319344 0.685189 0.534832
Si Si6 0.922550 0.315773 0.995031
Si Si7 0.089275 0.184759 0.152925
O O1 0.500000 0.773582 0.500000
O O2 0.569658 0.756020 0.628811
O O3 0.626112 0.740021 0.511083
O O4 0.575910 0.000000 0.547267
O O5 0.925977 0.243028 0.225865
O O6 0.036260 0.232721 0.314240
O O7 0.957551 0.000000 0.307150
O O8 0.611555 0.500000 0.312865
O O9 0.657898 0.740992 0.382308
O O10 0.627487 0.730893 0.232010
O O11 0.056536 0.500000 0.842793
O O12 0.093927 0.731157 0.926471
O O13 0.981904 0.741737 0.847305
O O14 0.317035 0.500000 0.535213
O O15 0.250000 0.750000 0.500000
O O16 0.915506 0.500000 0.988092
O O17 0.887888 0.239338 0.920967
O O18 0.000000 0.281447 0.000000
O O19 0.082838 0.000000 0.151123
#
# Coordination Sequence:
#
# PCOD9172827 Si02
#       7
#     8   8   8   8   8   8   8
#     4  11  22  35  53  78 102 128 168 209 249 302
#     4  10  18  30  48  70  93 125 164 201 248 292
#     4   8  16  29  45  65  92 124 158 200 249 294
#     4   9  16  25  36  55  87 122 154 193 240 286
#     4  11  22  38  55  73 101 134 169 210 258 302
#     4   8  14  23  33  50  81 120 153 187 237 285
#     4   9  15  23  37  58  81 115 159 196 235 287
#
# _framework density 16.801919999999999
#
# number of rings (size 3 to 8) (size 9 to 14) (size 15 to 20)
#    0.000    2.571    1.429    3.857    0.000    3.714 
#    0.000    2.143    0.000    0.000    0.000    0.000 
#    0.000    1.143    0.000    3.429    0.000    7.000 
#
# Total GULP energy -155900.182524 kJ/mol
# GULP energy per Si atom -5567.863662 kJ/mol
# Density = 1.676368 g / cm^3
# Si number density = 16.801920 Si / 1000 Ang^3
#
#
#
# Elastic Constant Matrix: (Units=GPa)
#
#
# Indices 1 2 3 4 5 6 
#
# 1 51.6539 21.9767 46.4411 0.0000 5.8708 0.0000
# 2 21.9767 37.2416 36.4290 0.0000 0.9365 0.0000
# 3 46.4411 36.4290 199.1268 0.0000 12.0428 0.0000
# 4 0.0000 0.0000 0.0000 30.2275 0.0000 -2.0067
# 5 5.8708 0.9365 12.0428 0.0000 10.1840 0.0000
# 6 0.0000 0.0000 0.0000 -2.0067 0.0000 15.2934
#
#
#
# Elastic Compliance Matrix: (Units=1/GPa)
#
#
# Indices 1 2 3 4 5 6 
#
# 1 0.029864 -0.013642 -0.003774 0.000000 -0.011499 0.000000
# 2 -0.013642 0.039119 -0.004559 0.000000 0.009658 0.000000
# 3 -0.003774 -0.004559 0.007086 0.000000 -0.005785 0.000000
# 4 0.000000 0.000000 0.000000 0.033373 0.000000 0.004379
# 5 -0.011499 0.009658 -0.005785 0.000000 0.110775 0.000000
# 6 0.000000 0.000000 0.000000 0.004379 0.000000 0.065962
#
#
# Mechanical properties :
#
#
# Convention : Reuss Voigt Hill
#
# Bulk Modulus (GPa) = 31.13485 55.30176 43.21830
# Shear Modulus (GPa) = 14.66989 23.35268 19.01128
#
# Velocity S-wave (km/s) = 2.95805 3.73216 3.36742
# Velocity P-wave (km/s) = 5.49886 7.18035 6.39511
#
# Compressibility (1/GPa) = 0.03211835
#
# Stress axis : x y z
#
# Youngs Moduli (GPa) = 33.48555 25.56322 141.12519
#
# Poissons Ratio (x) = 0.34874 0.53257
# Poissons Ratio (y) = 0.45682 0.64338
# Poissons Ratio (z) = 0.12637 0.11654
#
# Static dielectric constant tensor:
#      x y z
#    x 1.527200 0.000000 0.005900 
#    y 0.000000 1.564720 0.000000 
#    z 0.005900 0.000000 1.645240 
# 
# From -- ./inp_files/280330.got.cif
#   From: 2010.05.17/outbox.cif.g08.bks.cpg/sg12_141_cif.got.tgz:280330.got - 2010.06.03 13:09:07.
