data_PCOD9172442
_publ_section_title
;
Structure prediction by ZEFSAII (Michael W. Deem and Ramdas Pophale) SiO2 
 PCOD9172442
Probable space group: C 2/M
;
_chemical_formula_sum "Si O2"
_cell_formula_units_Z 56
_cell_length_a 20.517823
_cell_length_b 8.675567
_cell_length_c 26.882316
_cell_angle_alpha 90.000000
_cell_angle_beta 39.577265
_cell_angle_gamma 90.000000
_cell_volume 3048.708068
_symmetry_space_group_name_H-M "C 2/M"
_symmetry_group_IT_number 12
_symmetry_cell_setting 'monoclinic'
loop_
_space_group_symop_operation_xyz
x,y,z
-x,y,-z
-x,-y,-z
x,-y,z
1/2+x,1/2+y,z
1/2-x,1/2+y,-z
1/2-x,1/2-y,-z
1/2+x,1/2-y,z
loop_
_atom_site_type_symbol
_atom_site_label
_atom_site_fract_x
_atom_site_fract_y
_atom_site_fract_z
Si Si1 0.285893 0.684021 0.828834
Si Si2 0.421191 0.685831 0.089706
Si Si3 0.538154 0.684737 0.820561
Si Si4 0.822136 0.683635 0.914798
Si Si5 0.674384 0.815674 0.501724
Si Si6 0.015429 0.815123 0.663339
Si Si7 0.165596 0.315903 0.660622
O O1 0.281975 0.500000 0.837399
O O2 0.189294 0.741186 0.854614
O O3 0.281998 0.763349 0.884922
O O4 0.396233 0.722262 0.740133
O O5 0.412587 0.500000 0.091880
O O6 0.459505 0.724843 0.122485
O O7 0.500000 0.735123 0.000000
O O8 0.540826 0.500000 0.814079
O O9 0.434576 0.748108 0.857312
O O10 0.630961 0.757171 0.734815
O O11 0.825063 0.500000 0.915635
O O12 0.750000 0.750000 0.000000
O O13 0.750000 0.750000 0.500000
O O14 0.565132 0.752592 0.583865
O O15 0.725907 0.751823 0.421418
O O16 0.675889 0.000000 0.501389
O O17 0.080135 0.746016 0.671577
O O18 0.028411 0.000000 0.656573
O O19 0.167268 0.500000 0.657182
#
# Coordination Sequence:
#
# PCOD9172442 Si02
#       7
#     8   8   8   8   8   8   8
#     4  11  23  38  60  86 117 152 191 239 287 343
#     4  10  23  42  62  83 112 153 196 240 291 349
#     4  11  22  38  59  85 117 151 192 241 291 344
#     4  12  24  38  59  85 115 148 188 238 292 346
#     4  10  18  29  49  78 114 151 187 232 283 339
#     4  10  19  33  53  81 117 151 188 234 285 341
#     4  11  20  32  53  82 115 153 192 234 286 342
#
# _framework density 18.368435999999999
#
# number of rings (size 3 to 8) (size 9 to 14) (size 15 to 20)
#    0.000    1.286    1.429    7.714    0.000    4.286 
#    0.000    0.000    0.000    0.857    0.000    6.000 
#    0.000    0.000    0.000    0.000    0.000    0.000 
#
# Total GULP energy -156458.480379 kJ/mol
# GULP energy per Si atom -5587.802871 kJ/mol
# Density = 1.832663 g / cm^3
# Si number density = 18.368436 Si / 1000 Ang^3
#
#
#
# Elastic Constant Matrix: (Units=GPa)
#
#
# Indices 1 2 3 4 5 6 
#
# 1 27.6377 2.5151 -16.3313 0.0004 2.5805 -0.0006
# 2 2.5151 72.4348 13.2433 0.0007 4.1404 -0.0011
# 3 -16.3313 13.2433 90.3959 0.0002 14.1702 -0.0003
# 4 0.0004 0.0007 0.0002 34.8421 0.0000 0.4110
# 5 2.5805 4.1404 14.1702 0.0000 25.7759 0.0002
# 6 -0.0006 -0.0011 -0.0003 0.4110 0.0002 23.7898
#
#
#
# Elastic Compliance Matrix: (Units=1/GPa)
#
#
# Indices 1 2 3 4 5 6 
#
# 1 0.042950 -0.002723 0.009590 0.000000 -0.009135 0.000001
# 2 -0.002723 0.014395 -0.002496 0.000000 -0.000667 0.000001
# 3 0.009590 -0.002496 0.014498 0.000000 -0.008529 0.000000
# 4 0.000000 0.000000 0.000000 0.028707 0.000000 -0.000496
# 5 -0.009135 -0.000667 -0.008529 0.000000 0.044507 -0.000001
# 6 0.000001 0.000001 0.000000 -0.000496 -0.000001 0.042043
#
#
# Mechanical properties :
#
#
# Convention : Reuss Voigt Hill
#
# Bulk Modulus (GPa) = 12.40914 21.03584 16.72249
# Shear Modulus (GPa) = 24.36438 29.61766 26.99102
#
# Velocity S-wave (km/s) = 3.64596 4.01985 3.83747
# Velocity P-wave (km/s) = 4.94918 5.74653 5.36270
#
# Compressibility (1/GPa) = 0.08058577
#
# Stress axis : x y z
#
# Youngs Moduli (GPa) = 23.28287 69.47072 68.97602
#
# Poissons Ratio (x) = 0.18914 -0.66150
# Poissons Ratio (y) = 0.06339 0.17217
# Poissons Ratio (z) = -0.22329 0.17340
#
# Static dielectric constant tensor:
#      x y z
#    x 1.605940 0.000000 0.006180 
#    y 0.000000 1.611980 0.000000 
#    z 0.006180 0.000000 1.671120 
# 
# From -- ./inp_files/362994.got.cif
#   From: 2010.05.17/outbox.cif.g08.bks.cpg/sg12_182_cif.got.tgz:362994.got - 2010.06.03 13:09:07.
