data_PCOD9172393
_publ_section_title
;
Structure prediction by ZEFSAII (Michael W. Deem and Ramdas Pophale) SiO2 
 PCOD9172393
Probable space group: C 2/M
;
_chemical_formula_sum "Si O2"
_cell_formula_units_Z 64
_cell_length_a 18.706570
_cell_length_b 7.601690
_cell_length_c 29.492232
_cell_angle_alpha 90.000000
_cell_angle_beta 132.148215
_cell_angle_gamma 90.000000
_cell_volume 3109.361549
_symmetry_space_group_name_H-M "C 2/M"
_symmetry_group_IT_number 12
_symmetry_cell_setting 'monoclinic'
loop_
_space_group_symop_operation_xyz
x,y,z
-x,y,-z
-x,-y,-z
x,-y,z
1/2+x,1/2+y,z
1/2-x,1/2+y,-z
1/2-x,1/2-y,-z
1/2+x,1/2-y,z
loop_
_atom_site_type_symbol
_atom_site_label
_atom_site_fract_x
_atom_site_fract_y
_atom_site_fract_z
Si Si1 0.785833 0.715856 0.859206
Si Si2 0.910142 0.712166 0.493269
Si Si3 0.428316 0.715354 0.259199
Si Si4 0.220649 0.294116 0.638368
Si Si5 0.904475 0.295975 0.991535
Si Si6 0.073430 0.787908 0.243018
Si Si7 0.533136 0.210348 0.123044
Si Si8 0.042351 0.792761 0.626548
O O1 0.786748 0.500000 0.860322
O O2 0.679857 0.770759 0.799508
O O3 0.867223 0.772832 0.857777
O O4 0.820778 0.778176 0.923802
O O5 0.908031 0.500000 0.491761
O O6 0.816794 0.777942 0.426114
O O7 0.000000 0.770030 0.500000
O O8 0.942202 0.764644 0.557094
O O9 0.429513 0.500000 0.259761
O O10 0.502900 0.773972 0.252708
O O11 0.456212 0.774180 0.321576
O O12 0.239624 0.500000 0.638482
O O13 0.318195 0.219875 0.701290
O O14 0.130860 0.283313 0.634813
O O15 0.878168 0.500000 0.988446
O O16 0.942813 0.218814 0.055167
O O17 0.000000 0.294444 0.000000
O O18 0.035443 0.743138 0.177077
O O19 0.075448 0.000000 0.245370
O O20 0.531673 0.000000 0.115578
O O21 0.060654 0.000000 0.635766
#
# Coordination Sequence:
#
# PCOD9172393 Si02
#       8
#     8   8   8   8   8   8   8   8
#     4   8  13  25  47  70  89 114 150 187 222 264
#     4   8  15  29  47  67  91 118 147 178 217 268
#     4   9  18  30  43  63  92 123 152 183 221 265
#     4   9  18  32  49  67  89 120 153 181 215 267
#     4   7  11  21  41  68  91 111 141 183 226 265
#     4  10  20  33  46  62  90 126 156 180 216 269
#     4   9  16  28  48  72  92 111 146 194 231 259
#     4  10  18  29  49  74  94 112 143 190 231 259
#
# _framework density 20.583003000000001
#
# number of rings (size 3 to 8) (size 9 to 14) (size 15 to 20)
#    0.000    3.250    0.000    3.375    0.000    3.750 
#    0.000    2.500    0.000    4.125    0.000    0.000 
#    0.000    0.000    0.000    0.000    0.000    0.000 
#
# Total GULP energy -178271.767065 kJ/mol
# GULP energy per Si atom -5570.992721 kJ/mol
# Density = 2.053615 g / cm^3
# Si number density = 20.583003 Si / 1000 Ang^3
#
#
#
# Elastic Constant Matrix: (Units=GPa)
#
#
# Indices 1 2 3 4 5 6 
#
# 1 51.7436 -4.5337 67.1646 0.0000 -24.3030 0.0000
# 2 -4.5337 39.2922 3.1202 -0.0001 3.5598 0.0001
# 3 67.1646 3.1202 227.8284 0.0000 -35.2756 0.0000
# 4 0.0000 -0.0001 0.0000 20.3567 0.0000 -14.4434
# 5 -24.3030 3.5598 -35.2756 0.0000 2.9308 0.0000
# 6 0.0000 0.0001 0.0000 -14.4434 0.0000 13.6533
#
#
#
# Elastic Compliance Matrix: (Units=1/GPa)
#
#
# Indices 1 2 3 4 5 6 
#
# 1 0.010920 0.006609 -0.010963 0.000000 -0.049428 0.000000
# 2 0.006609 0.025878 -0.001523 0.000000 0.005033 0.000000
# 3 -0.010963 -0.001523 0.007118 0.000000 -0.003386 0.000000
# 4 0.000000 0.000000 0.000000 0.196951 0.000000 0.208349
# 5 -0.049428 0.005033 -0.003386 0.000000 -0.115534 0.000000
# 6 0.000000 0.000000 0.000000 0.208349 0.000000 0.293649
#
#
# Mechanical properties :
#
#
# Convention : Reuss Voigt Hill
#
# Bulk Modulus (GPa) = 31.09446 50.04071 40.56759
# Shear Modulus (GPa) = 11.32613 24.26237 17.79425
#
# Velocity S-wave (km/s) = 2.34832 3.43703 2.94345
# Velocity P-wave (km/s) = 4.74262 6.33367 5.59499
#
# Compressibility (1/GPa) = 0.03216007
#
# Stress axis : x y z
#
# Youngs Moduli (GPa) = 91.57777 38.64299 140.49388
#
# Poissons Ratio (x) = -0.25537 1.54021
# Poissons Ratio (y) = -0.60520 0.21403
# Poissons Ratio (z) = 1.00395 0.05887
#
# Static dielectric constant tensor:
#      x y z
#    x 1.683960 0.000000 0.004570 
#    y 0.000000 1.786920 0.000000 
#    z 0.004570 0.000000 1.790260 
# 
# From -- ./inp_files/365242.got.cif
#   From: 2010.05.17/outbox.cif.g08.bks.cpg/sg12_183_cif.got.tgz:365242.got - 2010.06.03 13:09:07.
