data_PCOD9172886
_publ_section_title
;
Structure prediction by ZEFSAII (Michael W. Deem and Ramdas Pophale) SiO2 
 PCOD9172886
Probable space group: C 2/M
;
_chemical_formula_sum "Si O2"
_cell_formula_units_Z 42
_cell_length_a 21.726166
_cell_length_b 13.920160
_cell_length_c 24.908156
_cell_angle_alpha 90.000000
_cell_angle_beta 163.248474
_cell_angle_gamma 90.000000
_cell_volume 2171.179257
_symmetry_space_group_name_H-M "C 2/M"
_symmetry_group_IT_number 12
_symmetry_cell_setting 'monoclinic'
loop_
_space_group_symop_operation_xyz
x,y,z
-x,y,-z
-x,-y,-z
x,-y,z
1/2+x,1/2+y,z
1/2-x,1/2+y,-z
1/2-x,1/2-y,-z
1/2+x,1/2-y,z
loop_
_atom_site_type_symbol
_atom_site_label
_atom_site_fract_x
_atom_site_fract_y
_atom_site_fract_z
Si Si1 0.500000 0.000000 0.000000
Si Si2 0.886471 0.110327 0.684762
Si Si3 0.979479 0.610424 0.712244
Si Si4 0.421593 0.606984 0.340792
Si Si5 0.827854 0.297400 0.697727
Si Si6 0.718578 0.703751 0.885068
O O1 0.687235 0.917810 0.166759
O O2 0.706007 0.117310 0.487602
O O3 0.824480 0.185277 0.679150
O O4 0.104302 0.146515 0.838330
O O5 0.903851 0.000000 0.716111
O O6 0.047555 0.500000 0.773463
O O7 0.162745 0.685050 0.848200
O O8 0.885815 0.648852 0.690058
O O9 0.507907 0.500000 0.398395
O O10 0.600273 0.660648 0.524340
O O11 0.385622 0.666687 0.256497
O O12 0.030156 0.315430 0.904291
#
# Coordination Sequence:
#
# PCOD9172886 Si02
#       6
#     2   8   8   8   8   8
#     4   8  24  40  62  68 102 134 164 252 266 302
#     4  10  18  30  48  75 110 144 175 204 239 306
#     4  10  18  30  48  75 110 144 175 204 239 306
#     4  10  20  39  52  73  97 128 171 218 268 304
#     4  11  20  31  51  74 105 143 173 206 255 309
#     4  11  20  31  51  74 105 143 173 206 255 309
#
# _framework density 19.344325999999999
#
# number of rings (size 3 to 8) (size 9 to 14) (size 15 to 20)
#    0.571    1.143    3.810    4.571    0.000    5.333 
#    0.000    1.905    0.000    0.000    0.000    2.667 
#    0.000    3.048    0.000    0.000    0.000    0.000 
#
# Total GULP energy -116918.268422 kJ/mol
# GULP energy per Si atom -5567.536592 kJ/mol
# Density = 1.930030 g / cm^3
# Si number density = 19.344326 Si / 1000 Ang^3
#
#
#
# Elastic Constant Matrix: (Units=GPa)
#
#
# Indices 1 2 3 4 5 6 
#
# 1 26.8343 18.3182 16.4340 0.0094 5.7275 -0.0078
# 2 18.3182 143.6789 47.7900 -0.1012 10.8175 0.0241
# 3 16.4340 47.7900 153.0250 -0.0341 20.7995 0.0127
# 4 0.0094 -0.1012 -0.0341 23.6249 0.0037 11.1670
# 5 5.7275 10.8175 20.7995 0.0037 23.4720 0.0064
# 6 -0.0078 0.0241 0.0127 11.1670 0.0064 1.1305
#
#
#
# Elastic Compliance Matrix: (Units=1/GPa)
#
#
# Indices 1 2 3 4 5 6 
#
# 1 0.042983 -0.004187 -0.002439 0.000068 -0.006398 -0.000223
# 2 -0.004187 0.008230 -0.001983 -0.000032 -0.001014 0.000140
# 3 -0.002439 -0.001983 0.008198 -0.000006 -0.005756 0.000023
# 4 0.000068 -0.000032 -0.000006 -0.011536 -0.000026 0.113956
# 5 -0.006398 -0.001014 -0.005756 -0.000026 0.049733 0.000016
# 6 -0.000223 0.000140 0.000023 0.113956 0.000016 -0.241084
#
#
# Mechanical properties :
#
#
# Convention : Reuss Voigt Hill
#
# Bulk Modulus (GPa) = 23.70015 54.29140 38.99577
# Shear Modulus (GPa) = -44.56579 25.71186 -9.42696
#
# Velocity S-wave (km/s) = -4.80502 3.64973 -2.20994
# Velocity P-wave (km/s) = 4.30185 6.77403 3.70010
#
# Compressibility (1/GPa) = 0.04219383
#
# Stress axis : x y z
#
# Youngs Moduli (GPa) = 23.26493 121.51322 121.97576
#
# Poissons Ratio (x) = 0.50879 0.29749
# Poissons Ratio (y) = 0.09741 0.24183
# Poissons Ratio (z) = 0.05674 0.24091
#
# Static dielectric constant tensor:
#      x y z
#    x 1.677110 -0.000010 0.015560 
#    y -0.000010 1.664820 -0.000030 
#    z 0.015560 -0.000030 1.717140 
# 
# From -- ./inp_files/347441.got.cif
#   From: 2010.05.17/outbox.cif.g08.bks.cpg/sg12_174_cif.got.tgz:347441.got - 2010.06.03 13:09:07.
