data_PCOD9172633
_publ_section_title
;
Structure prediction by ZEFSAII (Michael W. Deem and Ramdas Pophale) SiO2 
 PCOD9172633
Probable space group: C 2/M
;
_chemical_formula_sum "Si O2"
_cell_formula_units_Z 64
_cell_length_a 25.484685
_cell_length_b 26.733404
_cell_length_c 20.656965
_cell_angle_alpha 90.000000
_cell_angle_beta 162.103369
_cell_angle_gamma 90.000000
_cell_volume 4324.775250
_symmetry_space_group_name_H-M "C 2/M"
_symmetry_group_IT_number 12
_symmetry_cell_setting 'monoclinic'
loop_
_space_group_symop_operation_xyz
x,y,z
-x,y,-z
-x,-y,-z
x,-y,z
1/2+x,1/2+y,z
1/2-x,1/2+y,-z
1/2-x,1/2-y,-z
1/2+x,1/2-y,z
loop_
_atom_site_type_symbol
_atom_site_label
_atom_site_fract_x
_atom_site_fract_y
_atom_site_fract_z
Si Si1 0.104924 0.853422 0.274909
Si Si2 0.769461 0.702729 0.974535
Si Si3 0.264957 0.853422 0.094971
Si Si4 0.984538 0.740427 0.404866
Si Si5 0.013730 0.441232 0.592160
Si Si6 0.356869 0.441232 0.778438
Si Si7 0.640689 0.202729 0.345763
Si Si8 0.143882 0.240427 0.223554
O O1 0.122346 0.905658 0.258482
O O2 0.252591 0.843744 0.501262
O O3 0.120619 0.809849 0.239045
O O4 0.922175 0.848543 0.094352
O O5 0.624220 0.713034 0.751081
O O6 0.750000 0.750000 0.000000
O O7 0.755250 0.656256 0.006578
O O8 0.953981 0.703782 0.157961
O O9 0.383770 0.809850 0.265344
O O10 0.350075 0.905658 0.213938
O O11 0.169674 0.739492 0.589348
O O12 0.000000 0.742247 0.500000
O O13 0.058326 0.500000 0.648975
O O14 0.829023 0.433827 0.408047
O O15 0.000000 0.428389 0.500000
O O16 0.377027 0.500000 0.786377
O O17 0.500000 0.428390 0.000000
O O18 0.750000 0.250000 0.500000
O O19 0.629504 0.213034 0.256366
O O20 0.000000 0.242247 0.000000
#
# Coordination Sequence:
#
# PCOD9172633 Si02
#       8
#     8   8   8   8   8   8   8   8
#     4  11  20  31  46  64  87 117 150 182 219 261
#     4  10  18  30  45  63  86 113 145 180 218 258
#     4  11  20  31  46  64  87 117 150 182 219 261
#     4  11  20  31  45  64  89 117 149 182 218 259
#     4  10  20  33  47  64  87 115 148 186 224 260
#     4  10  20  33  47  64  87 115 148 186 224 260
#     4  10  18  30  45  63  86 113 145 180 218 258
#     4  11  20  31  45  64  89 117 149 182 218 259
#
# _framework density 14.798456
#
# number of rings (size 3 to 8) (size 9 to 14) (size 15 to 20)
#    0.000    1.500    0.000   11.250    0.000    1.500 
#    0.000    0.000    0.000    0.000    0.000    0.000 
#    0.000    1.000    0.000    3.750    0.000    5.750 
#
# Total GULP energy -178613.998328 kJ/mol
# GULP energy per Si atom -5581.687448 kJ/mol
# Density = 1.476477 g / cm^3
# Si number density = 14.798456 Si / 1000 Ang^3
#
#
#
# Elastic Constant Matrix: (Units=GPa)
#
#
# Indices 1 2 3 4 5 6 
#
# 1 105.2888 32.1287 57.2749 -0.0001 13.4397 0.0000
# 2 32.1287 45.6186 33.1044 0.0000 2.2762 0.0000
# 3 57.2749 33.1044 118.6536 -0.0004 17.7438 0.0000
# 4 -0.0001 0.0000 -0.0004 23.6062 -0.0002 -2.1172
# 5 13.4397 2.2762 17.7438 -0.0002 36.9295 0.0000
# 6 0.0000 0.0000 0.0000 -2.1172 0.0000 24.5137
#
#
#
# Elastic Compliance Matrix: (Units=1/GPa)
#
#
# Indices 1 2 3 4 5 6 
#
# 1 0.014410 -0.006585 -0.004735 0.000000 -0.002563 0.000000
# 2 -0.006585 0.030653 -0.005871 0.000000 0.003328 0.000000
# 3 -0.004735 -0.005871 0.012972 0.000000 -0.004148 0.000000
# 4 0.000000 0.000000 0.000000 0.042692 0.000000 0.003687
# 5 -0.002563 0.003328 -0.004148 0.000000 0.029799 0.000000
# 6 0.000000 0.000000 0.000000 0.003687 0.000000 0.041112
#
#
# Mechanical properties :
#
#
# Convention : Reuss Voigt Hill
#
# Bulk Modulus (GPa) = 42.27932 57.17525 49.72729
# Shear Modulus (GPa) = 23.37476 26.81342 25.09409
#
# Velocity S-wave (km/s) = 3.97865 4.26127 4.12238
# Velocity P-wave (km/s) = 7.05254 7.93291 7.50564
#
# Compressibility (1/GPa) = 0.02365222
#
# Stress axis : x y z
#
# Youngs Moduli (GPa) = 69.39561 32.62318 77.08839
#
# Poissons Ratio (x) = 0.21481 0.36505
# Poissons Ratio (y) = 0.45694 0.45262
# Poissons Ratio (z) = 0.32862 0.19155
#
# Static dielectric constant tensor:
#      x y z
#    x 1.501880 0.000000 -0.009210 
#    y 0.000000 1.499510 0.000000 
#    z -0.009210 0.000000 1.497930 
# 
# From -- ./inp_files/286723.got.cif
#   From: 2010.05.17/outbox.cif.g08.bks.cpg/sg12_144_cif.got.tgz:286723.got - 2010.06.03 13:09:07.
