data_PCOD9172407
_publ_section_title
;
Structure prediction by ZEFSAII (Michael W. Deem and Ramdas Pophale) SiO2 
 PCOD9172407
Probable space group: C 2/M
;
_chemical_formula_sum "Si O2"
_cell_formula_units_Z 64
_cell_length_a 27.784247
_cell_length_b 15.559195
_cell_length_c 9.060315
_cell_angle_alpha 90.000000
_cell_angle_beta 67.306920
_cell_angle_gamma 90.000000
_cell_volume 3613.560214
_symmetry_space_group_name_H-M "C 2/M"
_symmetry_group_IT_number 12
_symmetry_cell_setting 'monoclinic'
loop_
_space_group_symop_operation_xyz
x,y,z
-x,y,-z
-x,-y,-z
x,-y,z
1/2+x,1/2+y,z
1/2-x,1/2+y,-z
1/2-x,1/2-y,-z
1/2+x,1/2-y,z
loop_
_atom_site_type_symbol
_atom_site_label
_atom_site_fract_x
_atom_site_fract_y
_atom_site_fract_z
Si Si1 0.741297 0.811393 0.870029
Si Si2 0.872892 0.233399 0.447952
Si Si3 0.322013 0.905420 0.488051
Si Si4 0.647856 0.400797 0.291944
Si Si5 0.641786 0.902273 0.896999
Si Si6 0.438995 0.757402 0.084532
Si Si7 0.383303 0.596832 0.011091
Si Si8 0.289470 0.663487 0.314457
O O1 0.792007 0.869550 0.785353
O O2 0.688943 0.867994 0.942450
O O3 0.731301 0.747818 0.744751
O O4 0.750000 0.750000 0.000000
O O5 0.852688 0.326314 0.525605
O O6 0.881790 0.165272 0.566063
O O7 0.919574 0.247732 0.276993
O O8 0.825530 0.194054 0.406154
O O9 0.336264 0.902224 0.297501
O O10 0.260466 0.890295 0.578847
O O11 0.336145 0.000000 0.527680
O O12 0.644974 0.500000 0.345427
O O13 0.625856 0.395501 0.152450
O O14 0.594833 0.834254 0.947835
O O15 0.626952 0.000000 0.950958
O O16 0.500000 0.772917 0.000000
O O17 0.421981 0.669443 0.024486
O O18 0.400612 0.500000 0.025253
O O19 0.327963 0.614323 0.157281
#
# Coordination Sequence:
#
# PCOD9172407 Si02
#       8
#     8   8   8   8   8   8   8   8
#     4  12  19  32  53  78 117 155 179 210 258 317
#     4  10  20  35  52  77 105 138 181 225 266 321
#     4  10  18  29  49  75 106 143 178 216 259 306
#     4  11  22  34  54  81 114 151 178 211 264 324
#     4  10  20  35  54  81 112 142 181 228 268 316
#     4  10  21  40  62  80 101 136 181 235 287 325
#     4  10  21  37  54  79 112 143 179 221 267 322
#     4  11  18  32  50  74 110 149 181 215 248 311
#
# _framework density 17.711065999999999
#
# number of rings (size 3 to 8) (size 9 to 14) (size 15 to 20)
#    0.000    1.500    6.250    1.875    0.000    4.000 
#    0.000    0.625    0.000    1.500    0.000    0.000 
#    0.000    6.000    0.000    0.000    0.000    0.000 
#
# Total GULP energy -178652.157846 kJ/mol
# GULP energy per Si atom -5582.879933 kJ/mol
# Density = 1.767075 g / cm^3
# Si number density = 17.711066 Si / 1000 Ang^3
#
#
#
# Elastic Constant Matrix: (Units=GPa)
#
#
# Indices 1 2 3 4 5 6 
#
# 1 54.6713 31.3884 21.9074 0.0000 -20.8767 0.0000
# 2 31.3884 150.0812 33.9755 0.0000 -3.7748 0.0000
# 3 21.9074 33.9755 49.8380 0.0000 -9.1835 0.0000
# 4 0.0000 0.0000 0.0000 21.8581 0.0000 6.3255
# 5 -20.8767 -3.7748 -9.1835 0.0000 22.7962 0.0000
# 6 0.0000 0.0000 0.0000 6.3255 0.0000 8.4242
#
#
#
# Elastic Compliance Matrix: (Units=1/GPa)
#
#
# Indices 1 2 3 4 5 6 
#
# 1 0.034579 -0.005035 -0.006574 0.000000 0.028185 0.000000
# 2 -0.005035 0.008630 -0.004598 0.000000 -0.005034 0.000000
# 3 -0.006574 -0.004598 0.026831 0.000000 0.004027 0.000000
# 4 0.000000 0.000000 0.000000 0.058451 0.000000 -0.043890
# 5 0.028185 -0.005034 0.004027 0.000000 0.070467 0.000000
# 6 0.000000 0.000000 0.000000 -0.043890 0.000000 0.151661
#
#
# Mechanical properties :
#
#
# Convention : Reuss Voigt Hill
#
# Bulk Modulus (GPa) = 26.57666 47.68145 37.12905
# Shear Modulus (GPa) = 12.63982 21.77031 17.20506
#
# Velocity S-wave (km/s) = 2.67435 3.50979 3.12016
# Velocity P-wave (km/s) = 4.95727 6.58825 5.83008
#
# Compressibility (1/GPa) = 0.03762700
#
# Stress axis : x y z
#
# Youngs Moduli (GPa) = 28.91964 115.87080 37.26985
#
# Poissons Ratio (x) = 0.58338 0.24501
# Poissons Ratio (y) = 0.14560 0.17136
# Poissons Ratio (z) = 0.19012 0.53276
#
# Static dielectric constant tensor:
#      x y z
#    x 1.569600 0.000000 0.006550 
#    y 0.000000 1.634650 0.000000 
#    z 0.006550 0.000000 1.627160 
# 
# From -- ./inp_files/111621.got.cif
#   From: 2010.05.17/outbox.cif.g08.bks.cpg/sg12_56_cif.got.tgz:111621.got - 2010.06.03 13:09:07.
