data_PCOD9172647
_publ_section_title
;
Structure prediction by ZEFSAII (Michael W. Deem and Ramdas Pophale) SiO2 
 PCOD9172647
Probable space group: C 2/M
;
_chemical_formula_sum "Si O2"
_cell_formula_units_Z 56
_cell_length_a 5.420891
_cell_length_b 26.313031
_cell_length_c 19.741503
_cell_angle_alpha 90.000000
_cell_angle_beta 93.171032
_cell_angle_gamma 90.000000
_cell_volume 2811.617843
_symmetry_space_group_name_H-M "C 2/M"
_symmetry_group_IT_number 12
_symmetry_cell_setting 'monoclinic'
loop_
_space_group_symop_operation_xyz
x,y,z
-x,y,-z
-x,-y,-z
x,-y,z
1/2+x,1/2+y,z
1/2-x,1/2+y,-z
1/2-x,1/2-y,-z
1/2+x,1/2-y,z
loop_
_atom_site_type_symbol
_atom_site_label
_atom_site_fract_x
_atom_site_fract_y
_atom_site_fract_z
Si Si1 0.117666 0.558528 0.910422
Si Si2 0.026111 0.188991 0.367459
Si Si3 0.087941 0.883863 0.745282
Si Si4 0.537400 0.197412 0.421680
Si Si5 0.118125 0.116376 0.908784
Si Si6 0.086484 0.558305 0.745255
Si Si7 0.536723 0.732695 0.924320
O O1 0.131376 0.500000 0.932754
O O2 0.370084 0.588285 0.929256
O O3 0.098623 0.557836 0.827859
O O4 0.867778 0.586293 0.930390
O O5 0.955614 0.169854 0.292084
O O6 0.800099 0.171830 0.411928
O O7 0.048330 0.249456 0.380343
O O8 0.294667 0.168597 0.392612
O O9 0.105641 0.880395 0.826593
O O10 0.342786 0.909313 0.724220
O O11 0.845807 0.917693 0.726140
O O12 0.500000 0.209650 0.500000
O O13 0.114922 0.174430 0.931604
O O14 0.061423 0.500000 0.722615
O O15 0.260366 0.738402 0.890630
O O16 0.500000 0.754372 0.000000
#
# Coordination Sequence:
#
# PCOD9172647 Si02
#       7
#     8   8   8   8   8   8   8
#     4   9  17  30  52  76 101 132 166 199 253 319
#     4  10  18  30  45  69  97 124 153 197 235 272
#     4  10  19  30  46  74 104 124 156 199 244 301
#     4  10  19  33  50  66  94 129 164 193 227 284
#     4  10  19  33  51  75 103 134 167 210 258 303
#     4   9  17  30  47  67  97 134 162 191 233 289
#     4  10  21  38  56  74  95 133 187 226 246 284
#
# _framework density 19.917359000000001
#
# number of rings (size 3 to 8) (size 9 to 14) (size 15 to 20)
#    0.000    2.286    0.000    4.714    0.000    3.429 
#    5.143    0.000    0.000    2.571    0.000    0.000 
#    0.000   66.286    0.000    0.000    0.000    0.000 
#
# Total GULP energy -156173.493082 kJ/mol
# GULP energy per Si atom -5577.624753 kJ/mol
# Density = 1.987203 g / cm^3
# Si number density = 19.917359 Si / 1000 Ang^3
#
#
#
# Elastic Constant Matrix: (Units=GPa)
#
#
# Indices 1 2 3 4 5 6 
#
# 1 170.1629 36.9942 5.6344 0.0000 -1.5220 0.0000
# 2 36.9942 84.5632 13.9016 0.0000 4.7195 0.0000
# 3 5.6344 13.9016 42.4829 0.0000 7.7514 0.0000
# 4 0.0000 0.0000 0.0000 -56.9743 0.0000 -2.9401
# 5 -1.5220 4.7195 7.7514 0.0000 22.2667 0.0000
# 6 0.0000 0.0000 0.0000 -2.9401 0.0000 29.3492
#
#
#
# Elastic Compliance Matrix: (Units=1/GPa)
#
#
# Indices 1 2 3 4 5 6 
#
# 1 0.006520 -0.002894 -0.000118 0.000000 0.001100 0.000000
# 2 -0.002894 0.013818 -0.003809 0.000000 -0.001801 0.000000
# 3 -0.000118 -0.003809 0.026328 0.000000 -0.008366 0.000000
# 4 0.000000 0.000000 0.000000 -0.017462 0.000000 -0.001749
# 5 0.001100 -0.001801 -0.008366 0.000000 0.048279 0.000000
# 6 0.000000 0.000000 0.000000 -0.001749 0.000000 0.033897
#
#
# Mechanical properties :
#
#
# Convention : Reuss Voigt Hill
#
# Bulk Modulus (GPa) = 30.28312 45.58550 37.93431
# Shear Modulus (GPa) = 36.75621 14.97358 25.86490
#
# Velocity S-wave (km/s) = 4.30051 2.74485 3.60753
# Velocity P-wave (km/s) = 6.31638 5.74305 6.03652
#
# Compressibility (1/GPa) = 0.03302170
#
# Stress axis : x y z
#
# Youngs Moduli (GPa) = 153.38175 72.36773 37.98306
#
# Poissons Ratio (x) = 0.20944 0.00450
# Poissons Ratio (y) = 0.44391 0.14469
# Poissons Ratio (z) = 0.01816 0.27568
#
# Static dielectric constant tensor:
#      x y z
#    x 1.793880 0.000000 -0.000080 
#    y 0.000000 1.680910 0.000000 
#    z -0.000080 0.000000 1.712340 
# 
# From -- ./inp_files/253657.got.cif
#   From: 2010.05.17/outbox.cif.g08.bks.cpg/sg12_127_cif.got.tgz:253657.got - 2010.06.03 13:09:07.
