data_PCOD9172370
_publ_section_title
;
Structure prediction by ZEFSAII (Michael W. Deem and Ramdas Pophale) SiO2 
 PCOD9172370
Probable space group: C 2/M
;
_chemical_formula_sum "Si O2"
_cell_formula_units_Z 42
_cell_length_a 5.549712
_cell_length_b 18.120610
_cell_length_c 15.817677
_cell_angle_alpha 90.000000
_cell_angle_beta 101.618065
_cell_angle_gamma 90.000000
_cell_volume 1558.101106
_symmetry_space_group_name_H-M "C 2/M"
_symmetry_group_IT_number 12
_symmetry_cell_setting 'monoclinic'
loop_
_space_group_symop_operation_xyz
x,y,z
-x,y,-z
-x,-y,-z
x,-y,z
1/2+x,1/2+y,z
1/2-x,1/2+y,-z
1/2-x,1/2-y,-z
1/2+x,1/2-y,z
loop_
_atom_site_type_symbol
_atom_site_label
_atom_site_fract_x
_atom_site_fract_y
_atom_site_fract_z
Si Si1 0.613895 0.341462 0.598170
Si Si2 0.011666 0.000000 0.757269
Si Si3 0.350291 0.823931 0.336743
Si Si4 0.617502 0.156508 0.853442
Si Si5 0.850711 0.122484 0.093559
Si Si6 0.500000 0.000000 0.000000
Si Si7 0.511947 0.000000 0.760785
O O1 0.500000 0.359707 0.500000
O O2 0.642682 0.252576 0.611263
O O3 0.406669 0.360551 0.653267
O O4 0.896100 0.366937 0.626871
O O5 0.061037 0.930040 0.822138
O O6 0.236172 0.000000 0.709317
O O7 0.731492 0.000000 0.710971
O O8 0.366919 0.806747 0.238216
O O9 0.371294 0.174979 0.888757
O O10 0.890562 0.160640 0.911096
O O11 0.558871 0.069991 0.825261
O O12 0.714099 0.064739 0.023002
#
# Coordination Sequence:
#
# PCOD9172370 Si02
#       7
#     8   4   8   8   8   2   4
#     4  10  19  33  51  77 101 124 160 205 253 311
#     4   7  12  23  36  52  76 112 142 180 213 256
#     4  10  18  29  49  72 102 130 157 198 256 295
#     4  10  18  30  44  69  99 130 162 202 242 295
#     4   9  18  28  43  64  93 126 167 196 239 290
#     4  10  20  34  52  70 100 146 168 210 258 286
#     4   8  14  24  38  55  85 116 148 178 220 266
#
# _framework density 26.955891000000001
#
# number of rings (size 3 to 8) (size 9 to 14) (size 15 to 20)
#    0.000    2.667    0.000    5.143    0.000    1.524 
#    0.000    0.000    0.000    0.000    0.000    7.333 
#    0.000   60.952    0.000    0.000    0.000    0.000 
#
# Total GULP energy -117102.462142 kJ/mol
# GULP energy per Si atom -5576.307721 kJ/mol
# Density = 2.689454 g / cm^3
# Si number density = 26.955891 Si / 1000 Ang^3
#
#
#
# Elastic Constant Matrix: (Units=GPa)
#
#
# Indices 1 2 3 4 5 6 
#
# 1 317.7965 12.0194 35.0805 0.0000 52.0767 0.0000
# 2 12.0194 85.6490 -2.0245 0.0000 -1.6837 0.0000
# 3 35.0805 -2.0245 98.0771 0.0000 24.2203 0.0000
# 4 0.0000 0.0000 0.0000 36.3104 0.0000 7.2138
# 5 52.0767 -1.6837 24.2203 0.0000 49.4710 0.0000
# 6 0.0000 0.0000 0.0000 7.2138 0.0000 50.4891
#
#
#
# Elastic Compliance Matrix: (Units=1/GPa)
#
#
# Indices 1 2 3 4 5 6 
#
# 1 0.003851 -0.000627 -0.000437 0.000000 -0.003862 0.000000
# 2 -0.000627 0.011788 0.000234 0.000000 0.000946 0.000000
# 3 -0.000437 0.000234 0.011650 0.000000 -0.005236 0.000000
# 4 0.000000 0.000000 0.000000 0.028345 0.000000 -0.004050
# 5 -0.003862 0.000946 -0.005236 0.000000 0.026875 0.000000
# 6 0.000000 0.000000 0.000000 -0.004050 0.000000 0.020385
#
#
# Mechanical properties :
#
#
# Convention : Reuss Voigt Hill
#
# Bulk Modulus (GPa) = 39.01748 65.74149 52.37948
# Shear Modulus (GPa) = 44.21003 57.68390 50.94697
#
# Velocity S-wave (km/s) = 4.05419 4.63096 4.35214
# Velocity P-wave (km/s) = 6.03501 7.28258 6.68795
#
# Compressibility (1/GPa) = 0.02562954
#
# Stress axis : x y z
#
# Youngs Moduli (GPa) = 259.64541 84.83465 85.83574
#
# Poissons Ratio (x) = 0.05317 0.03750
# Poissons Ratio (y) = 0.16273 -0.02006
# Poissons Ratio (z) = 0.11343 -0.01983
#
# Static dielectric constant tensor:
#      x y z
#    x 2.251620 0.000000 -0.067570 
#    y 0.000000 2.273600 0.000000 
#    z -0.067570 0.000000 2.122260 
# 
# From -- ./inp_files/192489.got.cif
#   From: 2010.05.17/outbox.cif.g08.bks.cpg/sg12_97_cif.got.tgz:192489.got - 2010.06.03 13:09:07.
