data_PCOD9172796
_publ_section_title
;
Structure prediction by ZEFSAII (Michael W. Deem and Ramdas Pophale) SiO2 
 PCOD9172796
Probable space group: C 2/M
;
_chemical_formula_sum "Si O2"
_cell_formula_units_Z 56
_cell_length_a 29.764214
_cell_length_b 7.533305
_cell_length_c 20.107918
_cell_angle_alpha 90.000000
_cell_angle_beta 138.599217
_cell_angle_gamma 90.000000
_cell_volume 2981.673749
_symmetry_space_group_name_H-M "C 2/M"
_symmetry_group_IT_number 12
_symmetry_cell_setting 'monoclinic'
loop_
_space_group_symop_operation_xyz
x,y,z
-x,y,-z
-x,-y,-z
x,-y,z
1/2+x,1/2+y,z
1/2-x,1/2+y,-z
1/2-x,1/2-y,-z
1/2+x,1/2-y,z
loop_
_atom_site_type_symbol
_atom_site_label
_atom_site_fract_x
_atom_site_fract_y
_atom_site_fract_z
Si Si1 0.292516 0.718087 0.800933
Si Si2 0.641597 0.713432 0.386496
Si Si3 0.349562 0.790254 0.099282
Si Si4 0.990089 0.785813 0.193750
Si Si5 0.733879 0.204224 0.871012
Si Si6 0.756380 0.788143 0.614262
Si Si7 0.552131 0.716620 0.000681
O O1 0.291692 0.500000 0.801581
O O2 0.248286 0.781820 0.814576
O O3 0.266203 0.777750 0.699894
O O4 0.370871 0.771110 0.898434
O O5 0.639373 0.500000 0.378447
O O6 0.564486 0.778383 0.297672
O O7 0.683923 0.754704 0.499723
O O8 0.686714 0.780837 0.374330
O O9 0.428568 0.763841 0.173844
O O10 0.320256 0.718947 0.136660
O O11 0.334391 0.000000 0.080374
O O12 0.305312 0.707950 0.990453
O O13 0.971409 0.724585 0.098489
O O14 0.992116 0.000000 0.193939
O O15 0.713559 0.000000 0.837707
O O16 0.765768 0.000000 0.627773
O O17 0.551512 0.500000 0.999739
O O18 0.500000 0.773805 0.000000
#
# Coordination Sequence:
#
# PCOD9172796 Si02
#       7
#     8   8   8   8   8   8   8
#     4   9  15  26  46  69  91 116 151 190 227 269
#     4   9  18  31  47  69  94 122 156 190 226 273
#     4  10  19  29  45  69  96 122 153 190 231 280
#     4  10  18  30  48  68  93 124 156 189 228 275
#     4   9  17  31  48  67  92 123 156 191 229 272
#     4   9  17  30  49  71  92 118 155 195 230 267
#     4   9  15  23  41  69  93 114 146 188 225 262
#
# _framework density 18.781396999999998
#
# number of rings (size 3 to 8) (size 9 to 14) (size 15 to 20)
#    0.000    2.714    1.429    1.286    0.000    4.571 
#    0.000    0.714    0.000    1.286    0.000    6.000 
#    0.000    0.000    0.000    0.000    0.000    0.000 
#
# Total GULP energy -156190.539988 kJ/mol
# GULP energy per Si atom -5578.233571 kJ/mol
# Density = 1.873865 g / cm^3
# Si number density = 18.781397 Si / 1000 Ang^3
#
#
#
# Elastic Constant Matrix: (Units=GPa)
#
#
# Indices 1 2 3 4 5 6 
#
# 1 158.1139 -0.4364 104.3194 0.0000 -5.0480 0.0000
# 2 -0.4364 47.3455 -3.4230 0.0000 -2.3047 0.0000
# 3 104.3194 -3.4230 146.6911 0.0000 -3.1953 0.0000
# 4 0.0000 0.0000 0.0000 15.1428 0.0000 3.0513
# 5 -5.0480 -2.3047 -3.1953 0.0000 28.2606 0.0000
# 6 0.0000 0.0000 0.0000 3.0513 0.0000 8.6122
#
#
#
# Elastic Compliance Matrix: (Units=1/GPa)
#
#
# Indices 1 2 3 4 5 6 
#
# 1 0.011963 -0.000448 -0.008493 0.000000 0.001140 0.000000
# 2 -0.000448 0.021264 0.000853 0.000000 0.001751 0.000000
# 3 -0.008493 0.000853 0.012877 0.000000 0.000008 0.000000
# 4 0.000000 0.000000 0.000000 0.071115 0.000000 -0.025196
# 5 0.001140 0.001751 0.000008 0.000000 0.035732 0.000000
# 6 0.000000 0.000000 0.000000 -0.025196 0.000000 0.125041
#
#
# Mechanical properties :
#
#
# Convention : Reuss Voigt Hill
#
# Bulk Modulus (GPa) = 33.41401 61.45228 47.43315
# Shear Modulus (GPa) = 16.43947 27.18250 21.81099
#
# Velocity S-wave (km/s) = 2.96177 3.80848 3.41149
# Velocity P-wave (km/s) = 5.43376 7.22012 6.38967
#
# Compressibility (1/GPa) = 0.02992756
#
# Stress axis : x y z
#
# Youngs Moduli (GPa) = 83.58785 47.02767 77.65637
#
# Poissons Ratio (x) = 0.02108 0.65957
# Poissons Ratio (y) = 0.03747 -0.06625
# Poissons Ratio (z) = 0.70995 -0.04012
#
# Static dielectric constant tensor:
#      x y z
#    x 1.660670 0.000000 -0.011800 
#    y 0.000000 1.735820 0.000000 
#    z -0.011800 0.000000 1.617100 
# 
# From -- ./inp_files/288881.got.cif
#   From: 2010.05.17/outbox.cif.g08.bks.cpg/sg12_145_cif.got.tgz:288881.got - 2010.06.03 13:09:07.
