data_PCOD9172665
_publ_section_title
;
Structure prediction by ZEFSAII (Michael W. Deem and Ramdas Pophale) SiO2 
 PCOD9172665
Probable space group: C 2/M
;
_chemical_formula_sum "Si O2"
_cell_formula_units_Z 56
_cell_length_a 27.614235
_cell_length_b 8.808435
_cell_length_c 18.121059
_cell_angle_alpha 90.000000
_cell_angle_beta 126.202850
_cell_angle_gamma 90.000000
_cell_volume 3556.736641
_symmetry_space_group_name_H-M "C 2/M"
_symmetry_group_IT_number 12
_symmetry_cell_setting 'monoclinic'
loop_
_space_group_symop_operation_xyz
x,y,z
-x,y,-z
-x,-y,-z
x,-y,z
1/2+x,1/2+y,z
1/2-x,1/2+y,-z
1/2-x,1/2-y,-z
1/2+x,1/2-y,z
loop_
_atom_site_type_symbol
_atom_site_label
_atom_site_fract_x
_atom_site_fract_y
_atom_site_fract_z
Si Si1 0.206795 0.680622 0.784188
Si Si2 0.339390 0.322728 0.104999
Si Si3 0.463310 0.817323 0.038080
Si Si4 0.984680 0.815392 0.603373
Si Si5 0.902167 0.183580 0.396279
Si Si6 0.674380 0.818054 0.065038
Si Si7 0.482706 0.322958 0.210112
O O1 0.208365 0.500000 0.785946
O O2 0.182182 0.742295 0.840451
O O3 0.160225 0.741687 0.681687
O O4 0.273601 0.747725 0.838237
O O5 0.321649 0.500000 0.090060
O O6 0.411789 0.315937 0.165917
O O7 0.316496 0.242584 0.010186
O O8 0.490434 0.761031 0.139818
O O9 0.464280 0.000000 0.039102
O O10 0.500000 0.762745 0.000000
O O11 0.393135 0.771214 0.973053
O O12 0.930012 0.772898 0.500590
O O13 0.046502 0.772459 0.617384
O O14 0.984051 0.761503 0.687070
O O15 0.985695 0.000000 0.606713
O O16 0.896604 0.000000 0.388338
O O17 0.678138 0.000000 0.068837
O O18 0.498115 0.500000 0.213904
#
# Coordination Sequence:
#
# PCOD9172665 Si02
#       7
#     8   8   8   8   8   8   8
#     4  12  22  30  41  63  95 127 159 191 225 264
#     4  10  18  30  46  64  91 124 158 190 222 266
#     4   9  19  35  52  71  93 116 146 188 236 283
#     4   8  14  27  47  68  90 121 160 194 224 265
#     4   9  16  29  47  64  89 127 163 192 223 261
#     4  10  20  33  48  65  88 119 154 188 228 278
#     4   9  16  28  48  72  94 120 154 189 225 270
#
# _framework density 15.744769
#
# number of rings (size 3 to 8) (size 9 to 14) (size 15 to 20)
#    0.000    2.429    1.429    3.429    0.000    1.429 
#    0.000    2.143    0.000    0.000    0.000    1.000 
#    0.000    0.000    0.000    0.000    0.000    0.000 
#
# Total GULP energy -156119.675927 kJ/mol
# GULP energy per Si atom -5575.702712 kJ/mol
# Density = 1.570893 g / cm^3
# Si number density = 15.744769 Si / 1000 Ang^3
#
#
#
# Elastic Constant Matrix: (Units=GPa)
#
#
# Indices 1 2 3 4 5 6 
#
# 1 65.5426 20.8303 54.5881 0.0000 -10.8046 0.0000
# 2 20.8303 50.0279 37.7387 0.0000 3.5467 0.0000
# 3 54.5881 37.7387 149.8072 0.0000 0.0631 0.0000
# 4 0.0000 0.0000 0.0000 23.7717 0.0000 -1.1785
# 5 -10.8046 3.5467 0.0631 0.0000 18.4456 0.0000
# 6 0.0000 0.0000 0.0000 -1.1785 0.0000 13.7500
#
#
#
# Elastic Compliance Matrix: (Units=1/GPa)
#
#
# Indices 1 2 3 4 5 6 
#
# 1 0.026886 -0.006175 -0.008249 0.000000 0.016964 0.000000
# 2 -0.006175 0.026515 -0.004426 0.000000 -0.008700 0.000000
# 3 -0.008249 -0.004426 0.010798 0.000000 -0.004018 0.000000
# 4 0.000000 0.000000 0.000000 0.042246 0.000000 0.003621
# 5 0.016964 -0.008700 -0.004018 0.000000 0.065837 0.000000
# 6 0.000000 0.000000 0.000000 0.003621 0.000000 0.073037
#
#
# Mechanical properties :
#
#
# Convention : Reuss Voigt Hill
#
# Bulk Modulus (GPa) = 37.73548 54.63245 46.18397
# Shear Modulus (GPa) = 17.13195 21.34151 19.23673
#
# Velocity S-wave (km/s) = 3.30222 3.68566 3.49920
# Velocity P-wave (km/s) = 6.20956 7.27229 6.76184
#
# Compressibility (1/GPa) = 0.02650026
#
# Stress axis : x y z
#
# Youngs Moduli (GPa) = 37.19375 37.71395 92.61324
#
# Poissons Ratio (x) = 0.23288 0.76393
# Poissons Ratio (y) = 0.22967 0.40989
# Poissons Ratio (z) = 0.30680 0.16692
#
# Static dielectric constant tensor:
#      x y z
#    x 1.512290 0.000000 0.011740 
#    y 0.000000 1.527320 0.000000 
#    z 0.011740 0.000000 1.551580 
# 
# From -- ./inp_files/291936.got.cif
#   From: 2010.05.17/outbox.cif.g08.bks.cpg/sg12_146_cif.got.tgz:291936.got - 2010.06.03 13:09:07.
