data_PCOD9172220
_publ_section_title
;
Structure prediction by ZEFSAII (Michael W. Deem and Ramdas Pophale) SiO2 
 PCOD9172220
Probable space group: C 2/M
;
_chemical_formula_sum "Si O2"
_cell_formula_units_Z 56
_cell_length_a 10.441517
_cell_length_b 27.784090
_cell_length_c 14.365288
_cell_angle_alpha 90.000000
_cell_angle_beta 35.862741
_cell_angle_gamma 90.000000
_cell_volume 2441.502592
_symmetry_space_group_name_H-M "C 2/M"
_symmetry_group_IT_number 12
_symmetry_cell_setting 'monoclinic'
loop_
_space_group_symop_operation_xyz
x,y,z
-x,y,-z
-x,-y,-z
x,-y,z
1/2+x,1/2+y,z
1/2-x,1/2+y,-z
1/2-x,1/2-y,-z
1/2+x,1/2-y,z
loop_
_atom_site_type_symbol
_atom_site_label
_atom_site_fract_x
_atom_site_fract_y
_atom_site_fract_z
Si Si1 0.221974 0.609059 0.807668
Si Si2 0.278026 0.390941 0.192332
Si Si3 0.240476 0.250000 0.394967
Si Si4 0.026442 0.554810 0.193993
Si Si5 0.526441 0.445190 0.193993
Si Si6 0.359469 0.304964 0.841348
Si Si7 0.140531 0.695036 0.158652
O O1 0.395776 0.572597 0.751212
O O2 0.316613 0.661386 0.779210
O O3 0.146144 0.590995 0.751800
O O4 0.000000 0.606283 0.000000
O O5 0.104224 0.427403 0.248788
O O6 0.353856 0.409005 0.248200
O O7 0.183388 0.338614 0.220790
O O8 0.500000 0.393717 0.000000
O O9 0.250000 0.250000 0.500000
O O10 0.388224 0.295865 0.282237
O O11 0.388224 0.204135 0.282237
O O12 0.000000 0.250000 0.500000
O O13 0.946445 0.500000 0.240655
O O14 0.250000 0.555422 1.000000
O O15 0.446445 0.500000 0.240655
O O16 0.250000 0.324535 0.000000
O O17 0.275059 0.250000 0.874527
#
# Coordination Sequence:
#
# PCOD9172220 Si02
#       7
#     8   8   8   8   8   8   8
#     4  10  18  29  47  73 104 141 182 216 261 323
#     4  10  18  29  47  73 104 141 182 216 261 323
#     4  10  23  40  57  78 110 146 182 226 273 320
#     4   9  17  28  43  67 104 144 176 215 268 320
#     4   9  17  28  43  67 104 144 176 215 268 320
#     4   9  20  38  56  83 111 149 182 225 265 328
#     4   9  20  38  56  83 111 149 182 225 265 328
#
# _framework density 22.936695
#
# number of rings (size 3 to 8) (size 9 to 14) (size 15 to 20)
#    0.857    1.714    0.000    3.429    0.000    8.571 
#    0.000    0.000    0.000    0.857    0.000    0.000 
#    0.000   22.857    0.000    0.000    0.000    0.571 
#
# Total GULP energy -156236.701928 kJ/mol
# GULP energy per Si atom -5579.882212 kJ/mol
# Density = 2.288449 g / cm^3
# Si number density = 22.936695 Si / 1000 Ang^3
#
#
#
# Elastic Constant Matrix: (Units=GPa)
#
#
# Indices 1 2 3 4 5 6 
#
# 1 171.2971 63.3307 43.8758 0.0000 -47.1083 0.0000
# 2 63.3307 155.6794 4.7999 0.0000 -20.2162 0.0000
# 3 43.8758 4.7999 52.5088 0.0000 -19.7466 0.0000
# 4 0.0000 0.0000 0.0000 -2.6823 0.0000 -6.1798
# 5 -47.1083 -20.2162 -19.7466 0.0000 24.0064 0.0000
# 6 0.0000 0.0000 0.0000 -6.1798 0.0000 32.0981
#
#
#
# Elastic Compliance Matrix: (Units=1/GPa)
#
#
# Indices 1 2 3 4 5 6 
#
# 1 0.013630 -0.002561 -0.002762 0.000000 0.022317 0.000000
# 2 -0.002561 0.007900 0.002939 0.000000 0.004044 0.000000
# 3 -0.002762 0.002939 0.028923 0.000000 0.020845 0.000000
# 4 0.000000 0.000000 0.000000 -0.258256 0.000000 -0.049722
# 5 0.022317 0.004044 0.020845 0.000000 0.106000 0.000000
# 6 0.000000 0.000000 0.000000 -0.049722 0.000000 0.021582
#
#
# Mechanical properties :
#
#
# Convention : Reuss Voigt Hill
#
# Bulk Modulus (GPa) = 21.89001 67.05536 44.47269
# Shear Modulus (GPa) = -83.02188 28.51636 -27.25276
#
# Velocity S-wave (km/s) = -6.02285 3.52982 -3.45073
# Velocity P-wave (km/s) = 6.22911 6.77579 1.88539
#
# Compressibility (1/GPa) = 0.04568293
#
# Stress axis : x y z
#
# Youngs Moduli (GPa) = 73.37000 126.58330 34.57472
#
# Poissons Ratio (x) = 0.32423 0.09550
# Poissons Ratio (y) = 0.18793 -0.10161
# Poissons Ratio (z) = 0.20266 -0.37200
#
# Static dielectric constant tensor:
#      x y z
#    x 1.855530 0.000000 0.046930 
#    y 0.000000 1.953380 0.000000 
#    z 0.046930 0.000000 2.103020 
# 
# From -- ./inp_files/259531.got.cif
#   From: 2010.05.17/outbox.cif.g08.bks.cpg/sg12_130_cif.got.tgz:259531.got - 2010.06.03 13:09:07.
