data_PCOD9172637
_publ_section_title
;
Structure prediction by ZEFSAII (Michael W. Deem and Ramdas Pophale) SiO2 
 PCOD9172637
Probable space group: C 2/M
;
_chemical_formula_sum "Si O2"
_cell_formula_units_Z 64
_cell_length_a 27.559795
_cell_length_b 7.352214
_cell_length_c 16.290027
_cell_angle_alpha 90.000000
_cell_angle_beta 114.395366
_cell_angle_gamma 90.000000
_cell_volume 3006.072169
_symmetry_space_group_name_H-M "C 2/M"
_symmetry_group_IT_number 12
_symmetry_cell_setting 'monoclinic'
loop_
_space_group_symop_operation_xyz
x,y,z
-x,y,-z
-x,-y,-z
x,-y,z
1/2+x,1/2+y,z
1/2-x,1/2+y,-z
1/2-x,1/2-y,-z
1/2+x,1/2-y,z
loop_
_atom_site_type_symbol
_atom_site_label
_atom_site_fract_x
_atom_site_fract_y
_atom_site_fract_z
Si Si1 0.987574 0.703065 0.586255
Si Si2 0.580416 0.221265 0.102791
Si Si3 0.801827 0.284546 0.589081
Si Si4 0.416249 0.777670 0.235114
Si Si5 0.370909 0.224585 0.489576
Si Si6 0.199653 0.718482 0.227184
Si Si7 0.526915 0.779031 0.892777
Si Si8 0.320409 0.215923 0.280503
O O1 0.980104 0.500000 0.618365
O O2 0.930618 0.792234 0.541219
O O3 0.000000 0.682601 0.500000
O O4 0.037815 0.779891 0.668812
O O5 0.641683 0.282305 0.154929
O O6 0.535322 0.277448 0.138525
O O7 0.581177 0.000000 0.106308
O O8 0.556971 0.272723 0.997689
O O9 0.810250 0.500000 0.604427
O O10 0.750000 0.250000 0.500000
O O11 0.845607 0.216123 0.557336
O O12 0.796613 0.211546 0.676665
O O13 0.438950 0.718920 0.162314
O O14 0.359668 0.717680 0.234894
O O15 0.413785 0.000000 0.230898
O O16 0.340759 0.283407 0.384828
O O17 0.370713 0.000000 0.486020
O O18 0.196646 0.500000 0.224945
O O19 0.256952 0.756928 0.225697
O O20 0.525925 0.000000 0.888956
O O21 0.328429 0.000000 0.289038
#
# Coordination Sequence:
#
# PCOD9172637 Si02
#       8
#     8   8   8   8   8   8   8   8
#     4   9  14  21  34  57  87 113 138 175 224 268
#     4   8  15  28  44  64  91 118 144 181 232 276
#     4  10  19  29  42  62  88 119 152 183 217 261
#     4   9  16  24  40  66  90 114 149 189 229 270
#     4   9  16  25  37  56  87 119 141 176 226 262
#     4  10  20  31  45  67  91 121 157 185 217 269
#     4   8  14  26  44  65  90 116 142 184 236 276
#     4  10  18  30  45  64  93 124 152 185 224 263
#
# _framework density 21.290241000000002
#
# number of rings (size 3 to 8) (size 9 to 14) (size 15 to 20)
#    0.000    2.875    2.500    0.750    1.750    0.000 
#    0.000    0.625    0.000    0.000    0.000    5.250 
#    0.000    0.000    0.000    0.000    0.000    0.000 
#
# Total GULP energy -178186.909802 kJ/mol
# GULP energy per Si atom -5568.340931 kJ/mol
# Density = 2.124178 g / cm^3
# Si number density = 21.290241 Si / 1000 Ang^3
#
#
#
# Elastic Constant Matrix: (Units=GPa)
#
#
# Indices 1 2 3 4 5 6 
#
# 1 228.9665 4.4926 85.9445 0.0000 12.5601 0.0000
# 2 4.4926 76.7962 -1.8024 0.0000 -3.4934 0.0000
# 3 85.9445 -1.8024 94.6688 0.0000 7.6797 0.0000
# 4 0.0000 0.0000 0.0000 -1.6759 0.0000 6.8735
# 5 12.5601 -3.4934 7.6797 0.0000 39.2552 0.0000
# 6 0.0000 0.0000 0.0000 6.8735 0.0000 4.4455
#
#
#
# Elastic Compliance Matrix: (Units=1/GPa)
#
#
# Indices 1 2 3 4 5 6 
#
# 1 0.006686 -0.000578 -0.005999 0.000000 -0.001017 0.000000
# 2 -0.000578 0.013127 0.000676 0.000000 0.001221 0.000000
# 3 -0.005999 0.000676 0.016117 0.000000 -0.001174 0.000000
# 4 0.000000 0.000000 0.000000 -0.081277 0.000000 0.125669
# 5 -0.001017 0.001221 -0.001174 0.000000 0.026138 0.000000
# 6 0.000000 0.000000 0.000000 0.125669 0.000000 0.030642
#
#
# Mechanical properties :
#
#
# Convention : Reuss Voigt Hill
#
# Bulk Modulus (GPa) = 41.44566 64.18899 52.81733
# Shear Modulus (GPa) = 159.86483 29.19140 94.52812
#
# Velocity S-wave (km/s) = 8.67475 3.70688 6.67054
# Velocity P-wave (km/s) = 10.94734 6.96679 9.17553
#
# Compressibility (1/GPa) = 0.02412798
#
# Stress axis : x y z
#
# Youngs Moduli (GPa) = 149.56208 76.18061 62.04661
#
# Poissons Ratio (x) = 0.04405 0.37219
# Poissons Ratio (y) = 0.08648 -0.04193
# Poissons Ratio (z) = 0.89715 -0.05148
#
# Static dielectric constant tensor:
#      x y z
#    x 1.730310 0.000000 0.001100 
#    y 0.000000 1.843270 0.000000 
#    z 0.001100 0.000000 1.727110 
# 
# From -- ./inp_files/288873.got.cif
#   From: 2010.05.17/outbox.cif.g08.bks.cpg/sg12_145_cif.got.tgz:288873.got - 2010.06.03 13:09:07.
