data_PCOD9172272
_publ_section_title
;
Structure prediction by ZEFSAII (Michael W. Deem and Ramdas Pophale) SiO2 
 PCOD9172272
Probable space group: C 2/M
;
_chemical_formula_sum "Si O2"
_cell_formula_units_Z 48
_cell_length_a 30.908992
_cell_length_b 9.291742
_cell_length_c 10.136374
_cell_angle_alpha 90.000000
_cell_angle_beta 100.335959
_cell_angle_gamma 90.000000
_cell_volume 2863.909864
_symmetry_space_group_name_H-M "C 2/M"
_symmetry_group_IT_number 12
_symmetry_cell_setting 'monoclinic'
loop_
_space_group_symop_operation_xyz
x,y,z
-x,y,-z
-x,-y,-z
x,-y,z
1/2+x,1/2+y,z
1/2-x,1/2+y,-z
1/2-x,1/2-y,-z
1/2+x,1/2-y,z
loop_
_atom_site_type_symbol
_atom_site_label
_atom_site_fract_x
_atom_site_fract_y
_atom_site_fract_z
Si Si1 0.468160 0.829717 0.856487
Si Si2 0.519852 0.330133 0.655810
Si Si3 0.382015 0.331138 0.221435
Si Si4 0.118346 0.830129 0.096412
Si Si5 0.707258 0.166112 0.139775
Si Si6 0.205554 0.334555 0.817354
O O1 0.492864 0.762952 0.745098
O O2 0.422713 0.747666 0.858880
O O3 0.460574 0.000000 0.836764
O O4 0.500000 0.808900 0.000000
O O5 0.500000 0.313354 0.500000
O O6 0.517165 0.500000 0.691374
O O7 0.571393 0.290885 0.689803
O O8 0.373210 0.500000 0.241705
O O9 0.340629 0.237978 0.244718
O O10 0.386693 0.314416 0.065356
O O11 0.164277 0.754612 0.158380
O O12 0.119149 0.000000 0.126195
O O13 0.752375 0.243474 0.205400
O O14 0.705520 0.000000 0.180933
O O15 0.706877 0.166680 0.978801
O O16 0.208368 0.500000 0.776512
#
# Coordination Sequence:
#
# PCOD9172272 Si02
#       6
#     8   8   8   8   8   8
#     4  11  22  34  51  75 103 135 172 212 257 306
#     4  10  21  37  55  75 101 135 175 216 257 303
#     4   9  17  29  46  69  96 129 166 207 253 298
#     4  10  18  29  48  71  98 131 168 208 252 301
#     4   9  16  26  40  63  97 129 160 202 250 298
#     4   9  16  25  40  63  93 129 165 200 244 299
#
# _framework density 16.760304000000001
#
# number of rings (size 3 to 8) (size 9 to 14) (size 15 to 20)
#    0.000    2.333    1.667    2.000    0.000    6.333 
#    0.000    0.000    0.000    0.000    0.000    1.167 
#    0.000    0.000    0.000    0.000    0.000    0.000 
#
# Total GULP energy -133863.965562 kJ/mol
# GULP energy per Si atom -5577.665232 kJ/mol
# Density = 1.672216 g / cm^3
# Si number density = 16.760304 Si / 1000 Ang^3
#
#
#
# Elastic Constant Matrix: (Units=GPa)
#
#
# Indices 1 2 3 4 5 6 
#
# 1 189.6220 114.3148 35.4297 0.0000 11.0664 0.0000
# 2 114.3148 139.2764 38.8260 0.0000 1.8184 0.0000
# 3 35.4297 38.8260 27.5965 0.0000 3.6225 0.0000
# 4 0.0000 0.0000 0.0000 7.9614 0.0000 -3.7413
# 5 11.0664 1.8184 3.6225 0.0000 11.1877 0.0000
# 6 0.0000 0.0000 0.0000 -3.7413 0.0000 36.8155
#
#
#
# Elastic Compliance Matrix: (Units=1/GPa)
#
#
# Indices 1 2 3 4 5 6 
#
# 1 0.011424 -0.009073 -0.000640 0.000000 -0.009618 0.000000
# 2 -0.009073 0.019160 -0.016792 0.000000 0.011297 0.000000
# 3 -0.000640 -0.016792 0.062915 0.000000 -0.017009 0.000000
# 4 0.000000 0.000000 0.000000 0.131905 0.000000 0.013405
# 5 -0.009618 0.011297 -0.017009 0.000000 0.102569 0.000000
# 6 0.000000 0.000000 0.000000 0.013405 0.000000 0.028525
#
#
# Mechanical properties :
#
#
# Convention : Reuss Voigt Hill
#
# Bulk Modulus (GPa) = 24.69681 81.51508 53.10595
# Shear Modulus (GPa) = 11.82023 22.38788 17.10406
#
# Velocity S-wave (km/s) = 2.65854 3.65878 3.19801
# Velocity P-wave (km/s) = 4.91844 8.16029 6.73726
#
# Compressibility (1/GPa) = 0.04049106
#
# Stress axis : x y z
#
# Youngs Moduli (GPa) = 87.53488 52.19179 15.89450
#
# Poissons Ratio (x) = 0.47352 0.01017
# Poissons Ratio (y) = 0.79418 0.26689
# Poissons Ratio (z) = 0.05599 0.87639
#
# Static dielectric constant tensor:
#      x y z
#    x 1.552320 0.000000 0.009710 
#    y 0.000000 1.561330 0.000000 
#    z 0.009710 0.000000 1.535310 
# 
# From -- ./inp_files/108741.got.cif
#   From: 2010.05.17/outbox.cif.g08.bks.cpg/sg12_55_cif.got.tgz:108741.got - 2010.06.03 13:09:07.
