data_PCOD9172125
_publ_section_title
;
Structure prediction by ZEFSAII (Michael W. Deem and Ramdas Pophale) SiO2 
 PCOD9172125
Probable space group: C 2/M
;
_chemical_formula_sum "Si O2"
_cell_formula_units_Z 56
_cell_length_a 15.642814
_cell_length_b 24.955137
_cell_length_c 12.029228
_cell_angle_alpha 90.000000
_cell_angle_beta 142.686116
_cell_angle_gamma 90.000000
_cell_volume 2846.525105
_symmetry_space_group_name_H-M "C 2/M"
_symmetry_group_IT_number 12
_symmetry_cell_setting 'monoclinic'
loop_
_space_group_symop_operation_xyz
x,y,z
-x,y,-z
-x,-y,-z
x,-y,z
1/2+x,1/2+y,z
1/2-x,1/2+y,-z
1/2-x,1/2-y,-z
1/2+x,1/2-y,z
loop_
_atom_site_type_symbol
_atom_site_label
_atom_site_fract_x
_atom_site_fract_y
_atom_site_fract_z
Si Si1 0.505887 0.937680 0.639012
Si Si2 0.684347 0.730243 0.315222
Si Si3 0.501900 0.648989 0.371281
Si Si4 0.276108 0.869705 0.508892
Si Si5 0.630247 0.238337 0.696178
Si Si6 0.235307 0.646519 0.964546
Si Si7 0.521184 0.187329 0.900052
O O1 0.500000 0.930296 0.500000
O O2 0.355379 0.920475 0.538316
O O3 0.633003 0.900908 0.817670
O O4 0.532573 0.000000 0.690490
O O5 0.750000 0.750000 0.500000
O O6 0.711998 0.667341 0.344550
O O7 0.765112 0.756186 0.294662
O O8 0.524838 0.750618 0.148337
O O9 0.500000 0.631816 0.500000
O O10 0.652294 0.632709 0.473300
O O11 0.453025 0.712438 0.330067
O O12 0.388020 0.627724 0.163350
O O13 0.408421 0.839578 0.702048
O O14 0.500000 0.208258 0.500000
O O15 0.713293 0.196306 0.857665
O O16 0.171014 0.672504 0.009984
O O17 0.500000 0.165286 0.000000
#
# Coordination Sequence:
#
# PCOD9172125 Si02
#       7
#     8   8   8   8   8   8   8
#     4  10  22  43  68  88 106 137 187 247 305 353
#     4  10  18  29  46  75 114 155 193 229 273 331
#     4  11  22  36  54  85 127 164 192 227 284 350
#     4  10  20  35  56  80 113 151 192 235 285 339
#     4  11  19  31  52  82 123 163 198 233 280 336
#     4  11  21  35  57  84 117 153 197 240 281 338
#     4  10  18  31  50  75 109 155 197 230 268 322
#
# _framework density 19.673109
#
# number of rings (size 3 to 8) (size 9 to 14) (size 15 to 20)
#    0.000    1.571    0.000   10.286    0.000    1.143 
#    0.000    2.857    0.000   18.000    0.000    0.000 
#    0.000    0.000    0.000    0.000    0.000    0.000 
#
# Total GULP energy -155989.414460 kJ/mol
# GULP energy per Si atom -5571.050516 kJ/mol
# Density = 1.962833 g / cm^3
# Si number density = 19.673109 Si / 1000 Ang^3
#
#
#
# Elastic Constant Matrix: (Units=GPa)
#
#
# Indices 1 2 3 4 5 6 
#
# 1 114.4410 28.5644 17.6229 0.0000 -2.4795 0.0000
# 2 28.5644 83.8062 25.6644 0.0000 -2.8873 0.0000
# 3 17.6229 25.6644 80.4678 0.0000 3.7829 0.0000
# 4 0.0000 0.0000 0.0000 12.6630 0.0000 2.6160
# 5 -2.4795 -2.8873 3.7829 0.0000 37.0801 0.0000
# 6 0.0000 0.0000 0.0000 2.6160 0.0000 20.0329
#
#
#
# Elastic Compliance Matrix: (Units=1/GPa)
#
#
# Indices 1 2 3 4 5 6 
#
# 1 0.009661 -0.002902 -0.001216 0.000000 0.000544 0.000000
# 2 -0.002902 0.014175 -0.003947 0.000000 0.001312 0.000000
# 3 -0.001216 -0.003947 0.014038 0.000000 -0.001821 0.000000
# 4 0.000000 0.000000 0.000000 0.081160 0.000000 -0.010598
# 5 0.000544 0.001312 -0.001821 0.000000 0.027293 0.000000
# 6 0.000000 0.000000 0.000000 -0.010598 0.000000 0.051302
#
#
# Mechanical properties :
#
#
# Convention : Reuss Voigt Hill
#
# Bulk Modulus (GPa) = 45.98805 46.93539 46.46172
# Shear Modulus (GPa) = 22.62363 27.74610 25.18486
#
# Velocity S-wave (km/s) = 3.39481 3.75955 3.58182
# Velocity P-wave (km/s) = 6.22842 6.53873 6.38546
#
# Compressibility (1/GPa) = 0.02174478
#
# Stress axis : x y z
#
# Youngs Moduli (GPa) = 103.50394 70.54495 71.23435
#
# Poissons Ratio (x) = 0.20471 0.08662
# Poissons Ratio (y) = 0.30036 0.28118
# Poissons Ratio (z) = 0.12586 0.27846
#
# Static dielectric constant tensor:
#      x y z
#    x 1.769830 0.000000 0.019870 
#    y 0.000000 1.712080 0.000000 
#    z 0.019870 0.000000 1.865360 
# 
# From -- ./inp_files/149497.got.cif
#   From: 2010.05.17/outbox.cif.g08.bks.cpg/sg12_75_cif.got.tgz:149497.got - 2010.06.03 13:09:07.
