data_PCOD9172875
_publ_section_title
;
Structure prediction by ZEFSAII (Michael W. Deem and Ramdas Pophale) SiO2 
 PCOD9172875
Probable space group: C 2/M
;
_chemical_formula_sum "Si O2"
_cell_formula_units_Z 48
_cell_length_a 15.375177
_cell_length_b 15.798997
_cell_length_c 8.282384
_cell_angle_alpha 90.000000
_cell_angle_beta 68.903422
_cell_angle_gamma 90.000000
_cell_volume 1877.046472
_symmetry_space_group_name_H-M "C 2/M"
_symmetry_group_IT_number 12
_symmetry_cell_setting 'monoclinic'
loop_
_space_group_symop_operation_xyz
x,y,z
-x,y,-z
-x,-y,-z
x,-y,z
1/2+x,1/2+y,z
1/2-x,1/2+y,-z
1/2-x,1/2-y,-z
1/2+x,1/2-y,z
loop_
_atom_site_type_symbol
_atom_site_label
_atom_site_fract_x
_atom_site_fract_y
_atom_site_fract_z
Si Si1 0.457911 0.402269 0.301706
Si Si2 0.048622 0.345169 0.243123
Si Si3 0.872612 0.831554 0.678821
Si Si4 0.797525 0.601495 0.066864
Si Si5 0.133170 0.595498 0.507510
Si Si6 0.698437 0.602271 0.803736
O O1 0.432225 0.500000 0.349199
O O2 0.413049 0.347666 0.474731
O O3 0.568572 0.396136 0.246347
O O4 0.406969 0.375775 0.171585
O O5 0.091302 0.256890 0.275471
O O6 0.097503 0.371204 0.044337
O O7 0.085787 0.407534 0.359990
O O8 0.937314 0.351742 0.334013
O O9 0.763427 0.851820 0.757818
O O10 0.792906 0.500000 0.088606
O O11 0.741262 0.631544 0.942704
O O12 0.140625 0.500000 0.567623
O O13 0.234494 0.629343 0.389426
O O14 0.705521 0.500000 0.806016
#
# Coordination Sequence:
#
# PCOD9172875 Si02
#       6
#     8   8   8   8   8   8
#     4  10  19  34  51  71  97 132 168 199 234 287
#     4  10  18  30  48  74 103 127 156 202 246 287
#     4  11  21  32  48  73 102 132 161 196 243 293
#     4  10  19  34  53  74  95 126 165 203 242 288
#     4   9  15  29  52  76  97 127 164 201 239 285
#     4   8  17  31  52  76  96 120 164 209 239 274
#
# _framework density 25.572091
#
# number of rings (size 3 to 8) (size 9 to 14) (size 15 to 20)
#    0.000    2.333    0.000    7.500    0.000    0.667 
#    0.000   10.000    0.000    3.000    0.000    4.667 
#    0.000    0.000    0.000    0.333    0.000    0.000 
#
# Total GULP energy -134061.759362 kJ/mol
# GULP energy per Si atom -5585.906640 kJ/mol
# Density = 2.551389 g / cm^3
# Si number density = 25.572091 Si / 1000 Ang^3
#
#
#
# Elastic Constant Matrix: (Units=GPa)
#
#
# Indices 1 2 3 4 5 6 
#
# 1 70.0593 -20.9530 7.5747 0.0000 -1.9508 0.0000
# 2 -20.9530 106.2029 17.6469 0.0000 -7.1819 0.0000
# 3 7.5747 17.6469 128.7299 0.0000 -32.4194 0.0000
# 4 0.0000 0.0000 0.0000 21.9598 0.0000 -14.3240
# 5 -1.9508 -7.1819 -32.4194 0.0000 44.3945 0.0000
# 6 0.0000 0.0000 0.0000 -14.3240 0.0000 -2.9157
#
#
#
# Elastic Compliance Matrix: (Units=1/GPa)
#
#
# Indices 1 2 3 4 5 6 
#
# 1 0.015398 0.003270 -0.001287 0.000000 0.000265 0.000000
# 2 0.003270 0.010349 -0.001413 0.000000 0.000786 0.000000
# 3 -0.001287 -0.001413 0.009761 0.000000 0.006843 0.000000
# 4 0.000000 0.000000 0.000000 0.010831 0.000000 -0.053208
# 5 0.000265 0.000786 0.006843 0.000000 0.027661 0.000000
# 6 0.000000 0.000000 0.000000 -0.053208 0.000000 -0.081572
#
#
# Mechanical properties :
#
#
# Convention : Reuss Voigt Hill
#
# Bulk Modulus (GPa) = 27.28772 34.83658 31.06215
# Shear Modulus (GPa) = 1426.62762 32.73595 729.68179
#
# Velocity S-wave (km/s) = 23.64521 3.58179 16.91043
# Velocity P-wave (km/s) = 27.49827 5.54600 19.83574
#
# Compressibility (1/GPa) = 0.03664653
#
# Stress axis : x y z
#
# Youngs Moduli (GPa) = 64.94300 96.62762 102.44878
#
# Poissons Ratio (x) = -0.31595 0.13190
# Poissons Ratio (y) = -0.21235 0.14478
# Poissons Ratio (z) = 0.08361 0.13655
#
# Static dielectric constant tensor:
#      x y z
#    x 2.065190 0.000000 -0.019520 
#    y 0.000000 2.001600 0.000000 
#    z -0.019520 0.000000 2.057980 
# 
# From -- ./inp_files/157672.got.cif
#   From: 2010.05.17/outbox.cif.g08.bks.cpg/sg12_79_cif.got.tgz:157672.got - 2010.06.03 13:09:07.
