data_PCOD9172826
_publ_section_title
;
Structure prediction by ZEFSAII (Michael W. Deem and Ramdas Pophale) SiO2 
 PCOD9172826
Probable space group: C 2/M
;
_chemical_formula_sum "Si O2"
_cell_formula_units_Z 56
_cell_length_a 32.335878
_cell_length_b 7.379809
_cell_length_c 15.496285
_cell_angle_alpha 90.000000
_cell_angle_beta 135.144016
_cell_angle_gamma 90.000000
_cell_volume 2608.242732
_symmetry_space_group_name_H-M "C 2/M"
_symmetry_group_IT_number 12
_symmetry_cell_setting 'monoclinic'
loop_
_space_group_symop_operation_xyz
x,y,z
-x,y,-z
-x,-y,-z
x,-y,z
1/2+x,1/2+y,z
1/2-x,1/2+y,-z
1/2-x,1/2-y,-z
1/2+x,1/2-y,z
loop_
_atom_site_type_symbol
_atom_site_label
_atom_site_fract_x
_atom_site_fract_y
_atom_site_fract_z
Si Si1 0.402542 0.206864 0.336903
Si Si2 0.156318 0.277738 0.069858
Si Si3 0.680796 0.220088 0.485289
Si Si4 0.184658 0.290084 0.297010
Si Si5 0.070921 0.721379 0.436269
Si Si6 0.268394 0.285113 0.126051
Si Si7 0.057740 0.278805 0.790884
O O1 0.427308 0.286082 0.462079
O O2 0.332102 0.205420 0.238829
O O3 0.419752 0.285132 0.269676
O O4 0.424365 0.000000 0.366618
O O5 0.157052 0.500000 0.071624
O O6 0.156013 0.214057 0.168105
O O7 0.216304 0.220808 0.111050
O O8 0.101483 0.219743 0.930745
O O9 0.744974 0.280593 0.610370
O O10 0.672338 0.285334 0.374059
O O11 0.628420 0.279426 0.469536
O O12 0.682124 0.000000 0.486336
O O13 0.166924 0.500000 0.275025
O O14 0.072750 0.500000 0.441284
O O15 0.010034 0.773025 0.301643
O O16 0.274042 0.500000 0.145882
O O17 0.250000 0.250000 0.000000
O O18 0.060619 0.500000 0.795264
#
# Coordination Sequence:
#
# PCOD9172826 Si02
#       7
#     8   8   8   8   8   8   8
#     4  10  18  30  48  70  92 122 159 192 227 271
#     4   9  17  29  45  67  93 121 153 184 224 277
#     4   9  17  30  47  71  95 114 148 194 232 268
#     4   9  17  30  49  69  92 121 148 183 233 282
#     4   9  17  28  46  70  94 120 156 197 229 262
#     4  11  20  31  47  69  95 122 152 189 230 273
#     4   9  16  28  45  66  93 124 157 191 225 269
#
# _framework density 21.470393999999999
#
# number of rings (size 3 to 8) (size 9 to 14) (size 15 to 20)
#    0.000    2.571    1.429    1.714    0.000    1.714 
#    0.000    1.429    0.000    6.857    0.000    0.000 
#    0.000    4.571    0.000    0.000    0.000    0.000 
#
# Total GULP energy -156387.376334 kJ/mol
# GULP energy per Si atom -5585.263440 kJ/mol
# Density = 2.142153 g / cm^3
# Si number density = 21.470394 Si / 1000 Ang^3
#
#
#
# Elastic Constant Matrix: (Units=GPa)
#
#
# Indices 1 2 3 4 5 6 
#
# 1 58.5138 -4.7600 54.0661 0.0000 -14.1022 0.0000
# 2 -4.7600 78.2794 -6.4298 0.0000 -4.3625 0.0000
# 3 54.0661 -6.4298 136.1610 0.0000 -22.0660 0.0000
# 4 0.0000 0.0000 0.0000 2.2863 0.0000 6.4060
# 5 -14.1022 -4.3625 -22.0660 0.0000 31.5439 0.0000
# 6 0.0000 0.0000 0.0000 6.4060 0.0000 8.3165
#
#
#
# Elastic Compliance Matrix: (Units=1/GPa)
#
#
# Indices 1 2 3 4 5 6 
#
# 1 0.027863 0.001173 -0.010109 0.000000 0.005547 0.000000
# 2 0.001173 0.013048 0.000595 0.000000 0.002745 0.000000
# 3 -0.010109 0.000595 0.012031 0.000000 0.003979 0.000000
# 4 0.000000 0.000000 0.000000 -0.377636 0.000000 0.290882
# 5 0.005547 0.002745 0.003979 0.000000 0.037345 0.000000
# 6 0.000000 0.000000 0.000000 0.290882 0.000000 -0.103815
#
#
# Mechanical properties :
#
#
# Convention : Reuss Voigt Hill
#
# Bulk Modulus (GPa) = 27.57826 39.85631 33.71729
# Shear Modulus (GPa) = -13.79713 23.76787 4.98537
#
# Velocity S-wave (km/s) = -2.53773 3.33078 1.52546
# Velocity P-wave (km/s) = 2.07024 5.77891 4.34061
#
# Compressibility (1/GPa) = 0.03626044
#
# Stress axis : x y z
#
# Youngs Moduli (GPa) = 35.88947 76.64024 83.11580
#
# Poissons Ratio (x) = -0.08990 0.84026
# Poissons Ratio (y) = -0.04210 -0.04948
# Poissons Ratio (z) = 0.36282 -0.04562
#
# Static dielectric constant tensor:
#      x y z
#    x 1.750320 0.000000 -0.006910 
#    y 0.000000 1.861000 0.000000 
#    z -0.006910 0.000000 1.783920 
# 
# From -- ./inp_files/237445.got.cif
#   From: 2010.05.17/outbox.cif.g08.bks.cpg/sg12_119_cif.got.tgz:237445.got - 2010.06.03 13:09:07.
