data_PCOD9172034
_publ_section_title
;
Structure prediction by ZEFSAII (Michael W. Deem and Ramdas Pophale) SiO2 
 PCOD9172034
Probable space group: C 2/M
;
_chemical_formula_sum "Si O2"
_cell_formula_units_Z 58
_cell_length_a 24.446971
_cell_length_b 8.160648
_cell_length_c 14.921559
_cell_angle_alpha 90.000000
_cell_angle_beta 90.419212
_cell_angle_gamma 90.000000
_cell_volume 2976.817969
_symmetry_space_group_name_H-M "C 2/M"
_symmetry_group_IT_number 12
_symmetry_cell_setting 'monoclinic'
loop_
_space_group_symop_operation_xyz
x,y,z
-x,y,-z
-x,-y,-z
x,-y,z
1/2+x,1/2+y,z
1/2-x,1/2+y,-z
1/2-x,1/2-y,-z
1/2+x,1/2-y,z
loop_
_atom_site_type_symbol
_atom_site_label
_atom_site_fract_x
_atom_site_fract_y
_atom_site_fract_z
Si Si1 0.317605 0.811268 0.693836
Si Si2 0.134186 0.182852 0.467990
Si Si3 0.294249 0.189657 0.383162
Si Si4 0.000000 0.500000 0.500000
Si Si5 0.800897 0.302280 0.890131
Si Si6 0.389938 0.807193 0.246449
Si Si7 0.465861 0.688882 0.392609
Si Si8 0.675407 0.306733 0.915590
O O1 0.364065 0.795471 0.619190
O O2 0.266068 0.714540 0.653835
O O3 0.328130 0.757372 0.795683
O O4 0.300176 0.000000 0.699144
O O5 0.188012 0.210021 0.529492
O O6 0.085166 0.203783 0.537717
O O7 0.132580 0.000000 0.432880
O O8 0.336134 0.236971 0.304558
O O9 0.304263 0.000000 0.406106
O O10 0.999350 0.350260 0.422397
O O11 0.801411 0.500000 0.899955
O O12 0.736822 0.248484 0.888426
O O13 0.828133 0.229188 0.978940
O O14 0.439685 0.712461 0.293884
O O15 0.371746 0.771999 0.145203
O O16 0.399856 0.000000 0.258666
O O17 0.487644 0.500000 0.400586
O O18 0.673709 0.500000 0.899217
#
# Coordination Sequence:
#
# PCOD9172034 Si02
#       8
#     8   8   8   2   8   8   8   8
#     4  11  20  30  45  63  95 134 178 219 252 295
#     4  10  21  34  48  68  98 130 168 211 252 301
#     4  10  19  29  44  64  92 132 177 213 251 292
#     4  12  22  40  64  82 112 130 170 208 272 338
#     4   9  19  31  41  63  92 134 182 222 263 298
#     4  10  18  31  50  73 101 137 175 217 260 309
#     4  10  22  38  58  83 108 136 167 207 264 322
#     4  10  18  29  46  64  94 132 177 226 264 301
#
# _framework density 19.483892000000001
#
# number of rings (size 3 to 8) (size 9 to 14) (size 15 to 20)
#    0.000    1.931    2.069    2.690    1.931    2.759 
#    0.000    0.000    0.000    0.000    0.000    0.000 
#    0.000    2.207    0.000    5.931    0.000    0.000 
#
# Total GULP energy -161452.939158 kJ/mol
# GULP energy per Si atom -5567.342730 kJ/mol
# Density = 1.943955 g / cm^3
# Si number density = 19.483892 Si / 1000 Ang^3
#
#
#
# Elastic Constant Matrix: (Units=GPa)
#
#
# Indices 1 2 3 4 5 6 
#
# 1 16.3097 14.0333 9.4145 0.0000 10.5653 0.0000
# 2 14.0333 61.5951 22.1007 0.0000 10.9621 0.0000
# 3 9.4145 22.1007 122.2565 0.0000 14.4985 0.0000
# 4 0.0000 0.0000 0.0000 30.9040 0.0000 3.8834
# 5 10.5653 10.9621 14.4985 0.0000 28.8750 0.0000
# 6 0.0000 0.0000 0.0000 3.8834 0.0000 10.2306
#
#
#
# Elastic Compliance Matrix: (Units=1/GPa)
#
#
# Indices 1 2 3 4 5 6 
#
# 1 0.093619 -0.016039 -0.001031 0.000000 -0.027649 0.000000
# 2 -0.016039 0.020917 -0.002446 0.000000 -0.000844 0.000000
# 3 -0.001031 -0.002446 0.009087 0.000000 -0.003257 0.000000
# 4 0.000000 0.000000 0.000000 0.033979 0.000000 -0.012898
# 5 -0.027649 -0.000844 -0.003257 0.000000 0.046704 0.000000
# 6 0.000000 0.000000 0.000000 -0.012898 0.000000 0.102642
#
#
# Mechanical properties :
#
#
# Convention : Reuss Voigt Hill
#
# Bulk Modulus (GPa) = 11.82146 32.36202 22.09174
# Shear Modulus (GPa) = 13.36262 24.30945 18.83603
#
# Velocity S-wave (km/s) = 2.62167 3.53607 3.11263
# Velocity P-wave (km/s) = 3.90445 5.77212 4.92758
#
# Compressibility (1/GPa) = 0.08459193
#
# Stress axis : x y z
#
# Youngs Moduli (GPa) = 10.68157 47.80780 110.04314
#
# Poissons Ratio (x) = 0.76678 0.11345
# Poissons Ratio (y) = 0.17132 0.26917
# Poissons Ratio (z) = 0.01101 0.11694
#
# Static dielectric constant tensor:
#      x y z
#    x 1.713700 0.000000 -0.001630 
#    y 0.000000 1.705850 0.000000 
#    z -0.001630 0.000000 1.705490 
# 
# From -- ./inp_files/243189.got.cif
#   From: 2010.05.17/outbox.cif.g08.bks.cpg/sg12_122_cif.got.tgz:243189.got - 2010.06.03 13:09:07.
