data_PCOD9172895
_publ_section_title
;
Structure prediction by ZEFSAII (Michael W. Deem and Ramdas Pophale) SiO2 
 PCOD9172895
Probable space group: C 2/M
;
_chemical_formula_sum "Si O2"
_cell_formula_units_Z 64
_cell_length_a 21.239498
_cell_length_b 18.851441
_cell_length_c 10.412146
_cell_angle_alpha 90.000000
_cell_angle_beta 138.648056
_cell_angle_gamma 90.000000
_cell_volume 2754.367250
_symmetry_space_group_name_H-M "C 2/M"
_symmetry_group_IT_number 12
_symmetry_cell_setting 'monoclinic'
loop_
_space_group_symop_operation_xyz
x,y,z
-x,y,-z
-x,-y,-z
x,-y,z
1/2+x,1/2+y,z
1/2-x,1/2+y,-z
1/2-x,1/2-y,-z
1/2+x,1/2-y,z
loop_
_atom_site_type_symbol
_atom_site_label
_atom_site_fract_x
_atom_site_fract_y
_atom_site_fract_z
Si Si1 0.654540 0.925314 0.192669
Si Si2 0.842441 0.919083 0.014521
Si Si3 0.322720 0.224406 0.718514
Si Si4 0.458505 0.722158 0.127781
Si Si5 0.650986 0.424807 0.674919
Si Si6 0.453064 0.881509 0.219780
Si Si7 0.364930 0.877621 0.354466
Si Si8 0.631391 0.721257 0.556543
O O1 0.644157 0.855233 0.261222
O O2 0.758751 0.925780 0.283425
O O3 0.641550 0.000000 0.240579
O O4 0.582590 0.917717 0.963713
O O5 0.914791 0.853335 0.105332
O O6 0.819705 0.921881 0.131745
O O7 0.873076 0.000000 0.025326
O O8 0.744097 0.898792 0.791777
O O9 0.250000 0.250000 0.500000
O O10 0.245158 0.218811 0.715702
O O11 0.409268 0.266521 0.914089
O O12 0.435380 0.796694 0.166769
O O13 0.571886 0.722172 0.331707
O O14 0.598883 0.500000 0.573578
O O15 0.597976 0.351608 0.568421
O O16 0.395701 0.902479 0.260241
O O17 0.560935 0.900839 0.423166
O O18 0.382981 0.792612 0.386289
#
# Coordination Sequence:
#
# PCOD9172895 Si02
#       8
#     8   8   8   8   8   8   8   8
#     4   9  17  32  52  78 108 138 175 221 273 324
#     4  11  21  32  49  77 119 158 183 215 261 319
#     4  10  21  38  60  81 101 132 180 236 284 325
#     4  10  21  36  53  80 105 141 186 222 274 324
#     4   9  18  30  49  78 111 150 184 212 257 312
#     4   9  18  29  51  79 108 145 184 224 256 319
#     4  10  18  30  48  80 112 145 187 217 265 314
#     4  10  20  35  57  77 107 145 178 230 270 318
#
# _framework density 23.235825999999999
#
# number of rings (size 3 to 8) (size 9 to 14) (size 15 to 20)
#    0.000    2.250    2.500    0.750    0.000    4.000 
#    0.000    3.125    0.000    0.000    0.000    7.000 
#    0.000    0.000    0.000    0.000    0.000    0.000 
#
# Total GULP energy -178353.321939 kJ/mol
# GULP energy per Si atom -5573.541311 kJ/mol
# Density = 2.318294 g / cm^3
# Si number density = 23.235826 Si / 1000 Ang^3
#
#
#
# Elastic Constant Matrix: (Units=GPa)
#
#
# Indices 1 2 3 4 5 6 
#
# 1 32.3091 -2.5310 19.2958 0.0000 18.5528 0.0000
# 2 -2.5310 134.7077 33.2101 0.0000 -2.5865 0.0000
# 3 19.2958 33.2101 132.6423 0.0000 12.7814 0.0000
# 4 0.0000 0.0000 0.0000 -3.6035 0.0000 -0.7290
# 5 18.5528 -2.5865 12.7814 0.0000 37.4726 0.0000
# 6 0.0000 0.0000 0.0000 -0.7290 0.0000 -4.6288
#
#
#
# Elastic Compliance Matrix: (Units=1/GPa)
#
#
# Indices 1 2 3 4 5 6 
#
# 1 0.046217 0.001730 -0.005132 0.000000 -0.021013 0.000000
# 2 0.001730 0.008035 -0.002310 0.000000 0.000486 0.000000
# 3 -0.005132 -0.002310 0.008928 0.000000 -0.000664 0.000000
# 4 0.000000 0.000000 0.000000 -0.286643 0.000000 0.045143
# 5 -0.021013 0.000486 -0.000664 0.000000 0.037350 0.000000
# 6 0.000000 0.000000 0.000000 0.045143 0.000000 -0.223147
#
#
# Mechanical properties :
#
#
# Convention : Reuss Voigt Hill
#
# Bulk Modulus (GPa) = 19.32125 44.40099 31.86112
# Shear Modulus (GPa) = -13.13771 22.49368 4.67799
#
# Velocity S-wave (km/s) = -2.38041 3.11474 1.42043
# Velocity P-wave (km/s) = 0.88216 5.66444 4.05364
#
# Compressibility (1/GPa) = 0.05175648
#
# Stress axis : x y z
#
# Youngs Moduli (GPa) = 21.63685 124.45757 112.00725
#
# Poissons Ratio (x) = -0.21532 0.57479
# Poissons Ratio (y) = -0.03743 0.25876
# Poissons Ratio (z) = 0.11103 0.28752
#
# Static dielectric constant tensor:
#      x y z
#    x 1.941530 0.000000 -0.010300 
#    y 0.000000 1.957160 0.000000 
#    z -0.010300 0.000000 1.852390 
# 
# From -- ./inp_files/190072.got.cif
#   From: 2010.05.17/outbox.cif.g08.bks.cpg/sg12_96_cif.got.tgz:190072.got - 2010.06.03 13:09:07.
