data_PCOD9172331
_publ_section_title
;
Structure prediction by ZEFSAII (Michael W. Deem and Ramdas Pophale) SiO2 
 PCOD9172331
Probable space group: C 2/M
;
_chemical_formula_sum "Si O2"
_cell_formula_units_Z 56
_cell_length_a 24.174762
_cell_length_b 15.600000
_cell_length_c 8.910818
_cell_angle_alpha 90.000000
_cell_angle_beta 106.989952
_cell_angle_gamma 90.000000
_cell_volume 3213.837934
_symmetry_space_group_name_H-M "C 2/M"
_symmetry_group_IT_number 12
_symmetry_cell_setting 'monoclinic'
loop_
_space_group_symop_operation_xyz
x,y,z
-x,y,-z
-x,-y,-z
x,-y,z
1/2+x,1/2+y,z
1/2-x,1/2+y,-z
1/2-x,1/2-y,-z
1/2+x,1/2-y,z
loop_
_atom_site_type_symbol
_atom_site_label
_atom_site_fract_x
_atom_site_fract_y
_atom_site_fract_z
Si Si1 0.661923 0.403748 0.386527
Si Si2 0.619770 0.096537 0.575443
Si Si3 0.137366 0.262207 0.166665
Si Si4 0.788110 0.599180 0.617668
Si Si5 0.036750 0.309570 0.306140
Si Si6 0.094535 0.268007 0.801872
Si Si7 0.062159 0.141925 0.528936
O O1 0.665524 0.500000 0.323866
O O2 0.650319 0.328671 0.257372
O O3 0.722184 0.385323 0.518449
O O4 0.611140 0.402928 0.470416
O O5 0.672325 0.107320 0.500179
O O6 0.562303 0.114878 0.429860
O O7 0.623906 0.165988 0.709715
O O8 0.619313 0.000000 0.633133
O O9 0.186800 0.330741 0.248811
O O10 0.078217 0.298042 0.196258
O O11 0.127649 0.255121 0.982530
O O12 0.793878 0.500000 0.674458
O O13 0.047357 0.226478 0.418787
O O14 0.969182 0.308584 0.217990
O O15 0.085358 0.178966 0.704707
O O16 0.000000 0.097584 0.500000
#
# Coordination Sequence:
#
# PCOD9172331 Si02
#       7
#     8   8   8   8   8   8   8
#     4  10  20  36  56  72  92 130 174 207 242 297
#     4   9  17  30  48  71 100 134 172 207 239 287
#     4  10  19  32  52  75 102 131 164 206 251 295
#     4   9  19  36  54  71  95 132 173 205 238 292
#     4   8  16  30  48  69  97 137 171 193 233 294
#     4  10  18  29  48  75 104 131 159 203 256 292
#     4   8  16  32  52  73  97 125 160 197 240 294
#
# _framework density 17.42465
#
# number of rings (size 3 to 8) (size 9 to 14) (size 15 to 20)
#    0.000    2.857    0.000    3.000    0.000    2.000 
#    0.000    3.571    0.000   18.857    0.000    0.000 
#    0.000    0.000    0.000    0.000    0.000    0.000 
#
# Total GULP energy -155994.993890 kJ/mol
# GULP energy per Si atom -5571.249782 kJ/mol
# Density = 1.738499 g / cm^3
# Si number density = 17.424650 Si / 1000 Ang^3
#
#
#
# Elastic Constant Matrix: (Units=GPa)
#
#
# Indices 1 2 3 4 5 6 
#
# 1 61.3288 32.6853 33.5412 0.0000 22.1808 0.0000
# 2 32.6853 82.3512 64.3680 0.0000 3.1144 0.0000
# 3 33.5412 64.3680 128.5820 0.0000 -1.3630 0.0000
# 4 0.0000 0.0000 0.0000 6.9019 0.0000 -0.1283
# 5 22.1808 3.1144 -1.3630 0.0000 15.9465 0.0000
# 6 0.0000 0.0000 0.0000 -0.1283 0.0000 14.2110
#
#
#
# Elastic Compliance Matrix: (Units=1/GPa)
#
#
# Indices 1 2 3 4 5 6 
#
# 1 0.054198 -0.011587 -0.009120 0.000000 -0.073903 0.000000
# 2 -0.011587 0.022793 -0.008271 0.000000 0.010959 0.000000
# 3 -0.009120 -0.008271 0.014461 0.000000 0.015538 0.000000
# 4 0.000000 0.000000 0.000000 0.144913 0.000000 0.001309
# 5 -0.073903 0.010959 0.015538 0.000000 0.164693 0.000000
# 6 0.000000 0.000000 0.000000 0.001309 0.000000 0.070380
#
#
# Mechanical properties :
#
#
# Convention : Reuss Voigt Hill
#
# Bulk Modulus (GPa) = 29.85627 59.27234 44.56430
# Shear Modulus (GPa) = 9.24965 16.85636 13.05300
#
# Velocity S-wave (km/s) = 2.30649 3.11366 2.73996
# Velocity P-wave (km/s) = 4.92594 6.85687 5.96999
#
# Compressibility (1/GPa) = 0.03349381
#
# Stress axis : x y z
#
# Youngs Moduli (GPa) = 18.45093 43.87365 69.14915
#
# Poissons Ratio (x) = 0.50838 0.63067
# Poissons Ratio (y) = 0.21380 0.57195
# Poissons Ratio (z) = 0.16828 0.36289
#
# Static dielectric constant tensor:
#      x y z
#    x 1.627620 0.000000 0.002680 
#    y 0.000000 1.604360 0.000000 
#    z 0.002680 0.000000 1.561210 
# 
# From -- ./inp_files/96960.got.cif
#   From: 2010.05.17/outbox.cif.g08.bks.cpg/sg12_49_cif.got.tgz:96960.got - 2010.06.03 13:09:07.
