data_PCOD9172849
_publ_section_title
;
Structure prediction by ZEFSAII (Michael W. Deem and Ramdas Pophale) SiO2 
 PCOD9172849
Probable space group: C 2/M
;
_chemical_formula_sum "Si O2"
_cell_formula_units_Z 52
_cell_length_a 8.755549
_cell_length_b 19.260735
_cell_length_c 18.051602
_cell_angle_alpha 90.000000
_cell_angle_beta 75.474224
_cell_angle_gamma 90.000000
_cell_volume 2946.883755
_symmetry_space_group_name_H-M "C 2/M"
_symmetry_group_IT_number 12
_symmetry_cell_setting 'monoclinic'
loop_
_space_group_symop_operation_xyz
x,y,z
-x,y,-z
-x,-y,-z
x,-y,z
1/2+x,1/2+y,z
1/2-x,1/2+y,-z
1/2-x,1/2-y,-z
1/2+x,1/2-y,z
loop_
_atom_site_type_symbol
_atom_site_label
_atom_site_fract_x
_atom_site_fract_y
_atom_site_fract_z
Si Si1 0.516859 0.919127 0.085788
Si Si2 0.154658 0.078058 0.172327
Si Si3 0.190145 0.295137 0.148695
Si Si4 0.306386 0.220186 0.392551
Si Si5 0.536806 0.676975 0.080961
Si Si6 0.500000 0.791977 0.500000
Si Si7 0.583248 0.300142 0.290191
O O1 0.343318 0.915547 0.143315
O O2 0.622109 0.864009 0.117930
O O3 0.570907 0.000000 0.083088
O O4 0.500000 0.901342 0.000000
O O5 0.082688 0.133118 0.237886
O O6 0.092121 0.101606 0.099645
O O7 0.111726 0.000000 0.195887
O O8 0.374035 0.303981 0.140921
O O9 0.113150 0.267098 0.233898
O O10 0.163680 0.232455 0.093744
O O11 0.415251 0.175788 0.436800
O O12 0.147552 0.247738 0.451522
O O13 0.422504 0.282921 0.353409
O O14 0.231139 0.188709 0.327500
O O15 0.500000 0.681529 0.000000
#
# Coordination Sequence:
#
# PCOD9172849 Si02
#       7
#     8   8   8   8   8   4   8
#     4  10  20  34  50  66  92 132 173 216 259 296
#     4  10  21  35  48  68  97 129 171 210 248 298
#     4  11  20  32  48  71  98 125 167 209 252 305
#     4   9  16  29  49  75 104 122 149 181 233 287
#     4  11  21  32  49  68  92 128 168 218 263 294
#     4   8  16  28  48  80 102 122 144 184 228 276
#     4  10  18  30  48  71  98 130 155 195 244 287
#
# _framework density 17.645759000000002
#
# number of rings (size 3 to 8) (size 9 to 14) (size 15 to 20)
#    0.000    2.000    0.000    6.462    0.000    0.923 
#    0.000    0.000    0.000    0.000    0.000   20.462 
#    0.000    0.000    0.000    0.000    0.000    0.000 
#
# Total GULP energy -144759.405852 kJ/mol
# GULP energy per Si atom -5567.669456 kJ/mol
# Density = 1.760560 g / cm^3
# Si number density = 17.645759 Si / 1000 Ang^3
#
#
#
# Elastic Constant Matrix: (Units=GPa)
#
#
# Indices 1 2 3 4 5 6 
#
# 1 85.2127 26.9376 21.8410 0.0000 11.9593 0.0000
# 2 26.9376 79.0491 21.2374 0.0000 2.6499 0.0000
# 3 21.8410 21.2374 66.8962 0.0000 7.1698 0.0000
# 4 0.0000 0.0000 0.0000 -2.1491 0.0000 6.6611
# 5 11.9593 2.6499 7.1698 0.0000 44.5901 0.0000
# 6 0.0000 0.0000 0.0000 6.6611 0.0000 3.1329
#
#
#
# Elastic Compliance Matrix: (Units=1/GPa)
#
#
# Indices 1 2 3 4 5 6 
#
# 1 0.014188 -0.003909 -0.003061 0.000000 -0.003081 0.000000
# 2 -0.003909 0.014908 -0.003535 0.000000 0.000731 0.000000
# 3 -0.003061 -0.003535 0.017257 0.000000 -0.001744 0.000000
# 4 0.000000 0.000000 0.000000 -0.061306 0.000000 0.130347
# 5 -0.003081 0.000731 -0.001744 0.000000 0.023490 0.000000
# 6 0.000000 0.000000 0.000000 0.130347 0.000000 0.042055
#
#
# Mechanical properties :
#
#
# Convention : Reuss Voigt Hill
#
# Bulk Modulus (GPa) = 39.45898 41.24335 40.35116
# Shear Modulus (GPa) = 62.46171 19.85757 41.15964
#
# Velocity S-wave (km/s) = 5.95604 3.35826 4.83489
# Velocity P-wave (km/s) = 8.34922 6.20168 7.35426
#
# Compressibility (1/GPa) = 0.02534278
#
# Stress axis : x y z
#
# Youngs Moduli (GPa) = 70.48165 67.07964 57.94758
#
# Poissons Ratio (x) = 0.26223 0.17738
# Poissons Ratio (y) = 0.27553 0.20483
# Poissons Ratio (z) = 0.21575 0.23711
#
# Static dielectric constant tensor:
#      x y z
#    x 1.628660 0.000000 0.017780 
#    y 0.000000 1.580840 0.000000 
#    z 0.017780 0.000000 1.690410 
# 
# From -- ./inp_files/257049.got.cif
#   From: 2010.05.17/outbox.cif.g08.bks.cpg/sg12_129_cif.got.tgz:257049.got - 2010.06.03 13:09:07.
