data_PCOD9172087
_publ_section_title
;
Structure prediction by ZEFSAII (Michael W. Deem and Ramdas Pophale) SiO2 
 PCOD9172087
Probable space group: C 2/M
;
_chemical_formula_sum "Si O2"
_cell_formula_units_Z 56
_cell_length_a 28.513367
_cell_length_b 8.774079
_cell_length_c 21.386667
_cell_angle_alpha 90.000000
_cell_angle_beta 138.230261
_cell_angle_gamma 90.000000
_cell_volume 3564.164868
_symmetry_space_group_name_H-M "C 2/M"
_symmetry_group_IT_number 12
_symmetry_cell_setting 'monoclinic'
loop_
_space_group_symop_operation_xyz
x,y,z
-x,y,-z
-x,-y,-z
x,-y,z
1/2+x,1/2+y,z
1/2-x,1/2+y,-z
1/2-x,1/2-y,-z
1/2+x,1/2-y,z
loop_
_atom_site_type_symbol
_atom_site_label
_atom_site_fract_x
_atom_site_fract_y
_atom_site_fract_z
Si Si1 0.787157 0.183001 0.475607
Si Si2 0.150512 0.316785 0.275582
Si Si3 0.210950 0.817487 0.900456
Si Si4 0.417885 0.317834 0.916477
Si Si5 0.075506 0.183407 0.324752
Si Si6 0.151935 0.682884 0.030098
Si Si7 0.079063 0.682387 0.824630
O O1 0.750000 0.250000 0.500000
O O2 0.733327 0.225920 0.366888
O O3 0.868677 0.227413 0.564939
O O4 0.785804 0.000000 0.477698
O O5 0.144328 0.500000 0.272382
O O6 0.119231 0.256709 0.180139
O O7 0.107586 0.246447 0.291447
O O8 0.133295 0.748336 0.827302
O O9 0.207335 0.000000 0.901886
O O10 0.250000 0.750000 0.000000
O O11 0.265463 0.780555 0.899071
O O12 0.414463 0.500000 0.907357
O O13 0.500000 0.272327 0.000000
O O14 0.380873 0.264947 0.943318
O O15 0.998697 0.251379 0.258842
O O16 0.071647 0.000000 0.317212
O O17 0.145981 0.500000 0.031877
O O18 0.109970 0.723054 0.924428
O O19 0.078483 0.500000 0.820258
#
# Coordination Sequence:
#
# PCOD9172087 Si02
#       7
#     8   8   8   8   8   8   8
#     4   8  16  29  45  65  88 117 150 185 226 271
#     4  10  19  32  48  65  90 123 157 190 225 269
#     4   9  17  30  47  67  91 119 152 189 230 273
#     4  11  23  34  45  65  92 123 158 191 223 262
#     4  10  18  29  46  69  96 121 149 187 230 272
#     4   9  19  33  47  64  89 122 156 188 222 265
#     4  10  19  30  46  70  96 122 153 186 227 274
#
# _framework density 15.711955
#
# number of rings (size 3 to 8) (size 9 to 14) (size 15 to 20)
#    0.000    2.429    0.000    3.857    0.000    8.000 
#    0.000    0.000    0.000    0.000    0.000    1.000 
#    0.000    8.000    0.000    0.000    0.000    0.000 
#
# Total GULP energy -155974.288238 kJ/mol
# GULP energy per Si atom -5570.510294 kJ/mol
# Density = 1.567619 g / cm^3
# Si number density = 15.711955 Si / 1000 Ang^3
#
#
#
# Elastic Constant Matrix: (Units=GPa)
#
#
# Indices 1 2 3 4 5 6 
#
# 1 115.6529 44.4014 65.8929 0.0000 26.9135 0.0000
# 2 44.4014 46.0893 43.6974 0.0000 10.4032 0.0000
# 3 65.8929 43.6974 126.1373 0.0000 25.9964 0.0000
# 4 0.0000 0.0000 0.0000 17.7297 0.0000 4.9590
# 5 26.9135 10.4032 25.9964 0.0000 27.6480 0.0000
# 6 0.0000 0.0000 0.0000 4.9590 0.0000 27.0583
#
#
#
# Elastic Compliance Matrix: (Units=1/GPa)
#
#
# Indices 1 2 3 4 5 6 
#
# 1 0.016857 -0.011327 -0.002950 0.000000 -0.009373 0.000000
# 2 -0.011327 0.040012 -0.008823 0.000000 0.004267 0.000000
# 3 -0.002950 -0.008823 0.013954 0.000000 -0.006928 0.000000
# 4 0.000000 0.000000 0.000000 0.059450 0.000000 -0.010895
# 5 -0.009373 0.004267 -0.006928 0.000000 0.050202 0.000000
# 6 0.000000 0.000000 0.000000 -0.010895 0.000000 0.038954
#
#
# Mechanical properties :
#
#
# Convention : Reuss Voigt Hill
#
# Bulk Modulus (GPa) = 40.61570 66.20698 53.41134
# Shear Modulus (GPa) = 18.25902 23.41306 20.83604
#
# Velocity S-wave (km/s) = 3.41267 3.86443 3.64555
# Velocity P-wave (km/s) = 6.43698 7.88297 7.19638
#
# Compressibility (1/GPa) = 0.02462102
#
# Stress axis : x y z
#
# Youngs Moduli (GPa) = 59.32081 24.99276 71.66611
#
# Poissons Ratio (x) = 0.28310 0.21144
# Poissons Ratio (y) = 0.67193 0.63234
# Poissons Ratio (z) = 0.17502 0.22052
#
# Static dielectric constant tensor:
#      x y z
#    x 1.512040 0.000000 0.025060 
#    y 0.000000 1.524090 0.000000 
#    z 0.025060 0.000000 1.531280 
# 
# From -- ./inp_files/288238.got.cif
#   From: 2010.05.17/outbox.cif.g08.bks.cpg/sg12_145_cif.got.tgz:288238.got - 2010.06.03 13:09:07.
