data_PCOD9172921
_publ_section_title
;
Structure prediction by ZEFSAII (Michael W. Deem and Ramdas Pophale) SiO2 
 PCOD9172921
Probable space group: C 2/M
;
_chemical_formula_sum "Si O2"
_cell_formula_units_Z 56
_cell_length_a 8.886002
_cell_length_b 18.654108
_cell_length_c 23.230237
_cell_angle_alpha 90.000000
_cell_angle_beta 54.985892
_cell_angle_gamma 90.000000
_cell_volume 3153.727433
_symmetry_space_group_name_H-M "C 2/M"
_symmetry_group_IT_number 12
_symmetry_cell_setting 'monoclinic'
loop_
_space_group_symop_operation_xyz
x,y,z
-x,y,-z
-x,-y,-z
x,-y,z
1/2+x,1/2+y,z
1/2-x,1/2+y,-z
1/2-x,1/2-y,-z
1/2+x,1/2-y,z
loop_
_atom_site_type_symbol
_atom_site_label
_atom_site_fract_x
_atom_site_fract_y
_atom_site_fract_z
Si Si1 0.395265 0.416884 0.282896
Si Si2 0.533123 0.829481 0.856938
Si Si3 0.681022 0.330793 0.000000
Si Si4 0.103935 0.170519 0.143062
Si Si5 0.316714 0.587140 0.572224
Si Si6 0.756047 0.416884 0.282896
Si Si7 0.466614 0.087140 0.572224
O O1 0.361369 0.500000 0.274524
O O2 0.461097 0.373480 0.213019
O O3 0.564512 0.415435 0.290325
O O4 0.216811 0.387972 0.355198
O O5 0.354243 0.862586 0.927594
O O6 0.702823 0.825779 0.864784
O O7 0.475989 0.750000 0.849340
O O8 0.600154 0.873480 0.786981
O O9 0.500000 0.328533 0.000000
O O10 0.750000 0.250000 0.000000
O O11 0.637024 0.362586 0.072406
O O12 0.500000 0.612963 0.500000
O O13 0.331845 0.500000 0.572343
O O14 0.282406 0.612028 0.644802
O O15 0.142215 0.604573 0.571857
O O16 0.815059 0.500000 0.274524
O O17 0.500000 0.112963 0.500000
O O18 0.451127 0.000000 0.572343
#
# Coordination Sequence:
#
# PCOD9172921 Si02
#       7
#     8   8   8   8   8   8   8
#     4   9  18  32  49  70  96 125 157 193 233 277
#     4  10  19  32  51  72  95 123 156 194 234 278
#     4  10  18  30  49  70  93 121 157 197 231 272
#     4  10  19  32  51  72  95 123 156 194 234 278
#     4   9  16  26  43  67  94 124 157 193 231 273
#     4   9  18  32  49  70  96 125 157 193 233 277
#     4   9  16  26  43  67  94 124 157 193 231 273
#
# _framework density 17.756767
#
# number of rings (size 3 to 8) (size 9 to 14) (size 15 to 20)
#    0.000    2.571    0.000    4.714    0.000    5.714 
#    0.000    0.714    0.000    5.143    0.000    6.000 
#    0.000    0.000    0.000    0.000    0.000    0.000 
#
# Total GULP energy -156043.279581 kJ/mol
# GULP energy per Si atom -5572.974271 kJ/mol
# Density = 1.771635 g / cm^3
# Si number density = 17.756767 Si / 1000 Ang^3
#
#
#
# Elastic Constant Matrix: (Units=GPa)
#
#
# Indices 1 2 3 4 5 6 
#
# 1 76.0770 20.2630 89.2970 0.0000 -0.0038 0.0001
# 2 20.2630 21.6193 47.7978 0.0000 -0.0012 0.0000
# 3 89.2970 47.7978 236.7419 0.0000 -0.0030 0.0001
# 4 0.0000 0.0000 0.0000 42.5427 0.0000 -0.0012
# 5 -0.0038 -0.0012 -0.0030 0.0000 38.7204 -0.0001
# 6 0.0001 0.0000 0.0001 -0.0012 -0.0001 14.3348
#
#
#
# Elastic Compliance Matrix: (Units=1/GPa)
#
#
# Indices 1 2 3 4 5 6 
#
# 1 0.023822 -0.004447 -0.008088 0.000000 0.000002 0.000000
# 2 -0.004447 0.084380 -0.015359 0.000000 0.000001 0.000000
# 3 -0.008088 -0.015359 0.010376 0.000000 0.000000 0.000000
# 4 0.000000 0.000000 0.000000 0.023506 0.000000 0.000002
# 5 0.000002 0.000001 0.000000 0.000000 0.025826 0.000000
# 6 0.000000 0.000000 0.000000 0.000002 0.000000 0.069760
#
#
# Mechanical properties :
#
#
# Convention : Reuss Voigt Hill
#
# Bulk Modulus (GPa) = 15.92591 72.12822 44.02707
# Shear Modulus (GPa) = 15.90401 30.92495 23.41448
#
# Velocity S-wave (km/s) = 2.99600 4.17776 3.63522
# Velocity P-wave (km/s) = 4.57782 7.99874 6.51676
#
# Compressibility (1/GPa) = 0.06279074
#
# Stress axis : x y z
#
# Youngs Moduli (GPa) = 41.97798 11.85121 96.38046
#
# Poissons Ratio (x) = 0.05270 0.77950
# Poissons Ratio (y) = 0.18666 1.48030
# Poissons Ratio (z) = 0.33950 0.18202
#
# Static dielectric constant tensor:
#      x y z
#    x 1.596300 0.000000 0.000000 
#    y 0.000000 1.604340 0.000000 
#    z 0.000000 0.000000 1.639680 
# 
# From -- ./inp_files/301644.got.cif
#   From: 2010.05.17/outbox.cif.g08.bks.cpg/sg12_151_cif.got.tgz:301644.got - 2010.06.03 13:09:07.
