data_PCOD9172978
_publ_section_title
;
Structure prediction by ZEFSAII (Michael W. Deem and Ramdas Pophale) SiO2 
 PCOD9172978
Probable space group: C 2/M
;
_chemical_formula_sum "Si O2"
_cell_formula_units_Z 64
_cell_length_a 33.959274
_cell_length_b 7.746452
_cell_length_c 25.597156
_cell_angle_alpha 90.000000
_cell_angle_beta 26.623770
_cell_angle_gamma 90.000000
_cell_volume 3017.567318
_symmetry_space_group_name_H-M "C 2/M"
_symmetry_group_IT_number 12
_symmetry_cell_setting 'monoclinic'
loop_
_space_group_symop_operation_xyz
x,y,z
-x,y,-z
-x,-y,-z
x,-y,z
1/2+x,1/2+y,z
1/2-x,1/2+y,-z
1/2-x,1/2-y,-z
1/2+x,1/2-y,z
loop_
_atom_site_type_symbol
_atom_site_label
_atom_site_fract_x
_atom_site_fract_y
_atom_site_fract_z
Si Si1 0.527962 0.788240 0.198669
Si Si2 0.652805 0.188257 0.617822
Si Si3 0.937670 0.791304 0.621399
Si Si4 0.766790 0.206079 0.770169
Si Si5 0.574526 0.790577 0.025819
Si Si6 0.707523 0.207443 0.378379
Si Si7 0.018484 0.706229 0.637391
Si Si8 0.386412 0.704430 0.222357
O O1 0.427851 0.719251 0.312901
O O2 0.568803 0.735564 0.094235
O O3 0.543902 0.736387 0.239959
O O4 0.532805 0.000000 0.190490
O O5 0.750000 0.250000 0.500000
O O6 0.627862 0.190085 0.707783
O O7 0.653188 0.000000 0.593069
O O8 0.839071 0.729218 0.725495
O O9 0.000000 0.730883 0.500000
O O10 0.974265 0.741306 0.634191
O O11 0.937310 0.000000 0.619894
O O12 0.801680 0.240188 0.670798
O O13 0.760784 0.000000 0.784318
O O14 0.667883 0.273122 0.893747
O O15 0.490966 0.729833 0.090213
O O16 0.571629 0.000000 0.028066
O O17 0.620547 0.271160 0.512546
O O18 0.805599 0.260838 0.281183
O O19 0.706703 0.000000 0.382358
O O20 0.025928 0.500000 0.634556
O O21 0.373709 0.500000 0.247417
#
# Coordination Sequence:
#
# PCOD9172978 Si02
#       8
#     8   8   8   8   8   8   8   8
#     4   8  16  32  52  73 101 136 173 214 259 308
#     4  10  18  30  49  73 105 144 184 224 266 314
#     4  10  20  36  55  78 108 136 167 215 273 320
#     4  10  21  37  57  77 102 139 179 220 266 323
#     4   9  19  37  57  76 102 142 185 218 258 315
#     4  10  21  34  51  78 110 140 174 219 271 320
#     4  10  19  33  55  80 105 135 172 214 260 317
#     4  10  20  34  51  75 108 143 179 222 268 314
#
# _framework density 21.209136999999998
#
# number of rings (size 3 to 8) (size 9 to 14) (size 15 to 20)
#    0.000    2.375    1.250    2.250    0.000    4.750 
#    0.000    7.500    0.000    0.000    0.000    0.000 
#    0.000    0.000    0.000    0.000    0.000    0.000 
#
# Total GULP energy -178138.838474 kJ/mol
# GULP energy per Si atom -5566.838702 kJ/mol
# Density = 2.116086 g / cm^3
# Si number density = 21.209137 Si / 1000 Ang^3
#
#
#
# Elastic Constant Matrix: (Units=GPa)
#
#
# Indices 1 2 3 4 5 6 
#
# 1 90.8384 -4.6135 1.0583 0.0074 -11.9853 0.0001
# 2 -4.6135 32.6061 0.9335 0.0325 -5.1482 -0.0027
# 3 1.0583 0.9335 62.7371 0.0441 -14.0942 0.0116
# 4 0.0074 0.0325 0.0441 13.6062 -0.0005 -2.9792
# 5 -11.9853 -5.1482 -14.0942 -0.0005 31.3629 -0.0059
# 6 0.0001 -0.0027 0.0116 -2.9792 -0.0059 17.2862
#
#
#
# Elastic Compliance Matrix: (Units=1/GPa)
#
#
# Indices 1 2 3 4 5 6 
#
# 1 0.011832 0.002494 0.000969 -0.000016 0.005366 -0.000001
# 2 0.002494 0.032044 0.000975 -0.000082 0.006651 -0.000008
# 3 0.000969 0.000975 0.017828 -0.000065 0.008542 -0.000020
# 4 -0.000016 -0.000082 -0.000065 0.076379 -0.000045 0.013164
# 5 0.005366 0.006651 0.008542 -0.000045 0.038866 0.000001
# 6 -0.000001 -0.000008 -0.000020 0.013164 0.000001 0.060118
#
#
# Mechanical properties :
#
#
# Convention : Reuss Voigt Hill
#
# Bulk Modulus (GPa) = 14.16831 20.10424 17.13627
# Shear Modulus (GPa) = 19.86352 25.03795 22.45073
#
# Velocity S-wave (km/s) = 3.06364 3.43961 3.25705
# Velocity P-wave (km/s) = 4.38284 5.02734 4.71611
#
# Compressibility (1/GPa) = 0.07058005
#
# Stress axis : x y z
#
# Youngs Moduli (GPa) = 84.51681 31.20684 56.09246
#
# Poissons Ratio (x) = -0.07782 -0.05435
# Poissons Ratio (y) = -0.21076 -0.05472
# Poissons Ratio (z) = -0.08189 -0.03044
#
# Static dielectric constant tensor:
#      x y z
#    x 1.789780 -0.000010 -0.013330 
#    y -0.000010 1.810060 0.000010 
#    z -0.013330 0.000010 1.773840 
# 
# From -- ./inp_files/244266.got.cif
#   From: 2010.05.17/outbox.cif.g08.bks.cpg/sg12_123_cif.got.tgz:244266.got - 2010.06.03 13:09:07.
