data_PCOD9172996
_publ_section_title
;
Structure prediction by ZEFSAII (Michael W. Deem and Ramdas Pophale) SiO2 
 PCOD9172996
Probable space group: C 2/M
;
_chemical_formula_sum "Si O2"
_cell_formula_units_Z 40
_cell_length_a 19.183769
_cell_length_b 10.920621
_cell_length_c 14.995463
_cell_angle_alpha 90.000000
_cell_angle_beta 128.245958
_cell_angle_gamma 90.000000
_cell_volume 2467.233554
_symmetry_space_group_name_H-M "C 2/M"
_symmetry_group_IT_number 12
_symmetry_cell_setting 'monoclinic'
loop_
_space_group_symop_operation_xyz
x,y,z
-x,y,-z
-x,-y,-z
x,-y,z
1/2+x,1/2+y,z
1/2-x,1/2+y,-z
1/2-x,1/2-y,-z
1/2+x,1/2-y,z
loop_
_atom_site_type_symbol
_atom_site_label
_atom_site_fract_x
_atom_site_fract_y
_atom_site_fract_z
Si Si1 0.341176 0.867584 0.067091
Si Si2 0.973318 0.141621 0.196884
Si Si3 0.911949 0.144329 0.875103
Si Si4 0.243243 0.749468 0.836785
Si Si5 0.562964 0.643866 0.628687
O O1 0.404533 0.748258 0.115000
O O2 0.286708 0.854240 0.116002
O O3 0.386594 0.000000 0.100554
O O4 0.276096 0.854718 0.931153
O O5 0.983536 0.153057 0.311114
O O6 0.060597 0.159564 0.206242
O O7 0.942627 0.000000 0.154562
O O8 0.825154 0.212362 0.840248
O O9 0.899221 0.000000 0.882189
O O10 0.000000 0.182515 0.000000
O O11 0.156848 0.789078 0.713840
O O12 0.500000 0.690437 0.500000
O O13 0.580061 0.500000 0.625590
#
# Coordination Sequence:
#
# PCOD9172996 Si02
#       5
#     8   8   8   8   8
#     4  10  19  30  48  75 104 130 159 204 257 298
#     4   9  18  33  53  75 100 131 169 203 241 300
#     4  10  18  30  49  74 103 134 165 197 242 304
#     4  10  19  30  48  73 102 131 166 203 248 298
#     4   9  18  34  54  72  93 129 176 215 243 284
#
# _framework density 16.212491
#
# number of rings (size 3 to 8) (size 9 to 14) (size 15 to 20)
#    0.000    2.400    2.000    1.200    0.000    4.800 
#    0.000    4.000    0.000   15.000    0.000    0.000 
#    0.000    0.000    0.000    0.000    0.000    0.000 
#
# Total GULP energy -111358.561074 kJ/mol
# GULP energy per Si atom -5567.928054 kJ/mol
# Density = 1.617559 g / cm^3
# Si number density = 16.212491 Si / 1000 Ang^3
#
#
#
# Elastic Constant Matrix: (Units=GPa)
#
#
# Indices 1 2 3 4 5 6 
#
# 1 140.4043 42.7832 57.6355 0.0000 6.2126 0.0000
# 2 42.7832 81.5142 39.4613 0.0000 2.4087 0.0000
# 3 57.6355 39.4613 121.9399 0.0000 6.9812 0.0000
# 4 0.0000 0.0000 0.0000 7.9891 0.0000 7.0988
# 5 6.2126 2.4087 6.9812 0.0000 11.9174 0.0000
# 6 0.0000 0.0000 0.0000 7.0988 0.0000 13.5363
#
#
#
# Elastic Compliance Matrix: (Units=1/GPa)
#
#
# Indices 1 2 3 4 5 6 
#
# 1 0.009617 -0.003371 -0.003318 0.000000 -0.002389 0.000000
# 2 -0.003371 0.015729 -0.003534 0.000000 0.000648 0.000000
# 3 -0.003318 -0.003534 0.011147 0.000000 -0.004086 0.000000
# 4 0.000000 0.000000 0.000000 0.234396 0.000000 -0.122924
# 5 -0.002389 0.000648 -0.004086 0.000000 0.087418 0.000000
# 6 0.000000 0.000000 0.000000 -0.122924 0.000000 0.138340
#
#
# Mechanical properties :
#
#
# Convention : Reuss Voigt Hill
#
# Bulk Modulus (GPa) = 62.31719 69.29093 65.80406
# Shear Modulus (GPa) = 9.57046 20.28713 14.92879
#
# Velocity S-wave (km/s) = 2.43227 3.54125 3.03779
# Velocity P-wave (km/s) = 6.81243 7.71703 7.27880
#
# Compressibility (1/GPa) = 0.01604694
#
# Stress axis : x y z
#
# Youngs Moduli (GPa) = 103.98114 63.57862 89.71386
#
# Poissons Ratio (x) = 0.21431 0.29767
# Poissons Ratio (y) = 0.35050 0.31704
# Poissons Ratio (z) = 0.34501 0.22468
#
# Static dielectric constant tensor:
#      x y z
#    x 1.558600 0.000000 -0.015830 
#    y 0.000000 1.568180 0.000000 
#    z -0.015830 0.000000 1.543250 
# 
# From -- ./inp_files/152686.got.cif
#   From: 2010.05.17/outbox.cif.g08.bks.cpg/sg12_77_cif.got.tgz:152686.got - 2010.06.03 13:09:07.
