data_PCOD9172918
_publ_section_title
;
Structure prediction by ZEFSAII (Michael W. Deem and Ramdas Pophale) SiO2 
 PCOD9172918
Probable space group: C 2/M
;
_chemical_formula_sum "Si O2"
_cell_formula_units_Z 56
_cell_length_a 14.793287
_cell_length_b 7.595027
_cell_length_c 28.051619
_cell_angle_alpha 90.000000
_cell_angle_beta 61.347456
_cell_angle_gamma 90.000000
_cell_volume 2765.799202
_symmetry_space_group_name_H-M "C 2/M"
_symmetry_group_IT_number 12
_symmetry_cell_setting 'monoclinic'
loop_
_space_group_symop_operation_xyz
x,y,z
-x,y,-z
-x,-y,-z
x,-y,z
1/2+x,1/2+y,z
1/2-x,1/2+y,-z
1/2-x,1/2-y,-z
1/2+x,1/2-y,z
loop_
_atom_site_type_symbol
_atom_site_label
_atom_site_fract_x
_atom_site_fract_y
_atom_site_fract_z
Si Si1 0.932704 0.212900 0.446289
Si Si2 0.812784 0.711129 0.936688
Si Si3 0.750099 0.210730 0.151120
Si Si4 0.534977 0.210789 0.852903
Si Si5 0.027550 0.715497 0.236557
Si Si6 0.127805 0.294550 0.644963
Si Si7 0.152433 0.784873 0.433053
O O1 0.904588 0.282548 0.401863
O O2 0.859845 0.270165 0.508574
O O3 0.048332 0.265155 0.432235
O O4 0.929253 0.000000 0.445169
O O5 0.816833 0.500000 0.932384
O O6 0.759274 0.775687 0.901224
O O7 0.931513 0.775249 0.905937
O O8 0.750000 0.750000 0.000000
O O9 0.857655 0.248002 0.149247
O O10 0.646939 0.273709 0.204562
O O11 0.741858 0.000000 0.151158
O O12 0.523866 0.269058 0.800743
O O13 0.528672 0.000000 0.853187
O O14 0.029669 0.500000 0.237501
O O15 0.958627 0.779636 0.297940
O O16 0.137407 0.500000 0.655550
O O17 0.243156 0.218747 0.617246
O O18 0.154682 0.000000 0.433016
#
# Coordination Sequence:
#
# PCOD9172918 Si02
#       7
#     8   8   8   8   8   8   8
#     4   9  17  31  47  66  93 122 152 191 235 282
#     4   9  19  34  51  73 103 131 158 192 232 276
#     4   9  18  34  52  70  95 128 158 192 238 279
#     4   9  18  34  53  72  95 128 163 194 229 276
#     4   8  17  33  49  66  94 126 156 191 235 283
#     4  10  18  30  49  70  90 120 158 193 232 281
#     4   8  16  30  47  65  91 125 154 183 233 291
#
# _framework density 20.247313999999999
#
# number of rings (size 3 to 8) (size 9 to 14) (size 15 to 20)
#    0.000    3.143    0.000    3.000    0.000    2.857 
#    0.000   10.000    0.000    0.000    0.000    0.000 
#    0.000    0.000    0.000    0.000    0.000    0.000 
#
# Total GULP energy -156109.952941 kJ/mol
# GULP energy per Si atom -5575.355462 kJ/mol
# Density = 2.020123 g / cm^3
# Si number density = 20.247314 Si / 1000 Ang^3
#
#
#
# Elastic Constant Matrix: (Units=GPa)
#
#
# Indices 1 2 3 4 5 6 
#
# 1 129.4492 -1.2001 52.3561 0.0000 -24.6857 0.0000
# 2 -1.2001 40.2123 3.7753 0.0000 -3.4611 0.0000
# 3 52.3561 3.7753 111.8907 0.0000 -33.1783 0.0000
# 4 0.0000 0.0000 0.0000 14.3768 0.0000 6.6546
# 5 -24.6857 -3.4611 -33.1783 0.0000 18.1917 0.0000
# 6 0.0000 0.0000 0.0000 6.6546 0.0000 18.4471
#
#
#
# Elastic Compliance Matrix: (Units=1/GPa)
#
#
# Indices 1 2 3 4 5 6 
#
# 1 0.010624 0.001491 -0.001443 0.000000 0.012069 0.000000
# 2 0.001491 0.025572 0.001050 0.000000 0.008803 0.000000
# 3 -0.001443 0.001050 0.019721 0.000000 0.034209 0.000000
# 4 0.000000 0.000000 0.000000 0.083498 0.000000 -0.030121
# 5 0.012069 0.008803 0.034209 0.000000 0.135412 0.000000
# 6 0.000000 0.000000 0.000000 -0.030121 0.000000 0.065075
#
#
# Mechanical properties :
#
#
# Convention : Reuss Voigt Hill
#
# Bulk Modulus (GPa) = 17.20794 43.49054 30.34924
# Shear Modulus (GPa) = 14.00262 25.31119 19.65690
#
# Velocity S-wave (km/s) = 2.63264 3.53951 3.11921
# Velocity P-wave (km/s) = 4.21407 6.18308 5.29098
#
# Compressibility (1/GPa) = 0.05811270
#
# Stress axis : x y z
#
# Youngs Moduli (GPa) = 94.12769 39.10582 50.70806
#
# Poissons Ratio (x) = -0.05832 0.07316
# Poissons Ratio (y) = -0.14037 -0.05323
# Poissons Ratio (z) = 0.13581 -0.04105
#
# Static dielectric constant tensor:
#      x y z
#    x 1.711660 0.000000 -0.026320 
#    y 0.000000 1.767200 0.000000 
#    z -0.026320 0.000000 1.716160 
# 
# From -- ./inp_files/357683.got.cif
#   From: 2010.05.17/outbox.cif.g08.bks.cpg/sg12_179_cif.got.tgz:357683.got - 2010.06.03 13:09:07.
