data_PCOD9172395
_publ_section_title
;
Structure prediction by ZEFSAII (Michael W. Deem and Ramdas Pophale) SiO2 
 PCOD9172395
Probable space group: C 2/M
;
_chemical_formula_sum "Si O2"
_cell_formula_units_Z 48
_cell_length_a 23.457991
_cell_length_b 8.938167
_cell_length_c 14.294752
_cell_angle_alpha 90.000000
_cell_angle_beta 102.308419
_cell_angle_gamma 90.000000
_cell_volume 2928.308367
_symmetry_space_group_name_H-M "C 2/M"
_symmetry_group_IT_number 12
_symmetry_cell_setting 'monoclinic'
loop_
_space_group_symop_operation_xyz
x,y,z
-x,y,-z
-x,-y,-z
x,-y,z
1/2+x,1/2+y,z
1/2-x,1/2+y,-z
1/2-x,1/2-y,-z
1/2+x,1/2-y,z
loop_
_atom_site_type_symbol
_atom_site_label
_atom_site_fract_x
_atom_site_fract_y
_atom_site_fract_z
Si Si1 0.015077 0.819871 0.779783
Si Si2 0.293819 0.179942 0.644363
Si Si3 0.567241 0.327849 0.987427
Si Si4 0.603560 0.178904 0.182420
Si Si5 0.673948 0.820098 0.555292
Si Si6 0.048911 0.680387 0.594431
O O1 0.952439 0.752455 0.786793
O O2 0.060961 0.776785 0.878085
O O3 0.034206 0.758711 0.686640
O O4 0.011106 0.000000 0.779291
O O5 0.338222 0.224034 0.741644
O O6 0.320853 0.222690 0.552525
O O7 0.229940 0.251183 0.626008
O O8 0.288371 0.000000 0.643726
O O9 0.587311 0.500000 0.997672
O O10 0.500000 0.326529 0.000000
O O11 0.602411 0.230981 0.074314
O O12 0.597678 0.000000 0.185805
O O13 0.612358 0.775084 0.577696
O O14 0.677450 0.000000 0.560643
O O15 0.048186 0.500000 0.607077
O O16 0.000000 0.716427 0.500000
#
# Coordination Sequence:
#
# PCOD9172395 Si02
#       6
#     8   8   8   8   8   8
#     4  10  20  32  47  70 100 130 158 193 237 282
#     4   9  18  32  49  70  96 123 154 195 236 275
#     4   8  16  30  45  66  97 126 154 194 240 280
#     4  10  18  29  49  74  97 124 159 197 238 282
#     4   9  18  32  49  69  94 126 158 188 231 281
#     4  10  20  34  51  71  98 128 157 193 235 281
#
# _framework density 16.391717
#
# number of rings (size 3 to 8) (size 9 to 14) (size 15 to 20)
#    0.000    2.667    0.000    3.000    0.000    8.667 
#    0.000    3.333    0.000    1.000    0.000    0.000 
#    0.000    0.000    0.000    0.000    0.000    0.000 
#
# Total GULP energy -133778.613176 kJ/mol
# GULP energy per Si atom -5574.108882 kJ/mol
# Density = 1.635441 g / cm^3
# Si number density = 16.391717 Si / 1000 Ang^3
#
#
#
# Elastic Constant Matrix: (Units=GPa)
#
#
# Indices 1 2 3 4 5 6 
#
# 1 101.7080 36.7749 81.2306 0.0000 10.4130 0.0000
# 2 36.7749 33.7738 52.3685 0.0000 6.9972 0.0000
# 3 81.2306 52.3685 166.6693 0.0000 16.0304 0.0000
# 4 0.0000 0.0000 0.0000 25.6441 0.0000 2.8555
# 5 10.4130 6.9972 16.0304 0.0000 26.5096 0.0000
# 6 0.0000 0.0000 0.0000 2.8555 0.0000 22.2810
#
#
#
# Elastic Compliance Matrix: (Units=1/GPa)
#
#
# Indices 1 2 3 4 5 6 
#
# 1 0.018269 -0.011758 -0.005115 0.000000 -0.000979 0.000000
# 2 -0.011758 0.065824 -0.014572 0.000000 -0.003944 0.000000
# 3 -0.005115 -0.014572 0.013281 0.000000 -0.002175 0.000000
# 4 0.000000 0.000000 0.000000 0.039560 0.000000 -0.005070
# 5 -0.000979 -0.003944 -0.002175 0.000000 0.040463 0.000000
# 6 0.000000 0.000000 0.000000 -0.005070 0.000000 0.045531
#
#
# Mechanical properties :
#
#
# Convention : Reuss Voigt Hill
#
# Bulk Modulus (GPa) = 29.00005 71.43324 50.21664
# Shear Modulus (GPa) = 16.81722 23.67207 20.24464
#
# Velocity S-wave (km/s) = 3.20653 3.80432 3.51815
# Velocity P-wave (km/s) = 5.60709 7.93540 6.87059
#
# Compressibility (1/GPa) = 0.03448270
#
# Stress axis : x y z
#
# Youngs Moduli (GPa) = 54.73710 15.19200 75.29575
#
# Poissons Ratio (x) = 0.17863 0.38516
# Poissons Ratio (y) = 0.64360 1.09724
# Poissons Ratio (z) = 0.28000 0.22138
#
# Static dielectric constant tensor:
#      x y z
#    x 1.522360 0.000000 -0.000260 
#    y 0.000000 1.551690 0.000000 
#    z -0.000260 0.000000 1.564080 
# 
# From -- ./inp_files/230400.got.cif
#   From: 2010.05.17/outbox.cif.g08.bks.cpg/sg12_116_cif.got.tgz:230400.got - 2010.06.03 13:09:07.
