data_PCOD9172973
_publ_section_title
;
Structure prediction by ZEFSAII (Michael W. Deem and Ramdas Pophale) SiO2 
 PCOD9172973
Probable space group: C 2/M
;
_chemical_formula_sum "Si O2"
_cell_formula_units_Z 64
_cell_length_a 28.405684
_cell_length_b 8.940962
_cell_length_c 13.902032
_cell_angle_alpha 90.000000
_cell_angle_beta 107.624955
_cell_angle_gamma 90.000000
_cell_volume 3365.018971
_symmetry_space_group_name_H-M "C 2/M"
_symmetry_group_IT_number 12
_symmetry_cell_setting 'monoclinic'
loop_
_space_group_symop_operation_xyz
x,y,z
-x,y,-z
-x,-y,-z
x,-y,z
1/2+x,1/2+y,z
1/2-x,1/2+y,-z
1/2-x,1/2-y,-z
1/2+x,1/2-y,z
loop_
_atom_site_type_symbol
_atom_site_label
_atom_site_fract_x
_atom_site_fract_y
_atom_site_fract_z
Si Si1 0.550761 0.324301 0.580005
Si Si2 0.166309 0.328553 0.318341
Si Si3 0.196303 0.672792 0.963821
Si Si4 0.959775 0.173405 0.052719
Si Si5 0.624277 0.166346 0.088764
Si Si6 0.643858 0.326314 0.502668
Si Si7 0.591692 0.820275 0.801000
Si Si8 0.261112 0.822389 0.401674
O O1 0.500000 0.267396 0.500000
O O2 0.543200 0.500000 0.600707
O O3 0.592103 0.316197 0.523093
O O4 0.572768 0.242415 0.687283
O O5 0.178718 0.500000 0.351863
O O6 0.130880 0.330037 0.205995
O O7 0.144177 0.247732 0.397675
O O8 0.215613 0.243058 0.314875
O O9 0.204110 0.500000 0.940274
O O10 0.148185 0.726586 0.869542
O O11 0.250000 0.750000 0.000000
O O12 0.174356 0.675859 0.058549
O O13 0.947505 0.261685 0.143065
O O14 0.970474 0.000000 0.080704
O O15 0.909049 0.197435 0.964259
O O16 0.000000 0.229724 0.000000
O O17 0.603265 0.000000 0.049628
O O18 0.658322 0.500000 0.502346
O O19 0.685383 0.240456 0.590258
O O20 0.591873 0.000000 0.799818
O O21 0.250000 0.750000 0.500000
O O22 0.260465 0.000000 0.403795
#
# Coordination Sequence:
#
# PCOD9172973 Si02
#       8
#     8   8   8   8   8   8   8   8
#     4  10  23  42  61  82 111 149 194 241 286 335
#     4  10  19  33  53  78 110 144 180 224 275 331
#     4   9  19  36  56  82 114 147 185 227 275 334
#     4  10  21  37  59  85 111 142 181 224 273 331
#     4   9  20  36  53  78 112 145 180 225 274 329
#     4  10  20  35  54  76 106 144 184 229 281 332
#     4  10  22  40  61  86 117 150 188 235 283 336
#     4  10  18  30  49  73 103 138 179 224 271 327
#
# _framework density 19.019210000000001
#
# number of rings (size 3 to 8) (size 9 to 14) (size 15 to 20)
#    0.000    2.250    0.000    4.875    0.000    7.750 
#    0.000    7.500    0.000    0.000    0.000    0.000 
#    0.000    0.000    0.000    0.000    0.000    0.000 
#
# Total GULP energy -178188.358721 kJ/mol
# GULP energy per Si atom -5568.386210 kJ/mol
# Density = 1.897592 g / cm^3
# Si number density = 19.019210 Si / 1000 Ang^3
#
#
#
# Elastic Constant Matrix: (Units=GPa)
#
#
# Indices 1 2 3 4 5 6 
#
# 1 97.0838 39.5573 32.0827 0.0000 1.0777 0.0000
# 2 39.5573 97.4540 38.3105 0.0000 -0.1877 0.0000
# 3 32.0827 38.3105 107.4374 0.0000 -0.6262 0.0000
# 4 0.0000 0.0000 0.0000 24.1297 0.0000 2.7128
# 5 1.0777 -0.1877 -0.6262 0.0000 12.6028 0.0000
# 6 0.0000 0.0000 0.0000 2.7128 0.0000 21.7028
#
#
#
# Elastic Compliance Matrix: (Units=1/GPa)
#
#
# Indices 1 2 3 4 5 6 
#
# 1 0.012830 -0.004305 -0.002304 0.000000 -0.001276 0.000000
# 2 -0.004305 0.013378 -0.003483 0.000000 0.000394 0.000000
# 3 -0.002304 -0.003483 0.011242 0.000000 0.000704 0.000000
# 4 0.000000 0.000000 0.000000 0.042033 0.000000 -0.005254
# 5 -0.001276 0.000394 0.000704 0.000000 0.079498 0.000000
# 6 0.000000 0.000000 0.000000 -0.005254 0.000000 0.046734
#
#
# Mechanical properties :
#
#
# Convention : Reuss Voigt Hill
#
# Bulk Modulus (GPa) = 57.91148 57.98625 57.94886
# Shear Modulus (GPa) = 21.58405 24.48870 23.03637
#
# Velocity S-wave (km/s) = 3.37242 3.59218 3.48403
# Velocity P-wave (km/s) = 6.75865 6.91082 6.83516
#
# Compressibility (1/GPa) = 0.01726773
#
# Stress axis : x y z
#
# Youngs Moduli (GPa) = 77.94399 74.74734 88.95460
#
# Poissons Ratio (x) = 0.32175 0.20492
# Poissons Ratio (y) = 0.33551 0.30981
# Poissons Ratio (z) = 0.17956 0.26033
#
# Static dielectric constant tensor:
#      x y z
#    x 1.696180 0.000000 0.021110 
#    y 0.000000 1.677690 0.000000 
#    z 0.021110 0.000000 1.706320 
# 
# From -- ./inp_files/244231.got.cif
#   From: 2010.05.17/outbox.cif.g08.bks.cpg/sg12_123_cif.got.tgz:244231.got - 2010.06.03 13:09:07.
