data_PCOD9172942
_publ_section_title
;
Structure prediction by ZEFSAII (Michael W. Deem and Ramdas Pophale) SiO2 
 PCOD9172942
Probable space group: C 2/M
;
_chemical_formula_sum "Si O2"
_cell_formula_units_Z 64
_cell_length_a 19.779184
_cell_length_b 8.959175
_cell_length_c 21.080781
_cell_angle_alpha 90.000000
_cell_angle_beta 96.487141
_cell_angle_gamma 90.000000
_cell_volume 3711.705087
_symmetry_space_group_name_H-M "C 2/M"
_symmetry_group_IT_number 12
_symmetry_cell_setting 'monoclinic'
loop_
_space_group_symop_operation_xyz
x,y,z
-x,y,-z
-x,-y,-z
x,-y,z
1/2+x,1/2+y,z
1/2-x,1/2+y,-z
1/2-x,1/2-y,-z
1/2+x,1/2-y,z
loop_
_atom_site_type_symbol
_atom_site_label
_atom_site_fract_x
_atom_site_fract_y
_atom_site_fract_z
Si Si1 0.921575 0.172158 0.016569
Si Si2 0.121123 0.322195 0.325657
Si Si3 0.031595 0.321072 0.715643
Si Si4 0.875344 0.677131 0.890101
Si Si5 0.706314 0.322719 0.222914
Si Si6 0.258805 0.177759 0.569325
Si Si7 0.485989 0.320514 0.150012
Si Si8 0.172796 0.678772 0.671309
O O1 0.929704 0.218799 0.090526
O O2 0.899012 0.000000 0.010349
O O3 0.878762 0.270667 0.963461
O O4 0.000000 0.176032 0.000000
O O5 0.128652 0.500000 0.313268
O O6 0.151918 0.232921 0.269605
O O7 0.167698 0.287407 0.391251
O O8 0.041501 0.289943 0.323659
O O9 0.035538 0.500000 0.727245
O O10 0.033006 0.238599 0.783103
O O11 0.095916 0.279116 0.679773
O O12 0.878445 0.500000 0.885674
O O13 0.811790 0.740498 0.844029
O O14 0.942666 0.747389 0.864059
O O15 0.700457 0.500000 0.213655
O O16 0.778832 0.288280 0.262960
O O17 0.250000 0.250000 0.500000
O O18 0.204317 0.239916 0.614036
O O19 0.252744 0.000000 0.563885
O O20 0.493791 0.500000 0.149916
O O21 0.176500 0.500000 0.661121
#
# Coordination Sequence:
#
# PCOD9172942 Si02
#       8
#     8   8   8   8   8   8   8   8
#     4   8  16  29  42  62  95 130 166 211 261 310
#     4   9  18  32  52  78 103 131 169 210 251 297
#     4  10  19  33  53  77 106 135 167 210 258 305
#     4  11  19  27  44  70  98 129 171 218 260 303
#     4  10  18  30  49  72 100 133 170 211 256 305
#     4  10  20  36  58  81 106 137 172 208 248 296
#     4  10  19  30  46  70 100 134 169 208 260 311
#     4   9  20  36  54  78 106 137 170 206 252 305
#
# _framework density 17.242747999999999
#
# number of rings (size 3 to 8) (size 9 to 14) (size 15 to 20)
#    0.000    2.375    1.250    3.000    0.000    4.250 
#    0.000    0.625    0.000    4.500    0.000    0.000 
#    0.000    0.000    0.000    0.000    0.000    0.000 
#
# Total GULP energy -178457.481379 kJ/mol
# GULP energy per Si atom -5576.796293 kJ/mol
# Density = 1.720350 g / cm^3
# Si number density = 17.242748 Si / 1000 Ang^3
#
#
#
# Elastic Constant Matrix: (Units=GPa)
#
#
# Indices 1 2 3 4 5 6 
#
# 1 97.8404 37.5139 51.4624 0.0000 5.2187 0.0000
# 2 37.5139 56.6453 52.4765 0.0000 10.4922 0.0000
# 3 51.4624 52.4765 126.8854 0.0000 18.7023 0.0000
# 4 0.0000 0.0000 0.0000 30.2260 0.0000 1.7193
# 5 5.2187 10.4922 18.7023 0.0000 16.6714 0.0000
# 6 0.0000 0.0000 0.0000 1.7193 0.0000 17.0819
#
#
#
# Elastic Compliance Matrix: (Units=1/GPa)
#
#
# Indices 1 2 3 4 5 6 
#
# 1 0.014607 -0.007092 -0.003565 0.000000 0.003890 0.000000
# 2 -0.007092 0.032516 -0.009444 0.000000 -0.007650 0.000000
# 3 -0.003565 -0.009444 0.014608 0.000000 -0.009328 0.000000
# 4 0.000000 0.000000 0.000000 0.033275 0.000000 -0.003349
# 5 0.003890 -0.007650 -0.009328 0.000000 0.074044 0.000000
# 6 0.000000 0.000000 0.000000 -0.003349 0.000000 0.058878
#
#
# Mechanical properties :
#
#
# Convention : Reuss Voigt Hill
#
# Bulk Modulus (GPa) = 46.44722 62.69742 54.57232
# Shear Modulus (GPa) = 18.16162 22.12377 20.14269
#
# Velocity S-wave (km/s) = 3.24896 3.58589 3.42158
# Velocity P-wave (km/s) = 6.40859 7.32020 6.87952
#
# Compressibility (1/GPa) = 0.02152982
#
# Stress axis : x y z
#
# Youngs Moduli (GPa) = 68.45814 30.75384 68.45761
#
# Poissons Ratio (x) = 0.21810 0.24404
# Poissons Ratio (y) = 0.48550 0.64651
# Poissons Ratio (z) = 0.24404 0.29044
#
# Static dielectric constant tensor:
#      x y z
#    x 1.585490 0.000000 0.027650 
#    y 0.000000 1.576960 0.000000 
#    z 0.027650 0.000000 1.580250 
# 
# From -- ./inp_files/314185.got.cif
#   From: 2010.05.17/outbox.cif.g08.bks.cpg/sg12_158_cif.got.tgz:314185.got - 2010.06.03 13:09:07.
