data_PCOD9172971
_publ_section_title
;
Structure prediction by ZEFSAII (Michael W. Deem and Ramdas Pophale) SiO2 
 PCOD9172971
Probable space group: C 2/M
;
_chemical_formula_sum "Si O2"
_cell_formula_units_Z 64
_cell_length_a 25.718537
_cell_length_b 8.642897
_cell_length_c 24.394907
_cell_angle_alpha 90.000000
_cell_angle_beta 133.505479
_cell_angle_gamma 90.000000
_cell_volume 3933.032697
_symmetry_space_group_name_H-M "C 2/M"
_symmetry_group_IT_number 12
_symmetry_cell_setting 'monoclinic'
loop_
_space_group_symop_operation_xyz
x,y,z
-x,y,-z
-x,-y,-z
x,-y,z
1/2+x,1/2+y,z
1/2-x,1/2+y,-z
1/2-x,1/2-y,-z
1/2+x,1/2-y,z
loop_
_atom_site_type_symbol
_atom_site_label
_atom_site_fract_x
_atom_site_fract_y
_atom_site_fract_z
Si Si1 0.058799 0.685194 0.309893
Si Si2 0.666033 0.685387 0.576999
Si Si3 0.527929 0.814541 0.414215
Si Si4 0.872116 0.187336 0.328489
Si Si5 0.282751 0.315724 0.580285
Si Si6 0.694928 0.312362 0.833351
Si Si7 0.692089 0.185996 0.001531
Si Si8 0.419542 0.314589 0.156015
O O1 0.061629 0.500000 0.308548
O O2 0.037268 0.727150 0.356861
O O3 0.136816 0.753729 0.354931
O O4 0.997528 0.749282 0.225591
O O5 0.671481 0.500000 0.576964
O O6 0.592721 0.739584 0.494873
O O7 0.661556 0.729777 0.637611
O O8 0.731674 0.760468 0.592213
O O9 0.451627 0.755266 0.380026
O O10 0.532016 0.000000 0.421986
O O11 0.825834 0.239838 0.242357
O O12 0.877643 0.000000 0.330776
O O13 0.282892 0.500000 0.577152
O O14 0.250000 0.250000 0.500000
O O15 0.693943 0.500000 0.832315
O O16 0.632967 0.264438 0.831637
O O17 0.772083 0.267557 0.914502
O O18 0.617218 0.253758 0.926308
O O19 0.689719 0.000000 0.996843
O O20 0.750000 0.250000 0.000000
O O21 0.420646 0.500000 0.156181
#
# Coordination Sequence:
#
# PCOD9172971 Si02
#       8
#     8   8   8   8   8   8   8   8
#     4  11  22  35  53  78 104 135 173 214 259 308
#     4  11  23  37  55  75 100 137 178 219 259 305
#     4  11  22  34  51  75 105 138 172 215 261 306
#     4  10  20  35  53  75 104 140 179 213 252 307
#     4  12  24  39  58  76  99 132 172 219 265 311
#     4   8  15  28  47  70 100 136 170 204 245 298
#     4   9  16  27  44  69 101 136 171 208 252 304
#     4  10  18  30  49  73 103 137 171 210 255 306
#
# _framework density 16.272428999999999
#
# number of rings (size 3 to 8) (size 9 to 14) (size 15 to 20)
#    0.000    1.750    2.500    4.125    0.000    3.500 
#    0.000    0.625    0.000    0.000    0.000    0.875 
#    0.000    7.000    0.000    0.000    0.000    0.000 
#
# Total GULP energy -178582.885207 kJ/mol
# GULP energy per Si atom -5580.715163 kJ/mol
# Density = 1.623539 g / cm^3
# Si number density = 16.272429 Si / 1000 Ang^3
#
#
#
# Elastic Constant Matrix: (Units=GPa)
#
#
# Indices 1 2 3 4 5 6 
#
# 1 105.1711 39.7771 70.7089 0.0000 7.0277 0.0000
# 2 39.7771 57.7436 42.9719 0.0000 5.7798 -0.0001
# 3 70.7089 42.9719 139.6936 0.0000 28.8625 0.0000
# 4 0.0000 0.0000 0.0000 24.5605 0.0000 4.2213
# 5 7.0277 5.7798 28.8625 0.0000 14.8306 0.0000
# 6 0.0000 -0.0001 0.0000 4.2213 0.0000 22.5754
#
#
#
# Elastic Compliance Matrix: (Units=1/GPa)
#
#
# Indices 1 2 3 4 5 6 
#
# 1 0.017405 -0.006161 -0.009545 0.000000 0.012729 0.000000
# 2 -0.006161 0.025200 -0.005365 0.000000 0.003539 0.000000
# 3 -0.009545 -0.005365 0.020528 0.000000 -0.033336 0.000000
# 4 0.000000 0.000000 0.000000 0.042068 0.000000 -0.007866
# 5 0.012729 0.003539 -0.033336 0.000000 0.124895 0.000000
# 6 0.000000 0.000000 0.000000 -0.007866 0.000000 0.045767
#
#
# Mechanical properties :
#
#
# Convention : Reuss Voigt Hill
#
# Bulk Modulus (GPa) = 47.63605 67.72490 57.68048
# Shear Modulus (GPa) = 15.38464 22.33665 18.86064
#
# Velocity S-wave (km/s) = 3.07814 3.70897 3.40818
# Velocity P-wave (km/s) = 6.47850 7.74931 7.14222
#
# Compressibility (1/GPa) = 0.02099250
#
# Stress axis : x y z
#
# Youngs Moduli (GPa) = 57.45527 39.68290 48.71449
#
# Poissons Ratio (x) = 0.24447 0.46496
# Poissons Ratio (y) = 0.35395 0.26134
# Poissons Ratio (z) = 0.54839 0.21289
#
# Static dielectric constant tensor:
#      x y z
#    x 1.535810 0.000000 0.000190 
#    y 0.000000 1.546880 0.000000 
#    z 0.000190 0.000000 1.569330 
# 
# From -- ./inp_files/324232.got.cif
#   From: 2010.05.17/outbox.cif.g08.bks.cpg/sg12_163_cif.got.tgz:324232.got - 2010.06.03 13:09:07.
