data_PCOD9172217
_publ_section_title
;
Structure prediction by ZEFSAII (Michael W. Deem and Ramdas Pophale) SiO2 
 PCOD9172217
Probable space group: C 2/M
;
_chemical_formula_sum "Si O2"
_cell_formula_units_Z 64
_cell_length_a 29.098027
_cell_length_b 13.046763
_cell_length_c 10.683259
_cell_angle_alpha 90.000000
_cell_angle_beta 120.089589
_cell_angle_gamma 90.000000
_cell_volume 3509.198489
_symmetry_space_group_name_H-M "C 2/M"
_symmetry_group_IT_number 12
_symmetry_cell_setting 'monoclinic'
loop_
_space_group_symop_operation_xyz
x,y,z
-x,y,-z
-x,-y,-z
x,-y,z
1/2+x,1/2+y,z
1/2-x,1/2+y,-z
1/2-x,1/2-y,-z
1/2+x,1/2-y,z
loop_
_atom_site_type_symbol
_atom_site_label
_atom_site_fract_x
_atom_site_fract_y
_atom_site_fract_z
Si Si1 0.024107 0.384517 0.787547
Si Si2 0.324110 0.830587 0.634678
Si Si3 0.713243 0.384591 0.370573
Si Si4 0.743445 0.118098 0.853027
Si Si5 0.868663 0.384632 0.962580
Si Si6 0.443080 0.270795 0.385929
Si Si7 0.587555 0.115969 0.436001
Si Si8 0.333307 0.724764 0.127601
O O1 0.031093 0.500000 0.746744
O O2 0.039628 0.305866 0.701020
O O3 0.961960 0.374409 0.728294
O O4 0.067396 0.372637 0.954451
O O5 0.325560 0.707410 0.647222
O O6 0.264548 0.868107 0.527900
O O7 0.344434 0.872717 0.793487
O O8 0.359155 0.867342 0.567105
O O9 0.692538 0.500000 0.355224
O O10 0.733077 0.370086 0.254622
O O11 0.697162 0.200541 0.816252
O O12 0.725692 0.000000 0.842228
O O13 0.790578 0.144195 0.015918
O O14 0.857090 0.500000 0.993561
O O15 0.847305 0.300221 0.030241
O O16 0.500000 0.324008 0.500000
O O17 0.423615 0.199876 0.473994
O O18 0.388245 0.320740 0.259076
O O19 0.586910 0.000000 0.487274
#
# Coordination Sequence:
#
# PCOD9172217 Si02
#       8
#     8   8   8   8   8   8   8   8
#     4   8  16  28  45  71 102 131 161 194 239 294
#     4  11  21  32  49  72  97 130 168 199 242 294
#     4  10  21  37  52  68  94 129 169 209 245 284
#     4  10  20  35  54  74  98 131 171 212 249 293
#     4  10  18  30  46  72 106 134 156 194 246 296
#     4   9  17  30  50  74 103 133 166 201 246 300
#     4  10  18  29  47  73 102 135 165 195 236 293
#     4  10  19  32  52  77 102 129 167 206 252 301
#
# _framework density 18.237784000000001
#
# number of rings (size 3 to 8) (size 9 to 14) (size 15 to 20)
#    0.000    2.250    1.250    2.625    0.000    4.500 
#    0.000    1.875    0.000    0.375    0.000    8.750 
#    0.000    0.000    0.000    0.000    0.000    0.000 
#
# Total GULP energy -178272.254018 kJ/mol
# GULP energy per Si atom -5571.007938 kJ/mol
# Density = 1.819627 g / cm^3
# Si number density = 18.237784 Si / 1000 Ang^3
#
#
#
# Elastic Constant Matrix: (Units=GPa)
#
#
# Indices 1 2 3 4 5 6 
#
# 1 33.6750 -7.8768 4.5350 0.0000 16.6100 0.0000
# 2 -7.8768 38.3478 -1.5301 0.0000 0.2856 0.0000
# 3 4.5350 -1.5301 69.3501 0.0000 14.8656 0.0000
# 4 0.0000 0.0000 0.0000 7.1446 0.0000 6.7010
# 5 16.6100 0.2856 14.8656 0.0000 26.1654 0.0000
# 6 0.0000 0.0000 0.0000 6.7010 0.0000 11.8920
#
#
#
# Elastic Compliance Matrix: (Units=1/GPa)
#
#
# Indices 1 2 3 4 5 6 
#
# 1 0.047657 0.010197 0.004119 0.000000 -0.032705 0.000000
# 2 0.010197 0.028293 0.001607 0.000000 -0.007695 0.000000
# 3 0.004119 0.001607 0.016795 0.000000 -0.012174 0.000000
# 4 0.000000 0.000000 0.000000 0.296850 0.000000 -0.167271
# 5 -0.032705 -0.007695 -0.012174 0.000000 0.065980 0.000000
# 6 0.000000 0.000000 0.000000 -0.167271 0.000000 0.178345
#
#
# Mechanical properties :
#
#
# Convention : Reuss Voigt Hill
#
# Bulk Modulus (GPa) = 8.02623 14.62545 11.32584
# Shear Modulus (GPa) = 7.76873 18.79006 13.27939
#
# Velocity S-wave (km/s) = 2.06614 3.21328 2.70131
# Velocity P-wave (km/s) = 3.17842 4.66944 3.99412
#
# Compressibility (1/GPa) = 0.12459147
#
# Stress axis : x y z
#
# Youngs Moduli (GPa) = 20.98308 35.34437 59.54030
#
# Poissons Ratio (x) = -0.36041 -0.24525
# Poissons Ratio (y) = -0.21396 -0.09567
# Poissons Ratio (z) = -0.08643 -0.05679
#
# Static dielectric constant tensor:
#      x y z
#    x 1.644720 0.000000 0.051720 
#    y 0.000000 1.635840 0.000000 
#    z 0.051720 0.000000 1.652760 
# 
# From -- ./inp_files/104698.got.cif
#   From: 2010.05.17/outbox.cif.g08.bks.cpg/sg12_53_cif.got.tgz:104698.got - 2010.06.03 13:09:07.
