data_PCOD9172650
_publ_section_title
;
Structure prediction by ZEFSAII (Michael W. Deem and Ramdas Pophale) SiO2 
 PCOD9172650
Probable space group: C 2/M
;
_chemical_formula_sum "Si O2"
_cell_formula_units_Z 64
_cell_length_a 29.309407
_cell_length_b 7.454746
_cell_length_c 15.279145
_cell_angle_alpha 90.000000
_cell_angle_beta 86.545153
_cell_angle_gamma 90.000000
_cell_volume 3332.337108
_symmetry_space_group_name_H-M "C 2/M"
_symmetry_group_IT_number 12
_symmetry_cell_setting 'monoclinic'
loop_
_space_group_symop_operation_xyz
x,y,z
-x,y,-z
-x,-y,-z
x,-y,z
1/2+x,1/2+y,z
1/2-x,1/2+y,-z
1/2-x,1/2-y,-z
1/2+x,1/2-y,z
loop_
_atom_site_type_symbol
_atom_site_label
_atom_site_fract_x
_atom_site_fract_y
_atom_site_fract_z
Si Si1 0.660406 0.287249 0.794362
Si Si2 0.396784 0.203514 0.659503
Si Si3 0.415546 0.717378 0.316362
Si Si4 0.730396 0.712249 0.621692
Si Si5 0.260972 0.714702 0.098971
Si Si6 0.806171 0.720750 0.740093
Si Si7 0.652096 0.283439 0.513827
Si Si8 0.502589 0.292558 0.401715
O O1 0.653814 0.500000 0.810484
O O2 0.612130 0.213865 0.765190
O O3 0.694926 0.270534 0.707500
O O4 0.689962 0.215272 0.871987
O O5 0.358528 0.281021 0.728931
O O6 0.369404 0.205349 0.570859
O O7 0.445783 0.289754 0.638373
O O8 0.406521 0.000000 0.684531
O O9 0.416675 0.500000 0.306183
O O10 0.383670 0.755269 0.404118
O O11 0.465787 0.782719 0.337275
O O12 0.736172 0.500000 0.607000
O O13 0.777242 0.783453 0.657948
O O14 0.701895 0.782132 0.541643
O O15 0.262327 0.500000 0.110017
O O16 0.221607 0.777270 0.170747
O O17 0.250000 0.750000 0.000000
O O18 0.806398 0.500000 0.737206
O O19 0.653832 0.500000 0.504724
O O20 0.500000 0.211748 0.500000
O O21 0.488328 0.500000 0.414567
#
# Coordination Sequence:
#
# PCOD9172650 Si02
#       8
#     8   8   8   8   8   8   8   8
#     4   7  11  21  41  67  86 105 137 173 208 254
#     4  11  21  29  39  58  88 120 150 180 215 259
#     4   8  13  24  43  62  81 108 145 185 219 251
#     4   7  11  22  42  60  77 108 150 181 202 244
#     4   9  16  29  50  72  92 112 137 169 210 262
#     4   8  16  30  43  60  88 120 145 170 210 264
#     4   9  15  26  43  61  79 108 151 190 217 244
#     4  10  18  30  46  62  81 110 153 198 228 248
#
# _framework density 19.205739000000001
#
# number of rings (size 3 to 8) (size 9 to 14) (size 15 to 20)
#    0.000    3.375    1.250    3.375    0.000    0.750 
#    0.000    1.250    0.000    8.250    0.000    0.875 
#    0.000    7.000    0.000    0.000    0.000    0.000 
#
# Total GULP energy -178243.815455 kJ/mol
# GULP energy per Si atom -5570.119233 kJ/mol
# Density = 1.916203 g / cm^3
# Si number density = 19.205739 Si / 1000 Ang^3
#
#
#
# Elastic Constant Matrix: (Units=GPa)
#
#
# Indices 1 2 3 4 5 6 
#
# 1 167.8957 4.9800 60.0809 0.0000 20.3638 0.0000
# 2 4.9800 53.4178 0.3734 0.0000 2.5300 0.0000
# 3 60.0809 0.3734 87.2531 0.0000 23.7206 0.0000
# 4 0.0000 0.0000 0.0000 11.6836 0.0000 3.8866
# 5 20.3638 2.5300 23.7206 0.0000 24.3671 0.0000
# 6 0.0000 0.0000 0.0000 3.8866 0.0000 -28.2409
#
#
#
# Elastic Compliance Matrix: (Units=1/GPa)
#
#
# Indices 1 2 3 4 5 6 
#
# 1 0.007981 -0.000628 -0.005028 0.000000 -0.001710 0.000000
# 2 -0.000628 0.018886 0.001009 0.000000 -0.002418 0.000000
# 3 -0.005028 0.001009 0.018773 0.000000 -0.014178 0.000000
# 4 0.000000 0.000000 0.000000 0.081844 0.000000 0.011263
# 5 -0.001710 -0.002418 -0.014178 0.000000 0.056521 0.000000
# 6 0.000000 0.000000 0.000000 0.011263 0.000000 -0.033860
#
#
# Mechanical properties :
#
#
# Convention : Reuss Voigt Hill
#
# Bulk Modulus (GPa) = 27.51272 48.82614 38.16943
# Shear Modulus (GPa) = 29.14495 17.77077 23.45786
#
# Velocity S-wave (km/s) = 3.89975 3.04515 3.49864
# Velocity P-wave (km/s) = 5.88505 6.15157 6.01978
#
# Compressibility (1/GPa) = 0.03634683
#
# Stress axis : x y z
#
# Youngs Moduli (GPa) = 125.29001 52.94817 53.26683
#
# Poissons Ratio (x) = 0.03325 0.26784
# Poissons Ratio (y) = 0.07868 -0.05375
# Poissons Ratio (z) = 0.63000 -0.05343
#
# Static dielectric constant tensor:
#      x y z
#    x 1.725300 0.000000 0.020580 
#    y 0.000000 1.684630 0.000000 
#    z 0.020580 0.000000 1.666100 
# 
# From -- ./inp_files/248243.got.cif
#   From: 2010.05.17/outbox.cif.g08.bks.cpg/sg12_125_cif.got.tgz:248243.got - 2010.06.03 13:09:07.
