data_PCOD9172792
_publ_section_title
;
Structure prediction by ZEFSAII (Michael W. Deem and Ramdas Pophale) SiO2 
 PCOD9172792
Probable space group: C 2/M
;
_chemical_formula_sum "Si O2"
_cell_formula_units_Z 64
_cell_length_a 25.916396
_cell_length_b 7.687550
_cell_length_c 24.951637
_cell_angle_alpha 90.000000
_cell_angle_beta 133.770532
_cell_angle_gamma 90.000000
_cell_volume 3589.786658
_symmetry_space_group_name_H-M "C 2/M"
_symmetry_group_IT_number 12
_symmetry_cell_setting 'monoclinic'
loop_
_space_group_symop_operation_xyz
x,y,z
-x,y,-z
-x,-y,-z
x,-y,z
1/2+x,1/2+y,z
1/2-x,1/2+y,-z
1/2-x,1/2-y,-z
1/2+x,1/2-y,z
loop_
_atom_site_type_symbol
_atom_site_label
_atom_site_fract_x
_atom_site_fract_y
_atom_site_fract_z
Si Si1 0.475840 0.787663 0.090275
Si Si2 0.157425 0.713351 0.076504
Si Si3 0.724991 0.295007 0.922034
Si Si4 0.795426 0.713399 0.659370
Si Si5 0.861841 0.287345 0.816943
Si Si6 0.917903 0.293612 0.664312
Si Si7 0.062623 0.709162 0.817351
Si Si8 0.187905 0.206103 0.498317
O O1 0.556417 0.732757 0.135529
O O2 0.450990 0.729702 0.131437
O O3 0.476342 0.000000 0.091204
O O4 0.417606 0.734623 0.004528
O O5 0.157882 0.500000 0.077185
O O6 0.221310 0.777647 0.084245
O O7 0.161862 0.769703 0.141210
O O8 0.731943 0.500000 0.922803
O O9 0.642034 0.251456 0.855656
O O10 0.750000 0.250000 0.000000
O O11 0.795554 0.500000 0.658721
O O12 0.812606 0.768670 0.731905
O O13 0.860645 0.771814 0.667382
O O14 0.721416 0.771266 0.578317
O O15 0.861878 0.500000 0.816711
O O16 0.920206 0.500000 0.674497
O O17 0.884779 0.267481 0.581676
O O18 0.996985 0.225964 0.733657
O O19 0.059089 0.500000 0.816593
O O20 0.250000 0.250000 0.500000
O O21 0.182117 0.000000 0.498132
#
# Coordination Sequence:
#
# PCOD9172792 Si02
#       8
#     8   8   8   8   8   8   8   8
#     4   9  14  23  40  63  90 115 142 178 220 262
#     4   9  17  26  39  63  90 114 148 188 223 257
#     4  11  21  33  47  65  89 118 153 190 225 263
#     4   8  13  22  37  60  89 118 141 169 219 267
#     4   9  14  22  39  64  92 117 142 181 225 264
#     4   9  16  27  43  64  90 117 146 181 221 266
#     4  10  18  30  48  68  91 118 149 186 225 268
#     4   9  16  25  39  61  91 122 149 177 213 265
#
# _framework density 17.828355999999999
#
# number of rings (size 3 to 8) (size 9 to 14) (size 15 to 20)
#    0.000    2.750    2.500    1.875    0.000    2.000 
#    0.000    0.000    0.000    0.000    0.000   12.250 
#    0.000    7.000    0.000    0.000    0.000    0.000 
#
# Total GULP energy -178322.911860 kJ/mol
# GULP energy per Si atom -5572.590996 kJ/mol
# Density = 1.778778 g / cm^3
# Si number density = 17.828356 Si / 1000 Ang^3
#
#
#
# Elastic Constant Matrix: (Units=GPa)
#
#
# Indices 1 2 3 4 5 6 
#
# 1 84.0458 -1.5566 67.3307 0.0000 -15.0039 0.0002
# 2 -1.5566 26.4078 0.6749 -0.0001 -1.0630 0.0019
# 3 67.3307 0.6749 187.9364 0.0000 -9.5606 0.0000
# 4 0.0000 -0.0001 0.0000 15.6020 0.0000 3.7101
# 5 -15.0039 -1.0630 -9.5606 0.0000 19.3173 0.0000
# 6 0.0002 0.0019 0.0000 3.7101 0.0000 11.5008
#
#
#
# Elastic Compliance Matrix: (Units=1/GPa)
#
#
# Indices 1 2 3 4 5 6 
#
# 1 0.019019 0.001755 -0.006220 0.000000 0.011790 -0.000001
# 2 0.001755 0.038114 -0.000605 0.000002 0.003161 -0.000007
# 3 -0.006220 -0.000605 0.007493 0.000000 -0.001156 0.000000
# 4 0.000000 0.000002 0.000000 0.069419 0.000000 -0.022394
# 5 0.011790 0.003161 -0.001156 0.000000 0.060526 -0.000001
# 6 -0.000001 -0.000007 0.000000 -0.022394 -0.000001 0.094175
#
#
# Mechanical properties :
#
#
# Convention : Reuss Voigt Hill
#
# Bulk Modulus (GPa) = 18.35380 47.92088 33.13734
# Shear Modulus (GPa) = 15.77050 24.74676 20.25863
#
# Velocity S-wave (km/s) = 2.97741 3.72970 3.37458
# Velocity P-wave (km/s) = 4.70500 6.74425 5.81472
#
# Compressibility (1/GPa) = 0.05448462
#
# Stress axis : x y z
#
# Youngs Moduli (GPa) = 52.57994 26.23724 133.46190
#
# Poissons Ratio (x) = -0.04604 0.83016
# Poissons Ratio (y) = -0.09226 0.08070
# Poissons Ratio (z) = 0.32706 0.01587
#
# Static dielectric constant tensor:
#      x y z
#    x 1.587200 0.000000 -0.000600 
#    y 0.000000 1.689150 0.000000 
#    z -0.000600 0.000000 1.637190 
# 
# From -- ./inp_files/348607.got.cif
#   From: 2010.05.17/outbox.cif.g08.bks.cpg/sg12_175_cif.got.tgz:348607.got - 2010.06.03 13:09:07.
