data_PCOD9172913
_publ_section_title
;
Structure prediction by ZEFSAII (Michael W. Deem and Ramdas Pophale) SiO2 
 PCOD9172913
Probable space group: C 2/M
;
_chemical_formula_sum "Si O2"
_cell_formula_units_Z 48
_cell_length_a 22.369163
_cell_length_b 16.905397
_cell_length_c 22.692570
_cell_angle_alpha 90.000000
_cell_angle_beta 159.489346
_cell_angle_gamma 90.000000
_cell_volume 3006.768679
_symmetry_space_group_name_H-M "C 2/M"
_symmetry_group_IT_number 12
_symmetry_cell_setting 'monoclinic'
loop_
_space_group_symop_operation_xyz
x,y,z
-x,y,-z
-x,-y,-z
x,-y,z
1/2+x,1/2+y,z
1/2-x,1/2+y,-z
1/2-x,1/2-y,-z
1/2+x,1/2-y,z
loop_
_atom_site_type_symbol
_atom_site_label
_atom_site_fract_x
_atom_site_fract_y
_atom_site_fract_z
Si Si1 0.725494 0.678191 0.354249
Si Si2 0.716571 0.180917 0.420675
Si Si3 0.309802 0.409474 0.799107
Si Si4 0.488283 0.594360 0.742151
Si Si5 0.577095 0.092763 0.696772
Si Si6 0.359773 0.093817 0.113275
O O1 0.722494 0.771409 0.365005
O O2 0.702710 0.649935 0.266620
O O3 0.588040 0.635723 0.269860
O O4 0.908583 0.644661 0.542880
O O5 0.750000 0.250000 0.500000
O O6 0.867202 0.120171 0.576215
O O7 0.531727 0.141115 0.257403
O O8 0.270083 0.500000 0.742428
O O9 0.185048 0.390209 0.738106
O O10 0.500000 0.409658 0.000000
O O11 0.481106 0.500000 0.743357
O O12 0.687128 0.617671 0.920107
O O13 0.674817 0.104258 0.848591
O O14 0.528845 0.000000 0.650174
O O15 0.389912 0.000000 0.131420
#
# Coordination Sequence:
#
# PCOD9172913 Si02
#       6
#     8   8   8   8   8   8
#     4  11  20  31  46  71 101 135 164 200 252 288
#     4  10  20  32  46  71 103 135 163 200 251 297
#     4  10  20  33  48  70  97 133 176 203 230 283
#     4  10  19  32  51  70  97 133 169 206 242 290
#     4  10  18  30  49  69  96 133 170 202 232 282
#     4  10  19  33  52  74  98 133 172 204 241 289
#
# _framework density 15.963982
#
# number of rings (size 3 to 8) (size 9 to 14) (size 15 to 20)
#    0.000    1.833    3.333    3.500    0.000    6.667 
#    3.000    0.000    0.000    0.000    0.000    0.000 
#    0.000   13.333    0.000    0.000    0.000    0.000 
#
# Total GULP energy -133793.741623 kJ/mol
# GULP energy per Si atom -5574.739234 kJ/mol
# Density = 1.592765 g / cm^3
# Si number density = 15.963982 Si / 1000 Ang^3
#
#
#
# Elastic Constant Matrix: (Units=GPa)
#
#
# Indices 1 2 3 4 5 6 
#
# 1 70.2686 38.7074 36.8714 -0.0239 2.9153 0.0006
# 2 38.7074 51.9258 44.5072 -0.1524 8.4397 -0.0222
# 3 36.8714 44.5072 115.1936 -0.0090 19.0152 -0.0117
# 4 -0.0239 -0.1524 -0.0090 -58.5903 -0.0187 -7.2173
# 5 2.9153 8.4397 19.0152 -0.0187 21.8639 0.0019
# 6 0.0006 -0.0222 -0.0117 -7.2173 0.0019 30.7475
#
#
#
# Elastic Compliance Matrix: (Units=1/GPa)
#
#
# Indices 1 2 3 4 5 6 
#
# 1 0.024748 -0.017595 -0.001985 0.000035 0.005218 -0.000006
# 2 -0.017595 0.041356 -0.009457 -0.000098 -0.005393 0.000004
# 3 -0.001985 -0.009457 0.014390 0.000025 -0.008600 0.000005
# 4 0.000035 -0.000098 0.000025 -0.016588 -0.000003 -0.003894
# 5 0.005218 -0.005393 -0.008600 -0.000003 0.054603 -0.000011
# 6 -0.000006 0.000004 0.000005 -0.003894 -0.000011 0.031609
#
#
# Mechanical properties :
#
#
# Convention : Reuss Voigt Hill
#
# Bulk Modulus (GPa) = 44.60035 53.06221 48.83128
# Shear Modulus (GPa) = 23.18414 6.62437 14.90426
#
# Velocity S-wave (km/s) = 3.81501 2.03926 3.05883
# Velocity P-wave (km/s) = 6.88509 6.23343 6.56735
#
# Compressibility (1/GPa) = 0.02242135
#
# Stress axis : x y z
#
# Youngs Moduli (GPa) = 40.40679 24.18018 69.49483
#
# Poissons Ratio (x) = 0.42546 0.13792
# Poissons Ratio (y) = 0.71097 0.65718
# Poissons Ratio (z) = 0.08019 0.22866
#
# Static dielectric constant tensor:
#      x y z
#    x 1.533750 0.000000 -0.011370 
#    y 0.000000 1.545920 0.000000 
#    z -0.011370 0.000000 1.569830 
# 
# From -- ./inp_files/86802.got.cif
#   From: 2010.05.17/outbox.cif.g08.bks.cpg/sg12_44_cif.got.tgz:86802.got - 2010.06.03 13:09:07.
