data_PCOD9172396
_publ_section_title
;
Structure prediction by ZEFSAII (Michael W. Deem and Ramdas Pophale) SiO2 
 PCOD9172396
Probable space group: C 2/M
;
_chemical_formula_sum "Si O2"
_cell_formula_units_Z 48
_cell_length_a 18.937924
_cell_length_b 8.590771
_cell_length_c 25.152183
_cell_angle_alpha 90.000000
_cell_angle_beta 139.234445
_cell_angle_gamma 90.000000
_cell_volume 2671.962525
_symmetry_space_group_name_H-M "C 2/M"
_symmetry_group_IT_number 12
_symmetry_cell_setting 'monoclinic'
loop_
_space_group_symop_operation_xyz
x,y,z
-x,y,-z
-x,-y,-z
x,-y,z
1/2+x,1/2+y,z
1/2-x,1/2+y,-z
1/2-x,1/2-y,-z
1/2+x,1/2-y,z
loop_
_atom_site_type_symbol
_atom_site_label
_atom_site_fract_x
_atom_site_fract_y
_atom_site_fract_z
Si Si1 0.013714 0.684203 0.674627
Si Si2 0.293889 0.687633 0.080249
Si Si3 0.543993 0.687056 0.582467
Si Si4 0.296842 0.187741 0.744556
Si Si5 0.747141 0.813138 0.166697
Si Si6 0.460268 0.314410 0.750995
O O1 0.029175 0.500000 0.685103
O O2 0.983345 0.736405 0.597936
O O3 0.128116 0.770033 0.750704
O O4 0.940195 0.737037 0.682032
O O5 0.289844 0.500000 0.076799
O O6 0.227850 0.741698 0.095345
O O7 0.419148 0.733292 0.160852
O O8 0.250000 0.750000 0.000000
O O9 0.500000 0.735295 0.500000
O O10 0.533500 0.500000 0.581146
O O11 0.671695 0.724346 0.659793
O O12 0.316372 0.240843 0.816981
O O13 0.375383 0.263545 0.746853
O O14 0.308720 0.000000 0.749077
O O15 0.738179 0.000000 0.161150
O O16 0.460221 0.500000 0.744375
#
# Coordination Sequence:
#
# PCOD9172396 Si02
#       6
#     8   8   8   8   8   8
#     4  10  18  29  49  74  97 125 165 204 236 282
#     4   9  18  32  50  71  95 126 162 200 242 288
#     4   9  18  34  54  74 100 132 161 195 243 292
#     4   9  17  31  52  75  96 123 163 203 238 283
#     4   8  16  32  50  69  97 130 162 196 239 292
#     4  10  20  34  50  70  99 131 162 198 244 292
#
# _framework density 17.964323
#
# number of rings (size 3 to 8) (size 9 to 14) (size 15 to 20)
#    0.000    2.833    0.000    4.000    0.000    6.333 
#    0.000    1.667    0.000    5.000    0.000    0.000 
#    0.000    0.000    0.000    0.000    0.000    0.000 
#
# Total GULP energy -133650.776890 kJ/mol
# GULP energy per Si atom -5568.782370 kJ/mol
# Density = 1.792344 g / cm^3
# Si number density = 17.964323 Si / 1000 Ang^3
#
#
#
# Elastic Constant Matrix: (Units=GPa)
#
#
# Indices 1 2 3 4 5 6 
#
# 1 147.4516 18.5638 55.1995 0.0000 -46.1253 0.0000
# 2 18.5638 -34.4672 14.6730 0.0000 -1.8824 0.0000
# 3 55.1995 14.6730 89.2160 0.0000 -43.6140 0.0000
# 4 0.0000 0.0000 0.0000 20.4352 0.0000 -7.2814
# 5 -46.1253 -1.8824 -43.6140 0.0000 35.8361 0.0000
# 6 0.0000 0.0000 0.0000 -7.2814 0.0000 31.4978
#
#
#
# Elastic Compliance Matrix: (Units=1/GPa)
#
#
# Indices 1 2 3 4 5 6 
#
# 1 0.010522 0.004463 -0.001257 0.000000 0.012248 0.000000
# 2 0.004463 -0.023874 0.008296 0.000000 0.014587 0.000000
# 3 -0.001257 0.008296 0.024798 0.000000 0.028998 0.000000
# 4 0.000000 0.000000 0.000000 0.053328 0.000000 0.012328
# 5 0.012248 0.014587 0.028998 0.000000 0.079727 0.000000
# 6 0.000000 0.000000 0.000000 0.012328 0.000000 0.034598
#
#
# Mechanical properties :
#
#
# Convention : Reuss Voigt Hill
#
# Bulk Modulus (GPa) = 29.02680 42.11924 35.57302
# Shear Modulus (GPa) = 29.83705 25.13810 27.48758
#
# Velocity S-wave (km/s) = 4.07984 3.74483 3.91592
# Velocity P-wave (km/s) = 6.19569 6.49579 6.34751
#
# Compressibility (1/GPa) = 0.03445092
#
# Stress axis : x y z
#
# Youngs Moduli (GPa) = 95.04161 -41.88624 40.32616
#
# Poissons Ratio (x) = 0.18694 0.05067
# Poissons Ratio (y) = -0.42418 -0.33455
# Poissons Ratio (z) = 0.11942 0.34750
#
# Static dielectric constant tensor:
#      x y z
#    x 1.644290 0.000000 -0.034370 
#    y 0.000000 1.610850 0.000000 
#    z -0.034370 0.000000 1.629680 
# 
# From -- ./inp_files/221512.got.cif
#   From: 2010.05.17/outbox.cif.g08.bks.cpg/sg12_111_cif.got.tgz:221512.got - 2010.06.03 13:09:07.
