data_PCOD9172212
_publ_section_title
;
Structure prediction by ZEFSAII (Michael W. Deem and Ramdas Pophale) SiO2 
 PCOD9172212
Probable space group: C 2/M
;
_chemical_formula_sum "Si O2"
_cell_formula_units_Z 44
_cell_length_a 9.505528
_cell_length_b 16.209950
_cell_length_c 25.042561
_cell_angle_alpha 90.000000
_cell_angle_beta 146.457224
_cell_angle_gamma 90.000000
_cell_volume 2132.139564
_symmetry_space_group_name_H-M "C 2/M"
_symmetry_group_IT_number 12
_symmetry_cell_setting 'monoclinic'
loop_
_space_group_symop_operation_xyz
x,y,z
-x,y,-z
-x,-y,-z
x,-y,z
1/2+x,1/2+y,z
1/2-x,1/2+y,-z
1/2-x,1/2-y,-z
1/2+x,1/2-y,z
loop_
_atom_site_type_symbol
_atom_site_label
_atom_site_fract_x
_atom_site_fract_y
_atom_site_fract_z
Si Si1 0.711174 0.500000 0.929058
Si Si2 0.341896 0.500000 0.209152
Si Si3 0.309984 0.238629 0.395386
Si Si4 0.497205 0.151304 0.637850
Si Si5 0.015447 0.833945 0.863331
Si Si6 0.075784 0.500000 0.585158
Si Si7 0.756703 0.820297 0.179073
O O1 0.582142 0.500000 0.829584
O O2 0.632670 0.413297 0.930369
O O3 0.000000 0.500000 0.000000
O O4 0.617999 0.500000 0.322217
O O5 0.196693 0.415024 0.174445
O O6 0.500000 0.200933 0.500000
O O7 0.451424 0.231825 0.383497
O O8 0.232831 0.326755 0.395858
O O9 0.032197 0.198499 0.294479
O O10 0.743230 0.138719 0.752526
O O11 0.483678 0.078148 0.591028
O O12 0.947897 0.748743 0.870880
O O13 0.192605 0.816918 0.868189
O O14 0.000000 0.500000 0.500000
#
# Coordination Sequence:
#
# PCOD9172212 Si02
#       7
#     4   4   8   8   8   4   8
#     4  10  18  34  61  83 104 140 175 213 266 324
#     4  10  18  36  49  75 108 137 179 223 252 322
#     4  10  18  29  47  72  99 135 181 221 259 306
#     4  10  19  32  50  70 101 137 176 224 263 308
#     4   9  17  34  52  80 106 137 177 216 265 321
#     4  12  20  32  51  74  98 144 186 215 259 314
#     4   9  18  31  54  72 106 144 175 218 269 305
#
# _framework density 20.636548000000001
#
# number of rings (size 3 to 8) (size 9 to 14) (size 15 to 20)
#    0.000    2.182    5.455    1.091    0.000    0.000 
#    0.000    5.000    0.000   12.000    0.000    5.727 
#    0.000    0.000    0.000    0.000    0.000    0.000 
#
# Total GULP energy -122487.610663 kJ/mol
# GULP energy per Si atom -5567.618667 kJ/mol
# Density = 2.058958 g / cm^3
# Si number density = 20.636548 Si / 1000 Ang^3
#
#
#
# Elastic Constant Matrix: (Units=GPa)
#
#
# Indices 1 2 3 4 5 6 
#
# 1 38.8922 55.1086 7.1945 0.0001 4.6746 0.0000
# 2 55.1086 178.7322 15.2416 0.0001 15.8780 0.0000
# 3 7.1945 15.2416 48.9023 0.0006 12.3881 0.0001
# 4 0.0001 0.0001 0.0006 4.0888 0.0001 1.4001
# 5 4.6746 15.8780 12.3881 0.0001 17.0593 -0.0001
# 6 0.0000 0.0000 0.0001 1.4001 -0.0001 35.3273
#
#
#
# Elastic Compliance Matrix: (Units=1/GPa)
#
#
# Indices 1 2 3 4 5 6 
#
# 1 0.046039 -0.014184 -0.003065 0.000000 0.002812 0.000000
# 2 -0.014184 0.010482 0.000376 0.000000 -0.006142 0.000000
# 3 -0.003065 0.000376 0.025316 -0.000003 -0.017893 0.000000
# 4 0.000000 0.000000 -0.000003 0.247938 0.000000 -0.009826
# 5 0.002812 -0.006142 -0.017893 0.000000 0.076559 0.000000
# 6 0.000000 0.000000 0.000000 -0.009826 0.000000 0.028696
#
#
# Mechanical properties :
#
#
# Convention : Reuss Voigt Hill
#
# Bulk Modulus (GPa) = 20.79398 46.84624 33.82011
# Shear Modulus (GPa) = 10.31343 23.89388 17.10366
#
# Velocity S-wave (km/s) = 2.23797 3.40640 2.88202
# Velocity P-wave (km/s) = 4.09587 6.18234 5.24392
#
# Compressibility (1/GPa) = 0.04809084
#
# Stress axis : x y z
#
# Youngs Moduli (GPa) = 21.72089 95.40350 39.50143
#
# Poissons Ratio (x) = 1.35316 0.12106
# Poissons Ratio (y) = 0.30808 -0.01484
# Poissons Ratio (z) = 0.06657 -0.03585
#
# Static dielectric constant tensor:
#      x y z
#    x 1.693940 0.000000 -0.006500 
#    y 0.000000 1.842240 0.000000 
#    z -0.006500 0.000000 1.838190 
# 
# From -- ./inp_files/256891.got.cif
#   From: 2010.05.17/outbox.cif.g08.bks.cpg/sg12_129_cif.got.tgz:256891.got - 2010.06.03 13:09:07.
