data_PCOD9172519
_publ_section_title
;
Structure prediction by ZEFSAII (Michael W. Deem and Ramdas Pophale) SiO2 
 PCOD9172519
Probable space group: C 2/M
;
_chemical_formula_sum "Si O2"
_cell_formula_units_Z 56
_cell_length_a 28.894206
_cell_length_b 13.726739
_cell_length_c 9.187748
_cell_angle_alpha 90.000000
_cell_angle_beta 48.522256
_cell_angle_gamma 90.000000
_cell_volume 2730.187983
_symmetry_space_group_name_H-M "C 2/M"
_symmetry_group_IT_number 12
_symmetry_cell_setting 'monoclinic'
loop_
_space_group_symop_operation_xyz
x,y,z
-x,y,-z
-x,-y,-z
x,-y,z
1/2+x,1/2+y,z
1/2-x,1/2+y,-z
1/2-x,1/2-y,-z
1/2+x,1/2-y,z
loop_
_atom_site_type_symbol
_atom_site_label
_atom_site_fract_x
_atom_site_fract_y
_atom_site_fract_z
Si Si1 0.722635 0.800271 0.249101
Si Si2 0.029130 0.610485 0.743074
Si Si3 0.891584 0.385928 0.693885
Si Si4 0.590500 0.782122 0.037961
Si Si5 0.692795 0.613636 0.164698
Si Si6 0.657927 0.114580 0.653042
Si Si7 0.064324 0.114103 0.295930
O O1 0.665447 0.835311 0.267425
O O2 0.720774 0.683791 0.230397
O O3 0.708971 0.841886 0.436835
O O4 0.780277 0.847094 0.045236
O O5 0.004856 0.500000 0.810525
O O6 0.049710 0.625996 0.533518
O O7 0.092948 0.616387 0.698727
O O8 0.974745 0.683640 0.893326
O O9 0.878163 0.500000 0.729160
O O10 0.901115 0.343576 0.832076
O O11 0.583088 0.673418 0.113132
O O12 0.644693 0.815033 0.816836
O O13 0.708030 0.500000 0.152080
O O14 0.619049 0.624129 0.300575
O O15 0.669461 0.000000 0.664576
O O16 0.000000 0.149169 0.500000
O O17 0.058094 0.000000 0.275374
#
# Coordination Sequence:
#
# PCOD9172519 Si02
#       7
#     8   8   8   8   8   8   8
#     4  10  20  37  60  86 111 148 188 227 290 341
#     4   9  18  31  48  74 111 153 188 222 274 337
#     4  10  18  29  50  81 111 139 185 237 275 325
#     4  12  20  31  52  80 112 151 187 231 284 333
#     4  10  20  38  64  85 108 146 196 244 283 333
#     4  10  21  35  52  82 122 156 182 221 286 359
#     4  10  22  39  59  84 111 147 198 247 288 327
#
# _framework density 20.511407999999999
#
# number of rings (size 3 to 8) (size 9 to 14) (size 15 to 20)
#    0.000    1.857    1.429    5.143    2.000    2.286 
#    0.000    1.429    0.000    1.714    0.000    0.000 
#    0.000    0.000    0.000    0.000    0.000    0.000 
#
# Total GULP energy -156396.390797 kJ/mol
# GULP energy per Si atom -5585.585386 kJ/mol
# Density = 2.046472 g / cm^3
# Si number density = 20.511408 Si / 1000 Ang^3
#
#
#
# Elastic Constant Matrix: (Units=GPa)
#
#
# Indices 1 2 3 4 5 6 
#
# 1 23.6425 9.4630 8.4383 0.0000 -3.7616 0.0000
# 2 9.4630 127.4999 43.4844 0.0000 0.5374 0.0000
# 3 8.4383 43.4844 117.0055 0.0000 10.8829 0.0000
# 4 0.0000 0.0000 0.0000 1.1912 0.0000 -33.9435
# 5 -3.7616 0.5374 10.8829 0.0000 31.3526 0.0000
# 6 0.0000 0.0000 0.0000 -33.9435 0.0000 -29.2388
#
#
#
# Elastic Compliance Matrix: (Units=1/GPa)
#
#
# Indices 1 2 3 4 5 6 
#
# 1 0.045353 -0.002372 -0.002996 0.000000 0.006522 0.000000
# 2 -0.002372 0.009138 -0.003290 0.000000 0.000701 0.000000
# 3 -0.002996 -0.003290 0.010348 0.000000 -0.003895 0.000000
# 4 0.000000 0.000000 0.000000 0.024633 0.000000 -0.028596
# 5 0.006522 0.000701 -0.003895 0.000000 0.034018 0.000000
# 6 0.000000 0.000000 0.000000 -0.028596 0.000000 -0.001004
#
#
# Mechanical properties :
#
#
# Convention : Reuss Voigt Hill
#
# Bulk Modulus (GPa) = 21.04244 43.43548 32.23896
# Shear Modulus (GPa) = 32.12472 14.44515 23.28493
#
# Velocity S-wave (km/s) = 3.96180 2.65665 3.37296
# Velocity P-wave (km/s) = 5.58650 5.53467 5.56065
#
# Compressibility (1/GPa) = 0.04752300
#
# Stress axis : x y z
#
# Youngs Moduli (GPa) = 22.04923 109.42810 96.63901
#
# Poissons Ratio (x) = 0.25954 0.28952
# Poissons Ratio (y) = 0.05230 0.31798
# Poissons Ratio (z) = 0.06606 0.36006
#
# Static dielectric constant tensor:
#      x y z
#    x 1.765530 0.000000 -0.021190 
#    y 0.000000 1.750780 0.000000 
#    z -0.021190 0.000000 1.763650 
# 
# From -- ./inp_files/111549.got.cif
#   From: 2010.05.17/outbox.cif.g08.bks.cpg/sg12_56_cif.got.tgz:111549.got - 2010.06.03 13:09:07.
