data_PCOD9172560
_publ_section_title
;
Structure prediction by ZEFSAII (Michael W. Deem and Ramdas Pophale) SiO2 
 PCOD9172560
Probable space group: C 2/M
;
_chemical_formula_sum "Si O2"
_cell_formula_units_Z 56
_cell_length_a 20.070821
_cell_length_b 7.985856
_cell_length_c 31.285807
_cell_angle_alpha 90.000000
_cell_angle_beta 149.076344
_cell_angle_gamma 90.000000
_cell_volume 2576.966506
_symmetry_space_group_name_H-M "C 2/M"
_symmetry_group_IT_number 12
_symmetry_cell_setting 'monoclinic'
loop_
_space_group_symop_operation_xyz
x,y,z
-x,y,-z
-x,-y,-z
x,-y,z
1/2+x,1/2+y,z
1/2-x,1/2+y,-z
1/2-x,1/2-y,-z
1/2+x,1/2-y,z
loop_
_atom_site_type_symbol
_atom_site_label
_atom_site_fract_x
_atom_site_fract_y
_atom_site_fract_z
Si Si1 0.881371 0.194443 0.616272
Si Si2 0.502039 0.296764 0.595924
Si Si3 0.114859 0.296942 0.246672
Si Si4 0.143304 0.306903 0.084674
Si Si5 0.216156 0.806950 0.216556
Si Si6 0.586791 0.804190 0.792962
Si Si7 0.678321 0.306634 0.572760
O O1 0.783402 0.297648 0.591869
O O2 0.907283 0.256611 0.582637
O O3 0.019076 0.206653 0.716721
O O4 0.840877 0.000000 0.593361
O O5 0.499781 0.500000 0.593849
O O6 0.644496 0.241631 0.687360
O O7 0.449045 0.236130 0.520806
O O8 0.123305 0.500000 0.248614
O O9 0.117598 0.223876 0.201111
O O10 0.241324 0.234947 0.343229
O O11 0.989724 0.254380 0.206262
O O12 0.138552 0.500000 0.068388
O O13 0.180674 0.295548 0.155082
O O14 0.260521 0.223124 0.123518
O O15 0.000000 0.232674 0.000000
O O16 0.219472 0.000000 0.205409
O O17 0.559248 0.000000 0.770585
O O18 0.651628 0.500000 0.568992
#
# Coordination Sequence:
#
# PCOD9172560 Si02
#       7
#     8   8   8   8   8   8   8
#     4  10  18  29  51  81 116 157 197 244 295 346
#     4  10  20  34  53  79 116 159 202 247 299 347
#     4   9  20  39  60  83 120 163 201 242 290 344
#     4  11  24  43  68  95 121 149 185 235 296 358
#     4  12  25  39  60  88 119 157 199 245 293 349
#     4  10  20  37  63  91 119 156 197 239 289 349
#     4   9  19  34  53  79 113 159 207 250 292 340
#
# _framework density 21.730978
#
# number of rings (size 3 to 8) (size 9 to 14) (size 15 to 20)
#    0.000    1.857    1.429    3.857    0.000    5.714 
#    0.000    3.571    0.000    0.000    0.000    0.000 
#    0.000    0.000    0.000    0.000    0.000    0.000 
#
# Total GULP energy -156456.047315 kJ/mol
# GULP energy per Si atom -5587.715976 kJ/mol
# Density = 2.168152 g / cm^3
# Si number density = 21.730978 Si / 1000 Ang^3
#
#
#
# Elastic Constant Matrix: (Units=GPa)
#
#
# Indices 1 2 3 4 5 6 
#
# 1 91.7243 -1.9653 22.4929 -0.0001 2.9239 0.0000
# 2 -1.9653 37.1504 -4.4021 0.0000 4.1666 -0.0002
# 3 22.4929 -4.4021 80.4358 0.0000 27.6155 0.0000
# 4 -0.0001 0.0000 0.0000 15.1514 0.0000 8.6943
# 5 2.9239 4.1666 27.6155 0.0000 24.0664 0.0000
# 6 0.0000 -0.0002 0.0000 8.6943 0.0000 22.2786
#
#
#
# Elastic Compliance Matrix: (Units=1/GPa)
#
#
# Indices 1 2 3 4 5 6 
#
# 1 0.011931 -0.000390 -0.004757 0.000000 0.004077 0.000000
# 2 -0.000390 0.028832 0.005584 0.000000 -0.011352 0.000000
# 3 -0.004757 0.005584 0.023433 0.000000 -0.027278 0.000000
# 4 0.000000 0.000000 0.000000 0.085046 0.000000 -0.033190
# 5 0.004077 -0.011352 -0.027278 0.000000 0.074322 0.000000
# 6 0.000000 0.000000 0.000000 -0.033190 0.000000 0.057839
#
#
# Mechanical properties :
#
#
# Convention : Reuss Voigt Hill
#
# Bulk Modulus (GPa) = 15.36793 26.84017 21.10405
# Shear Modulus (GPa) = 16.54434 25.17828 20.86131
#
# Velocity S-wave (km/s) = 2.76221 3.40757 3.10172
# Velocity P-wave (km/s) = 4.15455 5.27825 4.74975
#
# Compressibility (1/GPa) = 0.06507058
#
# Stress axis : x y z
#
# Youngs Moduli (GPa) = 83.81876 34.68380 42.67423
#
# Poissons Ratio (x) = 0.01352 0.20301
# Poissons Ratio (y) = 0.03267 -0.23831
# Poissons Ratio (z) = 0.39874 -0.19369
#
# Static dielectric constant tensor:
#      x y z
#    x 1.816960 0.000000 0.034640 
#    y 0.000000 1.790860 0.000000 
#    z 0.034640 0.000000 1.809590 
# 
# From -- ./inp_files/380737.got.cif
#   From: 2010.05.17/outbox.cif.g08.bks.cpg/sg12_191_cif.got.tgz:380737.got - 2010.06.03 13:09:07.
