data_PCOD9172677
_publ_section_title
;
Structure prediction by ZEFSAII (Michael W. Deem and Ramdas Pophale) SiO2 
 PCOD9172677
Probable space group: C 2/M
;
_chemical_formula_sum "Si O2"
_cell_formula_units_Z 56
_cell_length_a 19.416012
_cell_length_b 22.642729
_cell_length_c 7.413006
_cell_angle_alpha 90.000000
_cell_angle_beta 92.086208
_cell_angle_gamma 90.000000
_cell_volume 3256.830826
_symmetry_space_group_name_H-M "C 2/M"
_symmetry_group_IT_number 12
_symmetry_cell_setting 'monoclinic'
loop_
_space_group_symop_operation_xyz
x,y,z
-x,y,-z
-x,-y,-z
x,-y,z
1/2+x,1/2+y,z
1/2-x,1/2+y,-z
1/2-x,1/2-y,-z
1/2+x,1/2-y,z
loop_
_atom_site_type_symbol
_atom_site_label
_atom_site_fract_x
_atom_site_fract_y
_atom_site_fract_z
Si Si1 0.147320 0.774943 0.934787
Si Si2 0.213081 0.342694 0.057159
Si Si3 0.033639 0.168541 0.679090
Si Si4 0.761666 0.930981 0.746098
Si Si5 0.897442 0.877537 0.849082
Si Si6 0.280681 0.933645 0.661824
Si Si7 0.619905 0.566318 0.754410
O O1 0.218055 0.806453 0.873546
O O2 0.082198 0.788573 0.800599
O O3 0.162624 0.707298 0.976307
O O4 0.132166 0.811965 0.114788
O O5 0.185278 0.381859 0.219285
O O6 0.233649 0.388296 0.900011
O O7 0.083308 0.114626 0.627406
O O8 0.000000 0.196931 0.500000
O O9 0.972965 0.135763 0.783592
O O10 0.842059 0.913803 0.728774
O O11 0.723403 0.922848 0.552262
O O12 0.757141 0.000000 0.797832
O O13 0.894950 0.911119 0.042768
O O14 0.201351 0.933897 0.725570
O O15 0.308104 0.000000 0.695816
O O16 0.593864 0.500000 0.727649
#
# Coordination Sequence:
#
# PCOD9172677 Si02
#       7
#     8   8   8   8   8   8   8
#     4   9  19  34  48  69  91 132 177 206 245 291
#     4  10  18  34  52  67 101 131 167 212 247 292
#     4  11  21  33  47  67 100 131 172 214 243 285
#     4  10  19  31  50  77 104 132 166 202 249 297
#     4  10  19  31  50  66  96 139 165 208 248 279
#     4  10  18  30  49  73 101 127 160 205 248 297
#     4  10  18  30  46  65  95 133 173 205 240 284
#
# _framework density 17.194628000000002
#
# number of rings (size 3 to 8) (size 9 to 14) (size 15 to 20)
#    0.000    2.000    4.286    3.429    0.000    2.000 
#    2.571    2.143    0.000    0.000    0.000    0.000 
#    0.000   11.429    0.000    0.000    0.000    0.000 
#
# Total GULP energy -155959.788955 kJ/mol
# GULP energy per Si atom -5569.992463 kJ/mol
# Density = 1.715549 g / cm^3
# Si number density = 17.194628 Si / 1000 Ang^3
#
#
#
# Elastic Constant Matrix: (Units=GPa)
#
#
# Indices 1 2 3 4 5 6 
#
# 1 19.1181 24.7605 3.0883 0.0000 9.3566 0.0000
# 2 24.7605 131.0696 46.1013 0.0000 22.2711 0.0000
# 3 3.0883 46.1013 64.9483 0.0000 14.6815 0.0000
# 4 0.0000 0.0000 0.0000 19.8531 0.0000 10.0458
# 5 9.3566 22.2711 14.6815 0.0000 18.7286 0.0000
# 6 0.0000 0.0000 0.0000 10.0458 0.0000 17.3481
#
#
#
# Elastic Compliance Matrix: (Units=1/GPa)
#
#
# Indices 1 2 3 4 5 6 
#
# 1 0.088736 -0.015821 0.015531 0.000000 -0.037693 0.000000
# 2 -0.015821 0.014027 -0.008776 0.000000 -0.001897 0.000000
# 3 0.015531 -0.008776 0.024651 0.000000 -0.016647 0.000000
# 4 0.000000 0.000000 0.000000 0.071246 0.000000 -0.041257
# 5 -0.037693 -0.001897 -0.016647 0.000000 0.087531 0.000000
# 6 0.000000 0.000000 0.000000 -0.041257 0.000000 0.081534
#
#
# Mechanical properties :
#
#
# Convention : Reuss Voigt Hill
#
# Bulk Modulus (GPa) = 9.15064 40.33734 24.74399
# Shear Modulus (GPa) = 11.84039 20.59836 16.21937
#
# Velocity S-wave (km/s) = 2.62698 3.46490 3.07462
# Velocity P-wave (km/s) = 3.81245 6.28630 5.19867
#
# Compressibility (1/GPa) = 0.10928203
#
# Stress axis : x y z
#
# Youngs Moduli (GPa) = 11.26944 71.28906 40.56690
#
# Poissons Ratio (x) = 1.12788 -0.63005
# Poissons Ratio (y) = 0.17830 0.35600
# Poissons Ratio (z) = -0.17503 0.62561
#
# Static dielectric constant tensor:
#      x y z
#    x 1.606620 0.000000 0.003500 
#    y 0.000000 1.598830 0.000000 
#    z 0.003500 0.000000 1.653770 
# 
# From -- ./inp_files/88813.got.cif
#   From: 2010.05.17/outbox.cif.g08.bks.cpg/sg12_45_cif.got.tgz:88813.got - 2010.06.03 13:09:07.
