data_PCOD9172240
_publ_section_title
;
Structure prediction by ZEFSAII (Michael W. Deem and Ramdas Pophale) SiO2 
 PCOD9172240
Probable space group: C 2/M
;
_chemical_formula_sum "Si O2"
_cell_formula_units_Z 64
_cell_length_a 26.957561
_cell_length_b 14.183904
_cell_length_c 8.053136
_cell_angle_alpha 90.000000
_cell_angle_beta 76.687428
_cell_angle_gamma 90.000000
_cell_volume 2996.481134
_symmetry_space_group_name_H-M "C 2/M"
_symmetry_group_IT_number 12
_symmetry_cell_setting 'monoclinic'
loop_
_space_group_symop_operation_xyz
x,y,z
-x,y,-z
-x,-y,-z
x,-y,z
1/2+x,1/2+y,z
1/2-x,1/2+y,-z
1/2-x,1/2-y,-z
1/2+x,1/2-y,z
loop_
_atom_site_type_symbol
_atom_site_label
_atom_site_fract_x
_atom_site_fract_y
_atom_site_fract_z
Si Si1 0.534850 0.700838 0.303630
Si Si2 0.788481 0.269500 0.320748
Si Si3 0.609770 0.393244 0.469148
Si Si4 0.111610 0.609315 0.689551
Si Si5 0.211214 0.892130 0.203769
Si Si6 0.849152 0.110551 0.092897
Si Si7 0.062411 0.209219 0.818986
Si Si8 0.557294 0.101696 0.380252
O O1 0.500000 0.703699 0.500000
O O2 0.577279 0.626961 0.327362
O O3 0.495789 0.685893 0.183158
O O4 0.559809 0.804331 0.270098
O O5 0.750000 0.250000 0.500000
O O6 0.833204 0.343022 0.333036
O O7 0.755522 0.317937 0.200156
O O8 0.814521 0.173246 0.241122
O O9 0.599337 0.500000 0.529903
O O10 0.668668 0.381988 0.380024
O O11 0.591668 0.324921 0.627948
O O12 0.110488 0.500000 0.743095
O O13 0.072433 0.678704 0.816261
O O14 0.094229 0.611210 0.510148
O O15 0.230699 0.000000 0.193162
O O16 0.179162 0.880338 0.060620
O O17 0.905692 0.155830 0.063926
O O18 0.851635 0.000000 0.133562
O O19 0.500000 0.098692 0.500000
O O20 0.566612 0.000000 0.291023
#
# Coordination Sequence:
#
# PCOD9172240 Si02
#       8
#     8   8   8   8   8   8   8   8
#     4   9  16  27  45  73 107 134 170 215 267 318
#     4  11  23  36  57  82 107 135 175 229 273 318
#     4  10  19  31  50  74 103 139 177 219 264 311
#     4  10  18  29  47  76 106 133 165 210 264 316
#     4  10  21  39  57  75 104 144 181 219 267 321
#     4  10  22  38  56  76 106 144 179 215 266 325
#     4  10  18  31  50  80 106 137 172 222 264 316
#     4   9  14  24  44  70 107 135 156 202 263 319
#
# _framework density 21.358385999999999
#
# number of rings (size 3 to 8) (size 9 to 14) (size 15 to 20)
#    0.000    2.125    3.750    2.625    0.000    4.750 
#    0.000    0.625    0.000    2.250    0.000    0.000 
#    0.000    5.000    0.000    0.000    0.000    0.000 
#
# Total GULP energy -178629.327556 kJ/mol
# GULP energy per Si atom -5582.166486 kJ/mol
# Density = 2.130977 g / cm^3
# Si number density = 21.358386 Si / 1000 Ang^3
#
#
#
# Elastic Constant Matrix: (Units=GPa)
#
#
# Indices 1 2 3 4 5 6 
#
# 1 127.1882 54.1915 20.3119 0.0000 28.0365 0.0000
# 2 54.1915 126.5885 22.8918 0.0000 10.8030 0.0000
# 3 20.3119 22.8918 52.4852 0.0000 17.5022 0.0000
# 4 0.0000 0.0000 0.0000 14.9508 0.0000 10.0334
# 5 28.0365 10.8030 17.5022 0.0000 35.6794 0.0000
# 6 0.0000 0.0000 0.0000 10.0334 0.0000 49.7300
#
#
#
# Elastic Compliance Matrix: (Units=1/GPa)
#
#
# Indices 1 2 3 4 5 6 
#
# 1 0.011335 -0.004199 -0.000011 0.000000 -0.007630 0.000000
# 2 -0.004199 0.010157 -0.003443 0.000000 0.001913 0.000000
# 3 -0.000011 -0.003443 0.024161 0.000000 -0.010801 0.000000
# 4 0.000000 0.000000 0.000000 0.077361 0.000000 -0.015608
# 5 -0.007630 0.001913 -0.010801 0.000000 0.038742 0.000000
# 6 0.000000 0.000000 0.000000 -0.015608 0.000000 0.023258
#
#
# Mechanical properties :
#
#
# Convention : Reuss Voigt Hill
#
# Bulk Modulus (GPa) = 32.95250 55.67248 44.31249
# Shear Modulus (GPa) = 23.76038 33.99648 28.87843
#
# Velocity S-wave (km/s) = 3.33898 3.99396 3.68106
# Velocity P-wave (km/s) = 5.50698 6.88414 6.23371
#
# Compressibility (1/GPa) = 0.03034671
#
# Stress axis : x y z
#
# Youngs Moduli (GPa) = 88.21951 98.45762 41.38986
#
# Poissons Ratio (x) = 0.41347 0.00044
# Poissons Ratio (y) = 0.37047 0.14250
# Poissons Ratio (z) = 0.00094 0.33897
#
# Static dielectric constant tensor:
#      x y z
#    x 1.777500 0.000000 0.011910 
#    y 0.000000 1.778590 0.000000 
#    z 0.011910 0.000000 1.841570 
# 
# From -- ./inp_files/104569.got.cif
#   From: 2010.05.17/outbox.cif.g08.bks.cpg/sg12_53_cif.got.tgz:104569.got - 2010.06.03 13:09:07.
