data_PCOD9172163
_publ_section_title
;
Structure prediction by ZEFSAII (Michael W. Deem and Ramdas Pophale) SiO2 
 PCOD9172163
Probable space group: C 2/M
;
_chemical_formula_sum "Si O2"
_cell_formula_units_Z 48
_cell_length_a 27.575657
_cell_length_b 7.907260
_cell_length_c 12.481044
_cell_angle_alpha 90.000000
_cell_angle_beta 106.953982
_cell_angle_gamma 90.000000
_cell_volume 2603.188436
_symmetry_space_group_name_H-M "C 2/M"
_symmetry_group_IT_number 12
_symmetry_cell_setting 'monoclinic'
loop_
_space_group_symop_operation_xyz
x,y,z
-x,y,-z
-x,-y,-z
x,-y,z
1/2+x,1/2+y,z
1/2-x,1/2+y,-z
1/2-x,1/2-y,-z
1/2+x,1/2-y,z
loop_
_atom_site_type_symbol
_atom_site_label
_atom_site_fract_x
_atom_site_fract_y
_atom_site_fract_z
Si Si1 0.827743 0.694973 0.781472
Si Si2 0.862548 0.707328 0.585792
Si Si3 0.143851 0.804016 0.748955
Si Si4 0.722748 0.194333 0.628939
Si Si5 0.442096 0.795225 0.457583
Si Si6 0.192508 0.702716 0.995570
O O1 0.843393 0.500000 0.805514
O O2 0.862226 0.767987 0.708054
O O3 0.771407 0.701450 0.694890
O O4 0.822616 0.771261 0.896607
O O5 0.861860 0.500000 0.585905
O O6 0.810549 0.759119 0.492119
O O7 0.908860 0.759460 0.539421
O O8 0.183277 0.699091 0.702332
O O9 0.088508 0.764672 0.666685
O O10 0.154667 0.763588 0.878905
O O11 0.155483 0.000000 0.737140
O O12 0.737871 0.000000 0.619927
O O13 0.500000 0.737368 0.500000
O O14 0.441864 0.000000 0.456458
O O15 0.191354 0.500000 0.999390
O O16 0.250000 0.750000 0.000000
#
# Coordination Sequence:
#
# PCOD9172163 Si02
#       6
#     8   8   8   8   8   8
#     4  10  19  30  46  68  99 135 167 200 243 296
#     4   8  16  30  47  72 100 126 159 201 250 303
#     4  11  21  33  50  73 102 134 171 210 247 293
#     4  10  18  29  47  69  99 133 166 204 244 294
#     4   9  18  35  59  81 100 124 158 207 262 307
#     4  11  21  32  48  70 101 139 176 209 242 289
#
# _framework density 18.438927
#
# number of rings (size 3 to 8) (size 9 to 14) (size 15 to 20)
#    0.000    2.167    1.667    4.000    0.000    1.000 
#    0.000    3.333    0.000    1.000    0.000    7.000 
#    0.000    0.000    0.000    0.000    0.000    0.000 
#
# Total GULP energy -133875.385016 kJ/mol
# GULP energy per Si atom -5578.141042 kJ/mol
# Density = 1.839696 g / cm^3
# Si number density = 18.438927 Si / 1000 Ang^3
#
#
#
# Elastic Constant Matrix: (Units=GPa)
#
#
# Indices 1 2 3 4 5 6 
#
# 1 84.3248 3.3986 73.2739 0.0000 3.6888 0.0000
# 2 3.3986 43.4424 5.7215 0.0000 0.0932 0.0000
# 3 73.2739 5.7215 170.0397 0.0000 -22.6915 0.0000
# 4 0.0000 0.0000 0.0000 15.9138 0.0000 4.3823
# 5 3.6888 0.0932 -22.6915 0.0000 23.2283 0.0000
# 6 0.0000 0.0000 0.0000 4.3823 0.0000 10.9129
#
#
#
# Elastic Compliance Matrix: (Units=1/GPa)
#
#
# Indices 1 2 3 4 5 6 
#
# 1 0.022848 -0.000191 -0.011871 0.000000 -0.015224 0.000000
# 2 -0.000191 0.023143 -0.000810 0.000000 -0.000854 0.000000
# 3 -0.011871 -0.000810 0.012966 0.000000 0.014555 0.000000
# 4 0.000000 0.000000 0.000000 0.070651 0.000000 -0.028372
# 5 -0.015224 -0.000854 0.014555 0.000000 0.059690 0.000000
# 6 0.000000 0.000000 0.000000 -0.028372 0.000000 0.103028
#
#
# Mechanical properties :
#
#
# Convention : Reuss Voigt Hill
#
# Bulk Modulus (GPa) = 30.11006 51.39942 40.75474
# Shear Modulus (GPa) = 15.19108 24.37187 19.78148
#
# Velocity S-wave (km/s) = 2.87341 3.63955 3.27893
# Velocity P-wave (km/s) = 5.23199 6.75261 6.04034
#
# Compressibility (1/GPa) = 0.03321150
#
# Stress axis : x y z
#
# Youngs Moduli (GPa) = 43.76815 43.21052 77.12538
#
# Poissons Ratio (x) = 0.00827 0.91554
# Poissons Ratio (y) = 0.00838 0.06249
# Poissons Ratio (z) = 0.51956 0.03501
#
# Static dielectric constant tensor:
#      x y z
#    x 1.629590 0.000000 -0.044420 
#    y 0.000000 1.669020 0.000000 
#    z -0.044420 0.000000 1.674590 
# 
# From -- ./inp_files/185723.got.cif
#   From: 2010.05.17/outbox.cif.g08.bks.cpg/sg12_93_cif.got.tgz:185723.got - 2010.06.03 13:09:07.
