data_PCOD9172728
_publ_section_title
;
Structure prediction by ZEFSAII (Michael W. Deem and Ramdas Pophale) SiO2 
 PCOD9172728
Probable space group: C 2/M
;
_chemical_formula_sum "Si O2"
_cell_formula_units_Z 64
_cell_length_a 29.460208
_cell_length_b 8.897091
_cell_length_c 15.910812
_cell_angle_alpha 90.000000
_cell_angle_beta 90.001460
_cell_angle_gamma 90.000000
_cell_volume 4170.385342
_symmetry_space_group_name_H-M "C 2/M"
_symmetry_group_IT_number 12
_symmetry_cell_setting 'monoclinic'
loop_
_space_group_symop_operation_xyz
x,y,z
-x,y,-z
-x,-y,-z
x,-y,z
1/2+x,1/2+y,z
1/2-x,1/2+y,-z
1/2-x,1/2-y,-z
1/2+x,1/2-y,z
loop_
_atom_site_type_symbol
_atom_site_label
_atom_site_fract_x
_atom_site_fract_y
_atom_site_fract_z
Si Si1 0.702153 0.680728 0.401767
Si Si2 0.944952 0.172769 0.999991
Si Si3 0.553375 0.179819 0.176071
Si Si4 0.606046 0.682049 0.667776
Si Si5 0.202155 0.180728 0.598233
Si Si6 0.946614 0.679819 0.176054
Si Si7 0.552014 0.317154 0.500009
Si Si8 0.106041 0.817951 0.332241
O O1 0.705207 0.500000 0.399221
O O2 0.749999 0.749999 0.374864
O O3 0.694512 0.722825 0.500000
O O4 0.658345 0.725934 0.348010
O O5 0.931603 0.255408 0.914191
O O6 0.929755 0.000000 0.999987
O O7 0.931597 0.255402 0.085789
O O8 0.000000 0.173576 0.000000
O O9 0.499994 0.220767 0.188667
O O10 0.583081 0.247615 0.250783
O O11 0.556279 0.000000 0.175180
O O12 0.604038 0.500000 0.673459
O O13 0.658349 0.725932 0.651991
O O14 0.583096 0.752388 0.749240
O O15 0.578112 0.728228 0.584405
O O16 0.205209 0.000000 0.600779
O O17 0.943709 0.500000 0.175158
O O18 0.500000 0.265659 0.500000
O O19 0.551882 0.500000 0.500010
O O20 0.578115 0.271774 0.415619
O O21 0.104033 0.000000 0.326559
#
# Coordination Sequence:
#
# PCOD9172728 Si02
#       8
#     8   8   8   8   8   8   8   8
#     4   9  17  30  47  67  91 119 156 202 245 282
#     4   9  17  31  51  71  90 119 160 199 233 273
#     4  10  20  32  46  68  99 129 156 192 238 283
#     4  10  18  30  47  68  92 123 164 201 232 275
#     4   9  17  30  47  67  91 119 156 202 245 282
#     4  10  20  32  46  68  99 129 156 192 238 283
#     4   9  16  26  42  63  89 123 161 197 228 261
#     4  10  18  30  47  68  92 123 164 201 232 275
#
# _framework density 15.346304
#
# number of rings (size 3 to 8) (size 9 to 14) (size 15 to 20)
#    0.000    2.500    1.250    1.875    0.000    5.000 
#    0.000    0.625    0.000    2.250    0.000    0.875 
#    0.000    0.000    0.000    0.000    0.000    0.000 
#
# Total GULP energy -178407.065210 kJ/mol
# GULP energy per Si atom -5575.220788 kJ/mol
# Density = 1.531138 g / cm^3
# Si number density = 15.346304 Si / 1000 Ang^3
#
#
#
# Elastic Constant Matrix: (Units=GPa)
#
#
# Indices 1 2 3 4 5 6 
#
# 1 126.7047 41.2160 82.5577 0.0000 -0.0285 0.0000
# 2 41.2160 33.9064 44.6128 0.0000 -0.0118 0.0000
# 3 82.5577 44.6128 147.3853 0.0000 -0.0358 0.0000
# 4 0.0000 0.0000 0.0000 16.2616 0.0000 0.0006
# 5 -0.0285 -0.0118 -0.0358 0.0000 7.8095 0.0000
# 6 0.0000 0.0000 0.0000 0.0006 0.0000 22.6004
#
#
#
# Elastic Compliance Matrix: (Units=1/GPa)
#
#
# Indices 1 2 3 4 5 6 
#
# 1 0.014803 -0.011773 -0.004728 0.000000 0.000015 0.000000
# 2 -0.011773 0.058377 -0.011076 0.000000 -0.000006 0.000000
# 3 -0.004728 -0.011076 0.012786 0.000000 0.000025 0.000000
# 4 0.000000 0.000000 0.000000 0.061494 0.000000 -0.000002
# 5 0.000015 -0.000006 0.000025 0.000000 0.128050 0.000000
# 6 0.000000 0.000000 0.000000 -0.000002 0.000000 0.044247
#
#
# Mechanical properties :
#
#
# Convention : Reuss Voigt Hill
#
# Bulk Modulus (GPa) = 32.45479 71.64103 52.04791
# Shear Modulus (GPa) = 12.98090 18.64163 15.81126
#
# Velocity S-wave (km/s) = 2.91153 3.48908 3.21331
# Velocity P-wave (km/s) = 5.70060 7.93825 6.91060
#
# Compressibility (1/GPa) = 0.03081209
#
# Stress axis : x y z
#
# Youngs Moduli (GPa) = 67.55528 17.13002 78.21021
#
# Poissons Ratio (x) = 0.20167 0.36979
# Poissons Ratio (y) = 0.79531 0.86625
# Poissons Ratio (z) = 0.31941 0.18973
#
# Static dielectric constant tensor:
#      x y z
#    x 1.501440 0.000000 0.000000 
#    y 0.000000 1.516490 0.000000 
#    z 0.000000 0.000000 1.487540 
# 
# From -- ./inp_files/248361.got.cif
#   From: 2010.05.17/outbox.cif.g08.bks.cpg/sg12_125_cif.got.tgz:248361.got - 2010.06.03 13:09:07.
