data_PCOD9172940
_publ_section_title
;
Structure prediction by ZEFSAII (Michael W. Deem and Ramdas Pophale) SiO2 
 PCOD9172940
Probable space group: C 2/M
;
_chemical_formula_sum "Si O2"
_cell_formula_units_Z 36
_cell_length_a 25.051617
_cell_length_b 7.584400
_cell_length_c 12.323617
_cell_angle_alpha 90.000000
_cell_angle_beta 144.476413
_cell_angle_gamma 90.000000
_cell_volume 1360.503810
_symmetry_space_group_name_H-M "C 2/M"
_symmetry_group_IT_number 12
_symmetry_cell_setting 'monoclinic'
loop_
_space_group_symop_operation_xyz
x,y,z
-x,y,-z
-x,-y,-z
x,-y,z
1/2+x,1/2+y,z
1/2-x,1/2+y,-z
1/2-x,1/2-y,-z
1/2+x,1/2-y,z
loop_
_atom_site_type_symbol
_atom_site_label
_atom_site_fract_x
_atom_site_fract_y
_atom_site_fract_z
Si Si1 0.208427 0.715979 0.077245
Si Si2 0.496577 0.213879 0.235071
Si Si3 0.289106 0.189538 0.678257
Si Si4 0.094125 0.210101 0.607608
Si Si5 0.000000 0.249833 0.000000
O O1 0.208522 0.500000 0.074624
O O2 0.219287 0.782974 0.220290
O O3 0.305854 0.776716 0.187751
O O4 0.102858 0.765253 0.877403
O O5 0.576915 0.257784 0.451360
O O6 0.507646 0.311339 0.138568
O O7 0.496233 0.000000 0.214156
O O8 0.250000 0.250000 0.500000
O O9 0.246014 0.000000 0.626100
O O10 0.398209 0.173463 0.842165
O O11 0.000000 0.288812 0.500000
O O12 0.094038 0.000000 0.626887
#
# Coordination Sequence:
#
# PCOD9172940 Si02
#       5
#     8   8   8   8   4
#     4   8  17  33  50  70  99 134 165 200 253 304
#     4  10  19  34  56  78 102 133 171 209 248 302
#     4  10  18  30  49  72 100 132 166 202 245 299
#     4  10  21  37  54  73 102 138 172 209 256 302
#     4  10  19  34  55  78 105 138 167 200 255 312
#
# _framework density 26.460787
#
# number of rings (size 3 to 8) (size 9 to 14) (size 15 to 20)
#    0.000    2.444    0.000    4.667    0.000    1.333 
#    0.000    6.667    0.000    0.000    0.000    0.000 
#    0.000    0.000    0.000    0.000    0.000    0.000 
#
# Total GULP energy -100228.634554 kJ/mol
# GULP energy per Si atom -5568.257475 kJ/mol
# Density = 2.640056 g / cm^3
# Si number density = 26.460787 Si / 1000 Ang^3
#
#
#
# Elastic Constant Matrix: (Units=GPa)
#
#
# Indices 1 2 3 4 5 6 
#
# 1 98.4861 0.9783 27.5280 0.0000 34.3864 0.0000
# 2 0.9783 82.5433 -0.7847 0.0000 3.4183 0.0000
# 3 27.5280 -0.7847 200.0065 0.0000 18.9298 0.0000
# 4 0.0000 0.0000 0.0000 8.5756 0.0000 -19.7952
# 5 34.3864 3.4183 18.9298 0.0000 63.5226 0.0000
# 6 0.0000 0.0000 0.0000 -19.7952 0.0000 26.2211
#
#
#
# Elastic Compliance Matrix: (Units=1/GPa)
#
#
# Indices 1 2 3 4 5 6 
#
# 1 0.012767 0.000110 -0.001134 0.000000 -0.006579 0.000000
# 2 0.000110 0.012145 0.000103 0.000000 -0.000744 0.000000
# 3 -0.001134 0.000103 0.005247 0.000000 -0.000955 0.000000
# 4 0.000000 0.000000 0.000000 -0.157025 0.000000 -0.118543
# 5 -0.006579 -0.000744 -0.000955 0.000000 0.019628 0.000000
# 6 0.000000 0.000000 0.000000 -0.118543 0.000000 -0.051355
#
#
# Mechanical properties :
#
#
# Convention : Reuss Voigt Hill
#
# Bulk Modulus (GPa) = 35.31443 48.49768 41.90606
# Shear Modulus (GPa) = -33.94161 43.21816 4.63828
#
# Velocity S-wave (km/s) = -3.58538 4.04578 1.32540
# Velocity P-wave (km/s) = 1.94037 6.33975 4.26775
#
# Compressibility (1/GPa) = 0.02831704
#
# Stress axis : x y z
#
# Youngs Moduli (GPa) = 78.32931 82.33620 190.59486
#
# Poissons Ratio (x) = -0.00909 0.21614
# Poissons Ratio (y) = -0.00864 -0.01961
# Poissons Ratio (z) = 0.08883 -0.00847
#
# Static dielectric constant tensor:
#      x y z
#    x 2.177920 0.000000 -0.039140 
#    y 0.000000 2.052760 0.000000 
#    z -0.039140 0.000000 2.027750 
# 
# From -- ./inp_files/139517.got.cif
#   From: 2010.05.17/outbox.cif.g08.bks.cpg/sg12_70_cif.got.tgz:139517.got - 2010.06.03 13:09:07.
