data_PCOD9172998
_publ_section_title
;
Structure prediction by ZEFSAII (Michael W. Deem and Ramdas Pophale) SiO2 
 PCOD9172998
Probable space group: C 2/M
;
_chemical_formula_sum "Si O2"
_cell_formula_units_Z 48
_cell_length_a 13.465985
_cell_length_b 15.006942
_cell_length_c 28.976682
_cell_angle_alpha 90.000000
_cell_angle_beta 153.327208
_cell_angle_gamma 90.000000
_cell_volume 2628.593780
_symmetry_space_group_name_H-M "C 2/M"
_symmetry_group_IT_number 12
_symmetry_cell_setting 'monoclinic'
loop_
_space_group_symop_operation_xyz
x,y,z
-x,y,-z
-x,-y,-z
x,-y,z
1/2+x,1/2+y,z
1/2-x,1/2+y,-z
1/2-x,1/2-y,-z
1/2+x,1/2-y,z
loop_
_atom_site_type_symbol
_atom_site_label
_atom_site_fract_x
_atom_site_fract_y
_atom_site_fract_z
Si Si1 0.294260 0.713646 0.196422
Si Si2 0.544308 0.783436 0.384036
Si Si3 0.888726 0.743097 0.744334
Si Si4 0.381976 0.836710 0.070849
Si Si5 0.264113 0.899354 0.614331
Si Si6 0.555452 0.597925 0.077164
O O1 0.459705 0.714810 0.309003
O O2 0.430394 0.696455 0.206556
O O3 0.195948 0.815841 0.151574
O O4 0.085081 0.650921 0.120051
O O5 0.750000 0.750000 0.500000
O O6 0.327191 0.793080 0.325875
O O7 0.624885 0.867465 0.387427
O O8 0.822209 0.670644 0.678312
O O9 0.003030 0.690018 0.833341
O O10 0.250000 0.750000 0.000000
O O11 0.181940 0.903367 0.996012
O O12 0.000000 0.896256 0.500000
O O13 0.327265 0.000000 0.652434
O O14 0.660499 0.500000 0.126656
O O15 0.500000 0.610782 0.000000
#
# Coordination Sequence:
#
# PCOD9172998 Si02
#       6
#     8   8   8   8   8   8
#     4   9  19  30  49  74 101 135 178 216 252 308
#     4  10  19  33  51  74 106 141 178 219 265 320
#     4  10  18  32  51  76 106 143 176 219 262 314
#     4   9  18  31  47  73 104 137 175 211 254 308
#     4  10  20  33  52  80 109 136 172 222 273 314
#     4  10  18  30  49  74 105 136 162 205 266 314
#
# _framework density 18.260715000000001
#
# number of rings (size 3 to 8) (size 9 to 14) (size 15 to 20)
#    0.000    2.333    3.333    0.000    0.000    3.333 
#    0.000    0.000    0.000    1.000    0.000   22.167 
#    0.000    0.000    0.000    0.000    0.000    0.000 
#
# Total GULP energy -133609.924991 kJ/mol
# GULP energy per Si atom -5567.080208 kJ/mol
# Density = 1.821915 g / cm^3
# Si number density = 18.260715 Si / 1000 Ang^3
#
#
#
# Elastic Constant Matrix: (Units=GPa)
#
#
# Indices 1 2 3 4 5 6 
#
# 1 132.3214 22.9521 28.8008 0.0001 34.5055 0.0001
# 2 22.9521 40.1065 15.3084 0.0002 -1.3162 0.0000
# 3 28.8008 15.3084 89.2639 0.0007 13.0726 0.0001
# 4 0.0001 0.0002 0.0007 9.3914 -0.0001 7.2394
# 5 34.5055 -1.3162 13.0726 -0.0001 43.6425 0.0001
# 6 0.0001 0.0000 0.0001 7.2394 0.0001 2.2901
#
#
#
# Elastic Compliance Matrix: (Units=1/GPa)
#
#
# Indices 1 2 3 4 5 6 
#
# 1 0.011156 -0.006180 -0.001277 0.000000 -0.008625 0.000000
# 2 -0.006180 0.030321 -0.004242 0.000000 0.007071 0.000000
# 3 -0.001277 -0.004242 0.012773 0.000001 -0.002945 -0.000002
# 4 0.000000 0.000000 0.000001 -0.074113 -0.000001 0.234278
# 5 -0.008625 0.007071 -0.002945 -0.000001 0.030828 0.000002
# 6 0.000000 0.000000 -0.000002 0.234278 0.000002 -0.303922
#
#
# Mechanical properties :
#
#
# Convention : Reuss Voigt Hill
#
# Bulk Modulus (GPa) = 32.41048 43.97937 38.19493
# Shear Modulus (GPa) = -19.28457 24.04018 2.37780
#
# Velocity S-wave (km/s) = -3.25325 3.63229 1.14235
# Velocity P-wave (km/s) = 1.91724 6.45971 4.76464
#
# Compressibility (1/GPa) = 0.03085422
#
# Stress axis : x y z
#
# Youngs Moduli (GPa) = 89.63563 32.97991 78.28846
#
# Poissons Ratio (x) = 0.20383 0.09994
# Poissons Ratio (y) = 0.55397 0.33206
# Poissons Ratio (z) = 0.11443 0.13989
#
# Static dielectric constant tensor:
#      x y z
#    x 1.680050 0.000000 0.041830 
#    y 0.000000 1.578400 0.000000 
#    z 0.041830 0.000000 1.656900 
# 
# From -- ./inp_files/358635.got.cif
#   From: 2010.05.17/outbox.cif.g08.bks.cpg/sg12_180_cif.got.tgz:358635.got - 2010.06.03 13:09:07.
