data_PCOD9172450
_publ_section_title
;
Structure prediction by ZEFSAII (Michael W. Deem and Ramdas Pophale) SiO2 
 PCOD9172450
Probable space group: C 2/M
;
_chemical_formula_sum "Si O2"
_cell_formula_units_Z 56
_cell_length_a 15.242403
_cell_length_b 18.238087
_cell_length_c 10.680917
_cell_angle_alpha 90.000000
_cell_angle_beta 93.680294
_cell_angle_gamma 90.000000
_cell_volume 2963.089138
_symmetry_space_group_name_H-M "C 2/M"
_symmetry_group_IT_number 12
_symmetry_cell_setting 'monoclinic'
loop_
_space_group_symop_operation_xyz
x,y,z
-x,y,-z
-x,-y,-z
x,-y,z
1/2+x,1/2+y,z
1/2-x,1/2+y,-z
1/2-x,1/2-y,-z
1/2+x,1/2-y,z
loop_
_atom_site_type_symbol
_atom_site_label
_atom_site_fract_x
_atom_site_fract_y
_atom_site_fract_z
Si Si1 0.161709 0.261247 0.325258
Si Si2 0.765428 0.413312 0.663263
Si Si3 0.203388 0.288205 0.877808
Si Si4 0.025656 0.231968 0.761495
Si Si5 0.754420 0.584704 0.954458
Si Si6 0.904637 0.840823 0.460388
Si Si7 0.053096 0.080988 0.877634
O O1 0.184852 0.341034 0.385906
O O2 0.239139 0.234523 0.238486
O O3 0.141950 0.197666 0.425294
O O4 0.068847 0.268924 0.244155
O O5 0.782122 0.500000 0.633704
O O6 0.786048 0.404116 0.813982
O O7 0.664074 0.393620 0.617642
O O8 0.102595 0.264880 0.852542
O O9 0.250000 0.250000 0.000000
O O10 0.207397 0.371163 0.925940
O O11 0.067155 0.226590 0.627187
O O12 0.013388 0.146581 0.795166
O O13 0.763824 0.500000 0.982940
O O14 0.651355 0.601364 0.927277
O O15 0.000000 0.875960 0.500000
O O16 0.054456 0.000000 0.818125
O O17 0.000000 0.076324 0.000000
#
# Coordination Sequence:
#
# PCOD9172450 Si02
#       7
#     8   8   8   8   8   8   8
#     4  11  23  38  62  86 119 152 199 252 286 356
#     4  11  21  39  62  84 116 159 194 238 300 354
#     4  12  20  36  58  87 116 155 199 235 300 351
#     4  11  22  35  59  88 114 157 200 244 291 354
#     4  10  20  35  54  80 118 154 189 239 294 352
#     4  10  21  39  61  90 114 150 198 252 298 345
#     4  10  18  29  49  79 116 150 183 232 297 351
#
# _framework density 18.899196
#
# number of rings (size 3 to 8) (size 9 to 14) (size 15 to 20)
#    0.000    1.286    5.714    1.286    0.000    0.286 
#    0.000    3.571    0.000    5.571    0.000    0.000 
#    0.000    0.000    0.000    0.000    0.000    0.000 
#
# Total GULP energy -155908.302850 kJ/mol
# GULP energy per Si atom -5568.153673 kJ/mol
# Density = 1.885618 g / cm^3
# Si number density = 18.899196 Si / 1000 Ang^3
#
#
#
# Elastic Constant Matrix: (Units=GPa)
#
#
# Indices 1 2 3 4 5 6 
#
# 1 70.1469 28.5154 19.2558 0.0000 24.9995 0.0000
# 2 28.5154 101.7436 28.4316 0.0000 17.3928 0.0000
# 3 19.2558 28.4316 50.1883 0.0000 12.6893 0.0000
# 4 0.0000 0.0000 0.0000 26.9116 0.0000 9.0360
# 5 24.9995 17.3928 12.6893 0.0000 32.8506 0.0000
# 6 0.0000 0.0000 0.0000 9.0360 0.0000 23.3578
#
#
#
# Elastic Compliance Matrix: (Units=1/GPa)
#
#
# Indices 1 2 3 4 5 6 
#
# 1 0.020965 -0.002726 -0.003137 0.000000 -0.013299 0.000000
# 2 -0.002726 0.012531 -0.005430 0.000000 -0.002463 0.000000
# 3 -0.003137 -0.005430 0.025350 0.000000 -0.004530 0.000000
# 4 0.000000 0.000000 0.000000 0.042706 0.000000 -0.016521
# 5 -0.013299 -0.002463 -0.004530 0.000000 0.043615 0.000000
# 6 0.000000 0.000000 0.000000 -0.016521 0.000000 0.049203
#
#
# Mechanical properties :
#
#
# Convention : Reuss Voigt Hill
#
# Bulk Modulus (GPa) = 27.57867 41.60937 34.59402
# Shear Modulus (GPa) = 21.82995 26.34905 24.08950
#
# Velocity S-wave (km/s) = 3.40232 3.73793 3.57407
# Velocity P-wave (km/s) = 5.48257 6.37917 5.94779
#
# Compressibility (1/GPa) = 0.03625990
#
# Stress axis : x y z
#
# Youngs Moduli (GPa) = 47.69923 79.80193 39.44757
#
# Poissons Ratio (x) = 0.21751 0.12375
# Poissons Ratio (y) = 0.13001 0.21422
# Poissons Ratio (z) = 0.14963 0.43336
#
# Static dielectric constant tensor:
#      x y z
#    x 1.676680 0.000000 -0.012460 
#    y 0.000000 1.734500 0.000000 
#    z -0.012460 0.000000 1.729070 
# 
# From -- ./inp_files/215574.got.cif
#   From: 2010.05.17/outbox.cif.g08.bks.cpg/sg12_108_cif.got.tgz:215574.got - 2010.06.03 13:09:07.
