data_PCOD9172153
_publ_section_title
;
Structure prediction by ZEFSAII (Michael W. Deem and Ramdas Pophale) SiO2 
 PCOD9172153
Probable space group: C 2/M
;
_chemical_formula_sum "Si O2"
_cell_formula_units_Z 56
_cell_length_a 24.167494
_cell_length_b 8.524528
_cell_length_c 15.385657
_cell_angle_alpha 90.000000
_cell_angle_beta 88.536254
_cell_angle_gamma 90.000000
_cell_volume 3168.664577
_symmetry_space_group_name_H-M "C 2/M"
_symmetry_group_IT_number 12
_symmetry_cell_setting 'monoclinic'
loop_
_space_group_symop_operation_xyz
x,y,z
-x,y,-z
-x,-y,-z
x,-y,z
1/2+x,1/2+y,z
1/2-x,1/2+y,-z
1/2-x,1/2-y,-z
1/2+x,1/2-y,z
loop_
_atom_site_type_symbol
_atom_site_label
_atom_site_fract_x
_atom_site_fract_y
_atom_site_fract_z
Si Si1 0.143103 0.810054 0.785381
Si Si2 0.418658 0.689814 0.665770
Si Si3 0.624924 0.310841 0.521235
Si Si4 0.043812 0.190288 0.682093
Si Si5 0.780420 0.315200 0.373633
Si Si6 0.689221 0.812690 0.258480
Si Si7 0.265128 0.311695 0.093560
O O1 0.079938 0.768428 0.765854
O O2 0.179145 0.730648 0.708245
O O3 0.173531 0.767867 0.873622
O O4 0.148468 0.000000 0.774517
O O5 0.418798 0.500000 0.666729
O O6 0.397970 0.740216 0.570927
O O7 0.480965 0.746508 0.680978
O O8 0.372767 0.749762 0.734276
O O9 0.627081 0.500000 0.522281
O O10 0.580399 0.261351 0.596945
O O11 0.685825 0.251997 0.545819
O O12 0.041380 0.000000 0.678598
O O13 0.774493 0.500000 0.383539
O O14 0.722662 0.245617 0.342275
O O15 0.722323 0.759263 0.170853
O O16 0.689851 0.000000 0.259284
O O17 0.262785 0.500000 0.090927
O O18 0.250000 0.250000 0.000000
#
# Coordination Sequence:
#
# PCOD9172153 Si02
#       7
#     8   8   8   8   8   8   8
#     4   8  15  30  50  72  98 126 152 186 238 285
#     4  10  19  30  48  72  94 125 168 204 232 270
#     4   9  17  30  47  68  96 128 162 202 244 277
#     4   8  14  28  50  71  94 126 164 200 231 270
#     4  10  18  29  47  69  92 122 163 204 236 275
#     4  10  21  36  49  66  97 130 154 186 243 296
#     4   9  18  32  53  77  96 117 147 186 235 289
#
# _framework density 17.673061000000001
#
# number of rings (size 3 to 8) (size 9 to 14) (size 15 to 20)
#    0.000    2.857    0.000    3.857    0.000    5.714 
#    0.000    2.857    0.000    5.143    0.000    6.000 
#    0.000    0.000    0.000    0.000    0.000    0.000 
#
# Total GULP energy -156003.983240 kJ/mol
# GULP energy per Si atom -5571.570830 kJ/mol
# Density = 1.763284 g / cm^3
# Si number density = 17.673061 Si / 1000 Ang^3
#
#
#
# Elastic Constant Matrix: (Units=GPa)
#
#
# Indices 1 2 3 4 5 6 
#
# 1 136.6022 15.0838 61.4478 0.0000 18.0953 0.0000
# 2 15.0838 13.6043 16.7658 0.0000 4.3469 0.0000
# 3 61.4478 16.7658 116.8362 0.0000 23.3751 0.0000
# 4 0.0000 0.0000 0.0000 20.4348 0.0000 2.4839
# 5 18.0953 4.3469 23.3751 0.0000 19.3706 0.0000
# 6 0.0000 0.0000 0.0000 2.4839 0.0000 21.5816
#
#
#
# Elastic Compliance Matrix: (Units=1/GPa)
#
#
# Indices 1 2 3 4 5 6 
#
# 1 0.010112 -0.005336 -0.003826 0.000000 -0.003632 0.000000
# 2 -0.005336 0.092652 -0.009658 0.000000 -0.004152 0.000000
# 3 -0.003826 -0.009658 0.014248 0.000000 -0.011453 0.000000
# 4 0.000000 0.000000 0.000000 0.049630 0.000000 -0.005712
# 5 -0.003632 -0.004152 -0.011453 0.000000 0.069769 0.000000
# 6 0.000000 0.000000 0.000000 -0.005712 0.000000 0.046993
#
#
# Mechanical properties :
#
#
# Convention : Reuss Voigt Hill
#
# Bulk Modulus (GPa) = 12.59893 50.40417 31.50155
# Shear Modulus (GPa) = 14.38835 23.86043 19.12439
#
# Velocity S-wave (km/s) = 2.85641 3.67836 3.29313
# Velocity P-wave (km/s) = 4.24537 6.82808 5.68532
#
# Compressibility (1/GPa) = 0.07937183
#
# Stress axis : x y z
#
# Youngs Moduli (GPa) = 98.89427 10.79304 70.18370
#
# Poissons Ratio (x) = 0.05759 0.26850
# Poissons Ratio (y) = 0.52772 0.67786
# Poissons Ratio (z) = 0.37834 0.10424
#
# Static dielectric constant tensor:
#      x y z
#    x 1.631750 0.000000 0.013110 
#    y 0.000000 1.604380 0.000000 
#    z 0.013110 0.000000 1.611820 
# 
# From -- ./inp_files/287084.got.cif
#   From: 2010.05.17/outbox.cif.g08.bks.cpg/sg12_144_cif.got.tgz:287084.got - 2010.06.03 13:09:07.
