data_PCOD9172603
_publ_section_title
;
Structure prediction by ZEFSAII (Michael W. Deem and Ramdas Pophale) SiO2 
 PCOD9172603
Probable space group: C 2/M
;
_chemical_formula_sum "Si O2"
_cell_formula_units_Z 52
_cell_length_a 14.448571
_cell_length_b 21.591858
_cell_length_c 10.990005
_cell_angle_alpha 90.000000
_cell_angle_beta 57.615303
_cell_angle_gamma 90.000000
_cell_volume 2895.326505
_symmetry_space_group_name_H-M "C 2/M"
_symmetry_group_IT_number 12
_symmetry_cell_setting 'monoclinic'
loop_
_space_group_symop_operation_xyz
x,y,z
-x,y,-z
-x,-y,-z
x,-y,z
1/2+x,1/2+y,z
1/2-x,1/2+y,-z
1/2-x,1/2-y,-z
1/2+x,1/2-y,z
loop_
_atom_site_type_symbol
_atom_site_label
_atom_site_fract_x
_atom_site_fract_y
_atom_site_fract_z
Si Si1 0.340426 0.817337 0.797813
Si Si2 0.168556 0.190011 0.559787
Si Si3 0.881806 0.779206 0.139481
Si Si4 0.300603 0.929169 0.415963
Si Si5 0.617835 0.068855 0.372203
Si Si6 0.000000 0.752230 0.500000
Si Si7 0.472076 0.850677 0.151430
O O1 0.220143 0.787274 0.880995
O O2 0.327544 0.888101 0.764761
O O3 0.408594 0.785768 0.639425
O O4 0.421409 0.821525 0.856210
O O5 0.250000 0.250000 0.500000
O O6 0.142751 0.182029 0.720899
O O7 0.215800 0.127797 0.465108
O O8 0.062719 0.209485 0.558460
O O9 0.894481 0.708158 0.176074
O O10 0.000000 0.795413 0.000000
O O11 0.315763 0.933508 0.550147
O O12 0.410932 0.900733 0.277997
O O13 0.277932 0.000000 0.388634
O O14 0.500000 0.093290 0.500000
O O15 0.599024 0.000000 0.337243
O O16 0.500000 0.878012 0.000000
#
# Coordination Sequence:
#
# PCOD9172603 Si02
#       7
#     8   8   8   8   8   4   8
#     4  12  19  36  59  83 120 149 194 251 303 341
#     4  12  20  39  61  91 120 151 201 248 296 349
#     4  11  24  38  57  85 126 156 195 239 296 354
#     4  11  21  37  61  89 120 155 194 249 302 352
#     4  10  18  29  55  88 111 137 188 248 301 342
#     4  12  20  32  64  92 108 156 194 254 302 338
#     4  11  23  37  54  87 122 156 195 244 302 364
#
# _framework density 17.959978
#
# number of rings (size 3 to 8) (size 9 to 14) (size 15 to 20)
#    0.000    0.769    8.462    0.000    0.000    2.769 
#    2.769    0.385    0.000    1.846    0.000    0.000 
#    0.000    0.000    0.000    0.000    0.000    0.000 
#
# Total GULP energy -144875.483208 kJ/mol
# GULP energy per Si atom -5572.133970 kJ/mol
# Density = 1.791910 g / cm^3
# Si number density = 17.959978 Si / 1000 Ang^3
#
#
#
# Elastic Constant Matrix: (Units=GPa)
#
#
# Indices 1 2 3 4 5 6 
#
# 1 79.3715 34.1970 19.9710 0.0000 -6.5807 0.0000
# 2 34.1970 99.3969 28.0568 0.0000 -16.1330 0.0000
# 3 19.9710 28.0568 79.7757 0.0000 -7.9484 0.0000
# 4 0.0000 0.0000 0.0000 7.5338 0.0000 -5.4304
# 5 -6.5807 -16.1330 -7.9484 0.0000 29.7665 0.0000
# 6 0.0000 0.0000 0.0000 -5.4304 0.0000 12.2179
#
#
#
# Elastic Compliance Matrix: (Units=1/GPa)
#
#
# Indices 1 2 3 4 5 6 
#
# 1 0.015125 -0.004545 -0.002158 0.000000 0.000304 0.000000
# 2 -0.004545 0.013358 -0.003019 0.000000 0.005429 0.000000
# 3 -0.002158 -0.003019 0.014307 0.000000 0.001707 0.000000
# 4 0.000000 0.000000 0.000000 0.195304 0.000000 0.086805
# 5 0.000304 0.005429 0.001707 0.000000 0.037060 0.000000
# 6 0.000000 0.000000 0.000000 0.086805 0.000000 0.120429
#
#
# Mechanical properties :
#
#
# Convention : Reuss Voigt Hill
#
# Bulk Modulus (GPa) = 42.83354 46.99931 44.91643
# Shear Modulus (GPa) = 11.82564 21.65825 16.74195
#
# Velocity S-wave (km/s) = 2.56880 3.47640 3.05648
# Velocity P-wave (km/s) = 5.71835 6.50688 6.12532
#
# Compressibility (1/GPa) = 0.02334619
#
# Stress axis : x y z
#
# Youngs Moduli (GPa) = 66.11358 74.86236 69.89503
#
# Poissons Ratio (x) = 0.34028 0.15080
# Poissons Ratio (y) = 0.30052 0.21102
# Poissons Ratio (z) = 0.14265 0.22602
#
# Static dielectric constant tensor:
#      x y z
#    x 1.640860 0.000000 0.000980 
#    y 0.000000 1.648920 0.000000 
#    z 0.000980 0.000000 1.657080 
# 
# From -- ./inp_files/135837.got.cif
#   From: 2010.05.17/outbox.cif.g08.bks.cpg/sg12_68_cif.got.tgz:135837.got - 2010.06.03 13:09:07.
