data_PCOD9172173
_publ_section_title
;
Structure prediction by ZEFSAII (Michael W. Deem and Ramdas Pophale) SiO2 
 PCOD9172173
Probable space group: C 2/M
;
_chemical_formula_sum "Si O2"
_cell_formula_units_Z 56
_cell_length_a 25.714193
_cell_length_b 11.671839
_cell_length_c 29.600925
_cell_angle_alpha 90.000000
_cell_angle_beta 161.675635
_cell_angle_gamma 90.000000
_cell_volume 2793.152946
_symmetry_space_group_name_H-M "C 2/M"
_symmetry_group_IT_number 12
_symmetry_cell_setting 'monoclinic'
loop_
_space_group_symop_operation_xyz
x,y,z
-x,y,-z
-x,-y,-z
x,-y,z
1/2+x,1/2+y,z
1/2-x,1/2+y,-z
1/2-x,1/2-y,-z
1/2+x,1/2-y,z
loop_
_atom_site_type_symbol
_atom_site_label
_atom_site_fract_x
_atom_site_fract_y
_atom_site_fract_z
Si Si1 0.121779 0.682439 0.000189
Si Si2 0.245988 0.371305 0.291279
Si Si3 0.285132 0.639258 0.221857
Si Si4 0.029235 0.875303 0.750288
Si Si5 0.841974 0.874874 0.042505
Si Si6 0.156609 0.137182 0.533905
Si Si7 0.456258 0.135026 0.713082
O O1 0.164678 0.702281 0.087974
O O2 0.287659 0.620866 0.119793
O O3 0.106926 0.786383 0.953303
O O4 0.946896 0.621334 0.855318
O O5 0.313716 0.500000 0.342082
O O6 0.263291 0.321999 0.255533
O O7 0.328175 0.313875 0.402748
O O8 0.253578 0.500000 0.193142
O O9 0.475560 0.662128 0.365393
O O10 0.059281 0.872020 0.829222
O O11 0.955212 0.747941 0.679442
O O12 0.948241 0.000000 0.672000
O O13 0.864192 0.000000 0.040837
O O14 0.643810 0.862286 0.888127
O O15 0.312119 0.160637 0.630233
O O16 0.160903 0.000000 0.543250
O O17 0.436177 0.000000 0.681088
#
# Coordination Sequence:
#
# PCOD9172173 Si02
#       7
#     8   8   8   8   8   8   8
#     4  11  19  30  49  72  97 125 157 200 247 287
#     4  10  18  29  47  70  96 127 161 194 236 294
#     4  10  20  31  44  69 101 127 156 199 247 290
#     4  10  18  29  47  73 103 131 161 200 245 291
#     4   9  18  31  47  69  95 124 160 199 240 291
#     4   9  17  30  48  68  95 131 163 193 238 295
#     4   9  16  28  47  70  95 126 164 199 234 285
#
# _framework density 20.049026999999999
#
# number of rings (size 3 to 8) (size 9 to 14) (size 15 to 20)
#    0.000    2.286    0.000    5.571    0.000    5.143 
#    0.000    3.571    0.000    4.286    0.000    0.000 
#    0.000    5.714    0.000    0.000    0.000    0.000 
#
# Total GULP energy -155911.416899 kJ/mol
# GULP energy per Si atom -5568.264889 kJ/mol
# Density = 2.000339 g / cm^3
# Si number density = 20.049027 Si / 1000 Ang^3
#
#
#
# Elastic Constant Matrix: (Units=GPa)
#
#
# Indices 1 2 3 4 5 6 
#
# 1 70.5939 25.2573 16.1329 -0.0026 2.8424 0.0008
# 2 25.2573 102.4541 3.5666 -0.0028 10.0158 0.0009
# 3 16.1329 3.5666 71.5873 0.0060 -0.8626 0.0017
# 4 -0.0026 -0.0028 0.0060 9.0432 -0.0014 -1.5738
# 5 2.8424 10.0158 -0.8626 -0.0014 25.9898 0.0009
# 6 0.0008 0.0009 0.0017 -1.5738 0.0009 33.5053
#
#
#
# Elastic Compliance Matrix: (Units=1/GPa)
#
#
# Indices 1 2 3 4 5 6 
#
# 1 0.016368 -0.003873 -0.003501 0.000006 -0.000414 0.000000
# 2 -0.003873 0.011081 0.000274 0.000002 -0.003838 0.000000
# 3 -0.003501 0.000274 0.014753 -0.000011 0.000767 -0.000001
# 4 0.000006 0.000002 -0.000011 0.111492 0.000004 0.005237
# 5 -0.000414 -0.003838 0.000767 0.000004 0.040026 -0.000001
# 6 0.000000 0.000000 -0.000001 0.005237 -0.000001 0.030092
#
#
# Mechanical properties :
#
#
# Convention : Reuss Voigt Hill
#
# Bulk Modulus (GPa) = 35.70903 37.17209 36.44056
# Shear Modulus (GPa) = 20.21471 27.01955 23.61713
#
# Velocity S-wave (km/s) = 3.17876 3.67505 3.43588
# Velocity P-wave (km/s) = 5.59663 6.04887 5.82714
#
# Compressibility (1/GPa) = 0.02800412
#
# Stress axis : x y z
#
# Youngs Moduli (GPa) = 61.09559 90.24630 67.78083
#
# Poissons Ratio (x) = 0.34950 0.23728
# Poissons Ratio (y) = 0.23661 -0.01860
# Poissons Ratio (z) = 0.21388 -0.02477
#
# Static dielectric constant tensor:
#      x y z
#    x 1.752540 0.000000 -0.025040 
#    y 0.000000 1.748120 0.000000 
#    z -0.025040 0.000000 1.751980 
# 
# From -- ./inp_files/110366.got.cif
#   From: 2010.05.17/outbox.cif.g08.bks.cpg/sg12_56_cif.got.tgz:110366.got - 2010.06.03 13:09:07.
