data_PCOD9172206
_publ_section_title
;
Structure prediction by ZEFSAII (Michael W. Deem and Ramdas Pophale) SiO2 
 PCOD9172206
Probable space group: C 2/M
;
_chemical_formula_sum "Si O2"
_cell_formula_units_Z 40
_cell_length_a 9.469224
_cell_length_b 16.868650
_cell_length_c 21.622324
_cell_angle_alpha 90.000000
_cell_angle_beta 153.879363
_cell_angle_gamma 90.000000
_cell_volume 1520.578615
_symmetry_space_group_name_H-M "C 2/M"
_symmetry_group_IT_number 12
_symmetry_cell_setting 'monoclinic'
loop_
_space_group_symop_operation_xyz
x,y,z
-x,y,-z
-x,-y,-z
x,-y,z
1/2+x,1/2+y,z
1/2-x,1/2+y,-z
1/2-x,1/2-y,-z
1/2+x,1/2-y,z
loop_
_atom_site_type_symbol
_atom_site_label
_atom_site_fract_x
_atom_site_fract_y
_atom_site_fract_z
Si Si1 0.746040 0.157176 0.486149
Si Si2 0.896924 0.089604 0.673149
Si Si3 0.871790 0.186205 0.122415
Si Si4 0.585025 0.133260 0.893328
Si Si5 0.427955 0.907854 0.704097
O O1 0.750000 0.250000 0.500000
O O2 0.517716 0.137487 0.338583
O O3 0.702070 0.112959 0.534208
O O4 0.092497 0.127217 0.598348
O O5 0.928191 0.152609 0.741232
O O6 0.265147 0.091299 0.792119
O O7 0.832448 0.000000 0.668853
O O8 0.981586 0.272769 0.143497
O O9 0.500000 0.195848 0.000000
O O10 0.835105 0.129978 0.047986
O O11 0.656699 0.102486 0.852912
O O12 0.392610 0.000000 0.675467
#
# Coordination Sequence:
#
# PCOD9172206 Si02
#       5
#     8   8   8   8   8
#     4  10  18  29  47  72  96 120 152 193 237 277
#     4  10  19  31  49  73  96 120 158 199 234 272
#     4   9  18  30  47  72  98 124 157 194 233 278
#     4   9  17  30  47  70  98 126 154 193 234 276
#     4  10  19  32  50  73  96 120 158 199 234 272
#
# _framework density 26.305775000000001
#
# number of rings (size 3 to 8) (size 9 to 14) (size 15 to 20)
#    0.000    2.400    0.000    5.400    0.000    4.400 
#    0.000    0.000    0.000    2.400    0.000  123.200 
#    0.000    0.000    0.000    0.000    0.000    0.000 
#
# Total GULP energy -112023.927492 kJ/mol
# GULP energy per Si atom -5601.196375 kJ/mol
# Density = 2.624590 g / cm^3
# Si number density = 26.305775 Si / 1000 Ang^3
#
#
#
# Elastic Constant Matrix: (Units=GPa)
#
#
# Indices 1 2 3 4 5 6 
#
# 1 144.3490 22.6654 21.9043 0.0063 -39.1671 -0.0001
# 2 22.6654 159.4403 22.7216 0.0062 -27.1006 -0.0004
# 3 21.9043 22.7216 171.6349 0.0352 -34.0369 0.0058
# 4 0.0063 0.0062 0.0352 51.6924 0.0112 2.6822
# 5 -39.1671 -27.1006 -34.0369 0.0112 54.6922 0.0047
# 6 -0.0001 -0.0004 0.0058 2.6822 0.0047 34.3544
#
#
#
# Elastic Compliance Matrix: (Units=1/GPa)
#
#
# Indices 1 2 3 4 5 6 
#
# 1 0.008607 -0.000198 0.000149 -0.000002 0.006159 -0.000001
# 2 -0.000198 0.006864 -0.000270 -0.000001 0.003091 0.000000
# 3 0.000149 -0.000270 0.006660 -0.000005 0.004117 -0.000001
# 4 -0.000002 -0.000001 -0.000005 0.019424 -0.000010 -0.001516
# 5 0.006159 0.003091 0.004117 -0.000010 0.026789 -0.000004
# 6 -0.000001 0.000000 -0.000001 -0.001516 -0.000004 0.029227
#
#
# Mechanical properties :
#
#
# Convention : Reuss Voigt Hill
#
# Bulk Modulus (GPa) = 46.52883 67.77855 57.15369
# Shear Modulus (GPa) = 47.45060 55.35665 51.40362
#
# Velocity S-wave (km/s) = 4.25174 4.59230 4.42529
# Velocity P-wave (km/s) = 6.46754 7.34442 6.91989
#
# Compressibility (1/GPa) = 0.02149205
#
# Stress axis : x y z
#
# Youngs Moduli (GPa) = 116.18226 145.68696 150.15937
#
# Poissons Ratio (x) = 0.02885 -0.02238
# Poissons Ratio (y) = 0.02301 0.04061
# Poissons Ratio (z) = -0.01732 0.03940
#
# Static dielectric constant tensor:
#      x y z
#    x 2.027950 -0.000010 -0.035150 
#    y -0.000010 1.876490 0.000000 
#    z -0.035150 0.000000 2.017030 
# 
# From -- ./inp_files/203796.got.cif
#   From: 2010.05.17/outbox.cif.g08.bks.cpg/sg12_102_cif.got.tgz:203796.got - 2010.06.03 13:09:07.
