data_PCOD9172737
_publ_section_title
;
Structure prediction by ZEFSAII (Michael W. Deem and Ramdas Pophale) SiO2 
 PCOD9172737
Probable space group: C 2/M
;
_chemical_formula_sum "Si O2"
_cell_formula_units_Z 64
_cell_length_a 15.673270
_cell_length_b 26.637095
_cell_length_c 10.271109
_cell_angle_alpha 90.000000
_cell_angle_beta 70.314613
_cell_angle_gamma 90.000000
_cell_volume 4037.478228
_symmetry_space_group_name_H-M "C 2/M"
_symmetry_group_IT_number 12
_symmetry_cell_setting 'monoclinic'
loop_
_space_group_symop_operation_xyz
x,y,z
-x,y,-z
-x,-y,-z
x,-y,z
1/2+x,1/2+y,z
1/2-x,1/2+y,-z
1/2-x,1/2-y,-z
1/2+x,1/2-y,z
loop_
_atom_site_type_symbol
_atom_site_label
_atom_site_fract_x
_atom_site_fract_y
_atom_site_fract_z
Si Si1 0.917508 0.441163 0.140784
Si Si2 0.271797 0.142128 0.520857
Si Si3 0.081057 0.559443 0.556068
Si Si4 0.607136 0.244851 0.938028
Si Si5 0.718376 0.147362 0.795905
Si Si6 0.598314 0.311168 0.689979
Si Si7 0.888099 0.196120 0.799952
Si Si8 0.604181 0.232080 0.451425
O O1 0.892704 0.500000 0.142946
O O2 0.944126 0.431917 0.278699
O O3 0.835692 0.403765 0.150853
O O4 0.000000 0.431585 0.000000
O O5 0.329164 0.091900 0.515741
O O6 0.272756 0.151833 0.365030
O O7 0.169069 0.144756 0.624317
O O8 0.326394 0.187360 0.561261
O O9 0.097375 0.500000 0.531421
O O10 0.000000 0.573893 0.500000
O O11 0.661874 0.194509 0.880213
O O12 0.620909 0.283285 0.812433
O O13 0.500000 0.232496 0.000000
O O14 0.631067 0.273329 0.058554
O O15 0.816550 0.152464 0.809939
O O16 0.491567 0.323279 0.747611
O O17 0.611022 0.270435 0.568463
O O18 0.878601 0.235995 0.687123
O O19 0.500000 0.213312 0.500000
#
# Coordination Sequence:
#
# PCOD9172737 Si02
#       8
#     8   8   8   8   8   8   8   8
#     4   9  19  36  55  73  97 128 159 197 248 296
#     4  11  19  30  51  73  94 128 166 196 237 289
#     4   9  19  36  54  74 100 124 155 204 251 288
#     4  10  20  33  46  68 101 132 158 200 243 280
#     4  11  19  31  50  72  97 127 164 200 237 285
#     4  10  19  33  48  66  98 132 162 193 236 281
#     4  10  21  32  47  70  99 132 164 198 236 278
#     4  10  18  30  47  69  94 127 164 195 228 285
#
# _framework density 15.851478999999999
#
# number of rings (size 3 to 8) (size 9 to 14) (size 15 to 20)
#    0.000    2.000    2.500    2.250    0.000    0.000 
#    4.500    0.000    0.000    0.750    0.000    3.500 
#    0.000    3.000    0.000    0.000    0.000    0.000 
#
# Total GULP energy -178508.669163 kJ/mol
# GULP energy per Si atom -5578.395911 kJ/mol
# Density = 1.581540 g / cm^3
# Si number density = 15.851479 Si / 1000 Ang^3
#
#
#
# Elastic Constant Matrix: (Units=GPa)
#
#
# Indices 1 2 3 4 5 6 
#
# 1 97.1677 62.0732 47.9707 0.0000 -7.0246 0.0000
# 2 62.0732 62.8826 41.6895 0.0000 -7.2873 0.0000
# 3 47.9707 41.6895 104.3105 0.0000 1.0777 0.0000
# 4 0.0000 0.0000 0.0000 17.0928 0.0000 -1.5864
# 5 -7.0246 -7.2873 1.0777 0.0000 20.6169 0.0000
# 6 0.0000 0.0000 0.0000 -1.5864 0.0000 27.3408
#
#
#
# Elastic Compliance Matrix: (Units=1/GPa)
#
#
# Indices 1 2 3 4 5 6 
#
# 1 0.028344 -0.026221 -0.002561 0.000000 0.000523 0.000000
# 2 -0.026221 0.047336 -0.006944 0.000000 0.008160 0.000000
# 3 -0.002561 -0.006944 0.013581 0.000000 -0.004037 0.000000
# 4 0.000000 0.000000 0.000000 0.058821 0.000000 0.003413
# 5 0.000523 0.008160 -0.004037 0.000000 0.051778 0.000000
# 6 0.000000 0.000000 0.000000 0.003413 0.000000 0.036773
#
#
# Mechanical properties :
#
#
# Convention : Reuss Voigt Hill
#
# Bulk Modulus (GPa) = 56.15020 63.09197 59.62109
# Shear Modulus (GPa) = 15.92247 20.51860 18.22054
#
# Velocity S-wave (km/s) = 3.17279 3.60172 3.39404
# Velocity P-wave (km/s) = 6.99441 7.56207 7.28377
#
# Compressibility (1/GPa) = 0.01780937
#
# Stress axis : x y z
#
# Youngs Moduli (GPa) = 35.28059 21.12571 73.62962
#
# Poissons Ratio (x) = 0.55394 0.18855
# Poissons Ratio (y) = 0.92509 0.51130
# Poissons Ratio (z) = 0.09034 0.14670
#
# Static dielectric constant tensor:
#      x y z
#    x 1.554400 0.000000 -0.006630 
#    y 0.000000 1.500460 0.000000 
#    z -0.006630 0.000000 1.537240 
# 
# From -- ./inp_files/66968.got.cif
#   From: 2010.05.17/outbox.cif.g08.bks.cpg/sg12_34_cif.got.tgz:66968.got - 2010.06.03 13:09:07.
