data_PCOD9172221
_publ_section_title
;
Structure prediction by ZEFSAII (Michael W. Deem and Ramdas Pophale) SiO2 
 PCOD9172221
Probable space group: C 2/M
;
_chemical_formula_sum "Si O2"
_cell_formula_units_Z 56
_cell_length_a 29.386397
_cell_length_b 13.648185
_cell_length_c 29.237778
_cell_angle_alpha 90.000000
_cell_angle_beta 16.150020
_cell_angle_gamma 90.000000
_cell_volume 3261.743876
_symmetry_space_group_name_H-M "C 2/M"
_symmetry_group_IT_number 12
_symmetry_cell_setting 'monoclinic'
loop_
_space_group_symop_operation_xyz
x,y,z
-x,y,-z
-x,-y,-z
x,-y,z
1/2+x,1/2+y,z
1/2-x,1/2+y,-z
1/2-x,1/2-y,-z
1/2+x,1/2-y,z
loop_
_atom_site_type_symbol
_atom_site_label
_atom_site_fract_x
_atom_site_fract_y
_atom_site_fract_z
Si Si1 0.576393 0.115064 0.972427
Si Si2 0.120832 0.793658 0.523673
Si Si3 0.016684 0.881921 0.717537
Si Si4 0.525835 0.881407 0.829567
Si Si5 0.464886 0.614102 0.586414
Si Si6 0.661822 0.881098 0.078601
Si Si7 0.141349 0.617228 0.562968
O O1 0.771155 0.118590 0.781325
O O2 0.527031 0.000000 0.020709
O O3 0.500000 0.158801 0.000000
O O4 0.517025 0.155078 0.078280
O O5 0.301310 0.838989 0.352231
O O6 0.127938 0.679594 0.529748
O O7 0.020626 0.844189 0.661695
O O8 0.050937 0.821179 0.541792
O O9 0.187024 0.855733 0.578017
O O10 0.014145 0.000000 0.718208
O O11 0.849668 0.848713 0.904021
O O12 0.392334 0.855029 0.920517
O O13 0.535860 0.000000 0.820293
O O14 0.500000 0.641567 0.500000
O O15 0.518760 0.500000 0.540116
O O16 0.514607 0.854049 0.254949
O O17 0.664534 0.000000 0.078365
O O18 0.139605 0.500000 0.558332
#
# Coordination Sequence:
#
# PCOD9172221 Si02
#       7
#     8   8   8   8   8   8   8
#     4   9  17  30  47  71 105 141 167 197 249 306
#     4  12  21  32  52  78 102 137 176 213 260 308
#     4  10  19  33  53  77 107 139 173 212 259 311
#     4  10  18  29  47  73 105 135 169 210 254 310
#     4  10  20  34  53  79 109 136 165 205 255 313
#     4   9  18  33  51  71 102 141 172 210 261 307
#     4  10  22  39  51  70 105 139 179 224 259 299
#
# _framework density 17.16873
#
# number of rings (size 3 to 8) (size 9 to 14) (size 15 to 20)
#    0.000    2.000    1.429    3.429    0.000    5.143 
#    2.571    0.000    0.000    0.429    0.000    0.000 
#    0.000    2.286    0.000    0.000    0.000    0.000 
#
# Total GULP energy -156239.000125 kJ/mol
# GULP energy per Si atom -5579.964290 kJ/mol
# Density = 1.712965 g / cm^3
# Si number density = 17.168730 Si / 1000 Ang^3
#
#
#
# Elastic Constant Matrix: (Units=GPa)
#
#
# Indices 1 2 3 4 5 6 
#
# 1 111.6178 51.1975 46.7254 -0.0071 5.6949 0.0039
# 2 51.1975 55.5638 25.6050 0.0317 -2.9381 -0.0090
# 3 46.7254 25.6050 107.4750 0.0208 2.7803 -0.0091
# 4 -0.0071 0.0317 0.0208 13.8061 0.0079 4.6882
# 5 5.6949 -2.9381 2.7803 0.0079 23.0910 -0.0064
# 6 0.0039 -0.0090 -0.0091 4.6882 -0.0064 24.4297
#
#
#
# Elastic Compliance Matrix: (Units=1/GPa)
#
#
# Indices 1 2 3 4 5 6 
#
# 1 0.017717 -0.014771 -0.004035 0.000060 -0.005763 -0.000023
# 2 -0.014771 0.032764 -0.001591 -0.000097 0.008003 0.000034
# 3 -0.004035 -0.001591 0.011453 -0.000018 -0.000586 0.000008
# 4 0.000060 -0.000097 -0.000018 0.077481 -0.000055 -0.014869
# 5 -0.005763 0.008003 -0.000586 -0.000055 0.045817 0.000026
# 6 -0.000023 0.000034 0.000008 -0.014869 0.000026 0.043787
#
#
# Mechanical properties :
#
#
# Convention : Reuss Voigt Hill
#
# Bulk Modulus (GPa) = 47.30109 57.96805 52.63457
# Shear Modulus (GPa) = 18.05972 22.34059 20.20016
#
# Velocity S-wave (km/s) = 3.24681 3.61118 3.43383
# Velocity P-wave (km/s) = 6.45494 7.15713 6.81509
#
# Compressibility (1/GPa) = 0.02114116
#
# Stress axis : x y z
#
# Youngs Moduli (GPa) = 56.44236 30.52164 87.31483
#
# Poissons Ratio (x) = 0.45082 0.35228
# Poissons Ratio (y) = 0.83368 0.13893
# Poissons Ratio (z) = 0.22772 0.04856
#
# Static dielectric constant tensor:
#      x y z
#    x 1.577400 0.000000 -0.004960 
#    y 0.000000 1.593760 0.000010 
#    z -0.004960 0.000010 1.613010 
# 
# From -- ./inp_files/349709.got.cif
#   From: 2010.05.17/outbox.cif.g08.bks.cpg/sg12_175_cif.got.tgz:349709.got - 2010.06.03 13:09:07.
