data_PCOD9172877
_publ_section_title
;
Structure prediction by ZEFSAII (Michael W. Deem and Ramdas Pophale) SiO2 
 PCOD9172877
Probable space group: C 2/M
;
_chemical_formula_sum "Si O2"
_cell_formula_units_Z 64
_cell_length_a 25.962021
_cell_length_b 8.080528
_cell_length_c 15.670032
_cell_angle_alpha 90.000000
_cell_angle_beta 101.729353
_cell_angle_gamma 90.000000
_cell_volume 3218.722279
_symmetry_space_group_name_H-M "C 2/M"
_symmetry_group_IT_number 12
_symmetry_cell_setting 'monoclinic'
loop_
_space_group_symop_operation_xyz
x,y,z
-x,y,-z
-x,-y,-z
x,-y,z
1/2+x,1/2+y,z
1/2-x,1/2+y,-z
1/2-x,1/2-y,-z
1/2+x,1/2-y,z
loop_
_atom_site_type_symbol
_atom_site_label
_atom_site_fract_x
_atom_site_fract_y
_atom_site_fract_z
Si Si1 0.253324 0.201452 0.242852
Si Si2 0.636346 0.196799 0.676809
Si Si3 0.867574 0.800363 0.817463
Si Si4 0.944139 0.202408 0.692501
Si Si5 0.942928 0.197325 0.202083
Si Si6 0.703186 0.198352 0.924512
Si Si7 0.059457 0.199956 0.499802
Si Si8 0.599836 0.802169 0.982517
O O1 0.302934 0.255173 0.318225
O O2 0.192655 0.260048 0.219518
O O3 0.278918 0.252376 0.161764
O O4 0.249600 0.000000 0.247174
O O5 0.606291 0.250007 0.754436
O O6 0.599523 0.244527 0.585712
O O7 0.639352 0.000000 0.684519
O O8 0.904815 0.742429 0.753322
O O9 0.893255 0.755915 0.917826
O O10 0.865545 0.000000 0.814949
O O11 0.927666 0.254491 0.592103
O O12 0.003570 0.255890 0.734034
O O13 0.944407 0.000000 0.693154
O O14 0.942927 0.000000 0.201558
O O15 0.943557 0.253993 0.102945
O O16 0.697536 0.000000 0.919077
O O17 0.750000 0.250000 0.000000
O O18 0.650940 0.266234 0.949678
O O19 0.000000 0.255479 0.500000
O O20 0.059089 0.000000 0.501172
O O21 0.600412 0.000000 0.986378
#
# Coordination Sequence:
#
# PCOD9172877 Si02
#       8
#     8   8   8   8   8   8   8   8
#     4   9  18  33  53  78 111 145 180 224 271 322
#     4  11  21  35  55  88 120 141 174 227 286 335
#     4  10  20  38  60  78 103 151 197 224 264 325
#     4   9  20  38  60  82 106 139 188 237 270 318
#     4  11  21  36  57  83 111 146 187 230 275 324
#     4  10  18  30  48  74 105 139 180 225 267 312
#     4  10  19  37  61  85 112 141 181 231 277 325
#     4  11  22  35  51  80 118 148 179 229 279 323
#
# _framework density 19.883665000000001
#
# number of rings (size 3 to 8) (size 9 to 14) (size 15 to 20)
#    0.000    1.875    3.750    1.125    0.000    1.250 
#    0.000    6.250    0.000    0.000    0.000    0.000 
#    0.000    0.000    0.000    0.000    0.000    0.000 
#
# Total GULP energy -178274.888882 kJ/mol
# GULP energy per Si atom -5571.090278 kJ/mol
# Density = 1.983841 g / cm^3
# Si number density = 19.883665 Si / 1000 Ang^3
#
#
#
# Elastic Constant Matrix: (Units=GPa)
#
#
# Indices 1 2 3 4 5 6 
#
# 1 77.5463 11.3614 61.0061 0.0000 2.5280 0.0000
# 2 11.3614 19.3994 13.4195 0.0000 -2.4314 0.0000
# 3 61.0061 13.4195 152.0199 0.0000 9.7133 0.0000
# 4 0.0000 0.0000 0.0000 17.0493 0.0000 0.7946
# 5 2.5280 -2.4314 9.7133 0.0000 36.7003 0.0000
# 6 0.0000 0.0000 0.0000 0.7946 0.0000 13.5044
#
#
#
# Elastic Compliance Matrix: (Units=1/GPa)
#
#
# Indices 1 2 3 4 5 6 
#
# 1 0.019569 -0.006391 -0.007299 0.000000 0.000160 0.000000
# 2 -0.006391 0.057907 -0.002869 0.000000 0.005036 0.000000
# 3 -0.007299 -0.002869 0.009908 0.000000 -0.002310 0.000000
# 4 0.000000 0.000000 0.000000 0.058815 0.000000 -0.003461
# 5 0.000160 0.005036 -0.002310 0.000000 0.028182 0.000000
# 6 0.000000 0.000000 0.000000 -0.003461 0.000000 0.074253
#
#
# Mechanical properties :
#
#
# Convention : Reuss Voigt Hill
#
# Bulk Modulus (GPa) = 18.42793 46.72664 32.57729
# Shear Modulus (GPa) = 16.67556 24.32938 20.50247
#
# Velocity S-wave (km/s) = 2.89910 3.50177 3.21459
# Velocity P-wave (km/s) = 4.52707 6.31672 5.49524
#
# Compressibility (1/GPa) = 0.05426544
#
# Stress axis : x y z
#
# Youngs Moduli (GPa) = 51.10126 17.26914 100.92809
#
# Poissons Ratio (x) = 0.11038 0.73669
# Poissons Ratio (y) = 0.32661 0.28952
# Poissons Ratio (z) = 0.37300 0.04954
#
# Static dielectric constant tensor:
#      x y z
#    x 1.744170 0.000000 0.037520 
#    y 0.000000 1.717540 0.000000 
#    z 0.037520 0.000000 1.722660 
# 
# From -- ./inp_files/244097.got.cif
#   From: 2010.05.17/outbox.cif.g08.bks.cpg/sg12_123_cif.got.tgz:244097.got - 2010.06.03 13:09:07.
