data_PCOD9172335
_publ_section_title
;
Structure prediction by ZEFSAII (Michael W. Deem and Ramdas Pophale) SiO2 
 PCOD9172335
Probable space group: C 2/M
;
_chemical_formula_sum "Si O2"
_cell_formula_units_Z 64
_cell_length_a 19.524125
_cell_length_b 9.023985
_cell_length_c 20.793206
_cell_angle_alpha 90.000000
_cell_angle_beta 112.227997
_cell_angle_gamma 90.000000
_cell_volume 3391.212652
_symmetry_space_group_name_H-M "C 2/M"
_symmetry_group_IT_number 12
_symmetry_cell_setting 'monoclinic'
loop_
_space_group_symop_operation_xyz
x,y,z
-x,y,-z
-x,-y,-z
x,-y,z
1/2+x,1/2+y,z
1/2-x,1/2+y,-z
1/2-x,1/2-y,-z
1/2+x,1/2-y,z
loop_
_atom_site_type_symbol
_atom_site_label
_atom_site_fract_x
_atom_site_fract_y
_atom_site_fract_z
Si Si1 0.047930 0.319010 0.578052
Si Si2 0.797360 0.826922 0.071768
Si Si3 0.288071 0.171664 0.336720
Si Si4 0.595043 0.825660 0.106063
Si Si5 0.917497 0.324940 0.041970
Si Si6 0.495060 0.180317 0.294606
Si Si7 0.831372 0.670426 0.202628
Si Si8 0.137115 0.679617 0.262014
O O1 0.049773 0.500000 0.579791
O O2 0.134263 0.272922 0.605768
O O3 0.000000 0.271919 0.500000
O O4 0.011128 0.272836 0.632848
O O5 0.879218 0.772234 0.082233
O O6 0.783039 0.768373 0.138038
O O7 0.788306 0.000000 0.065454
O O8 0.750000 0.750000 0.000000
O O9 0.304030 0.173609 0.265870
O O10 0.213475 0.263380 0.319486
O O11 0.276794 0.000000 0.351920
O O12 0.505747 0.816699 0.079419
O O13 0.628341 0.765871 0.184587
O O14 0.614474 0.000000 0.110546
O O15 0.608731 0.770034 0.038217
O O16 0.898143 0.500000 0.041460
O O17 0.416651 0.222394 0.235350
O O18 0.566370 0.228037 0.279448
O O19 0.495719 0.000000 0.294891
O O20 0.829576 0.500000 0.179240
O O21 0.136780 0.500000 0.260204
#
# Coordination Sequence:
#
# PCOD9172335 Si02
#       8
#     8   8   8   8   8   8   8   8
#     4   8  14  29  54  79 103 136 177 213 244 290
#     4  12  25  36  48  69  97 129 168 214 264 309
#     4   9  19  33  51  78 106 132 166 213 263 300
#     4   8  16  30  52  73  92 127 167 204 250 308
#     4   9  17  34  53  70  92 122 168 215 256 305
#     4   8  15  29  52  78 101 132 174 212 245 295
#     4   9  18  36  56  71  94 129 173 219 259 303
#     4  10  18  29  48  75 105 135 169 206 252 308
#
# _framework density 18.872304
#
# number of rings (size 3 to 8) (size 9 to 14) (size 15 to 20)
#    0.000    2.875    0.000    4.125    1.750    2.500 
#    0.000    4.375    0.000    1.125    0.000    0.000 
#    0.000    0.000    0.000    0.000    0.000    0.000 
#
# Total GULP energy -178349.534434 kJ/mol
# GULP energy per Si atom -5573.422951 kJ/mol
# Density = 1.882935 g / cm^3
# Si number density = 18.872304 Si / 1000 Ang^3
#
#
#
# Elastic Constant Matrix: (Units=GPa)
#
#
# Indices 1 2 3 4 5 6 
#
# 1 69.8106 8.2736 19.0595 0.0000 11.0007 0.0000
# 2 8.2736 36.5049 22.6807 0.0000 5.0005 0.0000
# 3 19.0595 22.6807 112.6244 0.0000 10.4175 0.0000
# 4 0.0000 0.0000 0.0000 16.0204 0.0000 6.2287
# 5 11.0007 5.0005 10.4175 0.0000 20.9187 0.0000
# 6 0.0000 0.0000 0.0000 6.2287 0.0000 17.3741
#
#
#
# Elastic Compliance Matrix: (Units=1/GPa)
#
#
# Indices 1 2 3 4 5 6 
#
# 1 0.016128 -0.001582 -0.001741 0.000000 -0.007236 0.000000
# 2 -0.001582 0.031886 -0.005792 0.000000 -0.003906 0.000000
# 3 -0.001741 -0.005792 0.010617 0.000000 -0.002987 0.000000
# 4 0.000000 0.000000 0.000000 0.072530 0.000000 -0.026003
# 5 -0.007236 -0.003906 -0.002987 0.000000 0.054030 0.000000
# 6 0.000000 0.000000 0.000000 -0.026003 0.000000 0.066879
#
#
# Mechanical properties :
#
#
# Convention : Reuss Voigt Hill
#
# Bulk Modulus (GPa) = 24.75343 35.44083 30.09713
# Shear Modulus (GPa) = 17.62006 22.12436 19.87221
#
# Velocity S-wave (km/s) = 3.05888 3.42763 3.24849
# Velocity P-wave (km/s) = 5.06166 5.87238 5.48203
#
# Compressibility (1/GPa) = 0.04039844
#
# Stress axis : x y z
#
# Youngs Moduli (GPa) = 62.00548 31.36174 94.19300
#
# Poissons Ratio (x) = 0.04962 0.16403
# Poissons Ratio (y) = 0.09810 0.54559
# Poissons Ratio (z) = 0.10798 0.18166
#
# Static dielectric constant tensor:
#      x y z
#    x 1.724980 0.000000 -0.004910 
#    y 0.000000 1.631740 0.000000 
#    z -0.004910 0.000000 1.677110 
# 
# From -- ./inp_files/320037.got.cif
#   From: 2010.05.17/outbox.cif.g08.bks.cpg/sg12_161_cif.got.tgz:320037.got - 2010.06.03 13:09:07.
