data_PCOD9172725
_publ_section_title
;
Structure prediction by ZEFSAII (Michael W. Deem and Ramdas Pophale) SiO2 
 PCOD9172725
Probable space group: C 2/M
;
_chemical_formula_sum "Si O2"
_cell_formula_units_Z 56
_cell_length_a 25.886681
_cell_length_b 7.471879
_cell_length_c 26.644200
_cell_angle_alpha 90.000000
_cell_angle_beta 145.553411
_cell_angle_gamma 90.000000
_cell_volume 2915.058451
_symmetry_space_group_name_H-M "C 2/M"
_symmetry_group_IT_number 12
_symmetry_cell_setting 'monoclinic'
loop_
_space_group_symop_operation_xyz
x,y,z
-x,y,-z
-x,-y,-z
x,-y,z
1/2+x,1/2+y,z
1/2-x,1/2+y,-z
1/2-x,1/2-y,-z
1/2+x,1/2-y,z
loop_
_atom_site_type_symbol
_atom_site_label
_atom_site_fract_x
_atom_site_fract_y
_atom_site_fract_z
Si Si1 0.212105 0.715992 0.082557
Si Si2 0.227276 0.717542 0.403056
Si Si3 0.397038 0.289135 0.600915
Si Si4 0.137011 0.294666 0.231078
Si Si5 0.911842 0.219548 0.210326
Si Si6 0.555519 0.290214 0.877501
Si Si7 0.395648 0.780747 0.905609
O O1 0.214116 0.500000 0.085578
O O2 0.314567 0.778433 0.153679
O O3 0.168736 0.776668 0.100347
O O4 0.143504 0.766731 0.982940
O O5 0.228352 0.500000 0.403009
O O6 0.324453 0.782750 0.502367
O O7 0.151679 0.768117 0.383981
O O8 0.197492 0.783938 0.324543
O O9 0.404869 0.500000 0.596927
O O10 0.499510 0.218575 0.687728
O O11 0.167613 0.500000 0.250007
O O12 0.135745 0.216357 0.174295
O O13 0.032829 0.295479 0.167576
O O14 0.924776 0.276040 0.162830
O O15 0.911781 0.000000 0.210317
O O16 0.533887 0.500000 0.856464
O O17 0.396172 0.000000 0.904996
O O18 0.500000 0.726241 0.000000
#
# Coordination Sequence:
#
# PCOD9172725 Si02
#       7
#     8   8   8   8   8   8   8
#     4  10  19  33  49  63  85 123 160 183 214 265
#     4   9  17  27  45  69  90 116 146 181 222 260
#     4   9  16  29  45  65  94 118 142 178 222 270
#     4  10  18  30  47  68  91 117 152 186 219 262
#     4   9  18  30  46  66  91 122 149 177 222 273
#     4  11  20  30  44  68  95 119 144 182 230 267
#     4   9  16  28  47  66  84 114 155 193 218 248
#
# _framework density 19.210592999999999
#
# number of rings (size 3 to 8) (size 9 to 14) (size 15 to 20)
#    0.000    2.429    2.857    0.857    0.000    0.000 
#    0.000    2.857    0.000    0.857    0.000    6.000 
#    0.000    0.000    0.000    9.714    0.000   10.286 
#
# Total GULP energy -156263.321946 kJ/mol
# GULP energy per Si atom -5580.832927 kJ/mol
# Density = 1.916687 g / cm^3
# Si number density = 19.210593 Si / 1000 Ang^3
#
#
#
# Elastic Constant Matrix: (Units=GPa)
#
#
# Indices 1 2 3 4 5 6 
#
# 1 94.5684 -3.1262 69.5445 0.0003 6.3360 0.0000
# 2 -3.1262 55.0874 -4.2407 0.0009 -0.1556 -0.0002
# 3 69.5445 -4.2407 178.7699 0.0002 -6.6939 0.0000
# 4 0.0003 0.0009 0.0002 39.3841 0.0000 0.7298
# 5 6.3360 -0.1556 -6.6939 0.0000 22.2135 0.0000
# 6 0.0000 -0.0002 0.0000 0.7298 0.0000 5.9084
#
#
#
# Elastic Compliance Matrix: (Units=1/GPa)
#
#
# Indices 1 2 3 4 5 6 
#
# 1 0.015664 0.000384 -0.006323 0.000000 -0.006370 0.000000
# 2 0.000384 0.018197 0.000286 0.000000 0.000104 0.000001
# 3 -0.006323 0.000286 0.008221 0.000000 0.004283 0.000000
# 4 0.000000 0.000000 0.000000 0.025449 0.000000 -0.003143
# 5 -0.006370 0.000104 0.004283 0.000000 0.048126 0.000000
# 6 0.000000 0.000001 0.000000 -0.003143 0.000000 0.169638
#
#
# Mechanical properties :
#
#
# Convention : Reuss Voigt Hill
#
# Bulk Modulus (GPa) = 32.49260 50.30898 41.40079
# Shear Modulus (GPa) = 16.29414 31.25107 23.77261
#
# Velocity S-wave (km/s) = 2.91552 4.03769 3.52159
# Velocity P-wave (km/s) = 5.31830 6.92692 6.17521
#
# Compressibility (1/GPa) = 0.03077624
#
# Stress axis : x y z
#
# Youngs Moduli (GPa) = 63.84227 54.95382 121.64532
#
# Poissons Ratio (x) = -0.02111 0.76914
# Poissons Ratio (y) = -0.02453 -0.03480
# Poissons Ratio (z) = 0.40366 -0.01572
#
# Static dielectric constant tensor:
#      x y z
#    x 1.629760 0.000000 -0.009560 
#    y 0.000000 1.751970 0.000000 
#    z -0.009560 0.000000 1.681890 
# 
# From -- ./inp_files/243241.got.cif
#   From: 2010.05.17/outbox.cif.g08.bks.cpg/sg12_122_cif.got.tgz:243241.got - 2010.06.03 13:09:07.
