data_PCOD9172339
_publ_section_title
;
Structure prediction by ZEFSAII (Michael W. Deem and Ramdas Pophale) SiO2 
 PCOD9172339
Probable space group: C 2/M
;
_chemical_formula_sum "Si O2"
_cell_formula_units_Z 48
_cell_length_a 19.489719
_cell_length_b 17.900502
_cell_length_c 28.547571
_cell_angle_alpha 90.000000
_cell_angle_beta 16.286347
_cell_angle_gamma 90.000000
_cell_volume 2793.037677
_symmetry_space_group_name_H-M "C 2/M"
_symmetry_group_IT_number 12
_symmetry_cell_setting 'monoclinic'
loop_
_space_group_symop_operation_xyz
x,y,z
-x,y,-z
-x,-y,-z
x,-y,z
1/2+x,1/2+y,z
1/2-x,1/2+y,-z
1/2-x,1/2-y,-z
1/2+x,1/2-y,z
loop_
_atom_site_type_symbol
_atom_site_label
_atom_site_fract_x
_atom_site_fract_y
_atom_site_fract_z
Si Si1 0.207098 0.419668 0.189889
Si Si2 0.735015 0.776969 0.909715
Si Si3 0.032459 0.630521 0.205139
Si Si4 0.459066 0.087335 0.905694
Si Si5 0.821819 0.263319 0.750541
Si Si6 0.487941 0.664188 0.560513
O O1 0.119918 0.500000 0.264446
O O2 0.143791 0.410074 0.176908
O O3 0.113406 0.348336 0.279777
O O4 0.500000 0.417207 0.000000
O O5 0.889040 0.717449 0.839174
O O6 0.841656 0.779996 0.787168
O O7 0.695485 0.856122 0.960572
O O8 0.461527 0.742796 0.080727
O O9 0.109712 0.601845 0.103578
O O10 0.740805 0.620600 0.399749
O O11 0.743255 0.114059 0.724401
O O12 0.434532 0.000000 0.933107
O O13 0.975400 0.225705 0.609108
O O14 0.500000 0.697027 0.500000
#
# Coordination Sequence:
#
# PCOD9172339 Si02
#       6
#     8   8   8   8   8   8
#     4  10  18  29  48  75  99 123 159 209 253 280
#     4   9  17  31  51  73  97 131 167 205 243 294
#     4  10  18  32  52  75  97 133 170 205 240 297
#     4  10  20  33  50  75 107 132 161 207 254 297
#     4   9  16  34  51  71 101 129 166 207 242 298
#     4   9  20  33  52  73  98 134 168 199 246 297
#
# _framework density 17.185590000000001
#
# number of rings (size 3 to 8) (size 9 to 14) (size 15 to 20)
#    0.000    2.500    3.333    1.000    0.000    6.333 
#    0.000    6.667    0.000    3.500    0.000    0.000 
#    0.000    0.000    0.000    0.000    0.000    0.000 
#
# Total GULP energy -133683.982548 kJ/mol
# GULP energy per Si atom -5570.165939 kJ/mol
# Density = 1.714647 g / cm^3
# Si number density = 17.185590 Si / 1000 Ang^3
#
#
#
# Elastic Constant Matrix: (Units=GPa)
#
#
# Indices 1 2 3 4 5 6 
#
# 1 81.9829 42.2596 15.0016 -0.0276 1.3733 -0.0071
# 2 42.2596 126.0174 10.1330 -0.0713 19.4170 -0.0162
# 3 15.0016 10.1330 22.7582 -0.0551 6.9766 -0.1251
# 4 -0.0276 -0.0713 -0.0551 6.0116 0.0010 10.1470
# 5 1.3733 19.4170 6.9766 0.0010 26.6328 -0.0417
# 6 -0.0071 -0.0162 -0.1251 10.1470 -0.0417 -1.9966
#
#
#
# Elastic Compliance Matrix: (Units=1/GPa)
#
#
# Indices 1 2 3 4 5 6 
#
# 1 0.017005 -0.005799 -0.010498 -0.000100 0.006101 0.000007
# 2 -0.005799 0.011015 0.001401 0.000010 -0.008099 0.000064
# 3 -0.010498 0.001401 0.054784 0.000595 -0.014831 -0.000072
# 4 -0.000100 0.000010 0.000595 0.017374 -0.000021 0.088261
# 5 0.006101 -0.008099 -0.014831 -0.000021 0.047022 -0.000113
# 6 0.000007 0.000064 -0.000072 0.088261 -0.000113 -0.052291
#
#
# Mechanical properties :
#
#
# Convention : Reuss Voigt Hill
#
# Bulk Modulus (GPa) = 18.86331 40.61633 29.73982
# Shear Modulus (GPa) = 35.11900 17.02053 26.06976
#
# Velocity S-wave (km/s) = 4.52543 3.15047 3.89904
# Velocity P-wave (km/s) = 6.18919 6.07612 6.13291
#
# Compressibility (1/GPa) = 0.05301298
#
# Stress axis : x y z
#
# Youngs Moduli (GPa) = 58.80457 90.78356 18.25347
#
# Poissons Ratio (x) = 0.52642 0.19163
# Poissons Ratio (y) = 0.34099 -0.02557
# Poissons Ratio (z) = 0.61734 -0.12718
#
# Static dielectric constant tensor:
#      x y z
#    x 1.594280 0.000000 -0.019360 
#    y 0.000000 1.595790 0.000070 
#    z -0.019360 0.000070 1.582710 
# 
# From -- ./inp_files/157653.got.cif
#   From: 2010.05.17/outbox.cif.g08.bks.cpg/sg12_79_cif.got.tgz:157653.got - 2010.06.03 13:09:07.
