data_PCOD9172636
_publ_section_title
;
Structure prediction by ZEFSAII (Michael W. Deem and Ramdas Pophale) SiO2 
 PCOD9172636
Probable space group: C 2/M
;
_chemical_formula_sum "Si O2"
_cell_formula_units_Z 56
_cell_length_a 27.720048
_cell_length_b 8.356948
_cell_length_c 15.086800
_cell_angle_alpha 90.000000
_cell_angle_beta 101.912421
_cell_angle_gamma 90.000000
_cell_volume 3419.666687
_symmetry_space_group_name_H-M "C 2/M"
_symmetry_group_IT_number 12
_symmetry_cell_setting 'monoclinic'
loop_
_space_group_symop_operation_xyz
x,y,z
-x,y,-z
-x,-y,-z
x,-y,z
1/2+x,1/2+y,z
1/2-x,1/2+y,-z
1/2-x,1/2-y,-z
1/2+x,1/2-y,z
loop_
_atom_site_type_symbol
_atom_site_label
_atom_site_fract_x
_atom_site_fract_y
_atom_site_fract_z
Si Si1 0.944223 0.694071 0.463416
Si Si2 0.641583 0.312154 0.444080
Si Si3 0.681672 0.812609 0.285823
Si Si4 0.124633 0.689756 0.715141
Si Si5 0.317116 0.193799 0.100613
Si Si6 0.292610 0.193769 0.897279
Si Si7 0.784566 0.313932 0.386845
O O1 0.943906 0.500000 0.460688
O O2 0.907283 0.744787 0.527663
O O3 0.919971 0.754096 0.361800
O O4 0.000000 0.748186 0.500000
O O5 0.643820 0.500000 0.460478
O O6 0.646552 0.273780 0.342526
O O7 0.688297 0.234018 0.512373
O O8 0.682773 0.751814 0.184983
O O9 0.737374 0.787860 0.342549
O O10 0.669625 0.000000 0.281386
O O11 0.115166 0.500000 0.722905
O O12 0.140522 0.754874 0.816927
O O13 0.173128 0.704255 0.671677
O O14 0.263632 0.246364 0.116627
O O15 0.318035 0.000000 0.102909
O O16 0.319067 0.244407 0.998640
O O17 0.291190 0.000000 0.894707
O O18 0.769631 0.500000 0.384883
#
# Coordination Sequence:
#
# PCOD9172636 Si02
#       7
#     8   8   8   8   8   8   8
#     4   9  18  34  53  72  93 116 144 183 231 281
#     4  11  22  33  46  65  89 119 153 189 227 270
#     4  11  20  30  42  62  92 125 158 189 225 266
#     4   8  14  25  45  68  89 117 149 180 220 268
#     4   9  15  27  43  62  89 121 155 188 221 262
#     4   9  18  27  40  62  90 122 156 191 223 254
#     4  10  18  30  45  64  90 123 157 187 223 266
#
# _framework density 16.375865999999998
#
# number of rings (size 3 to 8) (size 9 to 14) (size 15 to 20)
#    0.000    2.429    1.429    3.429    0.000    0.857 
#    0.000    0.000    0.000    0.000    0.000    1.000 
#    0.000    8.000    0.000    0.000    0.000    0.000 
#
# Total GULP energy -156058.794993 kJ/mol
# GULP energy per Si atom -5573.528393 kJ/mol
# Density = 1.633859 g / cm^3
# Si number density = 16.375866 Si / 1000 Ang^3
#
#
#
# Elastic Constant Matrix: (Units=GPa)
#
#
# Indices 1 2 3 4 5 6 
#
# 1 61.5122 2.3653 53.2861 0.0000 11.7740 0.0000
# 2 2.3653 7.9548 5.5793 0.0000 1.0145 0.0000
# 3 53.2861 5.5793 152.3138 0.0000 1.7297 0.0000
# 4 0.0000 0.0000 0.0000 11.4791 0.0000 -2.1494
# 5 11.7740 1.0145 1.7297 0.0000 18.5419 0.0000
# 6 0.0000 0.0000 0.0000 -2.1494 0.0000 15.7044
#
#
#
# Elastic Compliance Matrix: (Units=1/GPa)
#
#
# Indices 1 2 3 4 5 6 
#
# 1 0.027676 0.000576 -0.009514 0.000000 -0.016718 0.000000
# 2 0.000576 0.129856 -0.004878 0.000000 -0.007015 0.000000
# 3 -0.009514 -0.004878 0.010011 0.000000 0.005374 0.000000
# 4 0.000000 0.000000 0.000000 0.089406 0.000000 0.012237
# 5 -0.016718 -0.007015 0.005374 0.000000 0.064430 0.000000
# 6 0.000000 0.000000 0.000000 0.012237 0.000000 0.065351
#
#
# Mechanical properties :
#
#
# Convention : Reuss Voigt Hill
#
# Bulk Modulus (GPa) = 7.14741 38.24912 22.69826
# Shear Modulus (GPa) = 10.84596 19.84842 15.34719
#
# Velocity S-wave (km/s) = 2.57634 3.48523 3.06467
# Velocity P-wave (km/s) = 3.63649 6.29313 5.13944
#
# Compressibility (1/GPa) = 0.13991090
#
# Stress axis : x y z
#
# Youngs Moduli (GPa) = 36.13226 7.70083 99.88693
#
# Poissons Ratio (x) = -0.00443 0.95028
# Poissons Ratio (y) = -0.02080 0.48728
# Poissons Ratio (z) = 0.34375 0.03757
#
# Static dielectric constant tensor:
#      x y z
#    x 1.517990 0.000000 0.001910 
#    y 0.000000 1.555970 0.000000 
#    z 0.001910 0.000000 1.610400 
# 
# From -- ./inp_files/247901.got.cif
#   From: 2010.05.17/outbox.cif.g08.bks.cpg/sg12_124_cif.got.tgz:247901.got - 2010.06.03 13:09:07.
