data_PCOD9172625
_publ_section_title
;
Structure prediction by ZEFSAII (Michael W. Deem and Ramdas Pophale) SiO2 
 PCOD9172625
Probable space group: C 2/M
;
_chemical_formula_sum "Si O2"
_cell_formula_units_Z 56
_cell_length_a 24.890900
_cell_length_b 26.633036
_cell_length_c 15.070935
_cell_angle_alpha 90.000000
_cell_angle_beta 161.031624
_cell_angle_gamma 90.000000
_cell_volume 3247.480932
_symmetry_space_group_name_H-M "C 2/M"
_symmetry_group_IT_number 12
_symmetry_cell_setting 'monoclinic'
loop_
_space_group_symop_operation_xyz
x,y,z
-x,y,-z
-x,-y,-z
x,-y,z
1/2+x,1/2+y,z
1/2-x,1/2+y,-z
1/2-x,1/2-y,-z
1/2+x,1/2-y,z
loop_
_atom_site_type_symbol
_atom_site_label
_atom_site_fract_x
_atom_site_fract_y
_atom_site_fract_z
Si Si1 0.374493 0.093162 0.888847
Si Si2 0.883262 0.711035 0.905426
Si Si3 0.375230 0.723244 0.627424
Si Si4 0.483290 0.559195 0.740698
Si Si5 0.613338 0.380046 0.256078
Si Si6 0.851737 0.560851 0.330693
Si Si7 0.103205 0.558254 0.390732
O O1 0.386491 0.152165 0.930597
O O2 0.185536 0.080259 0.566846
O O3 0.500000 0.083453 0.000000
O O4 0.436046 0.063070 0.071566
O O5 0.702592 0.726905 0.590729
O O6 0.000000 0.716292 0.000000
O O7 0.955620 0.747668 0.092301
O O8 0.250000 0.750000 0.500000
O O9 0.372929 0.665303 0.653421
O O10 0.479897 0.500000 0.720808
O O11 0.467390 0.573150 0.819701
O O12 0.669983 0.578348 0.013213
O O13 0.780127 0.401564 0.476159
O O14 0.500000 0.360810 0.000000
O O15 0.846656 0.500000 0.316933
O O16 0.892372 0.571298 0.497819
O O17 0.000000 0.579039 0.500000
O O18 0.159865 0.500000 0.471462
#
# Coordination Sequence:
#
# PCOD9172625 Si02
#       7
#     8   8   8   8   8   8   8
#     4  11  20  32  47  76 116 146 165 204 252 322
#     4   9  17  30  44  63  98 146 170 203 242 293
#     4  10  18  30  44  64  99 146 171 203 246 298
#     4  11  21  33  51  74 107 144 171 205 256 310
#     4  12  20  29  47  77 110 137 172 214 252 316
#     4   9  20  39  56  69  93 135 187 232 258 287
#     4  11  21  31  49  75 106 142 176 208 256 313
#
# _framework density 17.244136000000001
#
# number of rings (size 3 to 8) (size 9 to 14) (size 15 to 20)
#    0.000    1.571    4.286    3.857    0.000    1.143 
#    0.000    0.714    0.000    3.429    0.000    0.000 
#    0.000   10.286    0.000    0.000    0.000    0.000 
#
# Total GULP energy -155871.578833 kJ/mol
# GULP energy per Si atom -5566.842101 kJ/mol
# Density = 1.720489 g / cm^3
# Si number density = 17.244136 Si / 1000 Ang^3
#
#
#
# Elastic Constant Matrix: (Units=GPa)
#
#
# Indices 1 2 3 4 5 6 
#
# 1 41.6210 18.3487 51.7171 0.0000 2.7019 0.0000
# 2 18.3487 64.4944 42.7792 0.0000 -10.2905 0.0000
# 3 51.7171 42.7792 147.8777 0.0000 -9.7542 0.0000
# 4 0.0000 0.0000 0.0000 22.0651 0.0000 -8.8245
# 5 2.7019 -10.2905 -9.7542 0.0000 23.1400 0.0000
# 6 0.0000 0.0000 0.0000 -8.8245 0.0000 3.6648
#
#
#
# Elastic Compliance Matrix: (Units=1/GPa)
#
#
# Indices 1 2 3 4 5 6 
#
# 1 0.046989 -0.005128 -0.015904 0.000001 -0.014471 0.000002
# 2 -0.005128 0.020705 -0.003651 0.000000 0.008267 0.000000
# 3 -0.015904 -0.003651 0.013779 0.000000 0.006042 -0.000001
# 4 0.000001 0.000000 0.000000 1.224554 0.000000 2.948611
# 5 -0.014471 0.008267 0.006042 0.000000 0.051128 -0.000001
# 6 0.000002 0.000000 -0.000001 2.948611 -0.000001 7.372847
#
#
# Mechanical properties :
#
#
# Convention : Reuss Voigt Hill
#
# Bulk Modulus (GPa) = 31.14644 53.29814 42.22229
# Shear Modulus (GPa) = 0.56882 19.18386 9.87634
#
# Velocity S-wave (km/s) = 0.57496 3.33901 2.39579
# Velocity P-wave (km/s) = 4.30605 6.77056 5.67373
#
# Compressibility (1/GPa) = 0.03210640
#
# Stress axis : x y z
#
# Youngs Moduli (GPa) = 21.28163 48.29770 72.57256
#
# Poissons Ratio (x) = 0.24767 1.15423
# Poissons Ratio (y) = 0.10913 0.26496
# Poissons Ratio (z) = 0.33847 0.17633
#
# Static dielectric constant tensor:
#      x y z
#    x 1.555140 0.000000 -0.014650 
#    y 0.000000 1.843810 0.000000 
#    z -0.014650 0.000000 1.670770 
# 
# From -- ./inp_files/242286.got.cif
#   From: 2010.05.17/outbox.cif.g08.bks.cpg/sg12_122_cif.got.tgz:242286.got - 2010.06.03 13:09:07.
