data_PCOD9172110
_publ_section_title
;
Structure prediction by ZEFSAII (Michael W. Deem and Ramdas Pophale) SiO2 
 PCOD9172110
Probable space group: C 2/M
;
_chemical_formula_sum "Si O2"
_cell_formula_units_Z 56
_cell_length_a 20.484101
_cell_length_b 7.586310
_cell_length_c 22.572766
_cell_angle_alpha 90.000000
_cell_angle_beta 50.088096
_cell_angle_gamma 90.000000
_cell_volume 2690.578576
_symmetry_space_group_name_H-M "C 2/M"
_symmetry_group_IT_number 12
_symmetry_cell_setting 'monoclinic'
loop_
_space_group_symop_operation_xyz
x,y,z
-x,y,-z
-x,-y,-z
x,-y,z
1/2+x,1/2+y,z
1/2-x,1/2+y,-z
1/2-x,1/2-y,-z
1/2+x,1/2-y,z
loop_
_atom_site_type_symbol
_atom_site_label
_atom_site_fract_x
_atom_site_fract_y
_atom_site_fract_z
Si Si1 0.812815 0.294547 0.320340
Si Si2 0.943746 0.792064 0.346812
Si Si3 0.626184 0.210079 0.194178
Si Si4 0.684966 0.791266 0.908625
Si Si5 0.182474 0.211052 0.487102
Si Si6 0.411106 0.783645 0.149727
Si Si7 0.602076 0.784928 0.074383
O O1 0.794931 0.500000 0.319199
O O2 0.889535 0.287661 0.323941
O O3 0.728869 0.217579 0.401258
O O4 0.848750 0.220075 0.238368
O O5 0.905397 0.726189 0.431899
O O6 0.043162 0.765386 0.278783
O O7 0.925902 0.000000 0.354338
O O8 0.717475 0.264252 0.165705
O O9 0.619507 0.279717 0.130498
O O10 0.624170 0.000000 0.192749
O O11 0.622086 0.722524 0.894602
O O12 0.669080 0.000000 0.920983
O O13 0.665809 0.722284 0.985806
O O14 0.250000 0.250000 0.500000
O O15 0.176174 0.000000 0.482672
O O16 0.507266 0.734163 0.109277
O O17 0.410020 0.000000 0.150557
O O18 0.605102 0.000000 0.075319
#
# Coordination Sequence:
#
# PCOD9172110 Si02
#       7
#     8   8   8   8   8   8   8
#     4   9  15  28  49  73 100 128 158 192 240 291
#     4  10  18  29  46  72 100 126 161 201 241 281
#     4  11  21  34  51  70  98 132 165 200 243 292
#     4  10  20  33  51  74  99 127 162 203 243 285
#     4   8  15  25  42  69  99 125 152 194 239 283
#     4   9  16  29  52  77  99 126 161 198 237 288
#     4   9  17  31  52  75  95 124 165 203 240 286
#
# _framework density 20.813367
#
# number of rings (size 3 to 8) (size 9 to 14) (size 15 to 20)
#    0.000    2.571    1.429    1.714    0.000    2.286 
#    0.000    1.429    0.000    1.714    0.000    6.000 
#    0.000    0.000    0.000    0.000    0.000    0.000 
#
# Total GULP energy -156140.813829 kJ/mol
# GULP energy per Si atom -5576.457637 kJ/mol
# Density = 2.076599 g / cm^3
# Si number density = 20.813367 Si / 1000 Ang^3
#
#
#
# Elastic Constant Matrix: (Units=GPa)
#
#
# Indices 1 2 3 4 5 6 
#
# 1 25.8487 6.8275 40.7212 0.0000 -57.9619 -0.0001
# 2 6.8275 28.2499 -72.1357 0.0019 64.3744 -0.0024
# 3 40.7212 -72.1357 -130.4735 0.0044 196.5543 -0.0048
# 4 0.0000 0.0019 0.0044 8.9585 -0.0035 -0.3448
# 5 -57.9619 64.3744 196.5543 -0.0035 -171.4173 0.0043
# 6 -0.0001 -0.0024 -0.0048 -0.3448 0.0043 1.6589
#
#
#
# Elastic Compliance Matrix: (Units=1/GPa)
#
#
# Indices 1 2 3 4 5 6 
#
# 1 0.029017 0.008022 0.007728 -0.000003 0.002062 0.000031
# 2 0.008022 0.021303 0.001799 -0.000002 0.007350 0.000018
# 3 0.007728 0.001799 0.012601 -0.000001 0.012511 0.000007
# 4 -0.000003 -0.000002 -0.000001 0.112526 -0.000003 0.023390
# 5 0.002062 0.007350 0.012511 -0.000003 0.010576 0.000020
# 6 0.000031 0.000018 0.000007 0.023390 0.000020 0.607669
#
#
# Mechanical properties :
#
#
# Convention : Reuss Voigt Hill
#
# Bulk Modulus (GPa) = 10.20204 -13.94988 -1.87392
# Shear Modulus (GPa) = 6.31897 -35.61250 -14.64676
#
# Velocity S-wave (km/s) = 1.74431 -4.14096 -2.65565
# Velocity P-wave (km/s) = 2.99485 5.43878 3.21023
#
# Compressibility (1/GPa) = 0.09801961
#
# Stress axis : x y z
#
# Youngs Moduli (GPa) = 34.46200 46.94150 79.35695
#
# Poissons Ratio (x) = -0.37655 -0.61330
# Poissons Ratio (y) = -0.27644 -0.14275
# Poissons Ratio (z) = -0.26634 -0.08444
#
# Static dielectric constant tensor:
#      x y z
#    x 1.690640 0.000000 -0.000590 
#    y 0.000000 1.792420 0.000000 
#    z -0.000590 0.000000 1.835910 
# 
# From -- ./inp_files/280166.got.cif
#   From: 2010.05.17/outbox.cif.g08.bks.cpg/sg12_141_cif.got.tgz:280166.got - 2010.06.03 13:09:07.
