data_PCOD9172019
_publ_section_title
;
Structure prediction by ZEFSAII (Michael W. Deem and Ramdas Pophale) SiO2 
 PCOD9172019
Probable space group: C 2/M
;
_chemical_formula_sum "Si O2"
_cell_formula_units_Z 64
_cell_length_a 26.159544
_cell_length_b 8.750071
_cell_length_c 21.966632
_cell_angle_alpha 90.000000
_cell_angle_beta 53.390428
_cell_angle_gamma 90.000000
_cell_volume 4036.157871
_symmetry_space_group_name_H-M "C 2/M"
_symmetry_group_IT_number 12
_symmetry_cell_setting 'monoclinic'
loop_
_space_group_symop_operation_xyz
x,y,z
-x,y,-z
-x,-y,-z
x,-y,z
1/2+x,1/2+y,z
1/2-x,1/2+y,-z
1/2-x,1/2-y,-z
1/2+x,1/2-y,z
loop_
_atom_site_type_symbol
_atom_site_label
_atom_site_fract_x
_atom_site_fract_y
_atom_site_fract_z
Si Si1 0.851078 0.817508 0.408361
Si Si2 0.010039 0.681748 0.680549
Si Si3 0.312425 0.684242 0.682567
Si Si4 0.961245 0.184336 0.588266
Si Si5 0.692476 0.683630 0.000836
Si Si6 0.236883 0.815865 0.415051
Si Si7 0.391274 0.683832 0.832858
Si Si8 0.275030 0.816503 0.834779
O O1 0.919491 0.740639 0.354870
O O2 0.817971 0.777786 0.496704
O O3 0.801402 0.760811 0.392881
O O4 0.857891 0.000000 0.400970
O O5 0.007790 0.500000 0.683566
O O6 0.990436 0.740556 0.627425
O O7 0.957799 0.748924 0.763875
O O8 0.309102 0.500000 0.688933
O O9 0.387088 0.726215 0.633901
O O10 0.284069 0.730320 0.637557
O O11 0.276622 0.755855 0.765345
O O12 0.000000 0.225590 0.500000
O O13 0.965050 0.000000 0.592515
O O14 0.694972 0.500000 0.001434
O O15 0.711767 0.727272 0.918489
O O16 0.750000 0.750000 0.000000
O O17 0.629698 0.728079 0.083315
O O18 0.244436 0.000000 0.410972
O O19 0.392644 0.500000 0.826829
O O20 0.335916 0.746027 0.827124
O O21 0.281195 0.000000 0.830930
#
# Coordination Sequence:
#
# PCOD9172019 Si02
#       8
#     8   8   8   8   8   8   8   8
#     4  10  20  36  56  74  94 127 167 210 254 294
#     4  12  23  33  48  73 102 131 164 207 249 290
#     4  10  19  31  49  71  99 134 165 196 242 296
#     4  10  20  34  50  68  96 135 170 198 237 295
#     4   8  16  28  44  65  92 127 163 198 239 287
#     4   9  19  36  55  75  97 125 165 210 249 289
#     4  10  18  31  48  67  95 132 168 200 241 296
#     4  10  18  29  45  70 101 129 161 203 244 287
#
# _framework density 15.856664
#
# number of rings (size 3 to 8) (size 9 to 14) (size 15 to 20)
#    0.000    2.125    1.250    3.000    0.000    4.250 
#    0.000    1.250    0.000    0.000    0.000    0.875 
#    0.000    7.000    0.000    0.000    0.000    0.000 
#
# Total GULP energy -178456.671684 kJ/mol
# GULP energy per Si atom -5576.770990 kJ/mol
# Density = 1.582057 g / cm^3
# Si number density = 15.856664 Si / 1000 Ang^3
#
#
#
# Elastic Constant Matrix: (Units=GPa)
#
#
# Indices 1 2 3 4 5 6 
#
# 1 73.5391 29.9083 61.9080 0.0000 -8.0916 -0.0002
# 2 29.9083 36.5058 42.1844 0.0004 -5.8580 -0.0006
# 3 61.9080 42.1844 149.5364 0.0000 -9.8104 0.0001
# 4 0.0000 0.0004 0.0000 14.9727 0.0000 -2.0199
# 5 -8.0916 -5.8580 -9.8104 0.0000 17.3226 0.0000
# 6 -0.0002 -0.0006 0.0001 -2.0199 0.0000 23.4433
#
#
#
# Elastic Compliance Matrix: (Units=1/GPa)
#
#
# Indices 1 2 3 4 5 6 
#
# 1 0.024247 -0.011801 -0.006468 0.000000 0.003672 0.000000
# 2 -0.011801 0.047354 -0.008084 -0.000001 0.005923 0.000001
# 3 -0.006468 -0.008084 0.011703 0.000000 0.000873 0.000000
# 4 0.000000 -0.000001 0.000000 0.067574 0.000000 0.005822
# 5 0.003672 0.005923 0.000873 0.000000 0.061940 0.000000
# 6 0.000000 0.000001 0.000000 0.005822 0.000000 0.043158
#
#
# Mechanical properties :
#
#
# Convention : Reuss Voigt Hill
#
# Bulk Modulus (GPa) = 32.68392 58.62030 45.65211
# Shear Modulus (GPa) = 15.67980 19.51977 17.59979
#
# Velocity S-wave (km/s) = 3.14800 3.51239 3.33518
# Velocity P-wave (km/s) = 5.81980 7.31425 6.60940
#
# Compressibility (1/GPa) = 0.03059609
#
# Stress axis : x y z
#
# Youngs Moduli (GPa) = 41.24214 21.11771 85.44864
#
# Poissons Ratio (x) = 0.24922 0.55270
# Poissons Ratio (y) = 0.48672 0.69078
# Poissons Ratio (z) = 0.26676 0.17072
#
# Static dielectric constant tensor:
#      x y z
#    x 1.489950 0.000000 0.004930 
#    y 0.000000 1.534840 0.000000 
#    z 0.004930 0.000000 1.559760 
# 
# From -- ./inp_files/324198.got.cif
#   From: 2010.05.17/outbox.cif.g08.bks.cpg/sg12_163_cif.got.tgz:324198.got - 2010.06.03 13:09:07.
