data_PCOD9172207
_publ_section_title
;
Structure prediction by ZEFSAII (Michael W. Deem and Ramdas Pophale) SiO2 
 PCOD9172207
Probable space group: C 2/M
;
_chemical_formula_sum "Si O2"
_cell_formula_units_Z 56
_cell_length_a 10.741159
_cell_length_b 14.817084
_cell_length_c 23.720044
_cell_angle_alpha 90.000000
_cell_angle_beta 132.792769
_cell_angle_gamma 90.000000
_cell_volume 2770.233158
_symmetry_space_group_name_H-M "C 2/M"
_symmetry_group_IT_number 12
_symmetry_cell_setting 'monoclinic'
loop_
_space_group_symop_operation_xyz
x,y,z
-x,y,-z
-x,-y,-z
x,-y,z
1/2+x,1/2+y,z
1/2-x,1/2+y,-z
1/2-x,1/2-y,-z
1/2+x,1/2-y,z
loop_
_atom_site_type_symbol
_atom_site_label
_atom_site_fract_x
_atom_site_fract_y
_atom_site_fract_z
Si Si1 0.245271 0.856909 0.328909
Si Si2 0.387773 0.360074 0.591849
Si Si3 0.620293 0.860803 0.413563
Si Si4 0.392470 0.391166 0.833177
Si Si5 0.392873 0.891174 0.166854
Si Si6 0.241459 0.643059 0.328967
Si Si7 0.651599 0.604031 0.000023
O O1 0.170820 0.891498 0.364598
O O2 0.431743 0.892795 0.370895
O O3 0.127238 0.869721 0.238209
O O4 0.265174 0.749990 0.343475
O O5 0.386907 0.249468 0.591252
O O6 0.253950 0.386462 0.502695
O O7 0.576992 0.391517 0.635332
O O8 0.680977 0.892804 0.370963
O O9 0.394958 0.500000 0.839130
O O10 0.226576 0.359362 0.817681
O O11 0.561143 0.356485 0.916940
O O12 0.587361 0.869790 0.238271
O O13 0.310360 0.856475 0.083117
O O14 0.377392 0.000000 0.160860
O O15 0.695793 0.500000 0.000029
O O16 0.500000 0.602008 0.000000
#
# Coordination Sequence:
#
# PCOD9172207 Si02
#       7
#     8   8   8   8   8   8   8
#     4  10  18  29  47  72  96 121 156 195 237 277
#     4   9  18  28  45  68  95 126 154 195 231 275
#     4   9  16  30  47  66  91 124 166 195 223 267
#     4   9  16  29  50  72  94 122 159 197 232 273
#     4   9  16  29  50  72  94 122 159 197 232 273
#     4  10  18  29  47  72  96 121 156 195 237 277
#     4   7  12  24  45  71  91 115 158 201 224 258
#
# _framework density 20.214905000000002
#
# number of rings (size 3 to 8) (size 9 to 14) (size 15 to 20)
#    0.000    3.000    1.429    2.571    0.000    3.429 
#    0.000    1.429    0.000    6.000    0.000    3.000 
#    0.000    0.000    0.000    0.000    0.000    0.000 
#
# Total GULP energy -156085.492262 kJ/mol
# GULP energy per Si atom -5574.481866 kJ/mol
# Density = 2.016889 g / cm^3
# Si number density = 20.214905 Si / 1000 Ang^3
#
#
#
# Elastic Constant Matrix: (Units=GPa)
#
#
# Indices 1 2 3 4 5 6 
#
# 1 142.7185 10.5747 111.7548 0.0000 -0.1572 0.0000
# 2 10.5747 46.6130 -6.5322 0.0000 -0.0309 0.0000
# 3 111.7548 -6.5322 212.5830 0.0000 -0.1711 0.0000
# 4 0.0000 0.0000 0.0000 22.7836 0.0000 -0.0071
# 5 -0.1572 -0.0309 -0.1711 0.0000 10.1264 0.0000
# 6 0.0000 0.0000 0.0000 -0.0071 0.0000 -6.9647
#
#
#
# Elastic Compliance Matrix: (Units=1/GPa)
#
#
# Indices 1 2 3 4 5 6 
#
# 1 0.012541 -0.003785 -0.006709 0.000000 0.000070 0.000000
# 2 -0.003785 0.022689 0.002687 0.000000 0.000056 0.000000
# 3 -0.006709 0.002687 0.008314 0.000000 0.000045 0.000000
# 4 0.000000 0.000000 0.000000 0.043891 0.000000 -0.000045
# 5 0.000070 0.000056 0.000045 0.000000 0.098754 0.000000
# 6 0.000000 0.000000 0.000000 -0.000045 0.000000 -0.143581
#
#
# Mechanical properties :
#
#
# Convention : Reuss Voigt Hill
#
# Bulk Modulus (GPa) = 35.80529 70.38991 53.09760
# Shear Modulus (GPa) = 74.04065 24.26352 49.15209
#
# Velocity S-wave (km/s) = 6.05857 3.46826 4.93635
# Velocity P-wave (km/s) = 8.16655 7.13687 7.66901
#
# Compressibility (1/GPa) = 0.02792883
#
# Stress axis : x y z
#
# Youngs Moduli (GPa) = 79.74042 44.07507 120.28609
#
# Poissons Ratio (x) = 0.16683 0.80699
# Poissons Ratio (y) = 0.30183 -0.32322
# Poissons Ratio (z) = 0.53497 -0.11843
#
# Static dielectric constant tensor:
#      x y z
#    x 1.696410 0.000000 -0.000020 
#    y 0.000000 1.759410 0.000000 
#    z -0.000020 0.000000 1.735580 
# 
# From -- ./inp_files/301786.got.cif
#   From: 2010.05.17/outbox.cif.g08.bks.cpg/sg12_151_cif.got.tgz:301786.got - 2010.06.03 13:09:07.
