data_PCOD9172742
_publ_section_title
;
Structure prediction by ZEFSAII (Michael W. Deem and Ramdas Pophale) SiO2 
 PCOD9172742
Probable space group: C 2/M
;
_chemical_formula_sum "Si O2"
_cell_formula_units_Z 64
_cell_length_a 14.033819
_cell_length_b 23.889568
_cell_length_c 12.440146
_cell_angle_alpha 90.000000
_cell_angle_beta 78.647623
_cell_angle_gamma 90.000000
_cell_volume 4089.107295
_symmetry_space_group_name_H-M "C 2/M"
_symmetry_group_IT_number 12
_symmetry_cell_setting 'monoclinic'
loop_
_space_group_symop_operation_xyz
x,y,z
-x,y,-z
-x,-y,-z
x,-y,z
1/2+x,1/2+y,z
1/2-x,1/2+y,-z
1/2-x,1/2-y,-z
1/2+x,1/2-y,z
loop_
_atom_site_type_symbol
_atom_site_label
_atom_site_fract_x
_atom_site_fract_y
_atom_site_fract_z
Si Si1 0.816584 0.681832 0.084708
Si Si2 0.116621 0.563500 0.983024
Si Si3 0.229273 0.673624 0.302281
Si Si4 0.410061 0.254847 0.251918
Si Si5 0.554602 0.938453 0.603362
Si Si6 0.356981 0.936731 0.769141
Si Si7 0.104538 0.679133 0.536859
Si Si8 0.128801 0.252799 0.139403
O O1 0.832598 0.615572 0.085861
O O2 0.865270 0.712002 0.175072
O O3 0.704703 0.702268 0.103704
O O4 0.867389 0.707619 0.966663
O O5 0.139284 0.500000 0.940680
O O6 0.146476 0.567866 0.101771
O O7 0.000000 0.570250 0.000000
O O8 0.340983 0.691104 0.267851
O O9 0.205519 0.609900 0.276819
O O10 0.186027 0.687613 0.428685
O O11 0.170450 0.710595 0.228491
O O12 0.401581 0.224826 0.368937
O O13 0.520626 0.265535 0.193232
O O14 0.500000 0.941207 0.500000
O O15 0.469086 0.929095 0.708559
O O16 0.618524 0.882915 0.584229
O O17 0.599271 0.000000 0.611755
O O18 0.329941 0.000000 0.743424
O O19 0.000000 0.678694 0.500000
#
# Coordination Sequence:
#
# PCOD9172742 Si02
#       8
#     8   8   8   8   8   8   8   8
#     4  10  21  32  52  72  99 126 168 199 241 295
#     4  10  20  31  48  73 101 131 160 196 245 295
#     4  11  20  33  50  74  98 130 166 201 249 292
#     4  11  22  33  50  71 100 132 168 205 241 291
#     4   9  16  26  44  67  91 125 155 184 237 293
#     4  10  18  30  47  69  99 129 158 197 244 293
#     4  11  19  31  49  68 104 134 161 202 247 289
#     4  10  19  35  50  72  95 131 161 205 246 282
#
# _framework density 15.651338000000001
#
# number of rings (size 3 to 8) (size 9 to 14) (size 15 to 20)
#    0.000    1.750    5.000    1.500    1.750    0.000 
#    0.000    0.000    0.000    0.750    0.000    1.750 
#    0.000    0.500    0.000    0.625    0.000    0.000 
#
# Total GULP energy -178443.196399 kJ/mol
# GULP energy per Si atom -5576.349887 kJ/mol
# Density = 1.561572 g / cm^3
# Si number density = 15.651338 Si / 1000 Ang^3
#
#
#
# Elastic Constant Matrix: (Units=GPa)
#
#
# Indices 1 2 3 4 5 6 
#
# 1 75.7833 30.9813 27.7559 0.0000 -14.1309 0.0000
# 2 30.9813 86.7631 33.1450 0.0000 -8.4531 0.0000
# 3 27.7559 33.1450 62.2673 0.0000 -10.6822 0.0000
# 4 0.0000 0.0000 0.0000 20.0180 0.0000 -2.7434
# 5 -14.1309 -8.4531 -10.6822 0.0000 20.0434 0.0000
# 6 0.0000 0.0000 0.0000 -2.7434 0.0000 13.6293
#
#
#
# Elastic Compliance Matrix: (Units=1/GPa)
#
#
# Indices 1 2 3 4 5 6 
#
# 1 0.018047 -0.003884 -0.004486 0.000000 0.008695 0.000000
# 2 -0.003884 0.015392 -0.006404 0.000000 0.000341 0.000000
# 3 -0.004486 -0.006404 0.022521 0.000000 0.006140 0.000000
# 4 0.000000 0.000000 0.000000 0.051372 0.000000 0.010341
# 5 0.008695 0.000341 0.006140 0.000000 0.059438 0.000000
# 6 0.000000 0.000000 0.000000 0.010341 0.000000 0.075453
#
#
# Mechanical properties :
#
#
# Convention : Reuss Voigt Hill
#
# Bulk Modulus (GPa) = 37.85774 45.39755 41.62764
# Shear Modulus (GPa) = 17.82062 19.60025 18.71044
#
# Velocity S-wave (km/s) = 3.37798 3.54263 3.46128
# Velocity P-wave (km/s) = 6.28132 6.76773 6.52906
#
# Compressibility (1/GPa) = 0.02641468
#
# Stress axis : x y z
#
# Youngs Moduli (GPa) = 55.40943 64.96953 44.40257
#
# Poissons Ratio (x) = 0.25231 0.19918
# Poissons Ratio (y) = 0.21519 0.28433
# Poissons Ratio (z) = 0.24856 0.41604
#
# Static dielectric constant tensor:
#      x y z
#    x 1.504010 0.000000 0.008150 
#    y 0.000000 1.542840 0.000000 
#    z 0.008150 0.000000 1.549930 
# 
# From -- ./inp_files/135338.got.cif
#   From: 2010.05.17/outbox.cif.g08.bks.cpg/sg12_68_cif.got.tgz:135338.got - 2010.06.03 13:09:07.
