data_PCOD9172837
_publ_section_title
;
Structure prediction by ZEFSAII (Michael W. Deem and Ramdas Pophale) SiO2 
 PCOD9172837
Probable space group: C 2/M
;
_chemical_formula_sum "Si O2"
_cell_formula_units_Z 64
_cell_length_a 25.608969
_cell_length_b 8.550341
_cell_length_c 18.319852
_cell_angle_alpha 90.000000
_cell_angle_beta 102.868743
_cell_angle_gamma 90.000000
_cell_volume 3910.658717
_symmetry_space_group_name_H-M "C 2/M"
_symmetry_group_IT_number 12
_symmetry_cell_setting 'monoclinic'
loop_
_space_group_symop_operation_xyz
x,y,z
-x,y,-z
-x,-y,-z
x,-y,z
1/2+x,1/2+y,z
1/2-x,1/2+y,-z
1/2-x,1/2-y,-z
1/2+x,1/2-y,z
loop_
_atom_site_type_symbol
_atom_site_label
_atom_site_fract_x
_atom_site_fract_y
_atom_site_fract_z
Si Si1 0.131714 0.313067 0.422228
Si Si2 0.284433 0.813042 0.838809
Si Si3 0.191235 0.812348 0.003762
Si Si4 0.337264 0.690114 0.159860
Si Si5 0.904329 0.810748 0.316989
Si Si6 0.180194 0.689039 0.590957
Si Si7 0.296978 0.312975 0.683555
Si Si8 0.985385 0.188830 0.578909
O O1 0.134724 0.500000 0.419305
O O2 0.165046 0.260521 0.504378
O O3 0.157863 0.242318 0.358219
O O4 0.070646 0.261720 0.415156
O O5 0.318338 0.753479 0.918689
O O6 0.222265 0.760500 0.831871
O O7 0.303565 0.751675 0.767056
O O8 0.284402 0.000000 0.839290
O O9 0.192225 0.000000 0.007474
O O10 0.250000 0.750000 0.000000
O O11 0.155670 0.763850 0.922668
O O12 0.337074 0.500000 0.160900
O O13 0.381014 0.743409 0.231908
O O14 0.864046 0.752564 0.366988
O O15 0.964528 0.762105 0.355341
O O16 0.903381 0.000000 0.317756
O O17 0.178830 0.500000 0.592577
O O18 0.239055 0.741277 0.634577
O O19 0.296255 0.500000 0.686220
O O20 0.000000 0.231318 0.500000
O O21 0.980543 0.000000 0.580097
#
# Coordination Sequence:
#
# PCOD9172837 Si02
#       8
#     8   8   8   8   8   8   8   8
#     4  11  23  37  52  70  98 134 171 210 253 298
#     4  10  18  30  48  71 100 133 167 198 246 302
#     4   9  16  27  43  67 100 133 167 201 243 294
#     4   8  15  27  45  70  98 130 164 200 240 290
#     4  10  18  31  52  74  99 133 169 206 248 293
#     4  10  21  34  49  73 100 130 166 207 252 296
#     4  11  22  35  51  73 101 131 169 210 249 297
#     4  10  20  34  53  75  97 128 171 213 252 292
#
# _framework density 16.36553
#
# number of rings (size 3 to 8) (size 9 to 14) (size 15 to 20)
#    0.000    2.125    2.500    2.625    0.000    1.750 
#    0.000    0.625    0.000    0.000    0.000    0.875 
#    0.000    7.000    0.000    0.000    0.000    0.000 
#
# Total GULP energy -178462.871606 kJ/mol
# GULP energy per Si atom -5576.964738 kJ/mol
# Density = 1.632828 g / cm^3
# Si number density = 16.365530 Si / 1000 Ang^3
#
#
#
# Elastic Constant Matrix: (Units=GPa)
#
#
# Indices 1 2 3 4 5 6 
#
# 1 57.5978 19.1850 56.5341 0.0000 -14.2199 0.0000
# 2 19.1850 29.4672 34.8463 0.0000 -3.7840 0.0000
# 3 56.5341 34.8463 183.4739 0.0000 -6.2030 0.0000
# 4 0.0000 0.0000 0.0000 23.1968 0.0000 -5.4733
# 5 -14.2199 -3.7840 -6.2030 0.0000 17.4244 0.0000
# 6 0.0000 0.0000 0.0000 -5.4733 0.0000 19.8353
#
#
#
# Elastic Compliance Matrix: (Units=1/GPa)
#
#
# Indices 1 2 3 4 5 6 
#
# 1 0.033960 -0.009958 -0.007803 0.000000 0.022774 0.000000
# 2 -0.009958 0.047455 -0.005942 0.000000 0.000063 0.000000
# 3 -0.007803 -0.005942 0.008831 0.000000 -0.004515 0.000000
# 4 0.000000 0.000000 0.000000 0.046112 0.000000 0.012724
# 5 0.022774 0.000063 -0.004515 0.000000 0.074383 0.000000
# 6 0.000000 0.000000 0.000000 0.012724 0.000000 0.053926
#
#
# Mechanical properties :
#
#
# Convention : Reuss Voigt Hill
#
# Bulk Modulus (GPa) = 23.34352 54.62997 38.98675
# Shear Modulus (GPa) = 15.32086 22.75621 19.03854
#
# Velocity S-wave (km/s) = 3.06300 3.73298 3.41446
# Velocity P-wave (km/s) = 5.17727 7.21345 6.27845
#
# Compressibility (1/GPa) = 0.04283843
#
# Stress axis : x y z
#
# Youngs Moduli (GPa) = 29.44632 21.07277 113.24248
#
# Poissons Ratio (x) = 0.20985 0.88362
# Poissons Ratio (y) = 0.29324 0.67291
# Poissons Ratio (z) = 0.22977 0.12522
#
# Static dielectric constant tensor:
#      x y z
#    x 1.504370 0.000000 0.023900 
#    y 0.000000 1.552590 0.000000 
#    z 0.023900 0.000000 1.578190 
# 
# From -- ./inp_files/287644.got.cif
#   From: 2010.05.17/outbox.cif.g08.bks.cpg/sg12_144_cif.got.tgz:287644.got - 2010.06.03 13:09:07.
