data_PCOD9172947
_publ_section_title
;
Structure prediction by ZEFSAII (Michael W. Deem and Ramdas Pophale) SiO2 
 PCOD9172947
Probable space group: C 2/M
;
_chemical_formula_sum "Si O2"
_cell_formula_units_Z 48
_cell_length_a 32.069327
_cell_length_b 8.962476
_cell_length_c 9.858671
_cell_angle_alpha 90.000000
_cell_angle_beta 89.871927
_cell_angle_gamma 90.000000
_cell_volume 2833.577794
_symmetry_space_group_name_H-M "C 2/M"
_symmetry_group_IT_number 12
_symmetry_cell_setting 'monoclinic'
loop_
_space_group_symop_operation_xyz
x,y,z
-x,y,-z
-x,-y,-z
x,-y,z
1/2+x,1/2+y,z
1/2-x,1/2+y,-z
1/2-x,1/2-y,-z
1/2+x,1/2-y,z
loop_
_atom_site_type_symbol
_atom_site_label
_atom_site_fract_x
_atom_site_fract_y
_atom_site_fract_z
Si Si1 0.117665 0.820180 0.848517
Si Si2 0.706139 0.329296 0.162004
Si Si3 0.620600 0.820781 0.146305
Si Si4 0.290012 0.328309 0.168205
Si Si5 0.952854 0.319297 0.653392
Si Si6 0.952585 0.680752 0.338792
O O1 0.163679 0.777150 0.791467
O O2 0.081062 0.758149 0.755647
O O3 0.116987 0.000000 0.857503
O O4 0.114052 0.751414 0.998706
O O5 0.699775 0.500000 0.202991
O O6 0.665907 0.231587 0.198117
O O7 0.750328 0.267217 0.212492
O O8 0.708737 0.325961 0.996940
O O9 0.583799 0.770300 0.247017
O O10 0.619928 0.000000 0.134484
O O11 0.283961 0.500000 0.209457
O O12 0.952877 0.500000 0.654915
O O13 0.945994 0.277384 0.496657
O O14 0.999673 0.275133 0.695722
O O15 0.949325 0.500000 0.327315
#
# Coordination Sequence:
#
# PCOD9172947 Si02
#       6
#     8   8   8   8   8   8
#     4  10  20  32  46  72 103 126 155 196 239 280
#     4   9  16  26  42  67  96 122 153 194 236 277
#     4  10  18  30  49  72  97 127 160 193 235 282
#     4   8  15  27  42  61  91 127 157 187 227 278
#     4   8  17  33  53  73  92 121 163 201 232 280
#     4   9  17  34  55  71  91 123 162 200 237 279
#
# _framework density 16.939713999999999
#
# number of rings (size 3 to 8) (size 9 to 14) (size 15 to 20)
#    0.000    3.000    0.000    3.500    0.000    5.333 
#    0.000    8.333    0.000    1.000    0.000    0.000 
#    0.000    0.000    0.000    0.000    0.000    0.000 
#
# Total GULP energy -133673.530486 kJ/mol
# GULP energy per Si atom -5569.730437 kJ/mol
# Density = 1.690116 g / cm^3
# Si number density = 16.939714 Si / 1000 Ang^3
#
#
#
# Elastic Constant Matrix: (Units=GPa)
#
#
# Indices 1 2 3 4 5 6 
#
# 1 179.0937 58.4641 72.0218 0.0000 -6.4006 0.0000
# 2 58.4641 55.9745 27.7553 0.0000 -0.2226 0.0000
# 3 72.0218 27.7553 44.1777 0.0000 -2.5812 0.0000
# 4 0.0000 0.0000 0.0000 3.1181 0.0000 3.1246
# 5 -6.4006 -0.2226 -2.5812 0.0000 -9.7347 0.0000
# 6 0.0000 0.0000 0.0000 3.1246 0.0000 30.1801
#
#
#
# Elastic Compliance Matrix: (Units=1/GPa)
#
#
# Indices 1 2 3 4 5 6 
#
# 1 0.017282 -0.005758 -0.024828 0.000000 -0.004648 0.000000
# 2 -0.005758 0.027735 -0.007734 0.000000 0.005202 0.000000
# 3 -0.024828 -0.007734 0.067884 0.000000 -0.001498 0.000000
# 4 0.000000 0.000000 0.000000 0.357830 0.000000 -0.037047
# 5 -0.004648 0.005202 -0.001498 0.000000 -0.099391 0.000000
# 6 0.000000 0.000000 0.000000 -0.037047 0.000000 0.036970
#
#
# Mechanical properties :
#
#
# Convention : Reuss Voigt Hill
#
# Bulk Modulus (GPa) = 27.57827 66.19202 46.88515
# Shear Modulus (GPa) = 10.05964 12.77967 11.41965
#
# Velocity S-wave (km/s) = 2.43955 2.74965 2.59923
# Velocity P-wave (km/s) = 4.92451 7.01717 6.06182
#
# Compressibility (1/GPa) = 0.03626043
#
# Stress axis : x y z
#
# Youngs Moduli (GPa) = 57.86513 36.05578 14.73107
#
# Poissons Ratio (x) = 0.20760 0.36574
# Poissons Ratio (y) = 0.33317 0.11393
# Poissons Ratio (z) = 1.43667 0.27887
#
# Static dielectric constant tensor:
#      x y z
#    x 1.589330 0.000000 -0.005020 
#    y 0.000000 1.566360 0.000000 
#    z -0.005020 0.000000 1.549130 
# 
# From -- ./inp_files/185507.got.cif
#   From: 2010.05.17/outbox.cif.g08.bks.cpg/sg12_93_cif.got.tgz:185507.got - 2010.06.03 13:09:07.
