data_PCOD9172078
_publ_section_title
;
Structure prediction by ZEFSAII (Michael W. Deem and Ramdas Pophale) SiO2 
 PCOD9172078
Probable space group: C 2/M
;
_chemical_formula_sum "Si O2"
_cell_formula_units_Z 56
_cell_length_a 31.065365
_cell_length_b 16.511420
_cell_length_c 8.585562
_cell_angle_alpha 90.000000
_cell_angle_beta 144.690822
_cell_angle_gamma 90.000000
_cell_volume 2545.356980
_symmetry_space_group_name_H-M "C 2/M"
_symmetry_group_IT_number 12
_symmetry_cell_setting 'monoclinic'
loop_
_space_group_symop_operation_xyz
x,y,z
-x,y,-z
-x,-y,-z
x,-y,z
1/2+x,1/2+y,z
1/2-x,1/2+y,-z
1/2-x,1/2-y,-z
1/2+x,1/2-y,z
loop_
_atom_site_type_symbol
_atom_site_label
_atom_site_fract_x
_atom_site_fract_y
_atom_site_fract_z
Si Si1 0.694320 0.633802 0.778516
Si Si2 0.165035 0.238658 0.137069
Si Si3 0.026689 0.744730 0.909040
Si Si4 0.569265 0.093733 0.385536
Si Si5 0.303788 0.806586 0.374345
Si Si6 0.167111 0.412835 0.990337
Si Si7 0.935854 0.140736 0.410021
O O1 0.676772 0.719731 0.644568
O O2 0.619733 0.597611 0.633014
O O3 0.748906 0.653538 0.083676
O O4 0.747589 0.586502 0.818889
O O5 0.249119 0.205096 0.361716
O O6 0.161434 0.331883 0.072792
O O7 0.117277 0.187618 0.868508
O O8 0.113350 0.235118 0.137138
O O9 0.002512 0.651152 0.816284
O O10 0.979931 0.793089 0.641990
O O11 0.000000 0.770670 0.000000
O O12 0.624273 0.136022 0.421359
O O13 0.613043 0.096553 0.680412
O O14 0.554872 0.000000 0.308671
O O15 0.149952 0.500000 0.014167
O O16 0.000000 0.096418 0.500000
#
# Coordination Sequence:
#
# PCOD9172078 Si02
#       7
#     8   8   8   8   8   8   8
#     4   8  12  23  44  66  87 112 142 195 230 259
#     4   9  17  30  49  68  90 118 153 192 226 267
#     4  11  21  31  42  67  97 125 153 186 226 271
#     4  10  18  29  46  68  97 128 151 181 229 278
#     4   8  13  26  46  66  86 115 156 190 221 267
#     4   9  16  26  46  72  90 113 152 191 226 265
#     4   9  15  27  47  66  86 115 154 184 224 270
#
# _framework density 22.000841999999999
#
# number of rings (size 3 to 8) (size 9 to 14) (size 15 to 20)
#    0.000    2.857    2.857    1.714    0.000    0.857 
#    0.000    2.143    0.000    0.429    0.000    3.000 
#    0.000    1.143    0.000    0.000    0.000    0.000 
#
# Total GULP energy -156150.166792 kJ/mol
# GULP energy per Si atom -5576.791671 kJ/mol
# Density = 2.195077 g / cm^3
# Si number density = 22.000842 Si / 1000 Ang^3
#
#
#
# Elastic Constant Matrix: (Units=GPa)
#
#
# Indices 1 2 3 4 5 6 
#
# 1 108.0885 -6.4406 17.5744 0.0000 21.3724 0.0000
# 2 -6.4406 61.3893 6.8755 0.0000 -1.9663 0.0000
# 3 17.5744 6.8755 82.6311 0.0000 25.7558 0.0000
# 4 0.0000 0.0000 0.0000 12.7527 0.0000 0.4233
# 5 21.3724 -1.9663 25.7558 0.0000 33.1975 0.0000
# 6 0.0000 0.0000 0.0000 0.4233 0.0000 12.2331
#
#
#
# Elastic Compliance Matrix: (Units=1/GPa)
#
#
# Indices 1 2 3 4 5 6 
#
# 1 0.010656 0.000940 -0.000295 0.000000 -0.006576 0.000000
# 2 0.000940 0.016709 -0.002256 0.000000 0.002134 0.000000
# 3 -0.000295 -0.002256 0.016269 0.000000 -0.012566 0.000000
# 4 0.000000 0.000000 0.000000 0.078505 0.000000 -0.002717
# 5 -0.006576 0.002134 -0.012566 0.000000 0.044232 0.000000
# 6 0.000000 0.000000 0.000000 -0.002717 0.000000 0.081840
#
#
# Mechanical properties :
#
#
# Convention : Reuss Voigt Hill
#
# Bulk Modulus (GPa) = 24.74396 32.01413 28.37905
# Shear Modulus (GPa) = 18.87492 27.24330 23.05911
#
# Velocity S-wave (km/s) = 2.93220 3.52274 3.24095
# Velocity P-wave (km/s) = 4.76812 5.57936 5.18961
#
# Compressibility (1/GPa) = 0.04041390
#
# Stress axis : x y z
#
# Youngs Moduli (GPa) = 93.84484 59.84758 61.46606
#
# Poissons Ratio (x) = -0.05628 0.01813
# Poissons Ratio (y) = -0.08825 0.13864
# Poissons Ratio (z) = 0.02768 0.13499
#
# Static dielectric constant tensor:
#      x y z
#    x 1.890710 0.000000 0.000700 
#    y 0.000000 1.766620 0.000000 
#    z 0.000700 0.000000 1.857340 
# 
# From -- ./inp_files/112641.got.cif
#   From: 2010.05.17/outbox.cif.g08.bks.cpg/sg12_57_cif.got.tgz:112641.got - 2010.06.03 13:09:07.
