data_PCOD9172394
_publ_section_title
;
Structure prediction by ZEFSAII (Michael W. Deem and Ramdas Pophale) SiO2 
 PCOD9172394
Probable space group: C 2/M
;
_chemical_formula_sum "Si O2"
_cell_formula_units_Z 64
_cell_length_a 28.898250
_cell_length_b 7.598216
_cell_length_c 14.850654
_cell_angle_alpha 90.000000
_cell_angle_beta 73.388582
_cell_angle_gamma 90.000000
_cell_volume 3124.745616
_symmetry_space_group_name_H-M "C 2/M"
_symmetry_group_IT_number 12
_symmetry_cell_setting 'monoclinic'
loop_
_space_group_symop_operation_xyz
x,y,z
-x,y,-z
-x,-y,-z
x,-y,z
1/2+x,1/2+y,z
1/2-x,1/2+y,-z
1/2-x,1/2-y,-z
1/2+x,1/2-y,z
loop_
_atom_site_type_symbol
_atom_site_label
_atom_site_fract_x
_atom_site_fract_y
_atom_site_fract_z
Si Si1 0.114375 0.211760 0.251130
Si Si2 0.012687 0.215225 0.392644
Si Si3 0.307259 0.789609 0.467252
Si Si4 0.399351 0.296003 0.121466
Si Si5 0.810677 0.294708 0.269862
Si Si6 0.800788 0.292489 0.664045
Si Si7 0.529519 0.713636 0.768138
Si Si8 0.925995 0.785553 0.910730
O O1 0.066508 0.269624 0.332170
O O2 0.162637 0.262746 0.275572
O O3 0.108670 0.273500 0.151387
O O4 0.112619 0.000000 0.250531
O O5 0.000000 0.275283 0.500000
O O6 0.976914 0.273325 0.331669
O O7 0.011994 0.000000 0.394084
O O8 0.250000 0.750000 0.500000
O O9 0.324552 0.718777 0.361260
O O10 0.323328 0.723569 0.556519
O O11 0.314676 0.000000 0.459250
O O12 0.414662 0.500000 0.108400
O O13 0.342814 0.289315 0.174708
O O14 0.427215 0.220885 0.193050
O O15 0.413137 0.218803 0.017008
O O16 0.822491 0.500000 0.262000
O O17 0.753015 0.279615 0.291375
O O18 0.793982 0.500000 0.655478
O O19 0.532266 0.500000 0.760979
O O20 0.480053 0.757585 0.848467
O O21 0.923432 0.000000 0.914291
#
# Coordination Sequence:
#
# PCOD9172394 Si02
#       8
#     8   8   8   8   8   8   8   8
#     4   9  17  30  49  71  96 129 164 195 235 284
#     4   8  14  25  42  69 103 130 155 192 233 276
#     4   8  16  30  47  65  88 119 150 184 226 274
#     4  10  18  29  49  74  96 121 159 205 245 277
#     4  10  20  34  49  69  99 128 155 191 240 291
#     4  10  19  33  52  72  94 123 162 200 233 276
#     4   8  14  25  44  69  94 124 161 195 230 278
#     4   8  15  29  48  70  96 125 159 199 239 282
#
# _framework density 20.481667000000002
#
# number of rings (size 3 to 8) (size 9 to 14) (size 15 to 20)
#    0.000    3.125    0.000    2.625    0.000    3.500 
#    0.000    2.500    0.000    4.875    0.000    0.000 
#    0.000    0.000    0.000    0.000    0.000    0.000 
#
# Total GULP energy -178308.278753 kJ/mol
# GULP energy per Si atom -5572.133711 kJ/mol
# Density = 2.043505 g / cm^3
# Si number density = 20.481667 Si / 1000 Ang^3
#
#
#
# Elastic Constant Matrix: (Units=GPa)
#
#
# Indices 1 2 3 4 5 6 
#
# 1 90.1479 -0.4295 58.1429 0.0000 26.5467 0.0000
# 2 -0.4295 44.5307 6.9303 0.0000 3.8300 0.0000
# 3 58.1429 6.9303 163.6867 0.0000 18.7779 0.0000
# 4 0.0000 0.0000 0.0000 1.6597 0.0000 1.5096
# 5 26.5467 3.8300 18.7779 0.0000 20.1501 0.0000
# 6 0.0000 0.0000 0.0000 1.5096 0.0000 7.2529
#
#
#
# Elastic Compliance Matrix: (Units=1/GPa)
#
#
# Indices 1 2 3 4 5 6 
#
# 1 0.021436 0.003061 -0.004969 0.000000 -0.024193 0.000000
# 2 0.003061 0.023307 -0.001235 0.000000 -0.007311 0.000000
# 3 -0.004969 -0.001235 0.008004 0.000000 -0.000679 0.000000
# 4 0.000000 0.000000 0.000000 0.743240 0.000000 -0.154695
# 5 -0.024193 -0.007311 -0.000679 0.000000 0.083523 0.000000
# 6 0.000000 0.000000 0.000000 -0.154695 0.000000 0.170074
#
#
# Mechanical properties :
#
#
# Convention : Reuss Voigt Hill
#
# Bulk Modulus (GPa) = 21.52323 47.51697 34.52010
# Shear Modulus (GPa) = 4.66698 21.39396 13.03047
#
# Velocity S-wave (km/s) = 1.51114 3.23544 2.52504
# Velocity P-wave (km/s) = 3.68457 6.09980 5.03903
#
# Compressibility (1/GPa) = 0.04646143
#
# Stress axis : x y z
#
# Youngs Moduli (GPa) = 46.64970 42.90559 124.93354
#
# Poissons Ratio (x) = -0.13132 0.62074
# Poissons Ratio (y) = -0.14278 0.15433
# Poissons Ratio (z) = 0.23178 0.05300
#
# Static dielectric constant tensor:
#      x y z
#    x 1.709720 0.000000 0.034030 
#    y 0.000000 1.816320 0.000000 
#    z 0.034030 0.000000 1.757930 
# 
# From -- ./inp_files/243796.got.cif
#   From: 2010.05.17/outbox.cif.g08.bks.cpg/sg12_122_cif.got.tgz:243796.got - 2010.06.03 13:09:07.
