data_PCOD9172249
_publ_section_title
;
Structure prediction by ZEFSAII (Michael W. Deem and Ramdas Pophale) SiO2 
 PCOD9172249
Probable space group: C 2/M
;
_chemical_formula_sum "Si O2"
_cell_formula_units_Z 60
_cell_length_a 5.253107
_cell_length_b 33.570117
_cell_length_c 22.035644
_cell_angle_alpha 90.000000
_cell_angle_beta 89.439719
_cell_angle_gamma 90.000000
_cell_volume 3885.743100
_symmetry_space_group_name_H-M "C 2/M"
_symmetry_group_IT_number 12
_symmetry_cell_setting 'monoclinic'
loop_
_space_group_symop_operation_xyz
x,y,z
-x,y,-z
-x,-y,-z
x,-y,z
1/2+x,1/2+y,z
1/2-x,1/2+y,-z
1/2-x,1/2-y,-z
1/2+x,1/2-y,z
loop_
_atom_site_type_symbol
_atom_site_label
_atom_site_fract_x
_atom_site_fract_y
_atom_site_fract_z
Si Si1 0.968674 0.638869 0.809399
Si Si2 0.451659 0.090664 0.934225
Si Si3 0.021151 0.048179 0.644448
Si Si4 0.500000 0.222725 0.000000
Si Si5 0.975915 0.548269 0.430923
Si Si6 0.470253 0.594534 0.770319
Si Si7 0.004079 0.722379 0.864667
Si Si8 0.546313 0.452935 0.103882
O O1 0.965696 0.620198 0.877302
O O2 0.211030 0.619714 0.775553
O O3 0.710187 0.623729 0.778979
O O4 0.990870 0.686099 0.817846
O O5 0.179299 0.069110 0.931573
O O6 0.678994 0.059169 0.922733
O O7 0.500000 0.109399 0.000000
O O8 0.283287 0.059509 0.610652
O O9 0.992553 0.069952 0.708507
O O10 0.786339 0.059092 0.601220
O O11 0.018623 0.000000 0.652946
O O12 0.499176 0.203674 0.066766
O O13 0.750000 0.250000 0.000000
O O14 0.978643 0.500000 0.433861
O O15 0.000000 0.562878 0.500000
O O16 0.469269 0.564080 0.827414
O O17 0.760031 0.751324 0.858899
O O18 0.510134 0.500000 0.102748
#
# Coordination Sequence:
#
# PCOD9172249 Si02
#       8
#     8   8   8   4   8   8   8   8
#     4  10  21  34  49  65  92 117 143 192 229 280
#     4  10  21  33  46  64  83 111 143 180 242 290
#     4  10  18  29  48  67  91 130 168 202 227 260
#     4   8  16  28  44  68  88 102 131 174 215 272
#     4   9  17  28  43  68  97 124 160 202 237 262
#     4  10  20  34  46  67  90 120 160 187 231 268
#     4  10  19  33  51  71  89 112 145 178 228 286
#     4  10  20  33  47  62  83 110 148 199 231 264
#
# _framework density 15.44106
#
# number of rings (size 3 to 8) (size 9 to 14) (size 15 to 20)
#    0.000    2.267    0.000    3.200    0.933    3.200 
#    0.000    4.000    0.000    0.000    0.000    0.000 
#    0.000    0.000    0.000    0.000    0.000  168.000 
#
# Total GULP energy -167294.301847 kJ/mol
# GULP energy per Si atom -5576.476728 kJ/mol
# Density = 1.540592 g / cm^3
# Si number density = 15.441060 Si / 1000 Ang^3
#
#
#
# Elastic Constant Matrix: (Units=GPa)
#
#
# Indices 1 2 3 4 5 6 
#
# 1 76.8679 7.8928 -12.7402 0.0000 -3.1465 0.0000
# 2 7.8928 49.2298 2.1065 0.0000 -2.4870 0.0000
# 3 -12.7402 2.1065 46.7922 0.0000 -1.5740 0.0000
# 4 0.0000 0.0000 0.0000 15.3142 0.0000 0.7395
# 5 -3.1465 -2.4870 -1.5740 0.0000 16.9417 0.0000
# 6 0.0000 0.0000 0.0000 0.7395 0.0000 7.8861
#
#
#
# Elastic Compliance Matrix: (Units=1/GPa)
#
#
# Indices 1 2 3 4 5 6 
#
# 1 0.014016 -0.002285 0.004008 0.000000 0.002640 0.000000
# 2 -0.002285 0.020869 -0.001478 0.000000 0.002502 0.000000
# 3 0.004008 -0.001478 0.022617 0.000000 0.002629 0.000000
# 4 0.000000 0.000000 0.000000 0.065596 0.000000 -0.006151
# 5 0.002640 0.002502 0.002629 0.000000 0.060128 0.000000
# 6 0.000000 0.000000 0.000000 -0.006151 0.000000 0.127382
#
#
# Mechanical properties :
#
#
# Convention : Reuss Voigt Hill
#
# Bulk Modulus (GPa) = 17.24355 18.60090 17.92222
# Shear Modulus (GPa) = 15.17684 19.73712 17.45698
#
# Velocity S-wave (km/s) = 3.13851 3.57910 3.36602
# Velocity P-wave (km/s) = 4.93206 5.39931 5.17096
#
# Compressibility (1/GPa) = 0.05799269
#
# Stress axis : x y z
#
# Youngs Moduli (GPa) = 71.34536 47.91817 44.21398
#
# Poissons Ratio (x) = 0.10951 -0.17721
# Poissons Ratio (y) = 0.16305 0.06533
# Poissons Ratio (z) = -0.28595 0.07080
#
# Static dielectric constant tensor:
#      x y z
#    x 1.516220 0.000000 -0.000940 
#    y 0.000000 1.482190 0.000000 
#    z -0.000940 0.000000 1.508380 
# 
# From -- ./inp_files/298299.got.cif
#   From: 2010.05.17/outbox.cif.g08.bks.cpg/sg12_150_cif.got.tgz:298299.got - 2010.06.03 13:09:07.
