data_PCOD9172033
_publ_section_title
;
Structure prediction by ZEFSAII (Michael W. Deem and Ramdas Pophale) SiO2 
 PCOD9172033
Probable space group: C 2/M
;
_chemical_formula_sum "Si O2"
_cell_formula_units_Z 64
_cell_length_a 33.826146
_cell_length_b 9.069660
_cell_length_c 35.623901
_cell_angle_alpha 90.000000
_cell_angle_beta 156.575866
_cell_angle_gamma 90.000000
_cell_volume 4344.699553
_symmetry_space_group_name_H-M "C 2/M"
_symmetry_group_IT_number 12
_symmetry_cell_setting 'monoclinic'
loop_
_space_group_symop_operation_xyz
x,y,z
-x,y,-z
-x,-y,-z
x,-y,z
1/2+x,1/2+y,z
1/2-x,1/2+y,-z
1/2-x,1/2-y,-z
1/2+x,1/2-y,z
loop_
_atom_site_type_symbol
_atom_site_label
_atom_site_fract_x
_atom_site_fract_y
_atom_site_fract_z
Si Si1 0.639080 0.824162 0.437890
Si Si2 0.350976 0.174191 0.635163
Si Si3 0.269166 0.176869 0.784648
Si Si4 0.900798 0.325470 0.515099
Si Si5 0.540193 0.322206 0.575646
Si Si6 0.664804 0.324081 0.302643
Si Si7 0.575023 0.330419 0.029644
Si Si8 0.585530 0.823858 0.158478
O O1 0.596128 0.796489 0.358924
O O2 0.737657 0.726022 0.528578
O O3 0.576707 0.796506 0.421223
O O4 0.666800 0.000000 0.463193
O O5 0.380755 0.262244 0.698245
O O6 0.354748 0.000000 0.645906
O O7 0.154825 0.222553 0.681024
O O8 0.325768 0.254914 0.868182
O O9 0.329925 0.210135 0.799295
O O10 0.273978 0.000000 0.793937
O O11 0.912460 0.500000 0.518682
O O12 0.783683 0.290066 0.406911
O O13 0.970154 0.238510 0.547249
O O14 0.500000 0.272997 0.500000
O O15 0.537122 0.500000 0.573503
O O16 0.654659 0.500000 0.292337
O O17 0.616457 0.249137 0.224426
O O18 0.591213 0.500000 0.032943
O O19 0.500000 0.328726 0.000000
O O20 0.517136 0.241389 0.947154
O O21 0.579433 0.000000 0.156641
#
# Coordination Sequence:
#
# PCOD9172033 Si02
#       8
#     8   8   8   8   8   8   8   8
#     4   8  15  27  40  56  80 107 137 175 212 247
#     4   9  15  24  40  59  79 107 140 170 206 252
#     4   9  18  31  45  61  83 111 144 181 214 246
#     4   9  18  30  42  58  82 113 146 178 212 248
#     4  10  20  32  44  60  84 113 147 184 214 241
#     4  10  19  29  40  59  89 116 140 174 212 251
#     4   9  17  29  45  64  84 106 135 172 214 257
#     4  10  18  29  46  64  83 110 142 173 211 257
#
# _framework density 14.730593000000001
#
# number of rings (size 3 to 8) (size 9 to 14) (size 15 to 20)
#    0.000    2.750    0.000    3.000    0.000    6.750 
#    0.000    0.000    0.000    0.000    0.000    0.000 
#    0.000    1.000    0.000    3.000    0.000    4.875 
#
# Total GULP energy -178184.762172 kJ/mol
# GULP energy per Si atom -5568.273818 kJ/mol
# Density = 1.469707 g / cm^3
# Si number density = 14.730593 Si / 1000 Ang^3
#
#
#
# Elastic Constant Matrix: (Units=GPa)
#
#
# Indices 1 2 3 4 5 6 
#
# 1 96.7162 42.9913 60.0743 0.0000 -24.2956 0.0000
# 2 42.9913 48.7333 48.3595 -0.0002 -16.6393 0.0004
# 3 60.0743 48.3595 105.3299 0.0006 -19.7497 0.0002
# 4 0.0000 -0.0002 0.0006 22.3062 0.0003 -4.4301
# 5 -24.2956 -16.6393 -19.7497 0.0003 23.1604 0.0001
# 6 0.0000 0.0004 0.0002 -4.4301 0.0001 23.1881
#
#
#
# Elastic Compliance Matrix: (Units=1/GPa)
#
#
# Indices 1 2 3 4 5 6 
#
# 1 0.020328 -0.008911 -0.005600 0.000000 0.010147 0.000000
# 2 -0.008911 0.046309 -0.013919 0.000001 0.012052 -0.000001
# 3 -0.005600 -0.013919 0.019167 -0.000001 0.000469 0.000000
# 4 0.000000 0.000001 -0.000001 0.046599 -0.000001 0.008903
# 5 0.010147 0.012052 0.000469 -0.000001 0.062881 -0.000001
# 6 0.000000 -0.000001 0.000000 0.008903 -0.000001 0.044826
#
#
# Mechanical properties :
#
#
# Convention : Reuss Voigt Hill
#
# Bulk Modulus (GPa) = 34.55131 61.51441 48.03286
# Shear Modulus (GPa) = 16.30698 20.35456 18.33077
#
# Velocity S-wave (km/s) = 3.33079 3.72127 3.53143
# Velocity P-wave (km/s) = 6.18859 7.76622 7.02185
#
# Compressibility (1/GPa) = 0.02894246
#
# Stress axis : x y z
#
# Youngs Moduli (GPa) = 49.19310 21.59426 52.17432
#
# Poissons Ratio (x) = 0.19243 0.29218
# Poissons Ratio (y) = 0.43837 0.72622
# Poissons Ratio (z) = 0.27548 0.30057
#
# Static dielectric constant tensor:
#      x y z
#    x 1.496240 0.000000 -0.020210 
#    y 0.000000 1.493070 0.000000 
#    z -0.020210 0.000000 1.474370 
# 
# From -- ./inp_files/248246.got.cif
#   From: 2010.05.17/outbox.cif.g08.bks.cpg/sg12_125_cif.got.tgz:248246.got - 2010.06.03 13:09:07.
