data_PCOD9172498
_publ_section_title
;
Structure prediction by ZEFSAII (Michael W. Deem and Ramdas Pophale) SiO2 
 PCOD9172498
Probable space group: C 2/M
;
_chemical_formula_sum "Si O2"
_cell_formula_units_Z 48
_cell_length_a 8.851119
_cell_length_b 20.980892
_cell_length_c 28.003801
_cell_angle_alpha 90.000000
_cell_angle_beta 147.913970
_cell_angle_gamma 90.000000
_cell_volume 2762.425980
_symmetry_space_group_name_H-M "C 2/M"
_symmetry_group_IT_number 12
_symmetry_cell_setting 'monoclinic'
loop_
_space_group_symop_operation_xyz
x,y,z
-x,y,-z
-x,-y,-z
x,-y,z
1/2+x,1/2+y,z
1/2-x,1/2+y,-z
1/2-x,1/2-y,-z
1/2+x,1/2-y,z
loop_
_atom_site_type_symbol
_atom_site_label
_atom_site_fract_x
_atom_site_fract_y
_atom_site_fract_z
Si Si1 0.601587 0.928680 0.260352
Si Si2 0.339015 0.816737 0.247382
Si Si3 0.762303 0.072197 0.606089
Si Si4 0.418991 0.141607 0.117960
Si Si5 0.937639 0.817708 0.723392
Si Si6 0.957126 0.190027 0.056047
O O1 0.513661 0.878106 0.276669
O O2 0.462154 0.910293 0.171370
O O3 0.938869 0.925646 0.342041
O O4 0.517341 0.000000 0.250865
O O5 0.222398 0.816392 0.269370
O O6 0.526591 0.753424 0.288096
O O7 0.070325 0.818793 0.139282
O O8 0.500000 0.079754 0.500000
O O9 0.783561 0.130172 0.648880
O O10 0.744262 0.000000 0.622548
O O11 0.731887 0.160369 0.184748
O O12 0.244745 0.195939 0.101118
O O13 0.219526 0.133835 0.018028
O O14 0.750000 0.250000 0.000000
#
# Coordination Sequence:
#
# PCOD9172498 Si02
#       6
#     8   8   8   8   8   8
#     4   9  19  38  58  78 112 150 187 232 284 339
#     4  11  22  34  52  82 115 153 188 230 279 329
#     4   9  19  39  66  88 107 141 184 225 279 350
#     4   9  19  31  49  80 106 145 191 229 279 319
#     4  11  21  35  54  81 119 143 183 234 280 332
#     4  10  18  29  50  77 110 144 192 231 264 318
#
# _framework density 17.376031000000001
#
# number of rings (size 3 to 8) (size 9 to 14) (size 15 to 20)
#    0.000    2.167    1.667    3.000    2.333    1.333 
#    0.000   10.833    0.000    3.000    0.000   15.167 
#    0.000    0.000    0.000    0.000    0.000    0.000 
#
# Total GULP energy -133605.630996 kJ/mol
# GULP energy per Si atom -5566.901291 kJ/mol
# Density = 1.733648 g / cm^3
# Si number density = 17.376031 Si / 1000 Ang^3
#
#
#
# Elastic Constant Matrix: (Units=GPa)
#
#
# Indices 1 2 3 4 5 6 
#
# 1 127.9734 80.7504 37.9395 -0.0005 -8.9921 0.0004
# 2 80.7504 141.8003 53.5957 -0.0015 -7.2789 -0.0005
# 3 37.9395 53.5957 97.4797 -0.0044 -3.6493 -0.0012
# 4 -0.0005 -0.0015 -0.0044 18.2252 -0.0017 0.0718
# 5 -8.9921 -7.2789 -3.6493 -0.0017 10.8314 0.0003
# 6 0.0004 -0.0005 -0.0012 0.0718 0.0003 29.1553
#
#
#
# Elastic Compliance Matrix: (Units=1/GPa)
#
#
# Indices 1 2 3 4 5 6 
#
# 1 0.012641 -0.006469 -0.001147 0.000000 0.005760 0.000000
# 2 -0.006469 0.012424 -0.004255 0.000000 0.001545 0.000000
# 3 -0.001147 -0.004255 0.013067 0.000003 0.000590 0.000000
# 4 0.000000 0.000000 0.000003 0.054869 0.000010 -0.000135
# 5 0.005760 0.001545 0.000590 0.000010 0.098344 -0.000001
# 6 0.000000 0.000000 0.000000 -0.000135 -0.000001 0.034299
#
#
# Mechanical properties :
#
#
# Convention : Reuss Voigt Hill
#
# Bulk Modulus (GPa) = 69.50202 79.09159 74.29680
# Shear Modulus (GPa) = 19.67080 24.64023 22.15551
#
# Velocity S-wave (km/s) = 3.36827 3.76980 3.57467
# Velocity P-wave (km/s) = 7.43052 8.03523 7.73878
#
# Compressibility (1/GPa) = 0.01438807
#
# Stress axis : x y z
#
# Youngs Moduli (GPa) = 79.10675 80.49077 76.53033
#
# Poissons Ratio (x) = 0.52072 0.08781
# Poissons Ratio (y) = 0.51177 0.32564
# Poissons Ratio (z) = 0.09077 0.34249
#
# Static dielectric constant tensor:
#      x y z
#    x 1.601500 0.000000 -0.013560 
#    y 0.000000 1.625990 0.000000 
#    z -0.013560 0.000000 1.607000 
# 
# From -- ./inp_files/333552.got.cif
#   From: 2010.05.17/outbox.cif.g08.bks.cpg/sg12_167_cif.got.tgz:333552.got - 2010.06.03 13:09:07.
