data_PCOD9172970
_publ_section_title
;
Structure prediction by ZEFSAII (Michael W. Deem and Ramdas Pophale) SiO2 
 PCOD9172970
Probable space group: C 2/M
;
_chemical_formula_sum "Si O2"
_cell_formula_units_Z 64
_cell_length_a 20.774309
_cell_length_b 7.609393
_cell_length_c 20.877628
_cell_angle_alpha 90.000000
_cell_angle_beta 77.979768
_cell_angle_gamma 90.000000
_cell_volume 3227.970265
_symmetry_space_group_name_H-M "C 2/M"
_symmetry_group_IT_number 12
_symmetry_cell_setting 'monoclinic'
loop_
_space_group_symop_operation_xyz
x,y,z
-x,y,-z
-x,-y,-z
x,-y,z
1/2+x,1/2+y,z
1/2-x,1/2+y,-z
1/2-x,1/2-y,-z
1/2+x,1/2-y,z
loop_
_atom_site_type_symbol
_atom_site_label
_atom_site_fract_x
_atom_site_fract_y
_atom_site_fract_z
Si Si1 0.647381 0.715147 0.326099
Si Si2 0.755536 0.711164 0.073354
Si Si3 0.431506 0.705736 0.323730
Si Si4 0.635903 0.295856 0.183304
Si Si5 0.704331 0.788048 0.701064
Si Si6 0.506423 0.200531 0.823015
Si Si7 0.139722 0.714861 0.849321
Si Si8 0.482606 0.714891 0.574701
O O1 0.646061 0.500000 0.326949
O O2 0.633271 0.776163 0.256137
O O3 0.721475 0.770343 0.328020
O O4 0.588918 0.771582 0.384914
O O5 0.755866 0.500000 0.078489
O O6 0.692879 0.779871 0.126571
O O7 0.821547 0.772849 0.095772
O O8 0.750000 0.750000 0.000000
O O9 0.448250 0.500000 0.313163
O O10 0.353155 0.727009 0.334425
O O11 0.463078 0.796168 0.255006
O O12 0.464049 0.767972 0.382724
O O13 0.653293 0.500000 0.188750
O O14 0.564591 0.286786 0.165921
O O15 0.681780 0.734097 0.777506
O O16 0.703999 0.000000 0.700516
O O17 0.565002 0.277151 0.854413
O O18 0.495158 0.000000 0.844902
O O19 0.136941 0.500000 0.849135
O O20 0.500000 0.775711 0.500000
O O21 0.482811 0.500000 0.573206
#
# Coordination Sequence:
#
# PCOD9172970 Si02
#       8
#     8   8   8   8   8   8   8   8
#     4   9  15  28  51  74  96 129 173 209 242 290
#     4  10  20  35  54  74 101 134 169 207 250 301
#     4  10  18  30  49  73 103 132 163 208 257 297
#     4  10  18  32  54  77 100 131 171 212 250 291
#     4   9  16  29  51  74  96 126 169 210 246 295
#     4  10  19  31  52  78 102 128 166 211 252 297
#     4   8  15  30  50  70  94 129 167 200 238 295
#     4   9  17  29  48  74 101 133 174 210 242 295
#
# _framework density 19.826701
#
# number of rings (size 3 to 8) (size 9 to 14) (size 15 to 20)
#    0.000    2.625    2.500    1.500    0.000    0.500 
#    0.000    5.000    0.000    5.250    0.000    0.000 
#    0.000    0.000    0.000    0.000    0.000    0.000 
#
# Total GULP energy -178477.701059 kJ/mol
# GULP energy per Si atom -5577.428158 kJ/mol
# Density = 1.978157 g / cm^3
# Si number density = 19.826701 Si / 1000 Ang^3
#
#
#
# Elastic Constant Matrix: (Units=GPa)
#
#
# Indices 1 2 3 4 5 6 
#
# 1 114.9604 -9.7768 28.0050 0.0000 12.7121 0.0000
# 2 -9.7768 38.4494 -6.1901 0.0000 -1.1276 0.0000
# 3 28.0050 -6.1901 59.0765 0.0000 6.3671 0.0000
# 4 0.0000 0.0000 0.0000 11.7039 0.0000 2.1847
# 5 12.7121 -1.1276 6.3671 0.0000 28.3581 0.0000
# 6 0.0000 0.0000 0.0000 2.1847 0.0000 19.9126
#
#
#
# Elastic Compliance Matrix: (Units=1/GPa)
#
#
# Indices 1 2 3 4 5 6 
#
# 1 0.010298 0.001820 -0.004305 0.000000 -0.003577 0.000000
# 2 0.001820 0.026782 0.001964 0.000000 -0.000192 0.000000
# 3 -0.004305 0.001964 0.019428 0.000000 -0.002354 0.000000
# 4 0.000000 0.000000 0.000000 0.087228 0.000000 -0.009570
# 5 -0.003577 -0.000192 -0.002354 0.000000 0.037388 0.000000
# 6 0.000000 0.000000 0.000000 -0.009570 0.000000 0.051269
#
#
# Mechanical properties :
#
#
# Convention : Reuss Voigt Hill
#
# Bulk Modulus (GPa) = 18.02934 26.28473 22.15703
# Shear Modulus (GPa) = 19.84734 25.35813 22.60273
#
# Velocity S-wave (km/s) = 3.16736 3.58017 3.38007
# Velocity P-wave (km/s) = 4.74230 5.51146 5.14128
#
# Compressibility (1/GPa) = 0.05546515
#
# Stress axis : x y z
#
# Youngs Moduli (GPa) = 97.10776 37.33897 51.47306
#
# Poissons Ratio (x) = -0.06797 0.22161
# Poissons Ratio (y) = -0.17678 -0.10109
# Poissons Ratio (z) = 0.41809 -0.07333
#
# Static dielectric constant tensor:
#      x y z
#    x 1.714270 0.000000 0.009990 
#    y 0.000000 1.753560 0.000000 
#    z 0.009990 0.000000 1.661720 
# 
# From -- ./inp_files/319132.got.cif
#   From: 2010.05.17/outbox.cif.g08.bks.cpg/sg12_160_cif.got.tgz:319132.got - 2010.06.03 13:09:07.
