data_PCOD9172653
_publ_section_title
;
Structure prediction by ZEFSAII (Michael W. Deem and Ramdas Pophale) SiO2 
 PCOD9172653
Probable space group: C 2/M
;
_chemical_formula_sum "Si O2"
_cell_formula_units_Z 64
_cell_length_a 30.260888
_cell_length_b 7.674761
_cell_length_c 17.364713
_cell_angle_alpha 90.000000
_cell_angle_beta 63.643058
_cell_angle_gamma 90.000000
_cell_volume 3613.634925
_symmetry_space_group_name_H-M "C 2/M"
_symmetry_group_IT_number 12
_symmetry_cell_setting 'monoclinic'
loop_
_space_group_symop_operation_xyz
x,y,z
-x,y,-z
-x,-y,-z
x,-y,z
1/2+x,1/2+y,z
1/2-x,1/2+y,-z
1/2-x,1/2-y,-z
1/2+x,1/2-y,z
loop_
_atom_site_type_symbol
_atom_site_label
_atom_site_fract_x
_atom_site_fract_y
_atom_site_fract_z
Si Si1 0.046218 0.713665 0.910151
Si Si2 0.930458 0.798596 0.608283
Si Si3 0.239551 0.289695 0.918099
Si Si4 0.635254 0.801451 0.938902
Si Si5 0.907070 0.204543 0.872128
Si Si6 0.018974 0.289053 0.759795
Si Si7 0.537580 0.200765 0.579922
Si Si8 0.341695 0.712032 0.778148
O O1 0.046434 0.500000 0.912071
O O2 0.098218 0.776767 0.904708
O O3 0.039099 0.767946 0.827200
O O4 0.000000 0.767881 0.000000
O O5 0.935357 0.789881 0.512491
O O6 0.878669 0.731130 0.681757
O O7 0.978996 0.707646 0.605258
O O8 0.935115 0.000000 0.629116
O O9 0.237538 0.500000 0.916228
O O10 0.187409 0.222357 0.925503
O O11 0.285659 0.227595 0.830849
O O12 0.250000 0.250000 0.000000
O O13 0.645548 0.000000 0.906066
O O14 0.602659 0.803288 0.041599
O O15 0.869299 0.261296 0.835685
O O16 0.962158 0.233291 0.801099
O O17 0.899160 0.000000 0.892903
O O18 0.020508 0.500000 0.757124
O O19 0.044081 0.227611 0.661096
O O20 0.553092 0.000000 0.566790
O O21 0.339682 0.500000 0.776393
#
# Coordination Sequence:
#
# PCOD9172653 Si02
#       8
#     8   8   8   8   8   8   8   8
#     4   9  16  28  46  65  88 117 152 187 218 259
#     4  10  18  30  46  62  87 121 147 171 219 272
#     4  10  19  31  46  66  90 116 151 186 220 260
#     4  10  19  31  47  65  87 120 157 188 219 260
#     4  11  19  28  44  64  93 122 150 185 220 258
#     4  10  19  31  46  64  90 122 152 184 222 262
#     4  10  19  29  43  66  91 112 143 186 222 255
#     4   9  18  30  43  63  90 120 147 180 216 258
#
# _framework density 17.710699000000002
#
# number of rings (size 3 to 8) (size 9 to 14) (size 15 to 20)
#    0.000    2.125    3.750    1.875    0.000    0.500 
#    0.000    2.500    0.000    0.000    0.000    0.875 
#    0.000    0.000    0.000    0.000    0.000    0.000 
#
# Total GULP energy -178418.518243 kJ/mol
# GULP energy per Si atom -5575.578695 kJ/mol
# Density = 1.767039 g / cm^3
# Si number density = 17.710699 Si / 1000 Ang^3
#
#
#
# Elastic Constant Matrix: (Units=GPa)
#
#
# Indices 1 2 3 4 5 6 
#
# 1 94.0155 1.1348 32.4692 0.0000 9.7605 0.0000
# 2 1.1348 34.9105 0.0710 0.0001 1.7589 -0.0002
# 3 32.4692 0.0710 100.5251 0.0000 7.9182 0.0000
# 4 0.0000 0.0001 0.0000 5.0461 0.0000 -1.4155
# 5 9.7605 1.7589 7.9182 0.0000 27.5151 0.0000
# 6 0.0000 -0.0002 0.0000 -1.4155 0.0000 6.5536
#
#
#
# Elastic Compliance Matrix: (Units=1/GPa)
#
#
# Indices 1 2 3 4 5 6 
#
# 1 0.012257 -0.000226 -0.003701 0.000000 -0.003268 0.000000
# 2 -0.000226 0.028743 0.000196 0.000000 -0.001813 0.000001
# 3 -0.003701 0.000196 0.011297 0.000000 -0.001950 0.000000
# 4 0.000000 0.000000 0.000000 0.210952 0.000000 0.045563
# 5 -0.003268 -0.001813 -0.001950 0.000000 0.038180 0.000000
# 6 0.000000 0.000001 0.000000 0.045563 0.000000 0.162429
#
#
# Mechanical properties :
#
#
# Convention : Reuss Voigt Hill
#
# Bulk Modulus (GPa) = 22.30511 32.97790 27.64150
# Shear Modulus (GPa) = 10.28243 20.87472 15.57857
#
# Velocity S-wave (km/s) = 2.41213 3.43687 2.96905
# Velocity P-wave (km/s) = 4.51435 5.86602 5.23400
#
# Compressibility (1/GPa) = 0.04483278
#
# Stress axis : x y z
#
# Youngs Moduli (GPa) = 81.58694 34.79107 88.52089
#
# Poissons Ratio (x) = 0.00787 0.32764
# Poissons Ratio (y) = 0.01846 -0.01732
# Poissons Ratio (z) = 0.30198 -0.00681
#
# Static dielectric constant tensor:
#      x y z
#    x 1.608560 0.000000 -0.000210 
#    y 0.000000 1.661050 0.000000 
#    z -0.000210 0.000000 1.617000 
# 
# From -- ./inp_files/294567.got.cif
#   From: 2010.05.17/outbox.cif.g08.bks.cpg/sg12_148_cif.got.tgz:294567.got - 2010.06.03 13:09:07.
