data_PCOD9172076
_publ_section_title
;
Structure prediction by ZEFSAII (Michael W. Deem and Ramdas Pophale) SiO2 
 PCOD9172076
Probable space group: C 2/M
;
_chemical_formula_sum "Si O2"
_cell_formula_units_Z 64
_cell_length_a 30.869435
_cell_length_b 8.478986
_cell_length_c 14.535996
_cell_angle_alpha 90.000000
_cell_angle_beta 91.417521
_cell_angle_gamma 90.000000
_cell_volume 3803.509164
_symmetry_space_group_name_H-M "C 2/M"
_symmetry_group_IT_number 12
_symmetry_cell_setting 'monoclinic'
loop_
_space_group_symop_operation_xyz
x,y,z
-x,y,-z
-x,-y,-z
x,-y,z
1/2+x,1/2+y,z
1/2-x,1/2+y,-z
1/2-x,1/2-y,-z
1/2+x,1/2-y,z
loop_
_atom_site_type_symbol
_atom_site_label
_atom_site_fract_x
_atom_site_fract_y
_atom_site_fract_z
Si Si1 0.186332 0.315110 0.468425
Si Si2 0.951808 0.808662 0.516805
Si Si3 0.837297 0.186702 0.833517
Si Si4 0.175177 0.688437 0.781498
Si Si5 0.762243 0.689367 0.695434
Si Si6 0.200842 0.312446 0.984671
Si Si7 0.126525 0.812961 0.618302
Si Si8 0.111800 0.809494 0.332970
O O1 0.190814 0.500000 0.490644
O O2 0.227043 0.259364 0.408787
O O3 0.168072 0.225534 0.555808
O O4 0.147453 0.286523 0.392645
O O5 0.915733 0.755640 0.440431
O O6 0.933071 0.774052 0.617694
O O7 0.000000 0.748995 0.500000
O O8 0.952887 0.000000 0.510014
O O9 0.797116 0.233863 0.765934
O O10 0.879475 0.226376 0.773547
O O11 0.836672 0.000000 0.848119
O O12 0.828672 0.266903 0.930218
O O13 0.178262 0.500000 0.780015
O O14 0.216246 0.760378 0.730947
O O15 0.179817 0.742811 0.887321
O O16 0.134159 0.739235 0.718561
O O17 0.766855 0.500000 0.698346
O O18 0.204473 0.500000 0.980871
O O19 0.250000 0.250000 0.000000
O O20 0.123604 0.000000 0.627396
O O21 0.119930 0.000000 0.345104
#
# Coordination Sequence:
#
# PCOD9172076 Si02
#       8
#     8   8   8   8   8   8   8   8
#     4   9  17  29  45  65  91 124 159 195 232 273
#     4   8  14  28  52  79 102 123 150 186 231 286
#     4  10  18  29  46  68  96 127 160 202 244 281
#     4  11  23  35  47  64  90 124 161 203 245 281
#     4  10  19  30  46  66  89 123 165 202 236 276
#     4  11  22  34  49  68  90 123 167 211 250 283
#     4  10  20  33  49  69  94 125 156 191 235 286
#     4   8  15  27  45  71  99 126 156 190 233 283
#
# _framework density 16.826568000000002
#
# number of rings (size 3 to 8) (size 9 to 14) (size 15 to 20)
#    0.000    2.375    1.250    3.000    0.000    4.000 
#    0.000    0.000    0.000    9.375    0.000    0.875 
#    0.000    7.000    0.000    0.000    0.000    0.000 
#
# Total GULP energy -178311.577395 kJ/mol
# GULP energy per Si atom -5572.236794 kJ/mol
# Density = 1.678827 g / cm^3
# Si number density = 16.826568 Si / 1000 Ang^3
#
#
#
# Elastic Constant Matrix: (Units=GPa)
#
#
# Indices 1 2 3 4 5 6 
#
# 1 81.0020 4.0374 52.9622 0.0000 -15.4659 0.0000
# 2 4.0374 25.7131 18.8647 0.0000 -3.7247 0.0000
# 3 52.9622 18.8647 138.9912 0.0000 -13.0906 0.0000
# 4 0.0000 0.0000 0.0000 25.8480 0.0000 -0.8361
# 5 -15.4659 -3.7247 -13.0906 0.0000 16.0704 0.0000
# 6 0.0000 0.0000 0.0000 -0.8361 0.0000 11.5434
#
#
#
# Elastic Compliance Matrix: (Units=1/GPa)
#
#
# Indices 1 2 3 4 5 6 
#
# 1 0.019038 0.003764 -0.006452 0.000000 0.013938 0.000000
# 2 0.003764 0.044418 -0.006663 0.000000 0.008489 0.000000
# 3 -0.006452 -0.006663 0.010644 0.000000 0.000916 0.000000
# 4 0.000000 0.000000 0.000000 0.038779 0.000000 0.002809
# 5 0.013938 0.008489 0.000916 0.000000 0.078354 0.000000
# 6 0.000000 0.000000 0.000000 0.002809 0.000000 0.086833
#
#
# Mechanical properties :
#
#
# Convention : Reuss Voigt Hill
#
# Bulk Modulus (GPa) = 18.05193 44.15944 31.10569
# Shear Modulus (GPa) = 15.86118 22.01515 18.93816
#
# Velocity S-wave (km/s) = 3.07355 3.62105 3.35847
# Velocity P-wave (km/s) = 4.83189 6.61691 5.79356
#
# Compressibility (1/GPa) = 0.05539574
#
# Stress axis : x y z
#
# Youngs Moduli (GPa) = 52.52691 22.51343 93.94917
#
# Poissons Ratio (x) = -0.08473 0.60620
# Poissons Ratio (y) = -0.19769 0.62601
# Poissons Ratio (z) = 0.33893 0.15001
#
# Static dielectric constant tensor:
#      x y z
#    x 1.650260 0.000000 0.007390 
#    y 0.000000 1.576520 0.000000 
#    z 0.007390 0.000000 1.612870 
# 
# From -- ./inp_files/248525.got.cif
#   From: 2010.05.17/outbox.cif.g08.bks.cpg/sg12_125_cif.got.tgz:248525.got - 2010.06.03 13:09:07.
