data_PCOD9172340
_publ_section_title
;
Structure prediction by ZEFSAII (Michael W. Deem and Ramdas Pophale) SiO2 
 PCOD9172340
Probable space group: C 2/M
;
_chemical_formula_sum "Si O2"
_cell_formula_units_Z 64
_cell_length_a 22.329066
_cell_length_b 12.694951
_cell_length_c 21.349293
_cell_angle_alpha 90.000000
_cell_angle_beta 38.332811
_cell_angle_gamma 90.000000
_cell_volume 3753.502336
_symmetry_space_group_name_H-M "C 2/M"
_symmetry_group_IT_number 12
_symmetry_cell_setting 'monoclinic'
loop_
_space_group_symop_operation_xyz
x,y,z
-x,y,-z
-x,-y,-z
x,-y,z
1/2+x,1/2+y,z
1/2-x,1/2+y,-z
1/2-x,1/2-y,-z
1/2+x,1/2-y,z
loop_
_atom_site_type_symbol
_atom_site_label
_atom_site_fract_x
_atom_site_fract_y
_atom_site_fract_z
Si Si1 0.868187 0.625798 0.395630
Si Si2 0.736047 0.377694 0.295230
Si Si3 0.238495 0.739605 0.408559
Si Si4 0.552950 0.257538 0.208151
Si Si5 0.460256 0.180686 0.102425
Si Si6 0.429095 0.622913 0.209279
Si Si7 0.361079 0.880678 0.961857
Si Si8 0.819750 0.125195 0.800147
O O1 0.865927 0.500000 0.398550
O O2 0.837397 0.677586 0.486809
O O3 0.791754 0.672745 0.408142
O O4 0.971932 0.671195 0.290949
O O5 0.713191 0.500000 0.326656
O O6 0.700314 0.300599 0.379124
O O7 0.852820 0.365468 0.196900
O O8 0.696273 0.348650 0.259365
O O9 0.322508 0.658941 0.318542
O O10 0.500807 0.343820 0.206796
O O11 0.633194 0.200061 0.099967
O O12 0.597888 0.310222 0.232263
O O13 0.454822 0.301951 0.129704
O O14 0.535672 0.126940 0.087838
O O15 0.500000 0.169051 0.000000
O O16 0.434234 0.500000 0.191906
O O17 0.345063 0.000000 0.952996
O O18 0.279123 0.855604 0.080044
O O19 0.839266 0.000000 0.787975
#
# Coordination Sequence:
#
# PCOD9172340 Si02
#       8
#     8   8   8   8   8   8   8   8
#     4  10  19  34  57  80 103 132 165 208 258 301
#     4  10  19  32  52  77 107 134 161 206 258 308
#     4   9  19  33  54  82 104 127 161 208 257 308
#     4  10  20  33  50  73 102 132 175 215 243 289
#     4  10  18  29  48  76 103 129 165 207 253 304
#     4   9  18  31  48  69  99 135 166 203 247 292
#     4  10  19  31  51  76 101 133 168 209 258 302
#     4  10  20  33  51  72 100 139 171 202 252 303
#
# _framework density 17.050742
#
# number of rings (size 3 to 8) (size 9 to 14) (size 15 to 20)
#    0.000    2.250    1.250    3.000    0.000    0.750 
#    0.000    2.500    0.000   10.500    0.000    0.000 
#    0.000    0.000    0.000    0.000    0.000    0.000 
#
# Total GULP energy -178529.917516 kJ/mol
# GULP energy per Si atom -5579.059922 kJ/mol
# Density = 1.701193 g / cm^3
# Si number density = 17.050742 Si / 1000 Ang^3
#
#
#
# Elastic Constant Matrix: (Units=GPa)
#
#
# Indices 1 2 3 4 5 6 
#
# 1 78.1262 30.1495 4.9748 0.0000 11.0284 0.0000
# 2 30.1495 95.6034 20.6885 0.0000 10.6267 0.0000
# 3 4.9748 20.6885 44.9196 0.0000 16.4130 0.0000
# 4 0.0000 0.0000 0.0000 19.0172 0.0000 4.7673
# 5 11.0284 10.6267 16.4130 0.0000 18.3747 0.0000
# 6 0.0000 0.0000 0.0000 4.7673 0.0000 18.3138
#
#
#
# Elastic Compliance Matrix: (Units=1/GPa)
#
#
# Indices 1 2 3 4 5 6 
#
# 1 0.015859 -0.004754 0.004315 0.000000 -0.010623 0.000000
# 2 -0.004754 0.013147 -0.005631 0.000000 0.000280 0.000000
# 3 0.004315 -0.005631 0.035827 0.000000 -0.031335 0.000000
# 4 0.000000 0.000000 0.000000 0.056255 0.000000 -0.014644
# 5 -0.010623 0.000280 -0.031335 0.000000 0.088627 0.000000
# 6 0.000000 0.000000 0.000000 -0.014644 0.000000 0.058416
#
#
# Mechanical properties :
#
#
# Convention : Reuss Voigt Hill
#
# Bulk Modulus (GPa) = 18.97794 36.69721 27.83758
# Shear Modulus (GPa) = 16.78783 21.99689 19.39236
#
# Velocity S-wave (km/s) = 3.14121 3.59567 3.37609
# Velocity P-wave (km/s) = 4.93059 6.22957 5.61775
#
# Compressibility (1/GPa) = 0.05269275
#
# Stress axis : x y z
#
# Youngs Moduli (GPa) = 63.05419 76.06560 27.91200
#
# Poissons Ratio (x) = 0.36164 -0.12044
# Poissons Ratio (y) = 0.29978 0.15716
# Poissons Ratio (z) = -0.27207 0.42830
#
# Static dielectric constant tensor:
#      x y z
#    x 1.567020 0.000000 0.001160 
#    y 0.000000 1.558780 0.000000 
#    z 0.001160 0.000000 1.579800 
# 
# From -- ./inp_files/321231.got.cif
#   From: 2010.05.17/outbox.cif.g08.bks.cpg/sg12_161_cif.got.tgz:321231.got - 2010.06.03 13:09:07.
