data_PCOD9172150
_publ_section_title
;
Structure prediction by ZEFSAII (Michael W. Deem and Ramdas Pophale) SiO2 
 PCOD9172150
Probable space group: C 2/M
;
_chemical_formula_sum "Si O2"
_cell_formula_units_Z 48
_cell_length_a 15.724202
_cell_length_b 7.692691
_cell_length_c 14.540946
_cell_angle_alpha 90.000000
_cell_angle_beta 89.574816
_cell_angle_gamma 90.000000
_cell_volume 1758.845151
_symmetry_space_group_name_H-M "C 2/M"
_symmetry_group_IT_number 12
_symmetry_cell_setting 'monoclinic'
loop_
_space_group_symop_operation_xyz
x,y,z
-x,y,-z
-x,-y,-z
x,-y,z
1/2+x,1/2+y,z
1/2-x,1/2+y,-z
1/2-x,1/2-y,-z
1/2+x,1/2-y,z
loop_
_atom_site_type_symbol
_atom_site_label
_atom_site_fract_x
_atom_site_fract_y
_atom_site_fract_z
Si Si1 0.165792 0.205600 0.560771
Si Si2 0.941515 0.707455 0.606425
Si Si3 0.803889 0.198742 0.100636
Si Si4 0.034869 0.711420 0.776189
Si Si5 0.421182 0.207756 0.939430
Si Si6 0.225474 0.285305 0.277923
O O1 0.250000 0.250000 0.500000
O O2 0.085661 0.261023 0.499135
O O3 0.194374 0.275408 0.660273
O O4 0.160594 0.000000 0.568121
O O5 0.948130 0.500000 0.613112
O O6 0.016941 0.775174 0.672380
O O7 0.857417 0.765116 0.664163
O O8 0.736354 0.279265 0.173430
O O9 0.887821 0.212149 0.165916
O O10 0.779994 0.000000 0.089890
O O11 0.837317 0.255064 0.000262
O O12 0.044476 0.500000 0.777766
O O13 0.949891 0.755447 0.836625
O O14 0.425597 0.000000 0.939443
O O15 0.500000 0.276647 0.000000
O O16 0.224758 0.500000 0.275157
#
# Coordination Sequence:
#
# PCOD9172150 Si02
#       6
#     8   8   8   8   8   8
#     4   9  16  29  48  68  91 120 154 186 220 267
#     4   9  17  32  51  68  89 119 155 189 222 265
#     4  10  18  29  47  69  92 118 150 187 224 266
#     4   9  18  32  49  67  90 121 152 185 227 270
#     4   8  15  29  46  64  88 120 154 182 218 270
#     4   8  16  30  47  67  91 120 149 180 225 273
#
# _framework density 27.290635999999999
#
# number of rings (size 3 to 8) (size 9 to 14) (size 15 to 20)
#    0.000    3.167    0.000    3.000    0.000    3.667 
#    0.000   10.000    0.000    5.000    0.000    0.000 
#    0.000    0.000    0.000    0.000    0.000    0.000 
#
# Total GULP energy -134015.345148 kJ/mol
# GULP energy per Si atom -5583.972715 kJ/mol
# Density = 2.722852 g / cm^3
# Si number density = 27.290636 Si / 1000 Ang^3
#
#
#
# Elastic Constant Matrix: (Units=GPa)
#
#
# Indices 1 2 3 4 5 6 
#
# 1 66.7982 -5.5954 -15.2482 0.0000 13.4052 0.0000
# 2 -5.5954 62.7479 3.4510 0.0000 6.0212 0.0000
# 3 -15.2482 3.4510 217.9471 0.0000 7.6922 0.0000
# 4 0.0000 0.0000 0.0000 19.9733 0.0000 -3.3359
# 5 13.4052 6.0212 7.6922 0.0000 54.3494 0.0000
# 6 0.0000 0.0000 0.0000 -3.3359 0.0000 23.4571
#
#
#
# Elastic Compliance Matrix: (Units=1/GPa)
#
#
# Indices 1 2 3 4 5 6 
#
# 1 0.016293 0.001805 0.001267 0.000000 -0.004398 0.000000
# 2 0.001805 0.016316 -0.000053 0.000000 -0.002245 0.000000
# 3 0.001267 -0.000053 0.004712 0.000000 -0.000973 0.000000
# 4 0.000000 0.000000 0.000000 0.051285 0.000000 0.007293
# 5 -0.004398 -0.002245 -0.000973 0.000000 0.019871 0.000000
# 6 0.000000 0.000000 0.000000 0.007293 0.000000 0.043668
#
#
# Mechanical properties :
#
#
# Convention : Reuss Voigt Hill
#
# Bulk Modulus (GPa) = 23.06286 34.74533 28.90410
# Shear Modulus (GPa) = 31.14089 43.88168 37.51129
#
# Velocity S-wave (km/s) = 3.38166 4.01426 3.71146
# Velocity P-wave (km/s) = 4.86997 5.85192 5.38338
#
# Compressibility (1/GPa) = 0.04335975
#
# Stress axis : x y z
#
# Youngs Moduli (GPa) = 61.37448 61.28904 212.22066
#
# Poissons Ratio (x) = -0.11064 -0.26879
# Poissons Ratio (y) = -0.11080 0.01120
# Poissons Ratio (z) = -0.07774 0.00324
#
# Static dielectric constant tensor:
#      x y z
#    x 2.272790 0.000000 0.032460 
#    y 0.000000 2.036170 0.000000 
#    z 0.032460 0.000000 2.159330 
# 
# From -- ./inp_files/236318.got.cif
#   From: 2010.05.17/outbox.cif.g08.bks.cpg/sg12_119_cif.got.tgz:236318.got - 2010.06.03 13:09:07.
