data_PCOD9172570
_publ_section_title
;
Structure prediction by ZEFSAII (Michael W. Deem and Ramdas Pophale) SiO2 
 PCOD9172570
Probable space group: C 2/M
;
_chemical_formula_sum "Si O2"
_cell_formula_units_Z 52
_cell_length_a 15.259356
_cell_length_b 20.334475
_cell_length_c 8.407301
_cell_angle_alpha 90.000000
_cell_angle_beta 70.799187
_cell_angle_gamma 90.000000
_cell_volume 2463.591696
_symmetry_space_group_name_H-M "C 2/M"
_symmetry_group_IT_number 12
_symmetry_cell_setting 'monoclinic'
loop_
_space_group_symop_operation_xyz
x,y,z
-x,y,-z
-x,-y,-z
x,-y,z
1/2+x,1/2+y,z
1/2-x,1/2+y,-z
1/2-x,1/2-y,-z
1/2+x,1/2-y,z
loop_
_atom_site_type_symbol
_atom_site_label
_atom_site_fract_x
_atom_site_fract_y
_atom_site_fract_z
Si Si1 0.396879 0.360794 0.637947
Si Si2 0.388576 0.000000 0.088534
Si Si3 0.602220 0.861362 0.022495
Si Si4 0.253380 0.854200 0.552555
Si Si5 0.102118 0.000000 0.359329
Si Si6 0.042785 0.268493 0.300381
Si Si7 0.781040 0.500000 0.479607
Si Si8 0.646184 0.759363 0.746454
O O1 0.500000 0.359020 0.500000
O O2 0.326307 0.360678 0.534313
O O3 0.387626 0.430098 0.733533
O O4 0.387097 0.292562 0.734479
O O5 0.354055 0.067413 0.029703
O O6 0.356870 0.000000 0.291388
O O7 0.500000 0.000000 0.000000
O O8 0.654693 0.804618 0.895186
O O9 0.500000 0.864894 0.000000
O O10 0.586122 0.835311 0.208508
O O11 0.286337 0.929009 0.564908
O O12 0.326423 0.807357 0.417982
O O13 0.206478 0.806841 0.711069
O O14 0.000000 0.000000 0.500000
O O15 0.181562 0.000000 0.447585
O O16 0.000000 0.278494 0.500000
O O17 0.961431 0.245657 0.228284
#
# Coordination Sequence:
#
# PCOD9172570 Si02
#       8
#     8   4   8   8   4   8   4   8
#     4   9  15  29  46  74 100 130 165 214 252 309
#     4  10  18  34  51  74 104 135 187 227 262 306
#     4   9  19  32  53  75 100 137 170 223 265 308
#     4  10  18  29  52  76 104 134 175 218 257 312
#     4   8  16  26  48  73 103 131 173 218 260 301
#     4  10  18  33  52  75 106 134 175 218 266 319
#     4  10  18  30  52  79 104 139 182 222 259 308
#     4  10  18  31  50  77 105 130 173 216 264 310
#
# _framework density 21.107393999999999
#
# number of rings (size 3 to 8) (size 9 to 14) (size 15 to 20)
#    0.000    2.462    4.615    0.000    0.000    0.000 
#    0.000    1.154    0.000    0.923    0.000    3.231 
#    0.000    0.000    0.000    0.000    0.000    0.000 
#
# Total GULP energy -144825.402992 kJ/mol
# GULP energy per Si atom -5570.207807 kJ/mol
# Density = 2.105935 g / cm^3
# Si number density = 21.107394 Si / 1000 Ang^3
#
#
#
# Elastic Constant Matrix: (Units=GPa)
#
#
# Indices 1 2 3 4 5 6 
#
# 1 50.8867 -0.3873 -5.4225 0.0000 -11.9076 0.0000
# 2 -0.3873 223.0032 63.2367 0.0000 0.3368 0.0000
# 3 -5.4225 63.2367 61.6192 0.0000 -5.9469 0.0000
# 4 0.0000 0.0000 0.0000 36.7330 0.0000 -17.1972
# 5 -11.9076 0.3368 -5.9469 0.0000 14.4056 0.0000
# 6 0.0000 0.0000 0.0000 -17.1972 0.0000 33.7702
#
#
#
# Elastic Compliance Matrix: (Units=1/GPa)
#
#
# Indices 1 2 3 4 5 6 
#
# 1 0.026000 -0.001838 0.006512 0.000000 0.024222 0.000000
# 2 -0.001838 0.006577 -0.007366 0.000000 -0.004714 0.000000
# 3 0.006512 -0.007366 0.025931 0.000000 0.016260 0.000000
# 4 0.000000 0.000000 0.000000 0.035746 0.000000 0.018203
# 5 0.024222 -0.004714 0.016260 0.000000 0.096263 0.000000
# 6 0.000000 0.000000 0.000000 0.018203 0.000000 0.038882
#
#
# Mechanical properties :
#
#
# Convention : Reuss Voigt Hill
#
# Bulk Modulus (GPa) = 18.82440 50.04030 34.43235
# Shear Modulus (GPa) = 19.80279 35.52057 27.66168
#
# Velocity S-wave (km/s) = 3.06632 4.10671 3.62404
# Velocity P-wave (km/s) = 4.63402 6.80042 5.81893
#
# Compressibility (1/GPa) = 0.05312254
#
# Stress axis : x y z
#
# Youngs Moduli (GPa) = 38.46220 152.04381 38.56414
#
# Poissons Ratio (x) = 0.27946 -0.25113
# Poissons Ratio (y) = 0.07069 0.28408
# Poissons Ratio (z) = -0.25047 1.12002
#
# Static dielectric constant tensor:
#      x y z
#    x 1.740130 0.000000 -0.044210 
#    y 0.000000 1.851510 0.000000 
#    z -0.044210 0.000000 1.769080 
# 
# From -- ./inp_files/76797.got.cif
#   From: 2010.05.17/outbox.cif.g08.bks.cpg/sg12_39_cif.got.tgz:76797.got - 2010.06.03 13:09:07.
