data_PCOD9172779
_publ_section_title
;
Structure prediction by ZEFSAII (Michael W. Deem and Ramdas Pophale) SiO2 
 PCOD9172779
Probable space group: C 2/M
;
_chemical_formula_sum "Si O2"
_cell_formula_units_Z 64
_cell_length_a 20.708245
_cell_length_b 7.396312
_cell_length_c 26.523293
_cell_angle_alpha 90.000000
_cell_angle_beta 129.687090
_cell_angle_gamma 90.000000
_cell_volume 3126.216955
_symmetry_space_group_name_H-M "C 2/M"
_symmetry_group_IT_number 12
_symmetry_cell_setting 'monoclinic'
loop_
_space_group_symop_operation_xyz
x,y,z
-x,y,-z
-x,-y,-z
x,-y,z
1/2+x,1/2+y,z
1/2-x,1/2+y,-z
1/2-x,1/2-y,-z
1/2+x,1/2-y,z
loop_
_atom_site_type_symbol
_atom_site_label
_atom_site_fract_x
_atom_site_fract_y
_atom_site_fract_z
Si Si1 0.109709 0.279232 0.158245
Si Si2 0.484897 0.780170 0.719423
Si Si3 0.340405 0.790755 0.926464
Si Si4 0.821443 0.719937 0.704368
Si Si5 0.348250 0.219268 0.141120
Si Si6 0.221008 0.784201 0.563157
Si Si7 0.916529 0.720293 0.068678
Si Si8 0.619688 0.215514 0.422371
O O1 0.113368 0.500000 0.159445
O O2 0.133227 0.213482 0.114327
O O3 0.169287 0.218221 0.233637
O O4 0.013856 0.230349 0.122768
O O5 0.406974 0.730856 0.716994
O O6 0.573069 0.719200 0.785842
O O7 0.459445 0.721359 0.650107
O O8 0.487852 0.000000 0.721659
O O9 0.240726 0.782762 0.883121
O O10 0.368278 0.000000 0.939159
O O11 0.381072 0.713429 0.997634
O O12 0.819931 0.500000 0.704979
O O13 0.743242 0.779692 0.630574
O O14 0.364483 0.278677 0.091614
O O15 0.347202 0.000000 0.140979
O O16 0.298194 0.714027 0.566936
O O17 0.136483 0.749390 0.489622
O O18 0.228249 0.000000 0.568255
O O19 0.912897 0.500000 0.066699
O O20 0.620206 0.000000 0.417547
#
# Coordination Sequence:
#
# PCOD9172779 Si02
#       8
#     8   8   8   8   8   8   8   8
#     4   9  15  26  45  67  88 113 147 185 218 250
#     4   8  13  23  40  61  81 107 147 183 203 237
#     4  10  20  30  43  68  96 113 136 183 232 262
#     4   8  12  21  39  62  83 106 143 182 208 241
#     4  10  18  30  48  65  85 118 153 180 209 256
#     4   8  13  20  33  56  83 106 130 166 210 252
#     4   9  16  28  47  68  86 111 150 187 215 251
#     4   8  13  21  34  54  81 108 133 166 208 249
#
# _framework density 20.472028999999999
#
# number of rings (size 3 to 8) (size 9 to 14) (size 15 to 20)
#    0.000    3.250    1.250    2.250    0.000    1.500 
#    0.000    0.625    0.000    3.750    0.000    0.875 
#    0.000    7.000    0.000    0.000    0.000    0.000 
#
# Total GULP energy -178295.018746 kJ/mol
# GULP energy per Si atom -5571.719336 kJ/mol
# Density = 2.042543 g / cm^3
# Si number density = 20.472029 Si / 1000 Ang^3
#
#
#
# Elastic Constant Matrix: (Units=GPa)
#
#
# Indices 1 2 3 4 5 6 
#
# 1 19.2927 -10.7446 -26.4192 0.0000 0.7463 0.0000
# 2 -10.7446 66.4701 -7.2670 0.0000 2.0726 0.0000
# 3 -26.4192 -7.2670 98.0641 0.0000 26.2837 0.0000
# 4 0.0000 0.0000 0.0000 2.7491 0.0000 6.2741
# 5 0.7463 2.0726 26.2837 0.0000 -4.8144 0.0000
# 6 0.0000 0.0000 0.0000 6.2741 0.0000 6.2691
#
#
#
# Elastic Compliance Matrix: (Units=1/GPa)
#
#
# Indices 1 2 3 4 5 6 
#
# 1 0.063128 0.009427 0.005682 0.000000 0.044862 0.000000
# 2 0.009427 0.016268 0.000599 0.000000 0.011737 0.000000
# 3 0.005682 0.000599 0.004655 0.000000 0.026554 0.000000
# 4 0.000000 0.000000 0.000000 -0.283282 0.000000 0.283510
# 5 0.044862 0.011737 0.026554 0.000000 -0.050734 0.000000
# 6 0.000000 0.000000 0.000000 0.283510 0.000000 -0.124226
#
#
# Mechanical properties :
#
#
# Convention : Reuss Voigt Hill
#
# Bulk Modulus (GPa) = 8.66060 10.55171 9.60616
# Shear Modulus (GPa) = -13.61962 16.05795 1.21917
#
# Velocity S-wave (km/s) = -2.58210 2.80373 0.77254
# Velocity P-wave (km/s) = 2.15639 3.95557 2.34484
#
# Compressibility (1/GPa) = 0.11546546
#
# Stress axis : x y z
#
# Youngs Moduli (GPa) = 15.84091 61.47163 214.80868
#
# Poissons Ratio (x) = -0.57947 -1.22044
# Poissons Ratio (y) = -0.14933 -0.12874
# Poissons Ratio (z) = -0.09000 -0.03684
#
# Static dielectric constant tensor:
#      x y z
#    x 1.658810 0.000000 -0.010820 
#    y 0.000000 1.787970 0.000000 
#    z -0.010820 0.000000 1.798910 
# 
# From -- ./inp_files/276513.got.cif
#   From: 2010.05.17/outbox.cif.g08.bks.cpg/sg12_139_cif.got.tgz:276513.got - 2010.06.03 13:09:07.
