data_PCOD9172559
_publ_section_title
;
Structure prediction by ZEFSAII (Michael W. Deem and Ramdas Pophale) SiO2 
 PCOD9172559
Probable space group: C 2/M
;
_chemical_formula_sum "Si O2"
_cell_formula_units_Z 56
_cell_length_a 19.878793
_cell_length_b 8.939881
_cell_length_c 27.997810
_cell_angle_alpha 90.000000
_cell_angle_beta 145.348374
_cell_angle_gamma 90.000000
_cell_volume 2829.054796
_symmetry_space_group_name_H-M "C 2/M"
_symmetry_group_IT_number 12
_symmetry_cell_setting 'monoclinic'
loop_
_space_group_symop_operation_xyz
x,y,z
-x,y,-z
-x,-y,-z
x,-y,z
1/2+x,1/2+y,z
1/2-x,1/2+y,-z
1/2-x,1/2-y,-z
1/2+x,1/2-y,z
loop_
_atom_site_type_symbol
_atom_site_label
_atom_site_fract_x
_atom_site_fract_y
_atom_site_fract_z
Si Si1 0.763644 0.821414 0.409791
Si Si2 0.829606 0.177873 0.087563
Si Si3 0.075111 0.171582 0.359855
Si Si4 0.489354 0.672227 0.418993
Si Si5 0.916478 0.322812 0.782078
Si Si6 0.754027 0.677375 0.247630
Si Si7 0.162346 0.323037 0.809986
O O1 0.700147 0.733815 0.415559
O O2 0.901280 0.779485 0.483880
O O3 0.681563 0.793553 0.316128
O O4 0.762560 0.000000 0.418795
O O5 0.789980 0.235173 0.116615
O O6 0.963451 0.235845 0.158549
O O7 0.824957 0.000000 0.082459
O O8 0.750000 0.250000 0.000000
O O9 0.050290 0.173272 0.401835
O O10 0.973647 0.273684 0.277232
O O11 0.060978 0.000000 0.335402
O O12 0.454829 0.500000 0.410075
O O13 0.372694 0.770073 0.344695
O O14 0.939837 0.500000 0.796704
O O15 0.855991 0.265823 0.795123
O O16 0.738569 0.500000 0.244328
O O17 0.774884 0.710278 0.203787
O O18 0.167625 0.500000 0.821865
#
# Coordination Sequence:
#
# PCOD9172559 Si02
#       7
#     8   8   8   8   8   8   8
#     4  10  20  33  52  78 116 160 203 252 303 354
#     4  12  25  43  69  98 125 151 189 240 295 358
#     4  10  18  29  51  81 114 153 201 253 299 351
#     4   9  19  34  51  78 115 160 208 251 300 352
#     4  11  23  40  62  88 122 162 201 246 301 358
#     4  10  22  39  60  86 121 164 206 251 298 349
#     4  10  20  38  62  88 120 158 199 243 299 356
#
# _framework density 19.794598000000001
#
# number of rings (size 3 to 8) (size 9 to 14) (size 15 to 20)
#    0.000    1.714    1.429    3.429    0.000    4.000 
#    0.000    3.571    0.000    4.286    0.000    0.000 
#    0.000    0.000    0.000    0.000    0.000    0.000 
#
# Total GULP energy -156502.487514 kJ/mol
# GULP energy per Si atom -5589.374554 kJ/mol
# Density = 1.974954 g / cm^3
# Si number density = 19.794598 Si / 1000 Ang^3
#
#
#
# Elastic Constant Matrix: (Units=GPa)
#
#
# Indices 1 2 3 4 5 6 
#
# 1 77.0987 50.0561 26.1291 0.0000 0.9980 0.0000
# 2 50.0561 95.4191 47.2344 0.0000 -10.1304 0.0000
# 3 26.1291 47.2344 85.2920 0.0000 -22.4019 0.0000
# 4 0.0000 0.0000 0.0000 29.4505 0.0000 4.3672
# 5 0.9980 -10.1304 -22.4019 0.0000 19.3995 0.0000
# 6 0.0000 0.0000 0.0000 4.3672 0.0000 28.3056
#
#
#
# Elastic Compliance Matrix: (Units=1/GPa)
#
#
# Indices 1 2 3 4 5 6 
#
# 1 0.021062 -0.010477 -0.003404 0.000000 -0.010486 0.000000
# 2 -0.010477 0.019730 -0.006989 0.000000 0.002772 0.000000
# 3 -0.003404 -0.006989 0.022571 0.000000 0.022590 0.000000
# 4 0.000000 0.000000 0.000000 0.034750 0.000000 -0.005362
# 5 -0.010486 0.002772 0.022590 0.000000 0.079621 0.000000
# 6 0.000000 0.000000 0.000000 -0.005362 0.000000 0.036156
#
#
# Mechanical properties :
#
#
# Convention : Reuss Voigt Hill
#
# Bulk Modulus (GPa) = 46.24780 56.07214 51.15997
# Shear Modulus (GPa) = 19.02310 24.39046 21.70678
#
# Velocity S-wave (km/s) = 3.10340 3.51405 3.31509
# Velocity P-wave (km/s) = 6.02130 6.69725 6.36825
#
# Compressibility (1/GPa) = 0.02162265
#
# Stress axis : x y z
#
# Youngs Moduli (GPa) = 47.47868 50.68380 44.30463
#
# Poissons Ratio (x) = 0.53102 0.15083
# Poissons Ratio (y) = 0.49744 0.30964
# Poissons Ratio (z) = 0.16163 0.35423
#
# Static dielectric constant tensor:
#      x y z
#    x 1.727310 0.000000 -0.027510 
#    y 0.000000 1.659100 0.000000 
#    z -0.027510 0.000000 1.695830 
# 
# From -- ./inp_files/380750.got.cif
#   From: 2010.05.17/outbox.cif.g08.bks.cpg/sg12_191_cif.got.tgz:380750.got - 2010.06.03 13:09:07.
