data_PCOD9172270
_publ_section_title
;
Structure prediction by ZEFSAII (Michael W. Deem and Ramdas Pophale) SiO2 
 PCOD9172270
Probable space group: C 2/M
;
_chemical_formula_sum "Si O2"
_cell_formula_units_Z 56
_cell_length_a 19.740343
_cell_length_b 10.703973
_cell_length_c 13.754420
_cell_angle_alpha 90.000000
_cell_angle_beta 67.249342
_cell_angle_gamma 90.000000
_cell_volume 2680.189276
_symmetry_space_group_name_H-M "C 2/M"
_symmetry_group_IT_number 12
_symmetry_cell_setting 'monoclinic'
loop_
_space_group_symop_operation_xyz
x,y,z
-x,y,-z
-x,-y,-z
x,-y,z
1/2+x,1/2+y,z
1/2-x,1/2+y,-z
1/2-x,1/2-y,-z
1/2+x,1/2-y,z
loop_
_atom_site_type_symbol
_atom_site_label
_atom_site_fract_x
_atom_site_fract_y
_atom_site_fract_z
Si Si1 0.041110 0.858172 0.222981
Si Si2 0.856824 0.249527 0.984232
Si Si3 0.085646 0.855784 0.865296
Si Si4 0.713126 0.866587 0.138727
Si Si5 0.184156 0.141281 0.636299
Si Si6 0.578869 0.854932 0.348655
Si Si7 0.855108 0.356838 0.484365
O O1 0.114745 0.845909 0.115438
O O2 0.039703 0.752845 0.307612
O O3 0.977109 0.834902 0.179842
O O4 0.035059 0.000000 0.263596
O O5 0.843204 0.365984 0.921761
O O6 0.911542 0.234913 0.044130
O O7 0.777991 0.226284 0.077268
O O8 0.159985 0.844181 0.760941
O O9 0.078513 0.000000 0.903560
O O10 0.661992 0.847202 0.259418
O O11 0.750317 0.000000 0.125672
O O12 0.144768 0.248649 0.595673
O O13 0.271343 0.148793 0.571725
O O14 0.161046 0.000000 0.619817
O O15 0.588229 0.835120 0.458701
O O16 0.554512 0.000000 0.346008
O O17 0.865823 0.500000 0.442751
#
# Coordination Sequence:
#
# PCOD9172270 Si02
#       7
#     8   8   8   8   8   8   8
#     4  10  20  32  48  72  98 126 165 203 229 268
#     4  10  18  29  48  71  97 128 160 197 237 276
#     4  10  19  32  49  69  96 129 162 194 232 280
#     4   9  17  29  46  71  99 125 157 195 237 287
#     4   9  18  32  51  75  99 123 154 194 241 289
#     4   9  18  33  51  70  96 129 159 192 240 290
#     4   9  17  32  54  76  96 120 154 197 243 289
#
# _framework density 20.894047
#
# number of rings (size 3 to 8) (size 9 to 14) (size 15 to 20)
#    0.000    2.571    0.000    2.571    0.000    4.000 
#    0.000    2.857    0.000   11.143    0.000    0.000 
#    0.000    0.000    0.000    0.000    0.000    0.000 
#
# Total GULP energy -155956.710533 kJ/mol
# GULP energy per Si atom -5569.882519 kJ/mol
# Density = 2.084649 g / cm^3
# Si number density = 20.894047 Si / 1000 Ang^3
#
#
#
# Elastic Constant Matrix: (Units=GPa)
#
#
# Indices 1 2 3 4 5 6 
#
# 1 69.9561 36.1721 18.3007 0.0000 18.8180 0.0000
# 2 36.1721 112.2409 57.1839 0.0000 38.1896 0.0000
# 3 18.3007 57.1839 86.8054 0.0000 21.1845 0.0000
# 4 0.0000 0.0000 0.0000 15.9539 0.0000 9.9229
# 5 18.8180 38.1896 21.1845 0.0000 45.2002 0.0000
# 6 0.0000 0.0000 0.0000 9.9229 0.0000 17.3294
#
#
#
# Elastic Compliance Matrix: (Units=1/GPa)
#
#
# Indices 1 2 3 4 5 6 
#
# 1 0.017550 -0.004520 0.000145 0.000000 -0.003556 0.000000
# 2 -0.004520 0.017859 -0.008569 0.000000 -0.009191 0.000000
# 3 0.000145 -0.008569 0.017369 0.000000 -0.000961 0.000000
# 4 0.000000 0.000000 0.000000 0.097352 0.000000 -0.055744
# 5 -0.003556 -0.009191 -0.000961 0.000000 0.031820 0.000000
# 6 0.000000 0.000000 0.000000 -0.055744 0.000000 0.089625
#
#
# Mechanical properties :
#
#
# Convention : Reuss Voigt Hill
#
# Bulk Modulus (GPa) = 37.18729 54.70173 45.94451
# Shear Modulus (GPa) = 16.31714 26.18641 21.25177
#
# Velocity S-wave (km/s) = 2.79757 3.54403 3.19269
# Velocity P-wave (km/s) = 5.31713 6.55624 5.96893
#
# Compressibility (1/GPa) = 0.02689091
#
# Stress axis : x y z
#
# Youngs Moduli (GPa) = 56.97881 55.99433 57.57495
#
# Poissons Ratio (x) = 0.25311 -0.00838
# Poissons Ratio (y) = 0.25756 0.49334
# Poissons Ratio (z) = -0.00829 0.47980
#
# Static dielectric constant tensor:
#      x y z
#    x 1.866780 0.000000 -0.022570 
#    y 0.000000 1.750400 0.000000 
#    z -0.022570 0.000000 1.735940 
# 
# From -- ./inp_files/164827.got.cif
#   From: 2010.05.17/outbox.cif.g08.bks.cpg/sg12_83_cif.got.tgz:164827.got - 2010.06.03 13:09:07.
