data_PCOD9172880
_publ_section_title
;
Structure prediction by ZEFSAII (Michael W. Deem and Ramdas Pophale) SiO2 
 PCOD9172880
Probable space group: C 2/M
;
_chemical_formula_sum "Si O2"
_cell_formula_units_Z 48
_cell_length_a 26.237241
_cell_length_b 8.929709
_cell_length_c 11.772416
_cell_angle_alpha 90.000000
_cell_angle_beta 87.868194
_cell_angle_gamma 90.000000
_cell_volume 2756.261324
_symmetry_space_group_name_H-M "C 2/M"
_symmetry_group_IT_number 12
_symmetry_cell_setting 'monoclinic'
loop_
_space_group_symop_operation_xyz
x,y,z
-x,y,-z
-x,-y,-z
x,-y,z
1/2+x,1/2+y,z
1/2-x,1/2+y,-z
1/2-x,1/2-y,-z
1/2+x,1/2-y,z
loop_
_atom_site_type_symbol
_atom_site_label
_atom_site_fract_x
_atom_site_fract_y
_atom_site_fract_z
Si Si1 0.091496 0.325081 0.715137
Si Si2 0.699012 0.319127 0.362664
Si Si3 0.560201 0.336606 0.504765
Si Si4 0.897909 0.826676 0.753078
Si Si5 0.191009 0.821534 0.629173
Si Si6 0.006902 0.680341 0.131034
O O1 0.099292 0.500000 0.738426
O O2 0.074308 0.295833 0.587223
O O3 0.145375 0.239483 0.711518
O O4 0.043713 0.269439 0.795076
O O5 0.700472 0.500000 0.357165
O O6 0.659214 0.267592 0.268569
O O7 0.755030 0.251986 0.343890
O O8 0.682278 0.282880 0.494963
O O9 0.500000 0.340765 0.500000
O O10 0.577934 0.500000 0.550453
O O11 0.580511 0.324898 0.376763
O O12 0.939882 0.743169 0.824799
O O13 0.894896 0.000000 0.791278
O O14 0.194876 0.000000 0.636413
O O15 0.008611 0.500000 0.140740
O O16 0.000000 0.720608 0.000000
#
# Coordination Sequence:
#
# PCOD9172880 Si02
#       6
#     8   8   8   8   8   8
#     4  11  21  32  51  76 104 139 176 213 256 310
#     4   9  18  32  49  75 110 142 170 204 250 308
#     4  10  18  30  48  74 108 138 164 204 259 313
#     4  10  19  33  54  78 106 138 171 210 258 310
#     4  10  19  32  50  75 109 144 172 206 253 307
#     4  10  23  40  54  73 103 138 177 222 267 306
#
# _framework density 17.414894
#
# number of rings (size 3 to 8) (size 9 to 14) (size 15 to 20)
#    0.000    2.000    3.333    1.000    0.000    3.333 
#    0.000    0.000    0.000    1.000    0.000    0.000 
#    0.000    0.000    0.000    0.000    0.000    0.000 
#
# Total GULP energy -133678.303089 kJ/mol
# GULP energy per Si atom -5569.929295 kJ/mol
# Density = 1.737526 g / cm^3
# Si number density = 17.414894 Si / 1000 Ang^3
#
#
#
# Elastic Constant Matrix: (Units=GPa)
#
#
# Indices 1 2 3 4 5 6 
#
# 1 155.3494 40.8399 51.4078 0.0000 21.6050 0.0000
# 2 40.8399 30.1473 22.7867 0.0000 4.5885 0.0000
# 3 51.4078 22.7867 59.4936 0.0000 13.5754 0.0000
# 4 0.0000 0.0000 0.0000 8.6972 0.0000 -1.8558
# 5 21.6050 4.5885 13.5754 0.0000 14.0196 0.0000
# 6 0.0000 0.0000 0.0000 -1.8558 0.0000 28.4819
#
#
#
# Elastic Compliance Matrix: (Units=1/GPa)
#
#
# Indices 1 2 3 4 5 6 
#
# 1 0.012504 -0.012689 -0.003203 0.000000 -0.012015 0.000000
# 2 -0.012689 0.059638 -0.015256 0.000000 0.014809 0.000000
# 3 -0.003203 -0.015256 0.029721 0.000000 -0.018850 0.000000
# 4 0.000000 0.000000 0.000000 0.116601 0.000000 0.007597
# 5 -0.012015 0.014809 -0.018850 0.000000 0.103250 0.000000
# 6 0.000000 0.000000 0.000000 0.007597 0.000000 0.035605
#
#
# Mechanical properties :
#
#
# Convention : Reuss Voigt Hill
#
# Bulk Modulus (GPa) = 25.27458 52.78435 39.02947
# Shear Modulus (GPa) = 11.55261 18.90346 15.22803
#
# Velocity S-wave (km/s) = 2.57840 3.29823 2.96028
# Velocity P-wave (km/s) = 4.83828 6.69926 5.84333
#
# Compressibility (1/GPa) = 0.03956544
#
# Stress axis : x y z
#
# Youngs Moduli (GPa) = 79.97646 16.76797 33.64658
#
# Poissons Ratio (x) = 0.21277 0.10776
# Poissons Ratio (y) = 1.01482 0.51333
# Poissons Ratio (z) = 0.25614 0.25582
#
# Static dielectric constant tensor:
#      x y z
#    x 1.675100 0.000000 -0.002180 
#    y 0.000000 1.615670 0.000000 
#    z -0.002180 0.000000 1.568990 
# 
# From -- ./inp_files/179257.got.cif
#   From: 2010.05.17/outbox.cif.g08.bks.cpg/sg12_90_cif.got.tgz:179257.got - 2010.06.03 13:09:07.
