data_PCOD9172214
_publ_section_title
;
Structure prediction by ZEFSAII (Michael W. Deem and Ramdas Pophale) SiO2 
 PCOD9172214
Probable space group: C 2/M
;
_chemical_formula_sum "Si O2"
_cell_formula_units_Z 64
_cell_length_a 30.985286
_cell_length_b 8.115274
_cell_length_c 23.575215
_cell_angle_alpha 90.000000
_cell_angle_beta 40.060406
_cell_angle_gamma 90.000000
_cell_volume 3815.284601
_symmetry_space_group_name_H-M "C 2/M"
_symmetry_group_IT_number 12
_symmetry_cell_setting 'monoclinic'
loop_
_space_group_symop_operation_xyz
x,y,z
-x,y,-z
-x,-y,-z
x,-y,z
1/2+x,1/2+y,z
1/2-x,1/2+y,-z
1/2-x,1/2-y,-z
1/2+x,1/2-y,z
loop_
_atom_site_type_symbol
_atom_site_label
_atom_site_fract_x
_atom_site_fract_y
_atom_site_fract_z
Si Si1 0.002416 0.808451 0.866910
Si Si2 0.367322 0.300361 0.193114
Si Si3 0.776394 0.800980 0.385858
Si Si4 0.499449 0.194121 0.742330
Si Si5 0.627340 0.810437 0.940895
Si Si6 0.645990 0.199342 0.579590
Si Si7 0.352529 0.200433 0.874369
Si Si8 0.274873 0.303774 0.065529
O O1 0.063536 0.751312 0.845140
O O2 0.998925 0.714483 0.810971
O O3 0.014754 0.000000 0.840548
O O4 0.933140 0.792365 0.970519
O O5 0.367132 0.500000 0.189591
O O6 0.307076 0.246906 0.295253
O O7 0.363668 0.231781 0.133783
O O8 0.702065 0.743212 0.478243
O O9 0.825672 0.747357 0.387114
O O10 0.775740 0.000000 0.386221
O O11 0.570307 0.263239 0.649190
O O12 0.428595 0.261060 0.791112
O O13 0.499497 0.000000 0.728997
O O14 0.693937 0.776763 0.910308
O O15 0.607926 0.000000 0.966889
O O16 0.644181 0.000000 0.579210
O O17 0.299113 0.250773 0.880130
O O18 0.352479 0.000000 0.876638
O O19 0.323197 0.261782 0.963812
O O20 0.274194 0.500000 0.074060
#
# Coordination Sequence:
#
# PCOD9172214 Si02
#       8
#     8   8   8   8   8   8   8   8
#     4  11  21  33  48  68  95 129 164 194 227 275
#     4  10  21  35  49  66  93 128 166 200 231 274
#     4   9  17  31  47  67  94 126 160 194 230 273
#     4  10  18  29  47  73 101 127 154 189 233 279
#     4  12  24  35  48  67  93 125 163 203 240 279
#     4   9  17  28  47  71  97 125 154 190 234 278
#     4   9  18  31  48  70  96 124 155 193 236 282
#     4  10  19  32  49  68  92 124 159 195 236 282
#
# _framework density 16.774633000000001
#
# number of rings (size 3 to 8) (size 9 to 14) (size 15 to 20)
#    0.000    2.000    2.500    2.250    0.000    3.500 
#    0.000    0.000    0.000    0.000    0.000    0.875 
#    0.000    7.000    0.000    0.000    0.000    0.000 
#
# Total GULP energy -178512.315609 kJ/mol
# GULP energy per Si atom -5578.509863 kJ/mol
# Density = 1.673645 g / cm^3
# Si number density = 16.774633 Si / 1000 Ang^3
#
#
#
# Elastic Constant Matrix: (Units=GPa)
#
#
# Indices 1 2 3 4 5 6 
#
# 1 96.3199 0.1780 50.1276 -0.0023 -22.5031 0.0174
# 2 0.1780 12.9156 -3.8310 -0.0119 -2.0917 0.0174
# 3 50.1276 -3.8310 81.0513 0.0018 -24.3009 0.0088
# 4 -0.0023 -0.0119 0.0018 12.2726 -0.0002 3.4086
# 5 -22.5031 -2.0917 -24.3009 -0.0002 29.7822 -0.0008
# 6 0.0174 0.0174 0.0088 3.4086 -0.0008 19.2607
#
#
#
# Elastic Compliance Matrix: (Units=1/GPa)
#
#
# Indices 1 2 3 4 5 6 
#
# 1 0.015960 -0.001913 -0.008454 0.000005 0.005027 -0.000010
# 2 -0.001913 0.081744 0.008387 0.000104 0.011139 -0.000094
# 3 -0.008454 0.008387 0.021479 0.000007 0.011727 -0.000010
# 4 0.000005 0.000104 0.000007 0.085695 0.000017 -0.015166
# 5 0.005027 0.011139 0.011727 0.000017 0.047726 -0.000021
# 6 -0.000010 -0.000094 -0.000010 -0.015166 -0.000021 0.054603
#
#
# Mechanical properties :
#
#
# Convention : Reuss Voigt Hill
#
# Bulk Modulus (GPa) = 8.67899 31.47068 20.07483
# Shear Modulus (GPa) = 14.30311 21.85057 18.07684
#
# Velocity S-wave (km/s) = 2.92321 3.61306 3.28629
# Velocity P-wave (km/s) = 4.07169 6.01725 5.13741
#
# Compressibility (1/GPa) = 0.11522084
#
# Stress axis : x y z
#
# Youngs Moduli (GPa) = 62.65823 12.23336 46.55766
#
# Poissons Ratio (x) = 0.02341 0.39359
# Poissons Ratio (y) = 0.11989 -0.39047
# Poissons Ratio (z) = 0.52970 -0.10260
#
# Static dielectric constant tensor:
#      x y z
#    x 1.563790 -0.000010 -0.041000 
#    y -0.000010 1.587260 0.000010 
#    z -0.041000 0.000010 1.571650 
# 
# From -- ./inp_files/326820.got.cif
#   From: 2010.05.17/outbox.cif.g08.bks.cpg/sg12_164_cif.got.tgz:326820.got - 2010.06.03 13:09:07.
