data_PCOD9172399
_publ_section_title
;
Structure prediction by ZEFSAII (Michael W. Deem and Ramdas Pophale) SiO2 
 PCOD9172399
Probable space group: C 2/M
;
_chemical_formula_sum "Si O2"
_cell_formula_units_Z 56
_cell_length_a 21.086401
_cell_length_b 9.321893
_cell_length_c 15.867942
_cell_angle_alpha 90.000000
_cell_angle_beta 89.730944
_cell_angle_gamma 90.000000
_cell_volume 3119.050388
_symmetry_space_group_name_H-M "C 2/M"
_symmetry_group_IT_number 12
_symmetry_cell_setting 'monoclinic'
loop_
_space_group_symop_operation_xyz
x,y,z
-x,y,-z
-x,-y,-z
x,-y,z
1/2+x,1/2+y,z
1/2-x,1/2+y,-z
1/2-x,1/2-y,-z
1/2+x,1/2-y,z
loop_
_atom_site_type_symbol
_atom_site_label
_atom_site_fract_x
_atom_site_fract_y
_atom_site_fract_z
Si Si1 0.529719 0.668199 0.911215
Si Si2 0.295735 0.832010 0.264447
Si Si3 0.053415 0.667778 0.747243
Si Si4 0.221985 0.339344 0.124905
Si Si5 0.052275 0.171746 0.570263
Si Si6 0.158732 0.843269 0.000352
Si Si7 0.199552 0.171774 0.559829
O O1 0.512707 0.500000 0.899400
O O2 0.519182 0.756611 0.826422
O O3 0.603773 0.677125 0.933468
O O4 0.500000 0.718619 0.000000
O O5 0.370149 0.822148 0.238973
O O6 0.249255 0.767293 0.194678
O O7 0.289432 0.736089 0.347579
O O8 0.282283 0.000000 0.280347
O O9 0.037268 0.500000 0.742178
O O10 0.040989 0.746313 0.658375
O O11 0.210549 0.500000 0.157274
O O12 0.277393 0.347807 0.054449
O O13 0.163538 0.273550 0.073401
O O14 0.124926 0.202224 0.540659
O O15 0.000000 0.208899 0.500000
O O16 0.048663 0.000000 0.585444
O O17 0.149417 0.000000 0.040418
O O18 0.250000 0.250000 0.500000
O O19 0.208025 0.000000 0.557650
#
# Coordination Sequence:
#
# PCOD9172399 Si02
#       7
#     8   8   8   8   8   8   8
#     4  10  20  35  54  74 101 141 184 222 262 314
#     4  10  19  32  52  77 105 137 175 216 262 316
#     4  10  20  33  53  80 108 138 176 224 273 318
#     4  10  18  29  49  74  99 129 166 211 257 301
#     4   9  19  37  61  85 109 143 186 226 269 326
#     4   9  18  31  47  70 100 131 166 210 257 302
#     4  10  20  35  56  82 112 142 176 220 271 325
#
# _framework density 17.954181999999999
#
# number of rings (size 3 to 8) (size 9 to 14) (size 15 to 20)
#    0.000    2.286    1.429    1.714    0.000    3.429 
#    0.000    1.429    0.000    3.429    0.000    0.000 
#    0.000    0.000    0.000    0.000    0.000    0.000 
#
# Total GULP energy -155995.926853 kJ/mol
# GULP energy per Si atom -5571.283102 kJ/mol
# Density = 1.791332 g / cm^3
# Si number density = 17.954182 Si / 1000 Ang^3
#
#
#
# Elastic Constant Matrix: (Units=GPa)
#
#
# Indices 1 2 3 4 5 6 
#
# 1 36.1206 41.5258 42.6530 0.0000 -0.0905 0.0000
# 2 41.5258 104.5414 69.7246 0.0000 -2.7518 0.0000
# 3 42.6530 69.7246 105.9697 0.0000 -9.7469 0.0000
# 4 0.0000 0.0000 0.0000 35.5212 0.0000 2.2232
# 5 -0.0905 -2.7518 -9.7469 0.0000 20.7073 0.0000
# 6 0.0000 0.0000 0.0000 2.2232 0.0000 18.2766
#
#
#
# Elastic Compliance Matrix: (Units=1/GPa)
#
#
# Indices 1 2 3 4 5 6 
#
# 1 0.064908 -0.014275 -0.017645 0.000000 -0.009919 0.000000
# 2 -0.014275 0.020384 -0.007759 0.000000 -0.001006 0.000000
# 3 -0.017645 -0.007759 0.022517 0.000000 0.009491 0.000000
# 4 0.000000 0.000000 0.000000 0.028368 0.000000 -0.003451
# 5 -0.009919 -0.001006 0.009491 0.000000 0.052582 0.000000
# 6 0.000000 0.000000 0.000000 -0.003451 0.000000 0.055135
#
#
# Mechanical properties :
#
#
# Convention : Reuss Voigt Hill
#
# Bulk Modulus (GPa) = 35.14874 61.60429 48.37652
# Shear Modulus (GPa) = 15.02687 21.08289 18.05488
#
# Velocity S-wave (km/s) = 2.89616 3.43047 3.17457
# Velocity P-wave (km/s) = 5.55005 7.07653 6.35926
#
# Compressibility (1/GPa) = 0.02845052
#
# Stress axis : x y z
#
# Youngs Moduli (GPa) = 15.40639 49.05711 44.41075
#
# Poissons Ratio (x) = 0.70030 0.78365
# Poissons Ratio (y) = 0.21993 0.34458
# Poissons Ratio (z) = 0.27185 0.38063
#
# Static dielectric constant tensor:
#      x y z
#    x 1.658600 0.000000 -0.012500 
#    y 0.000000 1.632370 0.000000 
#    z -0.012500 0.000000 1.601560 
# 
# From -- ./inp_files/230849.got.cif
#   From: 2010.05.17/outbox.cif.g08.bks.cpg/sg12_116_cif.got.tgz:230849.got - 2010.06.03 13:09:07.
