data_PCOD9172679
_publ_section_title
;
Structure prediction by ZEFSAII (Michael W. Deem and Ramdas Pophale) SiO2 
 PCOD9172679
Probable space group: C 2/M
;
_chemical_formula_sum "Si O2"
_cell_formula_units_Z 64
_cell_length_a 24.642815
_cell_length_b 8.052403
_cell_length_c 17.534080
_cell_angle_alpha 90.000000
_cell_angle_beta 84.202156
_cell_angle_gamma 90.000000
_cell_volume 3461.556876
_symmetry_space_group_name_H-M "C 2/M"
_symmetry_group_IT_number 12
_symmetry_cell_setting 'monoclinic'
loop_
_space_group_symop_operation_xyz
x,y,z
-x,y,-z
-x,-y,-z
x,-y,z
1/2+x,1/2+y,z
1/2-x,1/2+y,-z
1/2-x,1/2-y,-z
1/2+x,1/2-y,z
loop_
_atom_site_type_symbol
_atom_site_label
_atom_site_fract_x
_atom_site_fract_y
_atom_site_fract_z
Si Si1 0.691841 0.695517 0.041600
Si Si2 0.298169 0.201913 0.242339
Si Si3 0.626349 0.195409 0.909816
Si Si4 0.397006 0.801986 0.321274
Si Si5 0.060291 0.203381 0.268209
Si Si6 0.319943 0.703822 0.784350
Si Si7 0.983398 0.200722 0.418452
Si Si8 0.528928 0.692065 0.828827
O O1 0.695160 0.500000 0.050241
O O2 0.682232 0.763126 0.127652
O O3 0.750000 0.750000 0.000000
O O4 0.644558 0.733255 0.987817
O O5 0.332256 0.258728 0.162551
O O6 0.334910 0.244953 0.310438
O O7 0.236042 0.259183 0.247612
O O8 0.296935 0.000000 0.238790
O O9 0.564813 0.226980 0.890165
O O10 0.635038 0.000000 0.912889
O O11 0.424178 0.758291 0.397507
O O12 0.433119 0.710296 0.251933
O O13 0.402606 0.000000 0.307290
O O14 0.122827 0.256364 0.259726
O O15 0.026549 0.256808 0.347573
O O16 0.028428 0.258678 0.195678
O O17 0.058479 0.000000 0.267199
O O18 0.320131 0.500000 0.783442
O O19 0.000000 0.258645 0.500000
O O20 0.983567 0.000000 0.418698
O O21 0.522033 0.500000 0.849944
#
# Coordination Sequence:
#
# PCOD9172679 Si02
#       8
#     8   8   8   8   8   8   8   8
#     4  11  20  30  46  67  92 121 156 200 243 280
#     4   8  14  25  42  65  89 114 150 191 225 260
#     4  10  18  30  46  66  91 121 158 200 239 280
#     4   9  16  26  44  70  96 121 150 187 230 278
#     4   8  15  28  47  69  92 118 154 192 229 276
#     4   9  16  28  46  67  90 120 156 195 232 275
#     4   9  17  30  49  73  97 119 149 192 233 271
#     4   9  16  28  46  69  92 119 156 198 237 274
#
# _framework density 18.488790999999999
#
# number of rings (size 3 to 8) (size 9 to 14) (size 15 to 20)
#    0.000    2.875    1.250    3.000    0.000    0.250 
#    0.000    0.625    0.000   12.000    0.000    0.000 
#    0.000    0.000    0.000    0.000    0.000    0.500 
#
# Total GULP energy -178212.298689 kJ/mol
# GULP energy per Si atom -5569.134334 kJ/mol
# Density = 1.844671 g / cm^3
# Si number density = 18.488791 Si / 1000 Ang^3
#
#
#
# Elastic Constant Matrix: (Units=GPa)
#
#
# Indices 1 2 3 4 5 6 
#
# 1 159.3568 2.6244 60.4917 0.0000 25.8010 0.0000
# 2 2.6244 12.4555 2.8412 0.0000 -1.4312 0.0000
# 3 60.4917 2.8412 73.0920 0.0000 24.7026 0.0000
# 4 0.0000 0.0000 0.0000 12.2607 0.0000 6.3036
# 5 25.8010 -1.4312 24.7026 0.0000 29.0823 0.0000
# 6 0.0000 0.0000 0.0000 6.3036 0.0000 18.9564
#
#
#
# Elastic Compliance Matrix: (Units=1/GPa)
#
#
# Indices 1 2 3 4 5 6 
#
# 1 0.009273 -0.000684 -0.006811 0.000000 -0.002475 0.000000
# 2 -0.000684 0.082906 -0.005948 0.000000 0.009740 0.000000
# 3 -0.006811 -0.005948 0.024696 0.000000 -0.015227 0.000000
# 4 0.000000 0.000000 0.000000 0.098380 0.000000 -0.032714
# 5 -0.002475 0.009740 -0.015227 0.000000 0.049993 0.000000
# 6 0.000000 0.000000 0.000000 -0.032714 0.000000 0.063631
#
#
# Mechanical properties :
#
#
# Convention : Reuss Voigt Hill
#
# Bulk Modulus (GPa) = 11.11265 41.86877 26.49071
# Shear Modulus (GPa) = 12.96134 23.98968 18.47551
#
# Velocity S-wave (km/s) = 2.65058 3.60603 3.16457
# Velocity P-wave (km/s) = 3.92314 6.32713 5.26420
#
# Compressibility (1/GPa) = 0.08998751
#
# Stress axis : x y z
#
# Youngs Moduli (GPa) = 107.84347 12.06181 40.49294
#
# Poissons Ratio (x) = 0.00826 0.27581
# Poissons Ratio (y) = 0.07382 0.24085
# Poissons Ratio (z) = 0.73454 0.07174
#
# Static dielectric constant tensor:
#      x y z
#    x 1.666510 0.000000 0.033970 
#    y 0.000000 1.665590 0.000000 
#    z 0.033970 0.000000 1.613200 
# 
# From -- ./inp_files/287524.got.cif
#   From: 2010.05.17/outbox.cif.g08.bks.cpg/sg12_144_cif.got.tgz:287524.got - 2010.06.03 13:09:07.
