data_PCOD9172250
_publ_section_title
;
Structure prediction by ZEFSAII (Michael W. Deem and Ramdas Pophale) SiO2 
 PCOD9172250
Probable space group: C 2/M
;
_chemical_formula_sum "Si O2"
_cell_formula_units_Z 44
_cell_length_a 13.891999
_cell_length_b 27.450185
_cell_length_c 5.432114
_cell_angle_alpha 90.000000
_cell_angle_beta 80.974532
_cell_angle_gamma 90.000000
_cell_volume 2045.823687
_symmetry_space_group_name_H-M "C 2/M"
_symmetry_group_IT_number 12
_symmetry_cell_setting 'monoclinic'
loop_
_space_group_symop_operation_xyz
x,y,z
-x,y,-z
-x,-y,-z
x,-y,z
1/2+x,1/2+y,z
1/2-x,1/2+y,-z
1/2-x,1/2-y,-z
1/2+x,1/2-y,z
loop_
_atom_site_type_symbol
_atom_site_label
_atom_site_fract_x
_atom_site_fract_y
_atom_site_fract_z
Si Si1 0.433708 0.389967 0.278455
Si Si2 0.938422 0.000000 0.273770
Si Si3 0.111004 0.633994 0.999721
Si Si4 0.282326 0.143555 0.544935
Si Si5 0.635655 0.249993 0.020329
Si Si6 0.099652 0.259266 0.523076
O O1 0.500000 0.384838 0.500000
O O2 0.392970 0.446239 0.287516
O O3 0.331481 0.361673 0.353270
O O4 0.500000 0.382055 0.000000
O O5 0.000000 0.000000 0.500000
O O6 0.000000 0.000000 0.000000
O O7 0.178916 0.623249 0.733698
O O8 0.106138 0.693172 0.017004
O O9 0.159329 0.621378 0.243292
O O10 0.000000 0.616679 0.000000
O O11 0.314217 0.201098 0.515134
O O12 0.596220 0.267763 0.779905
O O13 0.750000 0.250000 0.000000
O O14 0.604456 0.274830 0.284390
O O15 0.000000 0.287949 0.500000
#
# Coordination Sequence:
#
# PCOD9172250 Si02
#       6
#     8   4   8   8   8   8
#     4  10  19  32  50  74 103 134 164 198 239 286
#     4   8  16  30  48  70  97 128 167 204 232 274
#     4  10  19  33  52  75  96 122 162 204 242 290
#     4  10  18  30  51  74  96 128 160 199 242 282
#     4  10  18  29  48  68  90 118 150 195 240 279
#     4  10  19  33  51  71  92 120 159 200 238 287
#
# _framework density 21.50723
#
# number of rings (size 3 to 8) (size 9 to 14) (size 15 to 20)
#    0.000    2.182    0.000    7.091    0.000    0.000 
#    0.000    0.000    0.000   56.727    0.000    7.000 
#    0.000    0.000    0.000    0.000    0.000    0.000 
#
# Total GULP energy -122482.522010 kJ/mol
# GULP energy per Si atom -5567.387364 kJ/mol
# Density = 2.145828 g / cm^3
# Si number density = 21.507230 Si / 1000 Ang^3
#
#
#
# Elastic Constant Matrix: (Units=GPa)
#
#
# Indices 1 2 3 4 5 6 
#
# 1 141.3092 18.6411 67.4822 0.0000 2.4017 0.0000
# 2 18.6411 54.4610 8.6508 0.0000 -9.3878 0.0000
# 3 67.4822 8.6508 245.5644 0.0000 23.1832 0.0000
# 4 0.0000 0.0000 0.0000 14.6835 0.0000 -1.7949
# 5 2.4017 -9.3878 23.1832 0.0000 43.5754 0.0000
# 6 0.0000 0.0000 0.0000 -1.7949 0.0000 10.4932
#
#
#
# Elastic Compliance Matrix: (Units=1/GPa)
#
#
# Indices 1 2 3 4 5 6 
#
# 1 0.008485 -0.002511 -0.002262 0.000000 0.000194 0.000000
# 2 -0.002511 0.020108 -0.000464 0.000000 0.004717 0.000000
# 3 -0.002262 -0.000464 0.004957 0.000000 -0.002612 0.000000
# 4 0.000000 0.000000 0.000000 0.069558 0.000000 0.011898
# 5 0.000194 0.004717 -0.002612 0.000000 0.025344 0.000000
# 6 0.000000 0.000000 0.000000 0.011898 0.000000 0.097335
#
#
# Mechanical properties :
#
#
# Convention : Reuss Voigt Hill
#
# Bulk Modulus (GPa) = 43.33410 70.09807 56.71609
# Shear Modulus (GPa) = 20.49586 36.85446 28.67516
#
# Velocity S-wave (km/s) = 3.09038 4.14404 3.65537
# Velocity P-wave (km/s) = 5.73814 7.45392 6.65159
#
# Compressibility (1/GPa) = 0.02307652
#
# Stress axis : x y z
#
# Youngs Moduli (GPa) = 117.85986 49.73114 201.74807
#
# Poissons Ratio (x) = 0.12489 0.45626
# Poissons Ratio (y) = 0.29599 0.09352
# Poissons Ratio (z) = 0.26654 0.02305
#
# Static dielectric constant tensor:
#      x y z
#    x 1.842240 0.000000 -0.041880 
#    y 0.000000 1.808340 0.000000 
#    z -0.041880 0.000000 2.051200 
# 
# From -- ./inp_files/12795.got.cif
#   From: 2010.05.17/outbox.cif.g08.bks.cpg/sg12_7_cif.got.tgz:12795.got - 2010.06.03 13:09:07.
