data_PCOD9172907
_publ_section_title
;
Structure prediction by ZEFSAII (Michael W. Deem and Ramdas Pophale) SiO2 
 PCOD9172907
Probable space group: C 2/M
;
_chemical_formula_sum "Si O2"
_cell_formula_units_Z 48
_cell_length_a 20.731443
_cell_length_b 12.948774
_cell_length_c 21.124512
_cell_angle_alpha 90.000000
_cell_angle_beta 22.908493
_cell_angle_gamma 90.000000
_cell_volume 2207.421140
_symmetry_space_group_name_H-M "C 2/M"
_symmetry_group_IT_number 12
_symmetry_cell_setting 'monoclinic'
loop_
_space_group_symop_operation_xyz
x,y,z
-x,y,-z
-x,-y,-z
x,-y,z
1/2+x,1/2+y,z
1/2-x,1/2+y,-z
1/2-x,1/2-y,-z
1/2+x,1/2-y,z
loop_
_atom_site_type_symbol
_atom_site_label
_atom_site_fract_x
_atom_site_fract_y
_atom_site_fract_z
Si Si1 0.995455 0.839841 0.405208
Si Si2 0.724005 0.888467 0.743748
Si Si3 0.408360 0.113047 0.669111
Si Si4 0.723485 0.385771 0.086621
Si Si5 0.127601 0.841823 0.831465
Si Si6 0.135782 0.163599 0.022877
O O1 0.140727 0.876122 0.322072
O O2 0.983261 0.715649 0.421636
O O3 0.060925 0.870962 0.277459
O O4 0.827677 0.884799 0.584685
O O5 0.625072 0.782795 0.836326
O O6 0.641891 0.000000 0.823575
O O7 0.305251 0.122505 0.696438
O O8 0.485201 0.000000 0.604424
O O9 0.272180 0.125032 0.848740
O O10 0.793225 0.500000 0.036170
O O11 0.675739 0.376307 0.056312
O O12 0.840846 0.288460 0.996307
O O13 0.044183 0.868683 0.840408
O O14 0.000000 0.880216 0.000000
#
# Coordination Sequence:
#
# PCOD9172907 Si02
#       6
#     8   8   8   8   8   8
#     4   9  18  31  47  72  95 117 159 197 225 276
#     4  10  18  31  51  70  94 125 153 191 240 278
#     4   9  17  31  51  70  94 127 156 191 235 272
#     4  10  18  30  49  68  92 125 156 192 236 277
#     4   9  19  32  46  70  98 121 155 195 230 276
#     4   9  19  31  45  72  98 120 157 196 228 276
#
# _framework density 21.744831000000001
#
# number of rings (size 3 to 8) (size 9 to 14) (size 15 to 20)
#    0.000    2.667    0.000    3.500    0.000    4.667 
#    0.000    7.500    0.000    0.000    0.000    0.000 
#    0.000    0.000    0.000    0.000    0.000    0.000 
#
# Total GULP energy -133952.646136 kJ/mol
# GULP energy per Si atom -5581.360256 kJ/mol
# Density = 2.169534 g / cm^3
# Si number density = 21.744831 Si / 1000 Ang^3
#
#
#
# Elastic Constant Matrix: (Units=GPa)
#
#
# Indices 1 2 3 4 5 6 
#
# 1 81.6766 7.4608 26.2411 0.0000 20.6603 0.0000
# 2 7.4608 187.5904 6.3385 0.0019 4.9604 -0.0010
# 3 26.2411 6.3385 58.9888 0.0022 24.7910 -0.0012
# 4 0.0000 0.0019 0.0022 -10.8060 -0.0015 12.0901
# 5 20.6603 4.9604 24.7910 -0.0015 29.3922 0.0009
# 6 0.0000 -0.0010 -0.0012 12.0901 0.0009 -0.1183
#
#
#
# Elastic Compliance Matrix: (Units=1/GPa)
#
#
# Indices 1 2 3 4 5 6 
#
# 1 0.015373 -0.000286 -0.003543 0.000000 -0.007770 0.000000
# 2 -0.000286 0.005363 -0.000237 0.000000 -0.000504 0.000000
# 3 -0.003543 -0.000237 0.027095 0.000004 -0.020323 -0.000004
# 4 0.000000 0.000000 0.000004 0.000817 -0.000006 0.083442
# 5 -0.007770 -0.000504 -0.020323 -0.000006 0.056711 0.000005
# 6 0.000000 0.000000 -0.000004 0.083442 0.000005 0.074580
#
#
# Mechanical properties :
#
#
# Convention : Reuss Voigt Hill
#
# Bulk Modulus (GPa) = 25.18933 45.37074 35.28004
# Shear Modulus (GPa) = 24.83806 22.90795 23.87300
#
# Velocity S-wave (km/s) = 3.38339 3.24927 3.31701
# Velocity P-wave (km/s) = 5.18385 5.91501 5.56146
#
# Compressibility (1/GPa) = 0.03969934
#
# Stress axis : x y z
#
# Youngs Moduli (GPa) = 65.04865 186.44587 36.90728
#
# Poissons Ratio (x) = 0.05337 0.13075
# Poissons Ratio (y) = 0.01862 0.00875
# Poissons Ratio (z) = 0.23044 0.04423
#
# Static dielectric constant tensor:
#      x y z
#    x 1.761260 0.000000 0.005030 
#    y 0.000000 1.828530 0.000000 
#    z 0.005030 0.000000 1.805500 
# 
# From -- ./inp_files/164009.got.cif
#   From: 2010.05.17/outbox.cif.g08.bks.cpg/sg12_83_cif.got.tgz:164009.got - 2010.06.03 13:09:07.
