data_PCOD9172337
_publ_section_title
;
Structure prediction by ZEFSAII (Michael W. Deem and Ramdas Pophale) SiO2 
 PCOD9172337
Probable space group: C 2/M
;
_chemical_formula_sum "Si O2"
_cell_formula_units_Z 64
_cell_length_a 17.198333
_cell_length_b 15.665515
_cell_length_c 14.036069
_cell_angle_alpha 90.000000
_cell_angle_beta 87.564818
_cell_angle_gamma 90.000000
_cell_volume 3778.193084
_symmetry_space_group_name_H-M "C 2/M"
_symmetry_group_IT_number 12
_symmetry_cell_setting 'monoclinic'
loop_
_space_group_symop_operation_xyz
x,y,z
-x,y,-z
-x,-y,-z
x,-y,z
1/2+x,1/2+y,z
1/2-x,1/2+y,-z
1/2-x,1/2-y,-z
1/2+x,1/2-y,z
loop_
_atom_site_type_symbol
_atom_site_label
_atom_site_fract_x
_atom_site_fract_y
_atom_site_fract_z
Si Si1 0.871524 0.276712 0.050956
Si Si2 0.196212 0.409598 0.089474
Si Si3 0.829042 0.597936 0.337164
Si Si4 0.140659 0.095217 0.022046
Si Si5 0.590328 0.103631 0.476040
Si Si6 0.967433 0.598525 0.176332
Si Si7 0.278702 0.315709 0.809227
Si Si8 0.871686 0.343604 0.737204
O O1 0.935173 0.333825 0.101777
O O2 0.792819 0.276646 0.122083
O O3 0.845916 0.331220 0.960135
O O4 0.898082 0.182431 0.016406
O O5 0.160119 0.500000 0.060028
O O6 0.190408 0.401348 0.202769
O O7 0.283687 0.410388 0.049034
O O8 0.092626 0.500000 0.471318
O O9 0.856467 0.632145 0.437958
O O10 0.904858 0.598062 0.265295
O O11 0.763549 0.644581 0.279914
O O12 0.176852 0.118162 0.123783
O O13 0.103650 0.000000 0.024385
O O14 0.500000 0.126755 0.500000
O O15 0.619366 0.139905 0.374429
O O16 0.695140 0.000000 0.648057
O O17 0.972849 0.500000 0.141594
O O18 0.047930 0.629691 0.216661
O O19 0.341617 0.249645 0.766158
#
# Coordination Sequence:
#
# PCOD9172337 Si02
#       8
#     8   8   8   8   8   8   8   8
#     4  10  18  35  49  73 106 143 177 211 255 314
#     4  10  18  29  48  75 107 138 168 208 260 314
#     4   9  18  34  54  74 101 140 181 212 254 318
#     4  10  18  33  54  72  99 144 183 214 258 307
#     4  10  19  33  51  74 108 142 169 205 265 327
#     4  10  20  32  52  78 107 143 174 209 263 323
#     4  10  19  33  51  76 107 137 175 223 257 306
#     4  12  20  31  50  77 113 136 169 215 262 314
#
# _framework density 16.939315000000001
#
# number of rings (size 3 to 8) (size 9 to 14) (size 15 to 20)
#    0.000    1.875    3.750    2.625    0.000    4.000 
#    0.000    1.250    0.000    2.250    0.000    0.000 
#    0.000    2.000    0.000    0.250    0.000    0.000 
#
# Total GULP energy -178267.047531 kJ/mol
# GULP energy per Si atom -5570.845235 kJ/mol
# Density = 1.690076 g / cm^3
# Si number density = 16.939315 Si / 1000 Ang^3
#
#
#
# Elastic Constant Matrix: (Units=GPa)
#
#
# Indices 1 2 3 4 5 6 
#
# 1 42.2861 33.4158 37.1628 0.0000 8.8300 0.0000
# 2 33.4158 123.3509 47.9050 0.0000 11.6447 0.0000
# 3 37.1628 47.9050 129.0488 0.0000 9.7674 0.0000
# 4 0.0000 0.0000 0.0000 16.6448 0.0000 5.2431
# 5 8.8300 11.6447 9.7674 0.0000 23.2421 0.0000
# 6 0.0000 0.0000 0.0000 5.2431 0.0000 12.2595
#
#
#
# Elastic Compliance Matrix: (Units=1/GPa)
#
#
# Indices 1 2 3 4 5 6 
#
# 1 0.037035 -0.006301 -0.007746 0.000000 -0.007658 0.000000
# 2 -0.006301 0.010808 -0.002034 0.000000 -0.002167 0.000000
# 3 -0.007746 -0.002034 0.010778 0.000000 -0.000567 0.000000
# 4 0.000000 0.000000 0.000000 0.069433 0.000000 -0.029695
# 5 -0.007658 -0.002167 -0.000567 0.000000 0.047259 0.000000
# 6 0.000000 0.000000 0.000000 -0.029695 0.000000 0.094269
#
#
# Mechanical properties :
#
#
# Convention : Reuss Voigt Hill
#
# Bulk Modulus (GPa) = 37.79570 59.07257 48.43413
# Shear Modulus (GPa) = 16.09977 22.17609 19.13793
#
# Velocity S-wave (km/s) = 3.08626 3.62214 3.36489
# Velocity P-wave (km/s) = 5.92122 7.24168 6.61449
#
# Compressibility (1/GPa) = 0.02645804
#
# Stress axis : x y z
#
# Youngs Moduli (GPa) = 27.00160 92.52127 92.78504
#
# Poissons Ratio (x) = 0.58302 0.71874
# Poissons Ratio (y) = 0.17015 0.18869
# Poissons Ratio (z) = 0.20916 0.18815
#
# Static dielectric constant tensor:
#      x y z
#    x 1.585590 0.000000 -0.004890 
#    y 0.000000 1.638460 0.000000 
#    z -0.004890 0.000000 1.580300 
# 
# From -- ./inp_files/224761.got.cif
#   From: 2010.05.17/outbox.cif.g08.bks.cpg/sg12_113_cif.got.tgz:224761.got - 2010.06.03 13:09:07.
