data_PCOD9172819
_publ_section_title
;
Structure prediction by ZEFSAII (Michael W. Deem and Ramdas Pophale) SiO2 
 PCOD9172819
Probable space group: C 2/M
;
_chemical_formula_sum "Si O2"
_cell_formula_units_Z 48
_cell_length_a 27.617542
_cell_length_b 8.308669
_cell_length_c 12.479508
_cell_angle_alpha 90.000000
_cell_angle_beta 106.476552
_cell_angle_gamma 90.000000
_cell_volume 2746.018865
_symmetry_space_group_name_H-M "C 2/M"
_symmetry_group_IT_number 12
_symmetry_cell_setting 'monoclinic'
loop_
_space_group_symop_operation_xyz
x,y,z
-x,y,-z
-x,-y,-z
x,-y,z
1/2+x,1/2+y,z
1/2-x,1/2+y,-z
1/2-x,1/2-y,-z
1/2+x,1/2-y,z
loop_
_atom_site_type_symbol
_atom_site_label
_atom_site_fract_x
_atom_site_fract_y
_atom_site_fract_z
Si Si1 0.693963 0.309287 0.497085
Si Si2 0.863142 0.303523 0.086035
Si Si3 0.220318 0.689651 0.130288
Si Si4 0.558060 0.194987 0.045773
Si Si5 0.359500 0.692814 0.748647
Si Si6 0.324900 0.812410 0.278036
O O1 0.696898 0.500000 0.495782
O O2 0.750000 0.250000 0.500000
O O3 0.653808 0.258644 0.380920
O O4 0.677624 0.261266 0.605921
O O5 0.862941 0.500000 0.086825
O O6 0.862042 0.247289 0.208207
O O7 0.811242 0.255146 0.993298
O O8 0.908983 0.253846 0.037595
O O9 0.232521 0.500000 0.128843
O O10 0.180851 0.716099 0.202061
O O11 0.269620 0.788086 0.191491
O O12 0.586455 0.261867 0.168240
O O13 0.560006 0.000000 0.051620
O O14 0.500000 0.244521 0.000000
O O15 0.352219 0.500000 0.754765
O O16 0.335404 0.000000 0.298448
#
# Coordination Sequence:
#
# PCOD9172819 Si02
#       6
#     8   8   8   8   8   8
#     4  11  22  34  49  70 101 139 177 211 244 291
#     4   8  17  31  47  72 101 129 163 207 254 301
#     4  10  18  30  48  69  99 135 171 207 246 296
#     4   9  18  35  59  81 100 125 161 209 262 309
#     4  10  20  33  50  74 102 131 168 211 253 298
#     4  11  20  30  46  69 102 138 170 203 246 299
#
# _framework density 17.479851
#
# number of rings (size 3 to 8) (size 9 to 14) (size 15 to 20)
#    0.000    2.167    1.667    3.500    0.000    2.333 
#    0.000    7.500    0.000    1.000    0.000    7.000 
#    0.000    0.000    0.000    0.000    0.000    0.000 
#
# Total GULP energy -133813.135001 kJ/mol
# GULP energy per Si atom -5575.547292 kJ/mol
# Density = 1.744007 g / cm^3
# Si number density = 17.479851 Si / 1000 Ang^3
#
#
#
# Elastic Constant Matrix: (Units=GPa)
#
#
# Indices 1 2 3 4 5 6 
#
# 1 75.9078 4.0139 70.5584 0.0000 5.8431 0.0000
# 2 4.0139 20.9591 21.5641 0.0000 -0.8827 0.0000
# 3 70.5584 21.5641 170.1140 0.0000 -18.4487 0.0000
# 4 0.0000 0.0000 0.0000 23.2570 0.0000 0.7447
# 5 5.8431 -0.8827 -18.4487 0.0000 21.2371 0.0000
# 6 0.0000 0.0000 0.0000 0.7447 0.0000 10.6276
#
#
#
# Elastic Compliance Matrix: (Units=1/GPa)
#
#
# Indices 1 2 3 4 5 6 
#
# 1 0.028393 0.009328 -0.015196 0.000000 -0.020625 0.000000
# 2 0.009328 0.058266 -0.012443 0.000000 -0.010954 0.000000
# 3 -0.015196 -0.012443 0.015628 0.000000 0.017240 0.000000
# 4 0.000000 0.000000 0.000000 0.043095 0.000000 -0.003020
# 5 -0.020625 -0.010954 0.017240 0.000000 0.067283 0.000000
# 6 0.000000 0.000000 0.000000 -0.003020 0.000000 0.094306
#
#
# Mechanical properties :
#
#
# Convention : Reuss Voigt Hill
#
# Bulk Modulus (GPa) = 15.22847 51.02818 33.12832
# Shear Modulus (GPa) = 13.68055 22.41396 18.04726
#
# Velocity S-wave (km/s) = 2.80062 3.58477 3.21668
# Velocity P-wave (km/s) = 4.38051 6.81102 5.72621
#
# Compressibility (1/GPa) = 0.06566649
#
# Stress axis : x y z
#
# Youngs Moduli (GPa) = 35.21951 17.16258 63.98662
#
# Poissons Ratio (x) = -0.16010 0.97234
# Poissons Ratio (y) = -0.32854 0.79619
# Poissons Ratio (z) = 0.53520 0.21356
#
# Static dielectric constant tensor:
#      x y z
#    x 1.604380 0.000000 -0.024920 
#    y 0.000000 1.612550 0.000000 
#    z -0.024920 0.000000 1.632390 
# 
# From -- ./inp_files/179164.got.cif
#   From: 2010.05.17/outbox.cif.g08.bks.cpg/sg12_90_cif.got.tgz:179164.got - 2010.06.03 13:09:07.
