data_PCOD9172975
_publ_section_title
;
Structure prediction by ZEFSAII (Michael W. Deem and Ramdas Pophale) SiO2 
 PCOD9172975
Probable space group: C 2/M
;
_chemical_formula_sum "Si O2"
_cell_formula_units_Z 52
_cell_length_a 5.109348
_cell_length_b 25.510445
_cell_length_c 21.211091
_cell_angle_alpha 90.000000
_cell_angle_beta 91.076051
_cell_angle_gamma 90.000000
_cell_volume 2764.202977
_symmetry_space_group_name_H-M "C 2/M"
_symmetry_group_IT_number 12
_symmetry_cell_setting 'monoclinic'
loop_
_space_group_symop_operation_xyz
x,y,z
-x,y,-z
-x,-y,-z
x,-y,z
1/2+x,1/2+y,z
1/2-x,1/2+y,-z
1/2-x,1/2-y,-z
1/2+x,1/2-y,z
loop_
_atom_site_type_symbol
_atom_site_label
_atom_site_fract_x
_atom_site_fract_y
_atom_site_fract_z
Si Si1 0.484153 0.168916 0.267871
Si Si2 0.137397 0.000000 0.316829
Si Si3 0.500000 0.211959 0.000000
Si Si4 0.037700 0.717096 0.402051
Si Si5 0.483986 0.609986 0.300335
Si Si6 0.143571 0.500000 0.406815
Si Si7 0.897324 0.284030 0.867070
Si Si8 0.190962 0.112219 0.559456
O O1 0.545415 0.207968 0.326191
O O2 0.685444 0.120869 0.280246
O O3 0.544332 0.189595 0.199089
O O4 0.183125 0.152780 0.274710
O O5 0.095796 0.946041 0.280138
O O6 0.900864 0.000000 0.365258
O O7 0.399226 0.000000 0.358885
O O8 0.527209 0.184716 0.068355
O O9 0.750000 0.250000 0.000000
O O10 0.258816 0.759678 0.419326
O O11 0.112532 0.661059 0.431883
O O12 0.480142 0.613127 0.376538
O O13 0.165159 0.555625 0.442331
O O14 0.596507 0.265639 0.868733
O O15 0.000000 0.117895 0.500000
#
# Coordination Sequence:
#
# PCOD9172975 Si02
#       8
#     8   4   4   8   8   4   8   8
#     4  11  20  34  52  74 101 133 173 208 242 292
#     4  10  18  36  55  74 102 125 152 205 270 313
#     4   8  16  28  44  70 102 135 168 201 242 288
#     4  11  22  36  52  72 100 134 169 203 245 301
#     4  10  21  35  53  75  99 127 164 211 259 310
#     4  10  21  38  60  80  96 124 164 212 272 326
#     4  10  18  30  49  73 104 139 170 203 243 287
#     4  10  22  40  58  77 101 130 170 218 267 316
#
# _framework density 18.811931999999999
#
# number of rings (size 3 to 8) (size 9 to 14) (size 15 to 20)
#    0.000    1.846    0.000    6.692    0.000    1.846 
#    0.000   21.538    0.000    0.000    0.000    0.000 
#    0.000    3.692    0.000    0.000    0.000    0.000 
#
# Total GULP energy -145171.658836 kJ/mol
# GULP energy per Si atom -5583.525340 kJ/mol
# Density = 1.876911 g / cm^3
# Si number density = 18.811932 Si / 1000 Ang^3
#
#
#
# Elastic Constant Matrix: (Units=GPa)
#
#
# Indices 1 2 3 4 5 6 
#
# 1 73.9778 -8.4754 -11.8557 0.0000 5.2275 0.0000
# 2 -8.4754 66.4837 8.5654 0.0000 3.3403 0.0000
# 3 -11.8557 8.5654 100.9091 0.0000 -5.0908 0.0000
# 4 0.0000 0.0000 0.0000 11.8250 0.0000 -15.9399
# 5 5.2275 3.3403 -5.0908 0.0000 24.2806 0.0000
# 6 0.0000 0.0000 0.0000 -15.9399 0.0000 374.1086
#
#
#
# Elastic Compliance Matrix: (Units=1/GPa)
#
#
# Indices 1 2 3 4 5 6 
#
# 1 0.014152 0.001780 0.001360 0.000000 -0.003007 0.000000
# 2 0.001780 0.015570 -0.001253 0.000000 -0.002788 0.000000
# 3 0.001360 -0.001253 0.010279 0.000000 0.002035 0.000000
# 4 0.000000 0.000000 0.000000 0.089719 0.000000 0.003823
# 5 -0.003007 -0.002788 0.002035 0.000000 0.042643 0.000000
# 6 0.000000 0.000000 0.000000 0.003823 0.000000 0.002836
#
#
# Mechanical properties :
#
#
# Convention : Reuss Voigt Hill
#
# Bulk Modulus (GPa) = 22.84470 24.20435 23.52452
# Shear Modulus (GPa) = 26.87942 98.91859 62.89900
#
# Velocity S-wave (km/s) = 3.78411 7.25927 5.78863
# Velocity P-wave (km/s) = 5.59131 9.11905 7.56373
#
# Compressibility (1/GPa) = 0.04377382
#
# Stress axis : x y z
#
# Youngs Moduli (GPa) = 70.66193 64.22732 97.28852
#
# Poissons Ratio (x) = -0.11432 -0.13231
# Poissons Ratio (y) = -0.12577 0.12191
# Poissons Ratio (z) = -0.09610 0.08048
#
# Static dielectric constant tensor:
#      x y z
#    x 1.656730 0.000000 -0.005740 
#    y 0.000000 1.716900 0.000000 
#    z -0.005740 0.000000 1.687020 
# 
# From -- ./inp_files/298035.got.cif
#   From: 2010.05.17/outbox.cif.g08.bks.cpg/sg12_150_cif.got.tgz:298035.got - 2010.06.03 13:09:07.
