data_PCOD9172791
_publ_section_title
;
Structure prediction by ZEFSAII (Michael W. Deem and Ramdas Pophale) SiO2 
 PCOD9172791
Probable space group: C 2/M
;
_chemical_formula_sum "Si O2"
_cell_formula_units_Z 48
_cell_length_a 13.687811
_cell_length_b 18.563170
_cell_length_c 12.279754
_cell_angle_alpha 90.000000
_cell_angle_beta 106.380511
_cell_angle_gamma 90.000000
_cell_volume 2993.505288
_symmetry_space_group_name_H-M "C 2/M"
_symmetry_group_IT_number 12
_symmetry_cell_setting 'monoclinic'
loop_
_space_group_symop_operation_xyz
x,y,z
-x,y,-z
-x,-y,-z
x,-y,z
1/2+x,1/2+y,z
1/2-x,1/2+y,-z
1/2-x,1/2-y,-z
1/2+x,1/2-y,z
loop_
_atom_site_type_symbol
_atom_site_label
_atom_site_fract_x
_atom_site_fract_y
_atom_site_fract_z
Si Si1 0.265453 0.415946 0.463334
Si Si2 0.452229 0.332025 0.607022
Si Si3 0.836283 0.587222 0.930280
Si Si4 0.861595 0.084436 0.250583
Si Si5 0.949131 0.665011 0.602418
Si Si6 0.476101 0.913068 0.169279
O O1 0.254448 0.500000 0.487740
O O2 0.348449 0.377050 0.565397
O O3 0.308162 0.412578 0.352934
O O4 0.158368 0.375771 0.434081
O O5 0.500000 0.334055 0.500000
O O6 0.535999 0.369410 0.709846
O O7 0.434081 0.248739 0.628069
O O8 0.832870 0.500000 0.928245
O O9 0.724095 0.611490 0.860671
O O10 0.920945 0.605845 0.865835
O O11 0.882328 0.607991 0.061476
O O12 0.884970 0.000000 0.237408
O O13 0.000000 0.661666 0.500000
O O14 0.018468 0.626304 0.714486
O O15 0.475422 0.000000 0.182666
#
# Coordination Sequence:
#
# PCOD9172791 Si02
#       6
#     8   8   8   8   8   8
#     4  10  18  30  48  68  90 120 157 195 227 264
#     4   9  19  31  44  66  96 124 151 187 232 276
#     4   8  14  26  48  72  91 111 146 198 240 261
#     4   9  15  28  50  73  90 112 151 198 240 268
#     4  11  21  31  43  66 101 131 152 173 223 282
#     4   9  16  28  45  69  94 119 153 189 227 268
#
# _framework density 16.034714000000001
#
# number of rings (size 3 to 8) (size 9 to 14) (size 15 to 20)
#    0.000    2.667    1.667    2.500    0.000    3.333 
#    0.000    0.833    0.000    0.000    0.000    0.000 
#    0.000    5.333    0.000    0.000    0.000    0.000 
#
# Total GULP energy -133701.462141 kJ/mol
# GULP energy per Si atom -5570.894256 kJ/mol
# Density = 1.599822 g / cm^3
# Si number density = 16.034714 Si / 1000 Ang^3
#
#
#
# Elastic Constant Matrix: (Units=GPa)
#
#
# Indices 1 2 3 4 5 6 
#
# 1 44.5690 45.0261 42.6822 0.0000 22.8540 0.0000
# 2 45.0261 103.3693 51.8614 0.0000 19.3404 0.0000
# 3 42.6822 51.8614 113.0037 0.0000 36.0686 0.0000
# 4 0.0000 0.0000 0.0000 1.4577 0.0000 -0.0221
# 5 22.8540 19.3404 36.0686 0.0000 30.3486 0.0000
# 6 0.0000 0.0000 0.0000 -0.0221 0.0000 20.3504
#
#
#
# Elastic Compliance Matrix: (Units=1/GPa)
#
#
# Indices 1 2 3 4 5 6 
#
# 1 0.060227 -0.018316 -0.005787 0.000000 -0.026804 0.000000
# 2 -0.018316 0.018203 -0.003441 0.000000 0.006282 0.000000
# 3 -0.005787 -0.003441 0.016955 0.000000 -0.013600 0.000000
# 4 0.000000 0.000000 0.000000 0.686002 0.000000 0.000745
# 5 -0.026804 0.006282 -0.013600 0.000000 0.065295 0.000000
# 6 0.000000 0.000000 0.000000 0.000745 0.000000 0.049140
#
#
# Mechanical properties :
#
#
# Convention : Reuss Voigt Hill
#
# Bulk Modulus (GPa) = 24.81539 60.00907 42.41223
# Shear Modulus (GPa) = 5.18488 18.52284 11.85386
#
# Velocity S-wave (km/s) = 1.80015 3.40247 2.72189
# Velocity P-wave (km/s) = 4.45313 7.27609 6.03207
#
# Compressibility (1/GPa) = 0.04029757
#
# Stress axis : x y z
#
# Youngs Moduli (GPa) = 16.60381 54.93537 58.97869
#
# Poissons Ratio (x) = 1.00617 0.34132
# Poissons Ratio (y) = 0.30411 0.20296
# Poissons Ratio (z) = 0.09609 0.18905
#
# Static dielectric constant tensor:
#      x y z
#    x 1.524410 0.000000 0.021890 
#    y 0.000000 1.525250 0.000000 
#    z 0.021890 0.000000 1.548450 
# 
# From -- ./inp_files/131065.got.cif
#   From: 2010.05.17/outbox.cif.g08.bks.cpg/sg12_66_cif.got.tgz:131065.got - 2010.06.03 13:09:07.
