data_PCOD9172122
_publ_section_title
;
Structure prediction by ZEFSAII (Michael W. Deem and Ramdas Pophale) SiO2 
 PCOD9172122
Probable space group: C 2/M
;
_chemical_formula_sum "Si O2"
_cell_formula_units_Z 52
_cell_length_a 9.121227
_cell_length_b 28.640535
_cell_length_c 15.692613
_cell_angle_alpha 90.000000
_cell_angle_beta 40.709699
_cell_angle_gamma 90.000000
_cell_volume 2673.795876
_symmetry_space_group_name_H-M "C 2/M"
_symmetry_group_IT_number 12
_symmetry_cell_setting 'monoclinic'
loop_
_space_group_symop_operation_xyz
x,y,z
-x,y,-z
-x,-y,-z
x,-y,z
1/2+x,1/2+y,z
1/2-x,1/2+y,-z
1/2-x,1/2-y,-z
1/2+x,1/2-y,z
loop_
_atom_site_type_symbol
_atom_site_label
_atom_site_fract_x
_atom_site_fract_y
_atom_site_fract_z
Si Si1 0.314860 0.554829 0.235946
Si Si2 0.953598 0.313873 0.386124
Si Si3 0.500000 0.887076 0.500000
Si Si4 0.240665 0.702207 0.854625
Si Si5 0.782135 0.397953 0.052904
Si Si6 0.255298 0.127891 0.875610
Si Si7 0.195572 0.741901 0.692632
O O1 0.274718 0.500000 0.252742
O O2 0.167404 0.581176 0.371917
O O3 0.573019 0.567789 0.139944
O O4 0.260910 0.579608 0.169709
O O5 0.874667 0.353431 0.486753
O O6 0.774616 0.283937 0.411293
O O7 0.099593 0.338339 0.247088
O O8 0.126722 0.281797 0.362032
O O9 0.280221 0.649301 0.868243
O O10 0.215165 0.707512 0.764406
O O11 0.449011 0.733934 0.793991
O O12 0.000000 0.717252 0.000000
O O13 0.843486 0.380997 0.930857
O O14 0.000000 0.419396 0.000000
O O15 0.000000 0.146205 0.000000
#
# Coordination Sequence:
#
# PCOD9172122 Si02
#       7
#     8   8   4   8   8   8   8
#     4  10  21  38  61  83 101 132 179 224 269 327
#     4  10  20  34  50  75 106 143 180 220 262 302
#     4  10  21  38  60  76 102 138 182 230 269 310
#     4  10  18  29  46  74 110 147 180 212 252 305
#     4  10  20  34  55  84 118 145 166 210 275 327
#     4   9  18  33  53  78 112 144 175 216 264 315
#     4  10  20  30  47  74 106 143 188 222 249 294
#
# _framework density 19.448004999999998
#
# number of rings (size 3 to 8) (size 9 to 14) (size 15 to 20)
#    0.000    2.154    0.000    5.308    0.000    7.385 
#    0.000    0.000    0.000   14.769    0.000   10.769 
#    0.000    0.000    0.000    0.000    0.000    0.000 
#
# Total GULP energy -145250.181102 kJ/mol
# GULP energy per Si atom -5586.545427 kJ/mol
# Density = 1.940374 g / cm^3
# Si number density = 19.448005 Si / 1000 Ang^3
#
#
#
# Elastic Constant Matrix: (Units=GPa)
#
#
# Indices 1 2 3 4 5 6 
#
# 1 122.3777 39.3324 21.0881 0.0000 12.5658 0.0000
# 2 39.3324 94.1302 21.3736 0.0000 4.6841 0.0000
# 3 21.0881 21.3736 63.6135 0.0000 18.6473 0.0000
# 4 0.0000 0.0000 0.0000 17.4733 0.0000 -7.2710
# 5 12.5658 4.6841 18.6473 0.0000 22.5741 0.0000
# 6 0.0000 0.0000 0.0000 -7.2710 0.0000 6.8427
#
#
#
# Elastic Compliance Matrix: (Units=1/GPa)
#
#
# Indices 1 2 3 4 5 6 
#
# 1 0.009942 -0.003761 -0.000843 0.000000 -0.004058 0.000000
# 2 -0.003761 0.012943 -0.003864 0.000000 0.002600 0.000000
# 3 -0.000843 -0.003864 0.022333 0.000000 -0.017177 0.000000
# 4 0.000000 0.000000 0.000000 0.102594 0.000000 0.109016
# 5 -0.004058 0.002600 -0.017177 0.000000 0.060207 0.000000
# 6 0.000000 0.000000 0.000000 0.109016 0.000000 0.261981
#
#
# Mechanical properties :
#
#
# Convention : Reuss Voigt Hill
#
# Bulk Modulus (GPa) = 35.35769 49.30107 42.32938
# Shear Modulus (GPa) = 10.07327 22.59985 16.33656
#
# Velocity S-wave (km/s) = 2.27834 3.41261 2.90144
# Velocity P-wave (km/s) = 5.01410 6.39790 5.74779
#
# Compressibility (1/GPa) = 0.02828239
#
# Stress axis : x y z
#
# Youngs Moduli (GPa) = 100.58243 77.26088 44.77715
#
# Poissons Ratio (x) = 0.29058 0.03773
# Poissons Ratio (y) = 0.37830 0.17302
# Poissons Ratio (z) = 0.08476 0.29854
#
# Static dielectric constant tensor:
#      x y z
#    x 1.680520 0.000000 -0.005140 
#    y 0.000000 1.676150 0.000000 
#    z -0.005140 0.000000 1.714730 
# 
# From -- ./inp_files/201190.got.cif
#   From: 2010.05.17/outbox.cif.g08.bks.cpg/sg12_101_cif.got.tgz:201190.got - 2010.06.03 13:09:07.
