data_PCOD9172058
_publ_section_title
;
Structure prediction by ZEFSAII (Michael W. Deem and Ramdas Pophale) SiO2 
 PCOD9172058
Probable space group: C 2/M
;
_chemical_formula_sum "Si O2"
_cell_formula_units_Z 36
_cell_length_a 7.891176
_cell_length_b 27.889810
_cell_length_c 14.056594
_cell_angle_alpha 90.000000
_cell_angle_beta 30.045674
_cell_angle_gamma 90.000000
_cell_volume 1548.946724
_symmetry_space_group_name_H-M "C 2/M"
_symmetry_group_IT_number 12
_symmetry_cell_setting 'monoclinic'
loop_
_space_group_symop_operation_xyz
x,y,z
-x,y,-z
-x,-y,-z
x,-y,z
1/2+x,1/2+y,z
1/2-x,1/2+y,-z
1/2-x,1/2-y,-z
1/2+x,1/2-y,z
loop_
_atom_site_type_symbol
_atom_site_label
_atom_site_fract_x
_atom_site_fract_y
_atom_site_fract_z
Si Si1 0.421745 0.767853 0.711370
Si Si2 0.618806 0.145234 0.141372
Si Si3 0.928514 0.174153 0.808153
Si Si4 0.500000 0.898810 0.500000
Si Si5 0.374459 0.946206 0.766534
O O1 0.516826 0.805845 0.747495
O O2 0.173379 0.795879 0.761847
O O3 0.287842 0.717522 0.814533
O O4 0.750000 0.750000 0.500000
O O5 0.447965 0.096872 0.261676
O O6 0.000000 0.143832 0.000000
O O7 0.674616 0.146610 0.002159
O O8 0.179097 0.136414 0.635160
O O9 0.392353 0.928733 0.646930
O O10 0.515448 0.000000 0.704055
O O11 0.000000 0.949293 0.000000
#
# Coordination Sequence:
#
# PCOD9172058 Si02
#       5
#     8   8   8   4   8
#     4  11  18  30  46  68  94 133 165 194 239 287
#     4   9  17  32  44  64  97 126 156 198 242 278
#     4  11  20  31  48  68 101 135 161 197 239 289
#     4  12  17  32  46  68 100 126 163 196 250 280
#     4  10  18  29  46  67  95 127 160 198 249 294
#
# _framework density 23.241600999999999
#
# number of rings (size 3 to 8) (size 9 to 14) (size 15 to 20)
#    0.000    1.556    8.889    1.000    0.000    0.000 
#    0.000    0.000    0.000    0.000    0.000    0.000 
#    0.000   19.556    0.000    0.000    0.000    3.111 
#
# Total GULP energy -100417.796008 kJ/mol
# GULP energy per Si atom -5578.766445 kJ/mol
# Density = 2.318870 g / cm^3
# Si number density = 23.241601 Si / 1000 Ang^3
#
#
#
# Elastic Constant Matrix: (Units=GPa)
#
#
# Indices 1 2 3 4 5 6 
#
# 1 66.9080 18.0197 18.7731 0.0000 28.1010 0.0000
# 2 18.0197 180.6362 63.2612 0.0000 17.1775 0.0000
# 3 18.7731 63.2612 146.0910 0.0000 28.0836 0.0000
# 4 0.0000 0.0000 0.0000 26.4207 0.0000 8.2367
# 5 28.1010 17.1775 28.0836 0.0000 27.8904 0.0000
# 6 0.0000 0.0000 0.0000 8.2367 0.0000 21.0840
#
#
#
# Elastic Compliance Matrix: (Units=1/GPa)
#
#
# Indices 1 2 3 4 5 6 
#
# 1 0.026528 -0.000772 0.002445 0.000000 -0.028715 0.000000
# 2 -0.000772 0.006596 -0.002636 0.000000 -0.000630 0.000000
# 3 0.002445 -0.002636 0.009714 0.000000 -0.010622 0.000000
# 4 0.000000 0.000000 0.000000 0.043098 0.000000 -0.016837
# 5 -0.028715 -0.000630 -0.010622 0.000000 0.075870 0.000000
# 6 0.000000 0.000000 0.000000 -0.016837 0.000000 0.054007
#
#
# Mechanical properties :
#
#
# Convention : Reuss Voigt Hill
#
# Bulk Modulus (GPa) = 24.44221 65.97146 45.20684
# Shear Modulus (GPa) = 21.60991 34.65111 28.13051
#
# Velocity S-wave (km/s) = 3.05256 3.86542 3.48279
# Velocity P-wave (km/s) = 4.79203 6.95476 5.97211
#
# Compressibility (1/GPa) = 0.04091283
#
# Stress axis : x y z
#
# Youngs Moduli (GPa) = 37.69627 151.60523 102.94342
#
# Poissons Ratio (x) = 0.11706 -0.25174
# Poissons Ratio (y) = 0.02911 0.27135
# Poissons Ratio (z) = -0.09218 0.39961
#
# Static dielectric constant tensor:
#      x y z
#    x 2.022430 0.000000 -0.079070 
#    y 0.000000 1.985580 0.000000 
#    z -0.079070 0.000000 1.911360 
# 
# From -- ./inp_files/51690.got.cif
#   From: 2010.05.17/outbox.cif.g08.bks.cpg/sg12_26_cif.got.tgz:51690.got - 2010.06.03 13:09:07.
