data_PCOD9172568
_publ_section_title
;
Structure prediction by ZEFSAII (Michael W. Deem and Ramdas Pophale) SiO2 
 PCOD9172568
Probable space group: C 2/M
;
_chemical_formula_sum "Si O2"
_cell_formula_units_Z 64
_cell_length_a 24.416517
_cell_length_b 9.410405
_cell_length_c 13.306091
_cell_angle_alpha 90.000000
_cell_angle_beta 101.358312
_cell_angle_gamma 90.000000
_cell_volume 2997.452733
_symmetry_space_group_name_H-M "C 2/M"
_symmetry_group_IT_number 12
_symmetry_cell_setting 'monoclinic'
loop_
_space_group_symop_operation_xyz
x,y,z
-x,y,-z
-x,-y,-z
x,-y,z
1/2+x,1/2+y,z
1/2-x,1/2+y,-z
1/2-x,1/2-y,-z
1/2+x,1/2-y,z
loop_
_atom_site_type_symbol
_atom_site_label
_atom_site_fract_x
_atom_site_fract_y
_atom_site_fract_z
Si Si1 0.315909 0.841654 0.090862
Si Si2 0.056818 0.337649 0.163647
Si Si3 0.952566 0.664954 0.403474
Si Si4 0.881756 0.156306 0.979469
Si Si5 0.172971 0.333636 0.561507
Si Si6 0.757888 0.170732 0.244288
Si Si7 0.564327 0.236286 0.815880
Si Si8 0.346326 0.170288 0.666478
O O1 0.330633 0.757300 0.994380
O O2 0.279346 0.748181 0.152502
O O3 0.377784 0.852002 0.164444
O O4 0.294116 0.000000 0.066045
O O5 0.072828 0.500000 0.143638
O O6 0.090944 0.295257 0.276730
O O7 0.991036 0.332173 0.157527
O O8 0.078813 0.234593 0.085351
O O9 0.963915 0.500000 0.374257
O O10 0.892406 0.665765 0.433928
O O11 0.950140 0.763771 0.304655
O O12 0.000000 0.703297 0.500000
O O13 0.916762 0.147420 0.096560
O O14 0.864737 0.000000 0.940178
O O15 0.192229 0.500000 0.575289
O O16 0.205040 0.234722 0.651397
O O17 0.175675 0.275907 0.448270
O O18 0.694883 0.205560 0.256737
O O19 0.763692 0.000000 0.238063
O O20 0.344847 0.000000 0.653221
#
# Coordination Sequence:
#
# PCOD9172568 Si02
#       8
#     8   8   8   8   8   8   8   8
#     4  10  20  36  60  88 109 139 191 239 280 331
#     4  11  21  37  60  85 116 150 192 241 289 336
#     4  10  18  29  51  85 118 144 177 229 285 329
#     4  10  23  39  58  86 118 151 187 230 290 350
#     4  10  18  34  58  82 113 150 197 240 276 331
#     4  11  21  36  57  83 118 154 193 236 287 340
#     4  10  21  33  59  85 119 143 188 230 285 331
#     4   9  21  37  56  85 116 152 195 243 287 332
#
# _framework density 21.351462000000001
#
# number of rings (size 3 to 8) (size 9 to 14) (size 15 to 20)
#    0.750    1.125    1.250    3.750    0.000    3.500 
#    0.000    3.125    0.000    3.000    0.000    0.000 
#    0.000    0.000    0.000    0.000    0.000    0.000 
#
# Total GULP energy -178462.490611 kJ/mol
# GULP energy per Si atom -5576.952832 kJ/mol
# Density = 2.130286 g / cm^3
# Si number density = 21.351462 Si / 1000 Ang^3
#
#
#
# Elastic Constant Matrix: (Units=GPa)
#
#
# Indices 1 2 3 4 5 6 
#
# 1 85.4574 29.4566 30.8313 0.0000 1.4527 0.0000
# 2 29.4566 89.3318 13.2243 0.0000 -11.6787 0.0000
# 3 30.8313 13.2243 71.3825 0.0000 -8.5463 0.0000
# 4 0.0000 0.0000 0.0000 -10.6951 0.0000 15.7356
# 5 1.4527 -11.6787 -8.5463 0.0000 42.7606 0.0000
# 6 0.0000 0.0000 0.0000 15.7356 0.0000 -3.5574
#
#
#
# Elastic Compliance Matrix: (Units=1/GPa)
#
#
# Indices 1 2 3 4 5 6 
#
# 1 0.015598 -0.004616 -0.006246 0.000000 -0.003039 0.000000
# 2 -0.004616 0.013209 -0.000003 0.000000 0.003764 0.000000
# 3 -0.006246 -0.000003 0.017143 0.000000 0.003638 0.000000
# 4 0.000000 0.000000 0.000000 0.016975 0.000000 0.075088
# 5 -0.003039 0.003764 0.003638 0.000000 0.025244 0.000000
# 6 0.000000 0.000000 0.000000 0.075088 0.000000 0.051035
#
#
# Mechanical properties :
#
#
# Convention : Reuss Voigt Hill
#
# Bulk Modulus (GPa) = 41.28720 43.68845 42.48783
# Shear Modulus (GPa) = 29.58471 17.21225 23.39848
#
# Velocity S-wave (km/s) = 3.72641 2.84234 3.31399
# Velocity P-wave (km/s) = 6.15579 5.59266 5.88097
#
# Compressibility (1/GPa) = 0.02422058
#
# Stress axis : x y z
#
# Youngs Moduli (GPa) = 64.11159 75.70728 58.33405
#
# Poissons Ratio (x) = 0.34946 0.36433
# Poissons Ratio (y) = 0.29594 0.00016
# Poissons Ratio (z) = 0.40042 0.00020
#
# Static dielectric constant tensor:
#      x y z
#    x 1.771280 0.000000 0.006530 
#    y 0.000000 1.753340 0.000000 
#    z 0.006530 0.000000 1.801690 
# 
# From -- ./inp_files/244045.got.cif
#   From: 2010.05.17/outbox.cif.g08.bks.cpg/sg12_123_cif.got.tgz:244045.got - 2010.06.03 13:09:07.
