data_PCOD9172667
_publ_section_title
;
Structure prediction by ZEFSAII (Michael W. Deem and Ramdas Pophale) SiO2 
 PCOD9172667
Probable space group: C 2/M
;
_chemical_formula_sum "Si O2"
_cell_formula_units_Z 64
_cell_length_a 27.266249
_cell_length_b 25.249959
_cell_length_c 5.289242
_cell_angle_alpha 90.000000
_cell_angle_beta 93.022191
_cell_angle_gamma 90.000000
_cell_volume 3636.428643
_symmetry_space_group_name_H-M "C 2/M"
_symmetry_group_IT_number 12
_symmetry_cell_setting 'monoclinic'
loop_
_space_group_symop_operation_xyz
x,y,z
-x,y,-z
-x,-y,-z
x,-y,z
1/2+x,1/2+y,z
1/2-x,1/2+y,-z
1/2-x,1/2-y,-z
1/2+x,1/2-y,z
loop_
_atom_site_type_symbol
_atom_site_label
_atom_site_fract_x
_atom_site_fract_y
_atom_site_fract_z
Si Si1 0.272191 0.667441 0.118423
Si Si2 0.710476 0.558638 0.722854
Si Si3 0.882636 0.833793 0.964031
Si Si4 0.475715 0.199313 0.744710
Si Si5 0.135775 0.274519 0.248406
Si Si6 0.480950 0.319692 0.243679
Si Si7 0.298994 0.781795 0.246319
Si Si8 0.357161 0.442095 0.791729
O O1 0.257875 0.612676 0.249431
O O2 0.329887 0.662941 0.079937
O O3 0.241916 0.675991 0.851489
O O4 0.271054 0.724773 0.253731
O O5 0.734220 0.500000 0.700457
O O6 0.680131 0.556247 0.978502
O O7 0.673894 0.564948 0.474371
O O8 0.877362 0.788085 0.753570
O O9 0.891106 0.891275 0.846743
O O10 0.923235 0.815861 0.178050
O O11 0.500000 0.176404 0.500000
O O12 0.417073 0.197591 0.744356
O O13 0.493111 0.261579 0.748650
O O14 0.500000 0.175548 0.000000
O O15 0.170290 0.289724 0.491588
O O16 0.163590 0.281970 0.986791
O O17 0.500000 0.346367 0.500000
O O18 0.500000 0.348131 0.000000
O O19 0.381417 0.500000 0.786725
#
# Coordination Sequence:
#
# PCOD9172667 Si02
#       8
#     8   8   8   8   8   8   8   8
#     4   9  20  33  47  69  95 126 155 188 226 276
#     4   9  17  31  49  68  89 116 158 199 229 264
#     4  10  19  32  51  66  90 120 154 200 237 274
#     4  10  18  30  46  65  85 110 150 201 220 262
#     4  11  20  32  48  67  90 121 155 185 232 266
#     4  10  20  30  44  67  83 106 148 201 233 270
#     4  10  22  32  45  67  99 126 152 183 222 290
#     4   9  18  30  46  68  87 111 148 195 244 281
#
# _framework density 17.599684
#
# number of rings (size 3 to 8) (size 9 to 14) (size 15 to 20)
#    0.000    2.250    2.500    1.500    5.250    8.500 
#    0.000    0.000    0.000    0.750    0.000    0.000 
#    0.000    0.500    0.000    0.000    0.000   12.750 
#
# Total GULP energy -178146.219823 kJ/mol
# GULP energy per Si atom -5567.069369 kJ/mol
# Density = 1.755963 g / cm^3
# Si number density = 17.599684 Si / 1000 Ang^3
#
#
#
# Elastic Constant Matrix: (Units=GPa)
#
#
# Indices 1 2 3 4 5 6 
#
# 1 82.7077 12.5189 41.5710 0.0000 15.8981 0.0000
# 2 12.5189 46.9651 25.2370 0.0000 15.1608 0.0000
# 3 41.5710 25.2370 186.3913 0.0000 26.0736 0.0000
# 4 0.0000 0.0000 0.0000 9.2327 0.0000 -4.0663
# 5 15.8981 15.1608 26.0736 0.0000 40.8987 0.0000
# 6 0.0000 0.0000 0.0000 -4.0663 0.0000 -2.8944
#
#
#
# Elastic Compliance Matrix: (Units=1/GPa)
#
#
# Indices 1 2 3 4 5 6 
#
# 1 0.014213 -0.001332 -0.002510 0.000000 -0.003431 0.000000
# 2 -0.001332 0.025177 -0.002063 0.000000 -0.007500 0.000000
# 3 -0.002510 -0.002063 0.006544 0.000000 -0.002432 0.000000
# 4 0.000000 0.000000 0.000000 0.066910 0.000000 -0.094002
# 5 -0.003431 -0.007500 -0.002432 0.000000 0.030115 0.000000
# 6 0.000000 0.000000 0.000000 -0.094002 0.000000 -0.213434
#
#
# Mechanical properties :
#
#
# Convention : Reuss Voigt Hill
#
# Bulk Modulus (GPa) = 29.30383 52.74642 41.02512
# Shear Modulus (GPa) = -105.73008 25.22989 -40.25009
#
# Velocity S-wave (km/s) = -7.75921 3.79032 -4.78742
# Velocity P-wave (km/s) = 7.97418 7.01360 2.68300
#
# Compressibility (1/GPa) = 0.03412523
#
# Stress axis : x y z
#
# Youngs Moduli (GPa) = 70.35610 39.71878 152.80586
#
# Poissons Ratio (x) = 0.05293 0.38349
# Poissons Ratio (y) = 0.09375 0.31517
# Poissons Ratio (z) = 0.17657 0.08192
#
# Static dielectric constant tensor:
#      x y z
#    x 1.646530 0.000000 -0.088280 
#    y 0.000000 1.657090 0.000000 
#    z -0.088280 0.000000 1.028980 
# 
# From -- ./inp_files/32561.got.cif
#   From: 2010.05.17/outbox.cif.g08.bks.cpg/sg12_17_cif.got.tgz:32561.got - 2010.06.03 13:09:07.
