data_PCOD9172643
_publ_section_title
;
Structure prediction by ZEFSAII (Michael W. Deem and Ramdas Pophale) SiO2 
 PCOD9172643
Probable space group: C 2/M
;
_chemical_formula_sum "Si O2"
_cell_formula_units_Z 64
_cell_length_a 26.260921
_cell_length_b 17.906353
_cell_length_c 13.528483
_cell_angle_alpha 90.000000
_cell_angle_beta 140.079291
_cell_angle_gamma 90.000000
_cell_volume 4082.408148
_symmetry_space_group_name_H-M "C 2/M"
_symmetry_group_IT_number 12
_symmetry_cell_setting 'monoclinic'
loop_
_space_group_symop_operation_xyz
x,y,z
-x,y,-z
-x,-y,-z
x,-y,z
1/2+x,1/2+y,z
1/2-x,1/2+y,-z
1/2-x,1/2-y,-z
1/2+x,1/2-y,z
loop_
_atom_site_type_symbol
_atom_site_label
_atom_site_fract_x
_atom_site_fract_y
_atom_site_fract_z
Si Si1 0.791070 0.183783 0.289932
Si Si2 0.088828 0.087000 0.169589
Si Si3 0.278509 0.584963 0.094533
Si Si4 0.082513 0.088838 0.396772
Si Si5 0.197295 0.172648 0.183675
Si Si6 0.587891 0.667117 0.826894
Si Si7 0.829364 0.585377 0.261364
Si Si8 0.585050 0.225062 0.658996
O O1 0.750587 0.131599 0.147284
O O2 0.845894 0.132724 0.442113
O O3 0.731409 0.243715 0.249017
O O4 0.849153 0.234285 0.308963
O O5 0.092903 0.092460 0.293788
O O6 0.153383 0.138142 0.212197
O O7 0.101979 0.000000 0.160479
O O8 0.000000 0.106446 0.000000
O O9 0.290063 0.500000 0.141613
O O10 0.360310 0.616767 0.171230
O O11 0.218742 0.588779 0.913666
O O12 0.999274 0.131163 0.295302
O O13 0.079069 0.000000 0.418759
O O14 0.270393 0.120710 0.255370
O O15 0.133388 0.169918 0.998805
O O16 0.592085 0.748858 0.782575
O O17 0.848174 0.500000 0.312462
O O18 0.903255 0.639005 0.350741
O O19 0.500000 0.253448 0.500000
#
# Coordination Sequence:
#
# PCOD9172643 Si02
#       8
#     8   8   8   8   8   8   8   8
#     4  10  20  32  46  71  99 133 157 191 238 287
#     4  10  20  33  51  74  96 121 158 203 245 287
#     4   9  17  29  46  69  98 126 158 191 228 286
#     4  11  21  32  49  74 101 126 159 200 244 289
#     4  10  19  33  52  68  97 128 161 197 239 285
#     4  10  18  30  48  72  96 131 160 192 237 287
#     4   9  18  30  47  69  92 125 163 197 233 276
#     4  10  18  30  45  66  97 128 160 194 231 280
#
# _framework density 15.677021
#
# number of rings (size 3 to 8) (size 9 to 14) (size 15 to 20)
#    0.000    2.125    2.500    1.875    0.000    4.750 
#    0.000    1.875    0.000    0.000    0.000    0.000 
#    0.000    2.000    0.000    0.125    0.000    0.000 
#
# Total GULP energy -178215.731413 kJ/mol
# GULP energy per Si atom -5569.241607 kJ/mol
# Density = 1.564134 g / cm^3
# Si number density = 15.677021 Si / 1000 Ang^3
#
#
#
# Elastic Constant Matrix: (Units=GPa)
#
#
# Indices 1 2 3 4 5 6 
#
# 1 68.5447 33.3232 12.7347 0.0000 0.0326 0.0000
# 2 33.3232 77.9917 15.1762 0.0000 0.5603 0.0000
# 3 12.7347 15.1762 27.5082 0.0000 -3.0574 0.0000
# 4 0.0000 0.0000 0.0000 16.9791 0.0000 3.3974
# 5 0.0326 0.5603 -3.0574 0.0000 16.6282 0.0000
# 6 0.0000 0.0000 0.0000 3.3974 0.0000 4.9764
#
#
#
# Elastic Compliance Matrix: (Units=1/GPa)
#
#
# Indices 1 2 3 4 5 6 
#
# 1 0.018978 -0.007146 -0.004921 0.000000 -0.000701 0.000000
# 2 -0.007146 0.017119 -0.006328 0.000000 -0.001726 0.000000
# 3 -0.004921 -0.006328 0.043026 0.000000 0.008134 0.000000
# 4 0.000000 0.000000 0.000000 0.068214 0.000000 -0.046570
# 5 -0.000701 -0.001726 0.008134 0.000000 0.061694 0.000000
# 6 0.000000 0.000000 0.000000 -0.046570 0.000000 0.232742
#
#
# Mechanical properties :
#
#
# Convention : Reuss Voigt Hill
#
# Bulk Modulus (GPa) = 23.62258 32.94586 28.28422
# Shear Modulus (GPa) = 10.14870 15.23744 12.69307
#
# Velocity S-wave (km/s) = 2.54709 3.12101 2.84854
# Velocity P-wave (km/s) = 4.87352 5.83512 5.37586
#
# Compressibility (1/GPa) = 0.04233238
#
# Stress axis : x y z
#
# Youngs Moduli (GPa) = 52.69366 58.41513 23.24166
#
# Poissons Ratio (x) = 0.41743 0.11437
# Poissons Ratio (y) = 0.37654 0.14708
# Poissons Ratio (z) = 0.25931 0.36966
#
# Static dielectric constant tensor:
#      x y z
#    x 1.500450 0.000000 -0.003350 
#    y 0.000000 1.555360 0.000000 
#    z -0.003350 0.000000 1.547430 
# 
# From -- ./inp_files/177141.got.cif
#   From: 2010.05.17/outbox.cif.g08.bks.cpg/sg12_89_cif.got.tgz:177141.got - 2010.06.03 13:09:07.
