data_PCOD9172099
_publ_section_title
;
Structure prediction by ZEFSAII (Michael W. Deem and Ramdas Pophale) SiO2 
 PCOD9172099
Probable space group: C 2/M
;
_chemical_formula_sum "Si O2"
_cell_formula_units_Z 64
_cell_length_a 31.388827
_cell_length_b 8.157412
_cell_length_c 32.206345
_cell_angle_alpha 90.000000
_cell_angle_beta 28.353674
_cell_angle_gamma 90.000000
_cell_volume 3916.361922
_symmetry_space_group_name_H-M "C 2/M"
_symmetry_group_IT_number 12
_symmetry_cell_setting 'monoclinic'
loop_
_space_group_symop_operation_xyz
x,y,z
-x,y,-z
-x,-y,-z
x,-y,z
1/2+x,1/2+y,z
1/2-x,1/2+y,-z
1/2-x,1/2-y,-z
1/2+x,1/2-y,z
loop_
_atom_site_type_symbol
_atom_site_label
_atom_site_fract_x
_atom_site_fract_y
_atom_site_fract_z
Si Si1 0.661066 0.695801 0.799536
Si Si2 0.675181 0.801753 0.882425
Si Si3 0.870151 0.697459 0.932482
Si Si4 0.133597 0.802740 0.245001
Si Si5 0.026177 0.302317 0.076522
Si Si6 0.857758 0.299917 0.610778
Si Si7 0.481350 0.197354 0.582164
Si Si8 0.834025 0.197535 0.874631
O O1 0.663074 0.500000 0.796722
O O2 0.657393 0.748705 0.850749
O O3 0.573498 0.753503 0.850420
O O4 0.755554 0.757628 0.699661
O O5 0.772570 0.744101 0.815015
O O6 0.675872 0.000000 0.882845
O O7 0.597298 0.745239 0.980584
O O8 0.869107 0.500000 0.934444
O O9 0.939656 0.755600 0.907733
O O10 0.885273 0.749773 0.872182
O O11 0.769628 0.753746 0.031423
O O12 0.052319 0.754624 0.344481
O O13 0.128970 0.744396 0.201392
O O14 0.138211 0.000000 0.240031
O O15 0.030521 0.500000 0.072924
O O16 0.857100 0.500000 0.611106
O O17 0.908641 0.250141 0.609589
O O18 0.921773 0.247291 0.517986
O O19 0.481606 0.000000 0.581833
O O20 0.832422 0.000000 0.875283
#
# Coordination Sequence:
#
# PCOD9172099 Si02
#       8
#     8   8   8   8   8   8   8   8
#     4  11  21  32  46  67  92 120 159 200 228 256
#     4  10  19  32  46  62  92 131 161 181 217 270
#     4   9  17  31  48  66  88 119 157 189 219 267
#     4  10  18  29  46  70  96 122 150 185 227 271
#     4  10  20  34  48  63  90 129 162 186 222 271
#     4   8  16  30  46  64  89 120 151 188 233 274
#     4   9  16  30  49  65  87 121 154 184 228 279
#     4   9  17  30  47  67  93 120 147 185 232 271
#
# _framework density 16.341695999999999
#
# number of rings (size 3 to 8) (size 9 to 14) (size 15 to 20)
#    0.000    2.500    2.500    1.500    0.000    3.000 
#    0.000    2.500    0.000    0.000    0.000    0.875 
#    0.000    0.000    0.000    0.000    0.000    0.000 
#
# Total GULP energy -178397.842322 kJ/mol
# GULP energy per Si atom -5574.932573 kJ/mol
# Density = 1.630450 g / cm^3
# Si number density = 16.341696 Si / 1000 Ang^3
#
#
#
# Elastic Constant Matrix: (Units=GPa)
#
#
# Indices 1 2 3 4 5 6 
#
# 1 145.8141 13.5943 90.9984 0.0019 13.5202 0.0016
# 2 13.5943 7.8192 11.1193 0.0120 0.9393 -0.0119
# 3 90.9984 11.1193 126.6016 0.0092 13.8375 -0.0144
# 4 0.0019 0.0120 0.0092 20.4320 0.0007 2.8059
# 5 13.5202 0.9393 13.8375 0.0007 25.4639 0.0011
# 6 0.0016 -0.0119 -0.0144 2.8059 0.0011 20.6787
#
#
#
# Elastic Compliance Matrix: (Units=1/GPa)
#
#
# Indices 1 2 3 4 5 6 
#
# 1 0.013295 -0.010970 -0.008362 0.000011 -0.002110 -0.000015
# 2 -0.010970 0.155262 -0.006126 -0.000101 0.003426 0.000099
# 3 -0.008362 -0.006126 0.014817 -0.000003 -0.003386 0.000008
# 4 0.000011 -0.000101 -0.000003 0.049872 -0.000001 -0.006767
# 5 -0.002110 0.003426 -0.003386 -0.000001 0.042105 -0.000002
# 6 -0.000015 0.000099 0.000008 -0.006767 -0.000002 0.049277
#
#
# Mechanical properties :
#
#
# Convention : Reuss Voigt Hill
#
# Bulk Modulus (GPa) = 7.54953 56.85098 32.20025
# Shear Modulus (GPa) = 11.91335 24.28313 18.09824
#
# Velocity S-wave (km/s) = 2.70296 3.85900 3.33150
# Velocity P-wave (km/s) = 3.79093 7.39731 5.87756
#
# Compressibility (1/GPa) = 0.13245851
#
# Stress axis : x y z
#
# Youngs Moduli (GPa) = 75.21706 6.44073 67.48848
#
# Poissons Ratio (x) = 0.07065 0.56433
# Poissons Ratio (y) = 0.82509 0.41346
# Poissons Ratio (z) = 0.62896 0.03946
#
# Static dielectric constant tensor:
#      x y z
#    x 1.538690 0.000000 0.006310 
#    y 0.000000 1.581660 0.000000 
#    z 0.006310 0.000000 1.556280 
# 
# From -- ./inp_files/244004.got.cif
#   From: 2010.05.17/outbox.cif.g08.bks.cpg/sg12_123_cif.got.tgz:244004.got - 2010.06.03 13:09:07.
