data_PCOD9172205
_publ_section_title
;
Structure prediction by ZEFSAII (Michael W. Deem and Ramdas Pophale) SiO2 
 PCOD9172205
Probable space group: C 2/M
;
_chemical_formula_sum "Si O2"
_cell_formula_units_Z 64
_cell_length_a 33.408523
_cell_length_b 7.769973
_cell_length_c 25.246522
_cell_angle_alpha 90.000000
_cell_angle_beta 153.248687
_cell_angle_gamma 90.000000
_cell_volume 2949.888469
_symmetry_space_group_name_H-M "C 2/M"
_symmetry_group_IT_number 12
_symmetry_cell_setting 'monoclinic'
loop_
_space_group_symop_operation_xyz
x,y,z
-x,y,-z
-x,-y,-z
x,-y,z
1/2+x,1/2+y,z
1/2-x,1/2+y,-z
1/2-x,1/2-y,-z
1/2+x,1/2-y,z
loop_
_atom_site_type_symbol
_atom_site_label
_atom_site_fract_x
_atom_site_fract_y
_atom_site_fract_z
Si Si1 0.836574 0.805484 0.632719
Si Si2 0.400219 0.190593 0.817149
Si Si3 0.783572 0.201101 0.367185
Si Si4 0.476296 0.698268 0.199806
Si Si5 0.917476 0.793701 0.016368
Si Si6 0.030710 0.787643 0.374935
Si Si7 0.276448 0.204797 0.243747
Si Si8 0.055101 0.793035 0.616004
O O1 0.750000 0.750000 0.500000
O O2 0.861087 0.689092 0.711235
O O3 0.919314 0.805942 0.691047
O O4 0.827474 0.000000 0.642822
O O5 0.316340 0.278621 0.747501
O O6 0.499038 0.262495 0.924139
O O7 0.412004 0.000000 0.853400
O O8 0.865505 0.269393 0.498972
O O9 0.812656 0.213501 0.340616
O O10 0.773531 0.000000 0.369592
O O11 0.443877 0.500000 0.165380
O O12 0.434731 0.774514 0.096713
O O13 0.476992 0.773283 0.259642
O O14 0.912840 0.000000 0.016016
O O15 0.823279 0.729871 0.884277
O O16 0.983520 0.733606 0.373602
O O17 0.032494 0.000000 0.375249
O O18 0.226455 0.500000 0.751949
O O19 0.343036 0.245302 0.274816
O O20 0.000000 0.726653 0.500000
O O21 0.047929 0.000000 0.607629
#
# Coordination Sequence:
#
# PCOD9172205 Si02
#       8
#     8   8   8   8   8   8   8   8
#     4  10  18  29  47  72 107 146 185 227 269 319
#     4  10  20  33  53  79 106 140 183 230 273 318
#     4  10  20  35  54  80 111 139 178 226 272 327
#     4   8  15  30  52  74  98 136 180 217 258 311
#     4   9  20  38  55  74 107 148 184 218 262 322
#     4   9  16  30  55  81 104 133 173 219 267 321
#     4  11  23  37  55  78 107 144 180 219 270 326
#     4  10  19  35  58  82 107 135 172 220 272 324
#
# _framework density 21.695734999999999
#
# number of rings (size 3 to 8) (size 9 to 14) (size 15 to 20)
#    0.000    2.375    1.250    2.625    0.000    4.750 
#    0.000    3.125    0.000    4.500    0.000    0.000 
#    0.000    0.000    0.000    0.000    0.000    0.000 
#
# Total GULP energy -178430.158717 kJ/mol
# GULP energy per Si atom -5575.942460 kJ/mol
# Density = 2.164635 g / cm^3
# Si number density = 21.695735 Si / 1000 Ang^3
#
#
#
# Elastic Constant Matrix: (Units=GPa)
#
#
# Indices 1 2 3 4 5 6 
#
# 1 96.3570 1.0140 9.6205 0.0000 5.1255 0.0000
# 2 1.0140 37.8337 -9.4503 0.0000 0.9153 0.0000
# 3 9.6205 -9.4503 59.1769 0.0000 13.4462 0.0000
# 4 0.0000 0.0000 0.0000 6.3898 0.0000 0.3252
# 5 5.1255 0.9153 13.4462 0.0000 29.5692 0.0000
# 6 0.0000 0.0000 0.0000 0.3252 0.0000 9.2543
#
#
#
# Elastic Compliance Matrix: (Units=1/GPa)
#
#
# Indices 1 2 3 4 5 6 
#
# 1 0.010601 -0.000652 -0.001578 0.000000 -0.001100 0.000000
# 2 -0.000652 0.027840 0.005266 0.000000 -0.003144 0.000000
# 3 -0.001578 0.005266 0.020042 0.000000 -0.009003 0.000000
# 4 0.000000 0.000000 0.000000 0.156779 0.000000 -0.005509
# 5 -0.001100 -0.003144 -0.009003 0.000000 0.038201 0.000000
# 6 0.000000 0.000000 0.000000 -0.005509 0.000000 0.108251
#
#
# Mechanical properties :
#
#
# Convention : Reuss Voigt Hill
#
# Bulk Modulus (GPa) = 15.49012 21.74844 18.61928
# Shear Modulus (GPa) = 13.25700 21.85489 17.55595
#
# Velocity S-wave (km/s) = 2.47461 3.17730 2.84771
# Velocity P-wave (km/s) = 3.91409 4.84834 4.40605
#
# Compressibility (1/GPa) = 0.06455728
#
# Stress axis : x y z
#
# Youngs Moduli (GPa) = 94.33122 35.91904 49.89607
#
# Poissons Ratio (x) = 0.02340 0.07871
# Poissons Ratio (y) = 0.06146 -0.26276
# Poissons Ratio (z) = 0.14881 -0.18916
#
# Static dielectric constant tensor:
#      x y z
#    x 1.825490 0.000000 -0.000920 
#    y 0.000000 1.814440 0.000000 
#    z -0.000920 0.000000 1.802270 
# 
# From -- ./inp_files/353567.got.cif
#   From: 2010.05.17/outbox.cif.g08.bks.cpg/sg12_177_cif.got.tgz:353567.got - 2010.06.03 13:09:07.
