data_PCOD9172688
_publ_section_title
;
Structure prediction by ZEFSAII (Michael W. Deem and Ramdas Pophale) SiO2 
 PCOD9172688
Probable space group: C 2/M
;
_chemical_formula_sum "Si O2"
_cell_formula_units_Z 64
_cell_length_a 32.492350
_cell_length_b 8.709615
_cell_length_c 12.604541
_cell_angle_alpha 90.000000
_cell_angle_beta 82.238522
_cell_angle_gamma 90.000000
_cell_volume 3534.354830
_symmetry_space_group_name_H-M "C 2/M"
_symmetry_group_IT_number 12
_symmetry_cell_setting 'monoclinic'
loop_
_space_group_symop_operation_xyz
x,y,z
-x,y,-z
-x,-y,-z
x,-y,z
1/2+x,1/2+y,z
1/2-x,1/2+y,-z
1/2-x,1/2-y,-z
1/2+x,1/2-y,z
loop_
_atom_site_type_symbol
_atom_site_label
_atom_site_fract_x
_atom_site_fract_y
_atom_site_fract_z
Si Si1 0.131392 0.184697 0.900681
Si Si2 0.429510 0.185392 0.908367
Si Si3 0.621916 0.677824 0.447876
Si Si4 0.529528 0.668687 0.388705
Si Si5 0.011403 0.323065 0.780757
Si Si6 0.295618 0.316048 0.968446
Si Si7 0.355577 0.183260 0.774950
Si Si8 0.600358 0.315265 0.689038
O O1 0.129206 0.227376 0.778333
O O2 0.127993 0.000000 0.908913
O O3 0.092689 0.255419 0.978205
O O4 0.173269 0.231251 0.946817
O O5 0.477251 0.237455 0.876987
O O6 0.398179 0.233693 0.822729
O O7 0.479266 0.000000 0.198277
O O8 0.636089 0.500000 0.447671
O O9 0.575288 0.679150 0.418273
O O10 0.645994 0.766018 0.346847
O O11 0.617355 0.740899 0.569287
O O12 0.500000 0.670516 0.500000
O O13 0.524459 0.500000 0.336999
O O14 0.515982 0.803725 0.316385
O O15 0.930410 0.500000 0.908351
O O16 0.054300 0.239753 0.738185
O O17 0.294004 0.500000 0.966204
O O18 0.318076 0.254729 0.855072
O O19 0.250000 0.250000 0.000000
O O20 0.354301 0.000000 0.782282
O O21 0.598306 0.500000 0.680142
#
# Coordination Sequence:
#
# PCOD9172688 Si02
#       8
#     8   8   8   8   8   8   8   8
#     4   9  20  37  57  77 101 134 175 213 253 314
#     4   9  19  33  48  69 102 138 174 221 272 305
#     4  10  19  31  50  73 102 139 177 218 263 306
#     4  10  18  30  46  67  95 136 183 229 270 305
#     4  11  21  31  45  70 101 139 183 229 270 306
#     4  10  20  37  62  91 111 131 162 203 259 316
#     4  10  19  33  53  80 111 139 169 213 261 307
#     4  10  21  37  51  70 102 143 184 220 258 306
#
# _framework density 18.107972
#
# number of rings (size 3 to 8) (size 9 to 14) (size 15 to 20)
#    0.000    2.125    2.500    1.125    0.000    3.750 
#    0.000    2.500    0.000    0.750    0.000    0.000 
#    0.000    0.000    0.000    0.000    0.000    0.000 
#
# Total GULP energy -178375.063284 kJ/mol
# GULP energy per Si atom -5574.220728 kJ/mol
# Density = 1.806676 g / cm^3
# Si number density = 18.107972 Si / 1000 Ang^3
#
#
#
# Elastic Constant Matrix: (Units=GPa)
#
#
# Indices 1 2 3 4 5 6 
#
# 1 79.0192 23.0683 58.3882 0.0000 -20.4435 0.0000
# 2 23.0683 23.4803 27.7353 0.0000 -5.8042 0.0000
# 3 58.3882 27.7353 130.6542 0.0000 -7.9097 0.0000
# 4 0.0000 0.0000 0.0000 17.2356 0.0000 -7.4316
# 5 -20.4435 -5.8042 -7.9097 0.0000 18.7927 0.0000
# 6 0.0000 0.0000 0.0000 -7.4316 0.0000 19.8040
#
#
#
# Elastic Compliance Matrix: (Units=1/GPa)
#
#
# Indices 1 2 3 4 5 6 
#
# 1 0.028997 -0.011946 -0.008965 0.000000 0.024081 0.000000
# 2 -0.011946 0.064933 -0.008228 0.000000 0.003596 0.000000
# 3 -0.008965 -0.008228 0.012993 0.000000 -0.006825 0.000000
# 4 0.000000 0.000000 0.000000 0.069219 0.000000 0.025975
# 5 0.024081 0.003596 -0.006825 0.000000 0.077647 0.000000
# 6 0.000000 0.000000 0.000000 0.025975 0.000000 0.060242
#
#
# Mechanical properties :
#
#
# Convention : Reuss Voigt Hill
#
# Bulk Modulus (GPa) = 20.55646 50.17082 35.36364
# Shear Modulus (GPa) = 12.86919 19.43058 16.14988
#
# Velocity S-wave (km/s) = 2.66877 3.27928 2.98965
# Velocity P-wave (km/s) = 4.56873 6.48883 5.61151
#
# Compressibility (1/GPa) = 0.04864650
#
# Stress axis : x y z
#
# Youngs Moduli (GPa) = 34.48631 15.40045 76.96186
#
# Poissons Ratio (x) = 0.18398 0.68994
# Poissons Ratio (y) = 0.41198 0.63321
# Poissons Ratio (z) = 0.30916 0.12671
#
# Static dielectric constant tensor:
#      x y z
#    x 1.608560 0.000000 0.005390 
#    y 0.000000 1.642250 0.000000 
#    z 0.005390 0.000000 1.659640 
# 
# From -- ./inp_files/187521.got.cif
#   From: 2010.05.17/outbox.cif.g08.bks.cpg/sg12_94_cif.got.tgz:187521.got - 2010.06.03 13:09:07.
