data_PCOD9172831
_publ_section_title
;
Structure prediction by ZEFSAII (Michael W. Deem and Ramdas Pophale) SiO2 
 PCOD9172831
Probable space group: C 2/M
;
_chemical_formula_sum "Si O2"
_cell_formula_units_Z 44
_cell_length_a 13.545847
_cell_length_b 8.575488
_cell_length_c 13.317004
_cell_angle_alpha 90.000000
_cell_angle_beta 107.645555
_cell_angle_gamma 90.000000
_cell_volume 1474.149856
_symmetry_space_group_name_H-M "C 2/M"
_symmetry_group_IT_number 12
_symmetry_cell_setting 'monoclinic'
loop_
_space_group_symop_operation_xyz
x,y,z
-x,y,-z
-x,-y,-z
x,-y,z
1/2+x,1/2+y,z
1/2-x,1/2+y,-z
1/2-x,1/2-y,-z
1/2+x,1/2-y,z
loop_
_atom_site_type_symbol
_atom_site_label
_atom_site_fract_x
_atom_site_fract_y
_atom_site_fract_z
Si Si1 0.480124 0.332814 0.374283
Si Si2 0.211710 0.832740 0.354933
Si Si3 0.071028 0.766292 0.936166
Si Si4 0.709983 0.000000 0.349062
Si Si5 0.246499 0.311794 0.865968
Si Si6 0.568666 0.000000 0.128757
Si Si7 0.017696 0.500000 0.623208
O O1 0.500000 0.332286 0.500000
O O2 0.429160 0.500000 0.334817
O O3 0.593271 0.334117 0.356758
O O4 0.429398 0.164495 0.335691
O O5 0.259187 0.664119 0.398120
O O6 0.215532 0.828452 0.235488
O O7 0.258232 0.000000 0.401601
O O8 0.148412 0.795730 0.867169
O O9 0.990635 0.655121 0.854717
O O10 0.162573 0.722622 0.043567
O O11 0.000000 0.849044 0.000000
O O12 0.678571 0.000000 0.220167
O O13 0.594979 0.000000 0.361459
O O14 0.232929 0.500000 0.894333
O O15 0.500000 0.000000 0.000000
O O16 0.000000 0.500000 0.500000
#
# Coordination Sequence:
#
# PCOD9172831 Si02
#       7
#     8   8   8   4   8   4   4
#     4   8  13  22  38  62  96 134 161 204 262 316
#     4   9  17  29  46  72 104 136 170 225 267 315
#     4  10  20  34  51  71 100 140 186 227 275 333
#     4  10  18  30  50  76 102 141 179 216 279 329
#     4  10  20  34  51  73 102 142 185 235 279 320
#     4  10  18  30  48  70  96 135 178 216 257 331
#     4   8  14  24  40  66 102 130 165 218 263 316
#
# _framework density 29.847714
#
# number of rings (size 3 to 8) (size 9 to 14) (size 15 to 20)
#    0.000    2.727    0.909    2.182    0.000    0.364 
#    1.636    0.909    0.000    0.545    0.000    0.000 
#    0.000   36.364    2.545    0.000    0.000    0.000 
#
# Total GULP energy -122511.611181 kJ/mol
# GULP energy per Si atom -5568.709599 kJ/mol
# Density = 2.977978 g / cm^3
# Si number density = 29.847714 Si / 1000 Ang^3
#
#
#
# Elastic Constant Matrix: (Units=GPa)
#
#
# Indices 1 2 3 4 5 6 
#
# 1 146.3501 47.0860 40.6636 0.0000 -21.4991 0.0000
# 2 47.0860 287.4267 27.0732 0.0000 9.7891 0.0000
# 3 40.6636 27.0732 194.2390 0.0000 -37.5969 0.0000
# 4 0.0000 0.0000 0.0000 8.9971 0.0000 10.5143
# 5 -21.4991 9.7891 -37.5969 0.0000 55.6849 0.0000
# 6 0.0000 0.0000 0.0000 10.5143 0.0000 24.7032
#
#
#
# Elastic Compliance Matrix: (Units=1/GPa)
#
#
# Indices 1 2 3 4 5 6 
#
# 1 0.007903 -0.001293 -0.000966 0.000000 0.002627 0.000000
# 2 -0.001293 0.003796 -0.000557 0.000000 -0.001543 0.000000
# 3 -0.000966 -0.000557 0.006183 0.000000 0.003900 0.000000
# 4 0.000000 0.000000 0.000000 0.221143 0.000000 -0.094124
# 5 0.002627 -0.001543 0.003900 0.000000 0.021876 0.000000
# 6 0.000000 0.000000 0.000000 -0.094124 0.000000 0.080542
#
#
# Mechanical properties :
#
#
# Convention : Reuss Voigt Hill
#
# Bulk Modulus (GPa) = 81.63211 95.29573 88.46392
# Shear Modulus (GPa) = 14.23858 52.08994 33.16426
#
# Velocity S-wave (km/s) = 2.18650 4.18208 3.33696
# Velocity P-wave (km/s) = 5.81234 7.43750 6.67456
#
# Compressibility (1/GPa) = 0.01225008
#
# Stress axis : x y z
#
# Youngs Moduli (GPa) = 126.53100 263.43568 161.73573
#
# Poissons Ratio (x) = 0.34067 0.15622
# Poissons Ratio (y) = 0.16363 0.09008
# Poissons Ratio (z) = 0.12222 0.14672
#
# Static dielectric constant tensor:
#      x y z
#    x 2.244430 0.000000 -0.113490 
#    y 0.000000 2.930360 0.000000 
#    z -0.113490 0.000000 2.535300 
# 
# From -- ./inp_files/267193.got.cif
#   From: 2010.05.17/outbox.cif.g08.bks.cpg/sg12_134_cif.got.tgz:267193.got - 2010.06.03 13:09:07.
