data_PCOD9172590
_publ_section_title
;
Structure prediction by ZEFSAII (Michael W. Deem and Ramdas Pophale) SiO2 
 PCOD9172590
Probable space group: C 2/M
;
_chemical_formula_sum "Si O2"
_cell_formula_units_Z 48
_cell_length_a 27.661939
_cell_length_b 10.787582
_cell_length_c 14.324440
_cell_angle_alpha 90.000000
_cell_angle_beta 150.897771
_cell_angle_gamma 90.000000
_cell_volume 2078.981386
_symmetry_space_group_name_H-M "C 2/M"
_symmetry_group_IT_number 12
_symmetry_cell_setting 'monoclinic'
loop_
_space_group_symop_operation_xyz
x,y,z
-x,y,-z
-x,-y,-z
x,-y,z
1/2+x,1/2+y,z
1/2-x,1/2+y,-z
1/2-x,1/2-y,-z
1/2+x,1/2-y,z
loop_
_atom_site_type_symbol
_atom_site_label
_atom_site_fract_x
_atom_site_fract_y
_atom_site_fract_z
Si Si1 0.448641 0.725543 0.675071
Si Si2 0.109903 0.500000 0.868942
Si Si3 0.810802 0.500000 0.222697
Si Si4 0.671821 0.500000 0.844515
Si Si5 0.868705 0.239223 0.342211
Si Si6 0.250245 0.140411 0.575332
Si Si7 0.653146 0.226367 0.075471
Si Si8 0.403480 0.000000 0.564535
O O1 0.445580 0.718015 0.556431
O O2 0.359141 0.643196 0.562540
O O3 0.413710 0.869977 0.635396
O O4 0.554559 0.690464 0.898439
O O5 0.996364 0.500000 0.647563
O O6 0.210426 0.500000 0.981639
O O7 0.117832 0.616010 0.949807
O O8 0.869229 0.372731 0.294099
O O9 0.812005 0.500000 0.339115
O O10 0.694762 0.500000 0.992966
O O11 0.629552 0.624003 0.725972
O O12 0.761105 0.250548 0.212353
O O13 0.250000 0.250000 0.500000
O O14 0.326314 0.179965 0.785643
O O15 0.271084 0.000000 0.577171
#
# Coordination Sequence:
#
# PCOD9172590 Si02
#       8
#     8   4   4   4   8   8   8   4
#     4   9  19  35  61  82 107 142 194 234 273 320
#     4   8  14  29  55  79  98 132 198 232 262 311
#     4  10  18  31  45  79 112 148 180 230 287 331
#     4  10  18  29  53  73 110 152 184 226 281 337
#     4   9  19  33  54  79 110 143 192 233 274 325
#     4  11  24  40  59  86 119 146 181 227 281 339
#     4   9  17  37  59  81 104 148 191 231 266 329
#     4   8  16  31  53  81 106 134 184 242 272 319
#
# _framework density 23.088228000000001
#
# number of rings (size 3 to 8) (size 9 to 14) (size 15 to 20)
#    0.000    2.667    0.833    0.500    4.667    1.000 
#    3.000    1.667    0.000    4.000    0.000    0.000 
#    0.000    0.000    0.000    0.000    0.000    0.000 
#
# Total GULP energy -133654.784256 kJ/mol
# GULP energy per Si atom -5568.949344 kJ/mol
# Density = 2.303568 g / cm^3
# Si number density = 23.088228 Si / 1000 Ang^3
#
#
#
# Elastic Constant Matrix: (Units=GPa)
#
#
# Indices 1 2 3 4 5 6 
#
# 1 38.6106 26.2203 27.4473 0.0000 -2.9922 0.0000
# 2 26.2203 130.9044 31.4911 0.0000 -11.2849 0.0000
# 3 27.4473 31.4911 138.7469 0.0000 -6.1240 0.0000
# 4 0.0000 0.0000 0.0000 26.1672 0.0000 -8.7651
# 5 -2.9922 -11.2849 -6.1240 0.0000 17.1112 0.0000
# 6 0.0000 0.0000 0.0000 -8.7651 0.0000 25.0539
#
#
#
# Elastic Compliance Matrix: (Units=1/GPa)
#
#
# Indices 1 2 3 4 5 6 
#
# 1 0.033389 -0.005363 -0.005371 0.000000 0.000379 0.000000
# 2 -0.005363 0.009340 -0.000842 0.000000 0.004921 0.000000
# 3 -0.005371 -0.000842 0.008530 0.000000 0.001558 0.000000
# 4 0.000000 0.000000 0.000000 0.043289 0.000000 0.015144
# 5 0.000379 0.004921 0.001558 0.000000 0.062311 0.000000
# 6 0.000000 0.000000 0.000000 0.015144 0.000000 0.045212
#
#
# Mechanical properties :
#
#
# Convention : Reuss Voigt Hill
#
# Bulk Modulus (GPa) = 35.57823 53.17548 44.37685
# Shear Modulus (GPa) = 21.31363 28.54000 24.92681
#
# Velocity S-wave (km/s) = 3.04162 3.51968 3.28934
# Velocity P-wave (km/s) = 5.27052 6.29277 5.80419
#
# Compressibility (1/GPa) = 0.02810707
#
# Stress axis : x y z
#
# Youngs Moduli (GPa) = 29.94973 107.06519 117.23679
#
# Poissons Ratio (x) = 0.57420 0.62970
# Poissons Ratio (y) = 0.16062 0.09869
# Poissons Ratio (z) = 0.16086 0.09012
#
# Static dielectric constant tensor:
#      x y z
#    x 2.080320 0.000000 -0.016800 
#    y 0.000000 1.895760 0.000000 
#    z -0.016800 0.000000 1.929530 
# 
# From -- ./inp_files/250947.got.cif
#   From: 2010.05.17/outbox.cif.g08.bks.cpg/sg12_126_cif.got.tgz:250947.got - 2010.06.03 13:09:07.
