data_PCOD9172313
_publ_section_title
;
Structure prediction by ZEFSAII (Michael W. Deem and Ramdas Pophale) SiO2 
 PCOD9172313
Probable space group: C 2/M
;
_chemical_formula_sum "Si O2"
_cell_formula_units_Z 48
_cell_length_a 23.633431
_cell_length_b 13.991561
_cell_length_c 9.985083
_cell_angle_alpha 90.000000
_cell_angle_beta 57.258964
_cell_angle_gamma 90.000000
_cell_volume 2777.182777
_symmetry_space_group_name_H-M "C 2/M"
_symmetry_group_IT_number 12
_symmetry_cell_setting 'monoclinic'
loop_
_space_group_symop_operation_xyz
x,y,z
-x,y,-z
-x,-y,-z
x,-y,z
1/2+x,1/2+y,z
1/2-x,1/2+y,-z
1/2-x,1/2-y,-z
1/2+x,1/2-y,z
loop_
_atom_site_type_symbol
_atom_site_label
_atom_site_fract_x
_atom_site_fract_y
_atom_site_fract_z
Si Si1 0.783194 0.115360 0.684026
Si Si2 0.604959 0.703196 0.654862
Si Si3 0.303541 0.614676 0.243957
Si Si4 0.177278 0.612355 0.597960
Si Si5 0.980148 0.114163 0.679946
Si Si6 0.175843 0.884180 0.080271
O O1 0.844775 0.162136 0.524232
O O2 0.714789 0.134737 0.690486
O O3 0.785156 0.145884 0.835789
O O4 0.793377 0.000000 0.663823
O O5 0.634522 0.659079 0.753832
O O6 0.616412 0.816391 0.650228
O O7 0.531125 0.669398 0.710949
O O8 0.312526 0.500000 0.234164
O O9 0.235326 0.633668 0.413689
O O10 0.299380 0.648154 0.096525
O O11 0.161274 0.500000 0.613431
O O12 0.000000 0.132304 0.500000
O O13 0.902670 0.140484 0.801880
O O14 0.987565 0.000000 0.693078
O O15 0.179589 0.000000 0.074277
#
# Coordination Sequence:
#
# PCOD9172313 Si02
#       6
#     8   8   8   8   8   8
#     4   9  15  27  47  69  94 124 152 183 226 287
#     4  11  18  29  47  68  95 127 161 191 228 276
#     4   9  17  29  46  73 103 123 145 190 241 283
#     4   9  19  33  48  66  91 125 166 201 231 267
#     4  10  18  29  48  73  99 125 152 183 224 289
#     4   9  17  28  45  74 104 126 147 177 235 294
#
# _framework density 17.283702999999999
#
# number of rings (size 3 to 8) (size 9 to 14) (size 15 to 20)
#    0.000    2.500    1.667    4.500    0.000    0.667 
#    0.000    5.833    0.000    0.500    0.000    2.333 
#    0.000    0.000    0.000    0.000    0.000    0.000 
#
# Total GULP energy -133865.757940 kJ/mol
# GULP energy per Si atom -5577.739914 kJ/mol
# Density = 1.724436 g / cm^3
# Si number density = 17.283703 Si / 1000 Ang^3
#
#
#
# Elastic Constant Matrix: (Units=GPa)
#
#
# Indices 1 2 3 4 5 6 
#
# 1 73.3384 41.2258 38.6492 0.0000 16.5682 0.0000
# 2 41.2258 62.0569 18.1585 0.0000 4.4521 0.0000
# 3 38.6492 18.1585 85.6835 0.0000 34.9401 0.0000
# 4 0.0000 0.0000 0.0000 1.7597 0.0000 -6.5107
# 5 16.5682 4.4521 34.9401 0.0000 23.1388 0.0000
# 6 0.0000 0.0000 0.0000 -6.5107 0.0000 23.6143
#
#
#
# Elastic Compliance Matrix: (Units=1/GPa)
#
#
# Indices 1 2 3 4 5 6 
#
# 1 0.027434 -0.015965 -0.005813 0.000000 -0.007794 0.000000
# 2 -0.015965 0.026765 -0.002687 0.000000 0.010339 0.000000
# 3 -0.005813 -0.002687 0.033714 0.000000 -0.046229 0.000000
# 4 0.000000 0.000000 0.000000-28.270210 0.000000 -7.794382
# 5 -0.007794 0.010339 -0.046229 0.000000 0.116617 0.000000
# 6 0.000000 0.000000 0.000000 -7.794382 0.000000 -2.106643
#
#
# Mechanical properties :
#
#
# Convention : Reuss Voigt Hill
#
# Bulk Modulus (GPa) = 25.65214 46.34953 36.00084
# Shear Modulus (GPa) = -0.16606 17.90558 8.86976
#
# Velocity S-wave (km/s) = -0.31030 3.22216 2.26782
# Velocity P-wave (km/s) = 3.84001 6.38108 5.26611
#
# Compressibility (1/GPa) = 0.03898310
#
# Stress axis : x y z
#
# Youngs Moduli (GPa) = 36.45109 37.36287 29.66146
#
# Poissons Ratio (x) = 0.59650 0.17242
# Poissons Ratio (y) = 0.58194 0.07969
# Poissons Ratio (z) = 0.21189 0.10039
#
# Static dielectric constant tensor:
#      x y z
#    x 1.563320 0.000000 0.028940 
#    y 0.000000 1.598050 0.000000 
#    z 0.028940 0.000000 1.598840 
# 
# From -- ./inp_files/85689.got.cif
#   From: 2010.05.17/outbox.cif.g08.bks.cpg/sg12_43_cif.got.tgz:85689.got - 2010.06.03 13:09:07.
