data_PCOD9172404
_publ_section_title
;
Structure prediction by ZEFSAII (Michael W. Deem and Ramdas Pophale) SiO2 
 PCOD9172404
Probable space group: C 2/M
;
_chemical_formula_sum "Si O2"
_cell_formula_units_Z 32
_cell_length_a 11.981156
_cell_length_b 13.467710
_cell_length_c 12.084222
_cell_angle_alpha 90.000000
_cell_angle_beta 45.719817
_cell_angle_gamma 90.000000
_cell_volume 1395.996455
_symmetry_space_group_name_H-M "C 2/M"
_symmetry_group_IT_number 12
_symmetry_cell_setting 'monoclinic'
loop_
_space_group_symop_operation_xyz
x,y,z
-x,y,-z
-x,-y,-z
x,-y,z
1/2+x,1/2+y,z
1/2-x,1/2+y,-z
1/2-x,1/2-y,-z
1/2+x,1/2-y,z
loop_
_atom_site_type_symbol
_atom_site_label
_atom_site_fract_x
_atom_site_fract_y
_atom_site_fract_z
Si Si1 0.535586 0.164840 0.104273
Si Si2 0.320371 0.108178 0.701800
Si Si3 0.623272 0.612262 0.043749
Si Si4 0.127581 0.336736 0.572890
O O1 0.706859 0.122805 0.014226
O O2 0.409512 0.122252 0.278885
O O3 0.500000 0.149182 0.000000
O O4 0.538662 0.284036 0.127958
O O5 0.169448 0.118248 0.881228
O O6 0.303988 0.108194 0.582338
O O7 0.450717 0.185822 0.651548
O O8 0.387570 0.000000 0.686582
O O9 0.563066 0.500000 0.108576
O O10 0.250000 0.250000 0.500000
#
# Coordination Sequence:
#
# PCOD9172404 Si02
#       4
#     8   8   8   8
#     4  10  20  33  51  78 105 133 168 206 256 306
#     4   9  18  35  56  73  93 129 176 214 242 287
#     4   9  19  36  55  75 101 133 171 213 252 295
#     4  10  18  29  49  75 102 129 161 204 249 295
#
# _framework density 22.922694
#
# number of rings (size 3 to 8) (size 9 to 14) (size 15 to 20)
#    0.000    2.500    0.000    3.000    0.000    4.000 
#    0.000    2.500    0.000    0.000    0.000   47.250 
#    0.000    0.000    0.000    0.000    0.000    0.000 
#
# Total GULP energy -89116.980998 kJ/mol
# GULP energy per Si atom -5569.811312 kJ/mol
# Density = 2.287052 g / cm^3
# Si number density = 22.922694 Si / 1000 Ang^3
#
#
#
# Elastic Constant Matrix: (Units=GPa)
#
#
# Indices 1 2 3 4 5 6 
#
# 1 98.3443 39.3544 48.2799 0.0000 25.1604 0.0000
# 2 39.3544 110.6035 18.6391 0.0000 4.1364 0.0000
# 3 48.2799 18.6391 142.3584 0.0000 35.7233 0.0000
# 4 0.0000 0.0000 0.0000 22.8835 0.0000 2.0324
# 5 25.1604 4.1364 35.7233 0.0000 51.7930 0.0000
# 6 0.0000 0.0000 0.0000 2.0324 0.0000 33.7656
#
#
#
# Elastic Compliance Matrix: (Units=1/GPa)
#
#
# Indices 1 2 3 4 5 6 
#
# 1 0.014748 -0.004527 -0.003267 0.000000 -0.004549 0.000000
# 2 -0.004527 0.010635 -0.000237 0.000000 0.001513 0.000000
# 3 -0.003267 -0.000237 0.009385 0.000000 -0.004867 0.000000
# 4 0.000000 0.000000 0.000000 0.043934 0.000000 -0.002644
# 5 -0.004549 0.001513 -0.004867 0.000000 0.024754 0.000000
# 6 0.000000 0.000000 0.000000 -0.002644 0.000000 0.029775
#
#
# Mechanical properties :
#
#
# Convention : Reuss Voigt Hill
#
# Bulk Modulus (GPa) = 53.45906 62.65035 58.05470
# Shear Modulus (GPa) = 32.14847 38.02394 35.08621
#
# Velocity S-wave (km/s) = 3.74902 4.07724 3.91657
# Velocity P-wave (km/s) = 6.48940 7.03958 6.77008
#
# Compressibility (1/GPa) = 0.01870590
#
# Stress axis : x y z
#
# Youngs Moduli (GPa) = 67.80724 94.02624 106.55352
#
# Poissons Ratio (x) = 0.42563 0.34815
# Poissons Ratio (y) = 0.30694 0.02525
# Poissons Ratio (z) = 0.22155 0.02228
#
# Static dielectric constant tensor:
#      x y z
#    x 1.916960 0.000000 0.002370 
#    y 0.000000 1.881830 0.000000 
#    z 0.002370 0.000000 1.903020 
# 
# From -- ./inp_files/128466.got.cif
#   From: 2010.05.17/outbox.cif.g08.bks.cpg/sg12_65_cif.got.tgz:128466.got - 2010.06.03 13:09:07.
