data_PCOD9172801
_publ_section_title
;
Structure prediction by ZEFSAII (Michael W. Deem and Ramdas Pophale) SiO2 
 PCOD9172801
Probable space group: C 2/M
;
_chemical_formula_sum "Si O2"
_cell_formula_units_Z 56
_cell_length_a 30.466746
_cell_length_b 8.501683
_cell_length_c 19.663383
_cell_angle_alpha 90.000000
_cell_angle_beta 37.713996
_cell_angle_gamma 90.000000
_cell_volume 3115.602976
_symmetry_space_group_name_H-M "C 2/M"
_symmetry_group_IT_number 12
_symmetry_cell_setting 'monoclinic'
loop_
_space_group_symop_operation_xyz
x,y,z
-x,y,-z
-x,-y,-z
x,-y,z
1/2+x,1/2+y,z
1/2-x,1/2+y,-z
1/2-x,1/2-y,-z
1/2+x,1/2-y,z
loop_
_atom_site_type_symbol
_atom_site_label
_atom_site_fract_x
_atom_site_fract_y
_atom_site_fract_z
Si Si1 0.315123 0.185813 0.617302
Si Si2 0.528044 0.312046 0.539363
Si Si3 0.000922 0.687717 0.712011
Si Si4 0.048161 0.690287 0.086441
Si Si5 0.842791 0.184354 0.441477
Si Si6 0.667353 0.809372 0.834715
Si Si7 0.114319 0.689690 0.750044
O O1 0.389024 0.263883 0.551734
O O2 0.302609 0.235301 0.553768
O O3 0.247047 0.242954 0.743254
O O4 0.323617 0.000000 0.609893
O O5 0.500000 0.261765 0.500000
O O6 0.522249 0.500000 0.551584
O O7 0.484410 0.235636 0.655447
O O8 0.015597 0.500000 0.696970
O O9 0.074090 0.778488 0.641320
O O10 0.946587 0.726631 0.839703
O O11 0.048193 0.500000 0.080549
O O12 0.968605 0.740728 0.159775
O O13 0.111733 0.746807 0.960272
O O14 0.837425 0.248634 0.371515
O O15 0.827850 0.000000 0.461227
O O16 0.638559 0.763001 0.795325
O O17 0.670466 0.000000 0.832516
O O18 0.115878 0.500000 0.744263
#
# Coordination Sequence:
#
# PCOD9172801 Si02
#       7
#     8   8   8   8   8   8   8
#     4  11  22  35  50  71 101 131 162 200 245 298
#     4  10  20  35  57  82 103 123 152 193 242 297
#     4   9  16  29  51  77 102 127 159 198 240 288
#     4   8  15  29  50  74  98 130 171 207 240 283
#     4  10  18  30  48  68  95 130 166 206 250 293
#     4  10  19  32  50  70  98 135 171 207 245 288
#     4   9  17  30  49  72  96 128 172 215 250 284
#
# _framework density 17.974049000000001
#
# number of rings (size 3 to 8) (size 9 to 14) (size 15 to 20)
#    0.000    2.429    0.000    6.429    0.000    4.000 
#    0.000    3.571    0.000    5.143    0.000    0.000 
#    0.000    0.000    0.000    0.000    0.000    0.000 
#
# Total GULP energy -156152.209061 kJ/mol
# GULP energy per Si atom -5576.864609 kJ/mol
# Density = 1.793314 g / cm^3
# Si number density = 17.974049 Si / 1000 Ang^3
#
#
#
# Elastic Constant Matrix: (Units=GPa)
#
#
# Indices 1 2 3 4 5 6 
#
# 1 84.1820 6.2524 46.5535 0.0010 21.1153 -0.0006
# 2 6.2524 18.7835 3.2033 0.0110 2.6666 -0.0047
# 3 46.5535 3.2033 129.8652 0.0036 9.9441 0.0018
# 4 0.0010 0.0110 0.0036 21.4136 -0.0008 5.3777
# 5 21.1153 2.6666 9.9441 -0.0008 22.3538 -0.0001
# 6 -0.0006 -0.0047 0.0018 5.3777 -0.0001 17.0219
#
#
#
# Elastic Compliance Matrix: (Units=1/GPa)
#
#
# Indices 1 2 3 4 5 6 
#
# 1 0.018977 -0.003229 -0.005570 0.000001 -0.015063 0.000000
# 2 -0.003229 0.054800 0.000075 -0.000035 -0.003521 0.000026
# 3 -0.005570 0.000075 0.009621 -0.000001 0.000973 -0.000001
# 4 0.000001 -0.000035 -0.000001 0.050724 0.000005 -0.016025
# 5 -0.015063 -0.003521 0.000973 0.000005 0.058951 -0.000003
# 6 0.000000 0.000026 -0.000001 -0.016025 -0.000003 0.063811
#
#
# Mechanical properties :
#
#
# Convention : Reuss Voigt Hill
#
# Bulk Modulus (GPa) = 15.16269 38.31658 26.73963
# Shear Modulus (GPa) = 16.87403 23.94596 20.41000
#
# Velocity S-wave (km/s) = 3.06731 3.65396 3.37341
# Velocity P-wave (km/s) = 4.58243 6.25827 5.48473
#
# Compressibility (1/GPa) = 0.06595135
#
# Stress axis : x y z
#
# Youngs Moduli (GPa) = 52.69473 18.24824 103.94346
#
# Poissons Ratio (x) = 0.05892 0.57895
# Poissons Ratio (y) = 0.17013 -0.00782
# Poissons Ratio (z) = 0.29350 -0.00137
#
# Static dielectric constant tensor:
#      x y z
#    x 1.627550 0.000000 0.013630 
#    y 0.000000 1.612400 0.000000 
#    z 0.013630 0.000000 1.642130 
# 
# From -- ./inp_files/295052.got.cif
#   From: 2010.05.17/outbox.cif.g08.bks.cpg/sg12_148_cif.got.tgz:295052.got - 2010.06.03 13:09:07.
