data_PCOD9172124
_publ_section_title
;
Structure prediction by ZEFSAII (Michael W. Deem and Ramdas Pophale) SiO2 
 PCOD9172124
Probable space group: C 2/M
;
_chemical_formula_sum "Si O2"
_cell_formula_units_Z 64
_cell_length_a 18.324029
_cell_length_b 19.853263
_cell_length_c 30.307249
_cell_angle_alpha 90.000000
_cell_angle_beta 160.930186
_cell_angle_gamma 90.000000
_cell_volume 3602.260530
_symmetry_space_group_name_H-M "C 2/M"
_symmetry_group_IT_number 12
_symmetry_cell_setting 'monoclinic'
loop_
_space_group_symop_operation_xyz
x,y,z
-x,y,-z
-x,-y,-z
x,-y,z
1/2+x,1/2+y,z
1/2-x,1/2+y,-z
1/2-x,1/2-y,-z
1/2+x,1/2-y,z
loop_
_atom_site_type_symbol
_atom_site_label
_atom_site_fract_x
_atom_site_fract_y
_atom_site_fract_z
Si Si1 0.666532 0.780921 0.553504
Si Si2 0.506806 0.795484 0.200076
Si Si3 0.938671 0.245855 0.011469
Si Si4 0.628282 0.575181 0.212584
Si Si5 0.145656 0.400523 0.041942
Si Si6 0.744834 0.780273 0.734847
Si Si7 0.088190 0.424034 0.907918
Si Si8 0.836688 0.926720 0.663605
O O1 0.500000 0.787007 0.500000
O O2 0.849910 0.727286 0.675177
O O3 0.503493 0.759405 0.420914
O O4 0.756639 0.856500 0.597118
O O5 0.249725 0.790194 0.067365
O O6 0.585513 0.742241 0.207628
O O7 0.530953 0.867621 0.189981
O O8 0.841127 0.319727 0.947108
O O9 0.000000 0.213032 0.000000
O O10 0.161193 0.252105 0.167404
O O11 0.679175 0.500000 0.224799
O O12 0.736716 0.638981 0.250992
O O13 0.705993 0.578212 0.308106
O O14 0.358403 0.583006 0.057977
O O15 0.395600 0.427624 0.187332
O O16 0.047850 0.415631 0.937450
O O17 0.000000 0.423927 0.000000
O O18 0.028187 0.500000 0.860617
O O19 0.748248 0.000000 0.597661
#
# Coordination Sequence:
#
# PCOD9172124 Si02
#       8
#     8   8   8   8   8   8   8   8
#     4  10  20  31  50  78 106 140 177 211 270 315
#     4  11  18  35  56  74 108 138 172 224 258 312
#     4  11  21  33  57  83 105 137 181 221 269 312
#     4   9  16  26  46  77 105 130 167 209 256 310
#     4  10  19  32  51  79 115 140 178 222 269 318
#     4  11  19  33  55  77 105 142 170 216 269 311
#     4  10  19  30  52  82 104 136 178 221 272 310
#     4  10  18  29  46  75 112 143 169 207 265 323
#
# _framework density 17.766621000000001
#
# number of rings (size 3 to 8) (size 9 to 14) (size 15 to 20)
#    0.000    1.750    6.250    2.250    0.000    1.750 
#    0.000    0.625    0.000    4.875    0.000    0.000 
#    0.000    0.000    0.000    0.000    0.000    0.000 
#
# Total GULP energy -178306.454060 kJ/mol
# GULP energy per Si atom -5572.076689 kJ/mol
# Density = 1.772618 g / cm^3
# Si number density = 17.766621 Si / 1000 Ang^3
#
#
#
# Elastic Constant Matrix: (Units=GPa)
#
#
# Indices 1 2 3 4 5 6 
#
# 1 33.9451 16.4058 23.0287 0.0088 -11.2548 -0.0049
# 2 16.4058 93.9716 22.8987 -0.0024 -0.3467 0.0012
# 3 23.0287 22.8987 83.7562 0.0026 -19.2254 -0.0057
# 4 0.0088 -0.0024 0.0026 14.0320 0.0029 -2.1048
# 5 -11.2548 -0.3467 -19.2254 0.0029 13.3739 0.0035
# 6 -0.0049 0.0012 -0.0057 -2.1048 0.0035 5.3808
#
#
#
# Elastic Compliance Matrix: (Units=1/GPa)
#
#
# Indices 1 2 3 4 5 6 
#
# 1 0.046443 -0.007309 -0.002751 -0.000036 0.034940 0.000004
# 2 -0.007309 0.012912 -0.004262 0.000010 -0.011943 -0.000002
# 3 -0.002751 -0.004262 0.019856 -0.000008 0.026118 -0.000001
# 4 -0.000036 0.000010 -0.000008 0.075708 -0.000066 0.029614
# 5 0.034940 -0.011943 0.026118 -0.000066 0.141413 -0.000056
# 6 0.000004 -0.000002 -0.000001 0.029614 -0.000056 0.197430
#
#
# Mechanical properties :
#
#
# Convention : Reuss Voigt Hill
#
# Bulk Modulus (GPa) = 19.77557 37.37104 28.57331
# Shear Modulus (GPa) = 9.27194 16.51332 12.89263
#
# Velocity S-wave (km/s) = 2.28694 3.05201 2.69674
# Velocity P-wave (km/s) = 4.25774 5.78790 5.08075
#
# Compressibility (1/GPa) = 0.05056744
#
# Stress axis : x y z
#
# Youngs Moduli (GPa) = 21.53190 77.44758 50.36202
#
# Poissons Ratio (x) = 0.56605 0.13855
# Poissons Ratio (y) = 0.15737 0.21464
# Poissons Ratio (z) = 0.05924 0.33007
#
# Static dielectric constant tensor:
#      x y z
#    x 1.613580 0.000000 0.000460 
#    y 0.000000 1.632120 -0.000010 
#    z 0.000460 -0.000010 1.640260 
# 
# From -- ./inp_files/379868.got.cif
#   From: 2010.05.17/outbox.cif.g08.bks.cpg/sg12_190_cif.got.tgz:379868.got - 2010.06.03 13:09:07.
