data_PCOD9172316
_publ_section_title
;
Structure prediction by ZEFSAII (Michael W. Deem and Ramdas Pophale) SiO2 
 PCOD9172316
Probable space group: C 2/M
;
_chemical_formula_sum "Si O2"
_cell_formula_units_Z 40
_cell_length_a 20.905016
_cell_length_b 14.603315
_cell_length_c 10.562870
_cell_angle_alpha 90.000000
_cell_angle_beta 152.862690
_cell_angle_gamma 90.000000
_cell_volume 1470.846306
_symmetry_space_group_name_H-M "C 2/M"
_symmetry_group_IT_number 12
_symmetry_cell_setting 'monoclinic'
loop_
_space_group_symop_operation_xyz
x,y,z
-x,y,-z
-x,-y,-z
x,-y,z
1/2+x,1/2+y,z
1/2-x,1/2+y,-z
1/2-x,1/2-y,-z
1/2+x,1/2-y,z
loop_
_atom_site_type_symbol
_atom_site_label
_atom_site_fract_x
_atom_site_fract_y
_atom_site_fract_z
Si Si1 0.218091 0.142851 0.950988
Si Si2 0.737738 0.105816 0.590059
Si Si3 0.533902 0.899500 0.758338
Si Si4 0.060285 0.103319 0.409337
Si Si5 0.683065 0.802069 0.244448
O O1 0.373339 0.102439 0.204915
O O2 0.134454 0.109935 0.677835
O O3 0.104710 0.120497 0.859394
O O4 0.250000 0.250000 0.000000
O O5 0.652794 0.133453 0.311937
O O6 0.837861 0.194183 0.771278
O O7 0.786888 0.000000 0.670883
O O8 0.631874 0.114563 0.523382
O O9 0.603237 0.829852 0.977911
O O10 0.555879 0.000000 0.853795
O O11 0.151868 0.174868 0.491549
O O12 0.079164 0.000000 0.393390
#
# Coordination Sequence:
#
# PCOD9172316 Si02
#       5
#     8   8   8   8   8
#     4  10  18  29  48  74 101 127 159 202 249 288
#     4  10  20  33  52  76 101 130 164 203 247 294
#     4  10  19  33  53  75  98 128 168 207 242 287
#     4  10  19  33  52  74  99 130 169 208 244 289
#     4  10  19  32  53  76 100 129 166 205 245 291
#
# _framework density 27.195226999999999
#
# number of rings (size 3 to 8) (size 9 to 14) (size 15 to 20)
#    0.000    2.000    0.000    7.200    0.000    1.600 
#    0.000    0.000    0.000   31.200    0.000   29.400 
#    0.000    0.000    0.000    0.000    0.000    0.000 
#
# Total GULP energy -111794.362373 kJ/mol
# GULP energy per Si atom -5589.718119 kJ/mol
# Density = 2.713333 g / cm^3
# Si number density = 27.195227 Si / 1000 Ang^3
#
#
#
# Elastic Constant Matrix: (Units=GPa)
#
#
# Indices 1 2 3 4 5 6 
#
# 1 132.0404 6.1311 33.5378 0.0000 28.7933 0.0000
# 2 6.1311 238.5410 21.4727 0.0000 4.9733 0.0000
# 3 33.5378 21.4727 140.9272 0.0000 24.3453 0.0000
# 4 0.0000 0.0000 0.0000 17.6063 0.0000 5.7489
# 5 28.7933 4.9733 24.3453 0.0000 49.4757 0.0000
# 6 0.0000 0.0000 0.0000 5.7489 0.0000 31.4818
#
#
#
# Elastic Compliance Matrix: (Units=1/GPa)
#
#
# Indices 1 2 3 4 5 6 
#
# 1 0.008899 -0.000014 -0.001335 0.000000 -0.004521 0.000000
# 2 -0.000014 0.004251 -0.000625 0.000000 -0.000111 0.000000
# 3 -0.001335 -0.000625 0.008048 0.000000 -0.003120 0.000000
# 4 0.000000 0.000000 0.000000 0.060399 0.000000 -0.011029
# 5 -0.004521 -0.000111 -0.003120 0.000000 0.024390 0.000000
# 6 0.000000 0.000000 0.000000 -0.011029 0.000000 0.033778
#
#
# Mechanical properties :
#
#
# Convention : Reuss Voigt Hill
#
# Bulk Modulus (GPa) = 57.97186 70.42131 64.19659
# Shear Modulus (GPa) = 33.45310 49.73723 41.59517
#
# Velocity S-wave (km/s) = 3.51110 4.28120 3.91513
# Velocity P-wave (km/s) = 6.14819 7.09853 6.64038
#
# Compressibility (1/GPa) = 0.01724975
#
# Stress axis : x y z
#
# Youngs Moduli (GPa) = 112.37344 235.23273 124.25783
#
# Poissons Ratio (x) = 0.00337 0.16584
# Poissons Ratio (y) = 0.00161 0.07767
# Poissons Ratio (z) = 0.14998 0.14704
#
# Static dielectric constant tensor:
#      x y z
#    x 2.186900 0.000000 0.029710 
#    y 0.000000 2.064650 0.000000 
#    z 0.029710 0.000000 2.201810 
# 
# From -- ./inp_files/211844.got.cif
#   From: 2010.05.17/outbox.cif.g08.bks.cpg/sg12_106_cif.got.tgz:211844.got - 2010.06.03 13:09:07.
