data_PCOD9172075
_publ_section_title
;
Structure prediction by ZEFSAII (Michael W. Deem and Ramdas Pophale) SiO2 
 PCOD9172075
Probable space group: C 2/M
;
_chemical_formula_sum "Si O2"
_cell_formula_units_Z 52
_cell_length_a 23.334568
_cell_length_b 9.280668
_cell_length_c 14.888248
_cell_angle_alpha 90.000000
_cell_angle_beta 92.993724
_cell_angle_gamma 90.000000
_cell_volume 3219.804426
_symmetry_space_group_name_H-M "C 2/M"
_symmetry_group_IT_number 12
_symmetry_cell_setting 'monoclinic'
loop_
_space_group_symop_operation_xyz
x,y,z
-x,y,-z
-x,-y,-z
x,-y,z
1/2+x,1/2+y,z
1/2-x,1/2+y,-z
1/2-x,1/2-y,-z
1/2+x,1/2-y,z
loop_
_atom_site_type_symbol
_atom_site_label
_atom_site_fract_x
_atom_site_fract_y
_atom_site_fract_z
Si Si1 0.424972 0.832728 0.666014
Si Si2 0.569864 0.333820 0.511475
Si Si3 0.598677 0.335931 0.870304
Si Si4 0.000000 0.766197 0.000000
Si Si5 0.936599 0.333693 0.310499
Si Si6 0.900226 0.330414 0.860327
Si Si7 0.188684 0.325468 0.998780
O O1 0.408551 0.739162 0.578409
O O2 0.494216 0.835449 0.677239
O O3 0.405349 0.769447 0.760520
O O4 0.406610 0.000000 0.652951
O O5 0.500000 0.332891 0.500000
O O6 0.587710 0.500000 0.521569
O O7 0.585445 0.240301 0.600021
O O8 0.618079 0.500000 0.857644
O O9 0.545433 0.340265 0.936545
O O10 0.579418 0.261138 0.776797
O O11 0.648107 0.237475 0.917486
O O12 0.957091 0.687668 0.926480
O O13 0.917720 0.500000 0.299894
O O14 0.893915 0.500000 0.846424
O O15 0.845762 0.281566 0.913487
O O16 0.192234 0.500000 0.994937
O O17 0.250000 0.250000 0.000000
#
# Coordination Sequence:
#
# PCOD9172075 Si02
#       7
#     8   8   8   4   8   8   8
#     4   9  16  28  44  67  95 128 165 198 234 286
#     4   9  17  28  41  62  94 131 162 196 238 283
#     4  11  21  32  48  72 101 131 162 200 245 292
#     4  10  18  30  44  70 101 132 159 198 241 292
#     4  10  18  29  46  68  95 130 166 199 236 285
#     4   9  17  29  49  72  97 129 164 201 243 289
#     4  10  21  37  54  71  95 128 168 209 247 289
#
# _framework density 16.150048999999999
#
# number of rings (size 3 to 8) (size 9 to 14) (size 15 to 20)
#    0.000    2.308    1.538    2.308    0.000    3.692 
#    0.000    1.538    0.000    0.000    0.000    1.077 
#    0.000    0.000    0.000    0.000    0.000    0.000 
#
# Total GULP energy -144744.760043 kJ/mol
# GULP energy per Si atom -5567.106155 kJ/mol
# Density = 1.611329 g / cm^3
# Si number density = 16.150049 Si / 1000 Ang^3
#
#
#
# Elastic Constant Matrix: (Units=GPa)
#
#
# Indices 1 2 3 4 5 6 
#
# 1 64.6867 24.0616 25.1463 0.0000 -5.7154 0.0000
# 2 24.0616 92.7765 57.7393 0.0000 -4.2519 0.0000
# 3 25.1463 57.7393 142.7593 0.0000 -9.6139 0.0000
# 4 0.0000 0.0000 0.0000 11.1127 0.0000 5.0060
# 5 -5.7154 -4.2519 -9.6139 0.0000 11.8652 0.0000
# 6 0.0000 0.0000 0.0000 5.0060 0.0000 12.8100
#
#
#
# Elastic Compliance Matrix: (Units=1/GPa)
#
#
# Indices 1 2 3 4 5 6 
#
# 1 0.017829 -0.003535 -0.001288 0.000000 0.006278 0.000000
# 2 -0.003535 0.015107 -0.005540 0.000000 -0.000778 0.000000
# 3 -0.001288 -0.005540 0.009833 0.000000 0.005362 0.000000
# 4 0.000000 0.000000 0.000000 0.109213 0.000000 -0.042679
# 5 0.006278 -0.000778 0.005362 0.000000 0.091370 0.000000
# 6 0.000000 0.000000 0.000000 -0.042679 0.000000 0.094742
#
#
# Mechanical properties :
#
#
# Convention : Reuss Voigt Hill
#
# Bulk Modulus (GPa) = 45.36250 57.12410 51.24330
# Shear Modulus (GPa) = 13.65487 20.04260 16.84873
#
# Velocity S-wave (km/s) = 2.91090 3.52664 3.23346
# Velocity P-wave (km/s) = 6.28068 7.21322 6.76304
#
# Compressibility (1/GPa) = 0.02204464
#
# Stress axis : x y z
#
# Youngs Moduli (GPa) = 56.08719 66.19236 101.69354
#
# Poissons Ratio (x) = 0.23397 0.13100
# Poissons Ratio (y) = 0.19825 0.56338
# Poissons Ratio (z) = 0.07225 0.36671
#
# Static dielectric constant tensor:
#      x y z
#    x 1.514170 0.000000 -0.020020 
#    y 0.000000 1.548520 0.000000 
#    z -0.020020 0.000000 1.567570 
# 
# From -- ./inp_files/236755.got.cif
#   From: 2010.05.17/outbox.cif.g08.bks.cpg/sg12_119_cif.got.tgz:236755.got - 2010.06.03 13:09:07.
