data_PCOD9172761
_publ_section_title
;
Structure prediction by ZEFSAII (Michael W. Deem and Ramdas Pophale) SiO2 
 PCOD9172761
Probable space group: C 2/M
;
_chemical_formula_sum "Si O2"
_cell_formula_units_Z 56
_cell_length_a 19.753993
_cell_length_b 7.476502
_cell_length_c 18.046569
_cell_angle_alpha 90.000000
_cell_angle_beta 115.154594
_cell_angle_gamma 90.000000
_cell_volume 2412.544655
_symmetry_space_group_name_H-M "C 2/M"
_symmetry_group_IT_number 12
_symmetry_cell_setting 'monoclinic'
loop_
_space_group_symop_operation_xyz
x,y,z
-x,y,-z
-x,-y,-z
x,-y,z
1/2+x,1/2+y,z
1/2-x,1/2+y,-z
1/2-x,1/2-y,-z
1/2+x,1/2-y,z
loop_
_atom_site_type_symbol
_atom_site_label
_atom_site_fract_x
_atom_site_fract_y
_atom_site_fract_z
Si Si1 0.682987 0.219534 0.638610
Si Si2 0.838531 0.711626 0.531547
Si Si3 0.801284 0.282616 0.915535
Si Si4 0.140232 0.704490 0.777591
Si Si5 0.094080 0.719559 0.909123
Si Si6 0.562217 0.797484 0.120111
Si Si7 0.144145 0.206510 0.298180
O O1 0.644141 0.276415 0.543547
O O2 0.646231 0.282523 0.697973
O O3 0.770601 0.274196 0.675097
O O4 0.683675 0.000000 0.639496
O O5 0.849972 0.500000 0.537706
O O6 0.750000 0.750000 0.500000
O O7 0.874514 0.782861 0.623464
O O8 0.794182 0.500000 0.908911
O O9 0.724335 0.204988 0.849960
O O10 0.868144 0.221387 0.892216
O O11 0.831847 0.231053 0.010790
O O12 0.114466 0.500000 0.756208
O O13 0.094445 0.784925 0.824747
O O14 0.092261 0.500000 0.906628
O O15 0.020461 0.781508 0.918446
O O16 0.587527 0.801892 0.217435
O O17 0.555747 0.000000 0.088892
O O18 0.143646 0.000000 0.276040
#
# Coordination Sequence:
#
# PCOD9172761 Si02
#       7
#     8   8   8   8   8   8   8
#     4   8  15  27  45  69  96 122 154 196 238 282
#     4   9  16  27  44  70 100 128 158 198 245 291
#     4  10  19  32  50  73  98 126 164 208 246 286
#     4  10  18  32  52  72  98 130 162 199 243 292
#     4   9  19  33  50  71  97 131 167 201 242 291
#     4  10  19  32  50  71  97 131 167 203 242 290
#     4  10  18  30  47  71  99 126 160 203 248 291
#
# _framework density 23.212005000000001
#
# number of rings (size 3 to 8) (size 9 to 14) (size 15 to 20)
#    0.000    2.571    1.429    2.571    0.000    1.714 
#    0.000    2.143    0.000    2.571    0.000    6.000 
#    0.000    0.000    0.000    0.000    0.000    0.000 
#
# Total GULP energy -156261.710061 kJ/mol
# GULP energy per Si atom -5580.775359 kJ/mol
# Density = 2.315917 g / cm^3
# Si number density = 23.212005 Si / 1000 Ang^3
#
#
#
# Elastic Constant Matrix: (Units=GPa)
#
#
# Indices 1 2 3 4 5 6 
#
# 1 58.5986 -8.0849 -8.9820 0.0000 -21.6744 0.0000
# 2 -8.0849 75.6177 -1.2094 0.0000 -0.3579 0.0000
# 3 -8.9820 -1.2094 107.1566 0.0000 -30.8795 0.0000
# 4 0.0000 0.0000 0.0000 10.4456 0.0000 4.9550
# 5 -21.6744 -0.3579 -30.8795 0.0000 40.0950 0.0000
# 6 0.0000 0.0000 0.0000 4.9550 0.0000 1.0336
#
#
#
# Elastic Compliance Matrix: (Units=1/GPa)
#
#
# Indices 1 2 3 4 5 6 
#
# 1 0.026339 0.003044 0.008165 0.000000 0.020554 0.000000
# 2 0.003044 0.013581 0.001179 0.000000 0.002675 0.000000
# 3 0.008165 0.001179 0.014530 0.000000 0.015615 0.000000
# 4 0.000000 0.000000 0.000000 -0.075136 0.000000 0.360206
# 5 0.020554 0.002675 0.015615 0.000000 0.048101 0.000000
# 6 0.000000 0.000000 0.000000 0.360206 0.000000 -0.759338
#
#
# Mechanical properties :
#
#
# Convention : Reuss Voigt Hill
#
# Bulk Modulus (GPa) = 12.62187 22.75782 17.68984
# Shear Modulus (GPa) = -6.84659 27.62477 10.38909
#
# Velocity S-wave (km/s) = -1.71930 3.45354 2.11789
# Velocity P-wave (km/s) = 1.22806 5.07229 3.69028
#
# Compressibility (1/GPa) = 0.07922756
#
# Stress axis : x y z
#
# Youngs Moduli (GPa) = 37.96598 73.63010 68.82530
#
# Poissons Ratio (x) = -0.22413 -0.56198
# Poissons Ratio (y) = -0.11557 -0.08117
# Poissons Ratio (z) = -0.31000 -0.08683
#
# Static dielectric constant tensor:
#      x y z
#    x 1.865630 0.000000 -0.050490 
#    y 0.000000 1.894340 0.000000 
#    z -0.050490 0.000000 1.891300 
# 
# From -- ./inp_files/280161.got.cif
#   From: 2010.05.17/outbox.cif.g08.bks.cpg/sg12_141_cif.got.tgz:280161.got - 2010.06.03 13:09:07.
