data_PCOD9172425
_publ_section_title
;
Structure prediction by ZEFSAII (Michael W. Deem and Ramdas Pophale) SiO2 
 PCOD9172425
Probable space group: C 2/M
;
_chemical_formula_sum "Si O2"
_cell_formula_units_Z 56
_cell_length_a 30.694175
_cell_length_b 8.011504
_cell_length_c 19.588457
_cell_angle_alpha 90.000000
_cell_angle_beta 142.134115
_cell_angle_gamma 90.000000
_cell_volume 2956.704514
_symmetry_space_group_name_H-M "C 2/M"
_symmetry_group_IT_number 12
_symmetry_cell_setting 'monoclinic'
loop_
_space_group_symop_operation_xyz
x,y,z
-x,y,-z
-x,-y,-z
x,-y,z
1/2+x,1/2+y,z
1/2-x,1/2+y,-z
1/2-x,1/2-y,-z
1/2+x,1/2-y,z
loop_
_atom_site_type_symbol
_atom_site_label
_atom_site_fract_x
_atom_site_fract_y
_atom_site_fract_z
Si Si1 0.466271 0.798309 0.029061
Si Si2 0.382641 0.203116 0.252868
Si Si3 0.807745 0.295175 0.872085
Si Si4 0.833793 0.692111 0.051209
Si Si5 0.514107 0.690947 0.802040
Si Si6 0.461190 0.804316 0.604001
Si Si7 0.840655 0.803309 0.352677
O O1 0.506410 0.737795 0.146662
O O2 0.467176 0.000000 0.030164
O O3 0.500000 0.739739 0.000000
O O4 0.384212 0.744868 0.937788
O O5 0.334478 0.263313 0.128864
O O6 0.464274 0.252142 0.337775
O O7 0.362540 0.272033 0.301342
O O8 0.379303 0.000000 0.250372
O O9 0.807405 0.500000 0.874996
O O10 0.740602 0.242003 0.744656
O O11 0.799435 0.232862 0.940350
O O12 0.811194 0.500000 0.028661
O O13 0.917688 0.697965 0.134452
O O14 0.538371 0.500000 0.830591
O O15 0.456622 0.717331 0.671922
O O16 0.396473 0.775911 0.473108
O O17 0.468079 0.000000 0.625357
O O18 0.841539 0.000000 0.367085
#
# Coordination Sequence:
#
# PCOD9172425 Si02
#       7
#     8   8   8   8   8   8   8
#     4   9  17  33  58  80  98 126 159 186 223 287
#     4   9  18  31  47  66  89 124 171 213 241 272
#     4   8  16  31  48  70  99 127 156 193 240 287
#     4   8  15  31  50  65  91 131 167 197 233 283
#     4  10  18  29  49  77 103 122 149 197 248 283
#     4  10  20  35  51  65  90 130 173 207 233 275
#     4  11  21  30  44  68  99 130 160 202 248 283
#
# _framework density 18.940004999999999
#
# number of rings (size 3 to 8) (size 9 to 14) (size 15 to 20)
#    0.000    2.714    0.000    4.286    0.000    5.429 
#    0.000    5.714    0.000    0.857    0.000    0.000 
#    0.000    0.000    0.000    0.000    0.000    0.000 
#
# Total GULP energy -156121.610175 kJ/mol
# GULP energy per Si atom -5575.771792 kJ/mol
# Density = 1.889690 g / cm^3
# Si number density = 18.940005 Si / 1000 Ang^3
#
#
#
# Elastic Constant Matrix: (Units=GPa)
#
#
# Indices 1 2 3 4 5 6 
#
# 1 94.3744 8.3176 39.9656 0.0000 -17.4494 0.0000
# 2 8.3176 34.5590 10.2715 0.0000 -0.1326 0.0000
# 3 39.9656 10.2715 103.8299 0.0000 -2.9043 0.0000
# 4 0.0000 0.0000 0.0000 5.8324 0.0000 1.7471
# 5 -17.4494 -0.1326 -2.9043 0.0000 22.2526 0.0000
# 6 0.0000 0.0000 0.0000 1.7471 0.0000 11.8051
#
#
#
# Elastic Compliance Matrix: (Units=1/GPa)
#
#
# Indices 1 2 3 4 5 6 
#
# 1 0.015069 -0.002012 -0.005290 0.000000 0.011114 0.000000
# 2 -0.002012 0.030082 -0.002249 0.000000 -0.001692 0.000000
# 3 -0.005290 -0.002249 0.011817 0.000000 -0.002619 0.000000
# 4 0.000000 0.000000 0.000000 0.179410 0.000000 -0.026553
# 5 0.011114 -0.001692 -0.002619 0.000000 0.053301 0.000000
# 6 0.000000 0.000000 0.000000 -0.026553 0.000000 0.088639
#
#
# Mechanical properties :
#
#
# Convention : Reuss Voigt Hill
#
# Bulk Modulus (GPa) = 26.40915 38.87474 32.64194
# Shear Modulus (GPa) = 12.19389 19.59193 15.89291
#
# Velocity S-wave (km/s) = 2.54011 3.21973 2.89990
# Velocity P-wave (km/s) = 4.75150 5.86447 5.33707
#
# Compressibility (1/GPa) = 0.03786567
#
# Stress axis : x y z
#
# Youngs Moduli (GPa) = 66.36341 33.24232 84.62652
#
# Poissons Ratio (x) = 0.06687 0.44769
# Poissons Ratio (y) = 0.13350 0.19032
# Poissons Ratio (z) = 0.35108 0.07476
#
# Static dielectric constant tensor:
#      x y z
#    x 1.658040 0.000000 -0.001100 
#    y 0.000000 1.679320 0.000000 
#    z -0.001100 0.000000 1.693500 
# 
# From -- ./inp_files/295161.got.cif
#   From: 2010.05.17/outbox.cif.g08.bks.cpg/sg12_148_cif.got.tgz:295161.got - 2010.06.03 13:09:07.
