data_PCOD9172443
_publ_section_title
;
Structure prediction by ZEFSAII (Michael W. Deem and Ramdas Pophale) SiO2 
 PCOD9172443
Probable space group: C 2/M
;
_chemical_formula_sum "Si O2"
_cell_formula_units_Z 56
_cell_length_a 20.121418
_cell_length_b 8.792019
_cell_length_c 23.241636
_cell_angle_alpha 90.000000
_cell_angle_beta 136.383917
_cell_angle_gamma 90.000000
_cell_volume 2836.295240
_symmetry_space_group_name_H-M "C 2/M"
_symmetry_group_IT_number 12
_symmetry_cell_setting 'monoclinic'
loop_
_space_group_symop_operation_xyz
x,y,z
-x,y,-z
-x,-y,-z
x,-y,z
1/2+x,1/2+y,z
1/2-x,1/2+y,-z
1/2-x,1/2-y,-z
1/2+x,1/2-y,z
loop_
_atom_site_type_symbol
_atom_site_label
_atom_site_fract_x
_atom_site_fract_y
_atom_site_fract_z
Si Si1 0.149222 0.175230 0.576414
Si Si2 0.854080 0.675379 0.641110
Si Si3 0.347643 0.819918 0.085948
Si Si4 0.356625 0.681172 0.217119
Si Si5 0.553513 0.683398 0.407622
Si Si6 0.546507 0.680294 0.187422
Si Si7 0.729041 0.183632 0.241852
O O1 0.245030 0.176910 0.596087
O O2 0.068319 0.238374 0.482590
O O3 0.189569 0.240472 0.661398
O O4 0.122131 0.000000 0.572566
O O5 0.886609 0.500000 0.662961
O O6 0.870439 0.742803 0.588501
O O7 0.916221 0.771151 0.725707
O O8 0.355941 0.772468 0.157946
O O9 0.441957 0.752870 0.113921
O O10 0.346519 0.000000 0.079254
O O11 0.250000 0.750000 0.000000
O O12 0.358893 0.500000 0.205486
O O13 0.450390 0.714929 0.314650
O O14 0.265419 0.713017 0.200653
O O15 0.566234 0.500000 0.416283
O O16 0.540896 0.500000 0.180346
O O17 0.627792 0.744446 0.195632
O O18 0.722296 0.000000 0.245749
#
# Coordination Sequence:
#
# PCOD9172443 Si02
#       7
#     8   8   8   8   8   8   8
#     4   8  16  29  47  76 113 157 205 245 285 333
#     4  10  18  30  49  76 112 154 199 247 296 344
#     4  12  25  43  68  94 121 148 184 235 291 353
#     4  10  21  37  59  88 122 158 197 241 293 350
#     4  10  18  29  49  78 115 157 201 247 289 341
#     4  11  21  37  61  88 117 152 197 242 291 349
#     4   9  19  37  58  83 121 164 203 242 287 342
#
# _framework density 19.744066
#
# number of rings (size 3 to 8) (size 9 to 14) (size 15 to 20)
#    0.000    2.000    1.429    4.286    0.000    1.143 
#    0.000    6.429    0.000    4.286    0.000    6.000 
#    0.000    0.000    0.000    0.000    0.000    0.000 
#
# Total GULP energy -156349.818384 kJ/mol
# GULP energy per Si atom -5583.922085 kJ/mol
# Density = 1.969913 g / cm^3
# Si number density = 19.744066 Si / 1000 Ang^3
#
#
#
# Elastic Constant Matrix: (Units=GPa)
#
#
# Indices 1 2 3 4 5 6 
#
# 1 80.6405 41.2431 26.0373 0.0000 4.7785 0.0000
# 2 41.2431 82.1343 37.3694 0.0000 7.1891 0.0000
# 3 26.0373 37.3694 69.7086 0.0000 25.8971 0.0000
# 4 0.0000 0.0000 0.0000 21.0196 0.0000 -1.7783
# 5 4.7785 7.1891 25.8971 0.0000 19.8630 0.0000
# 6 0.0000 0.0000 0.0000 -1.7783 0.0000 23.0398
#
#
#
# Elastic Compliance Matrix: (Units=1/GPa)
#
#
# Indices 1 2 3 4 5 6 
#
# 1 0.017086 -0.007129 -0.003863 0.000000 0.003506 0.000000
# 2 -0.007129 0.020298 -0.011881 0.000000 0.009859 0.000000
# 3 -0.003863 -0.011881 0.039203 0.000000 -0.045883 0.000000
# 4 0.000000 0.000000 0.000000 0.047887 0.000000 0.003696
# 5 0.003506 0.009859 -0.045883 0.000000 0.105755 0.000000
# 6 0.000000 0.000000 0.000000 0.003696 0.000000 0.043688
#
#
# Mechanical properties :
#
#
# Convention : Reuss Voigt Hill
#
# Bulk Modulus (GPa) = 32.42374 49.08699 40.75536
# Shear Modulus (GPa) = 15.15410 21.30672 18.23041
#
# Velocity S-wave (km/s) = 2.77343 3.28860 3.04194
# Velocity P-wave (km/s) = 5.16852 6.27180 5.74670
#
# Compressibility (1/GPa) = 0.03084160
#
# Stress axis : x y z
#
# Youngs Moduli (GPa) = 58.52635 49.26665 25.50820
#
# Poissons Ratio (x) = 0.35123 0.09853
# Poissons Ratio (y) = 0.41725 0.30306
# Poissons Ratio (z) = 0.22606 0.58533
#
# Static dielectric constant tensor:
#      x y z
#    x 1.713330 0.000000 0.017170 
#    y 0.000000 1.666390 0.000000 
#    z 0.017170 0.000000 1.711050 
# 
# From -- ./inp_files/348621.got.cif
#   From: 2010.05.17/outbox.cif.g08.bks.cpg/sg12_175_cif.got.tgz:348621.got - 2010.06.03 13:09:07.
