data_PCOD9172714
_publ_section_title
;
Structure prediction by ZEFSAII (Michael W. Deem and Ramdas Pophale) SiO2 
 PCOD9172714
Probable space group: C 2/M
;
_chemical_formula_sum "Si O2"
_cell_formula_units_Z 64
_cell_length_a 28.774644
_cell_length_b 8.975697
_cell_length_c 15.011225
_cell_angle_alpha 90.000000
_cell_angle_beta 93.307321
_cell_angle_gamma 90.000000
_cell_volume 3870.529094
_symmetry_space_group_name_H-M "C 2/M"
_symmetry_group_IT_number 12
_symmetry_cell_setting 'monoclinic'
loop_
_space_group_symop_operation_xyz
x,y,z
-x,y,-z
-x,-y,-z
x,-y,z
1/2+x,1/2+y,z
1/2-x,1/2+y,-z
1/2-x,1/2-y,-z
1/2+x,1/2-y,z
loop_
_atom_site_type_symbol
_atom_site_label
_atom_site_fract_x
_atom_site_fract_y
_atom_site_fract_z
Si Si1 0.300299 0.178611 0.258436
Si Si2 0.153590 0.171854 0.481972
Si Si3 0.508024 0.680493 0.604382
Si Si4 0.916967 0.828505 0.693695
Si Si5 0.740524 0.819055 0.094945
Si Si6 0.843267 0.670044 0.797303
Si Si7 0.271345 0.827485 0.621761
Si Si8 0.106034 0.323717 0.643648
O O1 0.277771 0.255501 0.169874
O O2 0.273310 0.247668 0.340691
O O3 0.355140 0.207356 0.276833
O O4 0.292706 0.000000 0.255668
O O5 0.118051 0.174589 0.394615
O O6 0.202286 0.236751 0.452093
O O7 0.130691 0.270912 0.555435
O O8 0.157692 0.000000 0.511398
O O9 0.500000 0.726157 0.500000
O O10 0.507713 0.500000 0.604502
O O11 0.465546 0.734292 0.661854
O O12 0.557372 0.738938 0.643751
O O13 0.889593 0.752370 0.771256
O O14 0.924825 0.000000 0.718508
O O15 0.689460 0.772263 0.126743
O O16 0.742182 0.000000 0.094749
O O17 0.750000 0.750000 0.000000
O O18 0.855241 0.500000 0.818472
O O19 0.808307 0.671285 0.708331
O O20 0.262964 0.000000 0.596927
O O21 0.097763 0.500000 0.640074
#
# Coordination Sequence:
#
# PCOD9172714 Si02
#       8
#     8   8   8   8   8   8   8   8
#     4  10  21  36  50  69 100 133 166 204 247 300
#     4  10  18  30  47  66  92 130 171 211 255 297
#     4  10  19  34  50  68  95 130 175 221 260 299
#     4   9  17  29  47  69  94 128 169 211 251 292
#     4  10  20  35  57  83 107 132 161 196 244 301
#     4   8  16  29  46  72 102 127 155 196 242 291
#     4   9  17  30  47  68  94 126 168 209 247 294
#     4  11  23  34  46  68  96 130 173 216 256 297
#
# _framework density 16.535207
#
# number of rings (size 3 to 8) (size 9 to 14) (size 15 to 20)
#    0.000    2.375    1.250    2.625    0.000    7.250 
#    0.000    0.000    0.000    0.000    0.000    0.875 
#    0.000    7.000    0.000    0.000    0.000    0.000 
#
# Total GULP energy -178459.655497 kJ/mol
# GULP energy per Si atom -5576.864234 kJ/mol
# Density = 1.649757 g / cm^3
# Si number density = 16.535207 Si / 1000 Ang^3
#
#
#
# Elastic Constant Matrix: (Units=GPa)
#
#
# Indices 1 2 3 4 5 6 
#
# 1 144.1414 42.1509 44.2346 0.0000 -15.2183 0.0000
# 2 42.1509 49.0724 22.5161 0.0000 -4.2368 0.0000
# 3 44.2346 22.5161 64.1119 0.0000 -17.8366 0.0000
# 4 0.0000 0.0000 0.0000 20.2649 0.0000 -4.1863
# 5 -15.2183 -4.2368 -17.8366 0.0000 22.4454 0.0000
# 6 0.0000 0.0000 0.0000 -4.1863 0.0000 28.8762
#
#
#
# Elastic Compliance Matrix: (Units=1/GPa)
#
#
# Indices 1 2 3 4 5 6 
#
# 1 0.010484 -0.006904 -0.004100 0.000000 0.002547 0.000000
# 2 -0.006904 0.028979 -0.006669 0.000000 -0.004510 0.000000
# 3 -0.004100 -0.006669 0.025221 0.000000 0.016004 0.000000
# 4 0.000000 0.000000 0.000000 0.050870 0.000000 0.007375
# 5 0.002547 -0.004510 0.016004 0.000000 0.058145 0.000000
# 6 0.000000 0.000000 0.000000 0.007375 0.000000 0.035700
#
#
# Mechanical properties :
#
#
# Convention : Reuss Voigt Hill
#
# Bulk Modulus (GPa) = 34.08566 52.79211 43.43889
# Shear Modulus (GPa) = 19.64461 24.21224 21.92843
#
# Velocity S-wave (km/s) = 3.45055 3.83075 3.64561
# Velocity P-wave (km/s) = 6.04432 7.18071 6.63688
#
# Compressibility (1/GPa) = 0.02933785
#
# Stress axis : x y z
#
# Youngs Moduli (GPa) = 95.38675 34.50832 39.64936
#
# Poissons Ratio (x) = 0.23824 0.16257
# Poissons Ratio (y) = 0.65853 0.26441
# Poissons Ratio (z) = 0.39110 0.23013
#
# Static dielectric constant tensor:
#      x y z
#    x 1.574310 0.000000 0.007170 
#    y 0.000000 1.559730 0.000000 
#    z 0.007170 0.000000 1.552290 
# 
# From -- ./inp_files/244021.got.cif
#   From: 2010.05.17/outbox.cif.g08.bks.cpg/sg12_123_cif.got.tgz:244021.got - 2010.06.03 13:09:07.
