data_PCOD9172717
_publ_section_title
;
Structure prediction by ZEFSAII (Michael W. Deem and Ramdas Pophale) SiO2 
 PCOD9172717
Probable space group: C 2/M
;
_chemical_formula_sum "Si O2"
_cell_formula_units_Z 64
_cell_length_a 24.711945
_cell_length_b 8.053393
_cell_length_c 20.494428
_cell_angle_alpha 90.000000
_cell_angle_beta 121.154929
_cell_angle_gamma 90.000000
_cell_volume 3490.434074
_symmetry_space_group_name_H-M "C 2/M"
_symmetry_group_IT_number 12
_symmetry_cell_setting 'monoclinic'
loop_
_space_group_symop_operation_xyz
x,y,z
-x,y,-z
-x,-y,-z
x,-y,z
1/2+x,1/2+y,z
1/2-x,1/2+y,-z
1/2-x,1/2-y,-z
1/2+x,1/2-y,z
loop_
_atom_site_type_symbol
_atom_site_label
_atom_site_fract_x
_atom_site_fract_y
_atom_site_fract_z
Si Si1 0.215150 0.703740 0.788201
Si Si2 0.442246 0.303403 0.807746
Si Si3 0.418879 0.203506 0.244337
Si Si4 0.208750 0.801949 0.036738
Si Si5 0.696638 0.300678 0.270814
Si Si6 0.307328 0.198202 0.581491
Si Si7 0.944676 0.692747 0.661852
Si Si8 0.424398 0.802560 0.096184
O O1 0.214659 0.500000 0.787552
O O2 0.143001 0.756542 0.755076
O O3 0.256809 0.757621 0.876269
O O4 0.249520 0.762609 0.744090
O O5 0.439494 0.500000 0.791108
O O6 0.374839 0.255595 0.796513
O O7 0.445750 0.205101 0.741513
O O8 0.508136 0.268593 0.884576
O O9 0.486660 0.263411 0.313990
O O10 0.413238 0.254727 0.164610
O O11 0.420226 0.000000 0.245052
O O12 0.208491 0.000000 0.038902
O O13 0.250000 0.750000 0.000000
O O14 0.136999 0.743669 0.983159
O O15 0.700028 0.500000 0.271180
O O16 0.703404 0.249430 0.350211
O O17 0.250000 0.250000 0.500000
O O18 0.376245 0.266636 0.601519
O O19 0.312220 0.000000 0.583383
O O20 0.944683 0.500000 0.641663
O O21 0.430061 0.000000 0.101296
#
# Coordination Sequence:
#
# PCOD9172717 Si02
#       8
#     8   8   8   8   8   8   8   8
#     4   9  17  30  49  71  96 129 164 199 244 296
#     4   9  16  27  45  69  93 121 158 202 246 288
#     4   8  13  25  46  69  91 119 158 200 239 278
#     4  11  20  31  47  70  98 128 166 210 253 296
#     4   9  18  33  52  73  99 129 162 197 238 294
#     4  10  19  32  52  78 103 127 157 195 241 289
#     4   8  15  27  46  71  97 123 154 196 240 285
#     4  10  18  30  47  67  92 126 166 211 253 288
#
# _framework density 18.335829
#
# number of rings (size 3 to 8) (size 9 to 14) (size 15 to 20)
#    0.000    2.750    1.250    2.250    0.000    1.000 
#    0.000    1.875    0.000    4.500    0.000    5.250 
#    0.000    0.000    0.000    0.000    0.000    0.000 
#
# Total GULP energy -178217.964358 kJ/mol
# GULP energy per Si atom -5569.311386 kJ/mol
# Density = 1.829410 g / cm^3
# Si number density = 18.335829 Si / 1000 Ang^3
#
#
#
# Elastic Constant Matrix: (Units=GPa)
#
#
# Indices 1 2 3 4 5 6 
#
# 1 173.9999 15.3188 81.5472 0.0000 34.2902 0.0000
# 2 15.3188 18.0567 2.5190 0.0000 0.9197 0.0000
# 3 81.5472 2.5190 87.9588 0.0000 32.5835 0.0000
# 4 0.0000 0.0000 0.0000 18.9438 0.0000 4.6041
# 5 34.2902 0.9197 32.5835 0.0000 33.3138 0.0000
# 6 0.0000 0.0000 0.0000 4.6041 0.0000 17.3861
#
#
#
# Elastic Compliance Matrix: (Units=1/GPa)
#
#
# Indices 1 2 3 4 5 6 
#
# 1 0.011333 -0.008183 -0.009464 0.000000 -0.002183 0.000000
# 2 -0.008183 0.061512 0.005228 0.000000 0.001611 0.000000
# 3 -0.009464 0.005228 0.025778 0.000000 -0.015616 0.000000
# 4 0.000000 0.000000 0.000000 0.056419 0.000000 -0.014941
# 5 -0.002183 0.001611 -0.015616 0.000000 0.047494 0.000000
# 6 0.000000 0.000000 0.000000 -0.014941 0.000000 0.061474
#
#
# Mechanical properties :
#
#
# Convention : Reuss Voigt Hill
#
# Bulk Modulus (GPa) = 13.55277 53.19836 33.37556
# Shear Modulus (GPa) = 15.95183 25.97076 20.96129
#
# Velocity S-wave (km/s) = 2.95274 3.76758 3.38477
# Velocity P-wave (km/s) = 4.36261 6.92839 5.78943
#
# Compressibility (1/GPa) = 0.07378568
#
# Stress axis : x y z
#
# Youngs Moduli (GPa) = 88.23597 16.25690 38.79223
#
# Poissons Ratio (x) = 0.13304 0.36714
# Poissons Ratio (y) = 0.72207 -0.20282
# Poissons Ratio (z) = 0.83508 -0.08500
#
# Static dielectric constant tensor:
#      x y z
#    x 1.671190 0.000000 0.039670 
#    y 0.000000 1.660920 0.000000 
#    z 0.039670 0.000000 1.633140 
# 
# From -- ./inp_files/323724.got.cif
#   From: 2010.05.17/outbox.cif.g08.bks.cpg/sg12_162_cif.got.tgz:323724.got - 2010.06.03 13:09:07.
