data_PCOD9172848
_publ_section_title
;
Structure prediction by ZEFSAII (Michael W. Deem and Ramdas Pophale) SiO2 
 PCOD9172848
Probable space group: C 2/M
;
_chemical_formula_sum "Si O2"
_cell_formula_units_Z 56
_cell_length_a 29.786565
_cell_length_b 8.986923
_cell_length_c 13.993962
_cell_angle_alpha 90.000000
_cell_angle_beta 76.325363
_cell_angle_gamma 90.000000
_cell_volume 3639.851929
_symmetry_space_group_name_H-M "C 2/M"
_symmetry_group_IT_number 12
_symmetry_cell_setting 'monoclinic'
loop_
_space_group_symop_operation_xyz
x,y,z
-x,y,-z
-x,-y,-z
x,-y,z
1/2+x,1/2+y,z
1/2-x,1/2+y,-z
1/2-x,1/2-y,-z
1/2+x,1/2-y,z
loop_
_atom_site_type_symbol
_atom_site_label
_atom_site_fract_x
_atom_site_fract_y
_atom_site_fract_z
Si Si1 0.298896 0.178723 0.087325
Si Si2 0.797768 0.321595 0.864315
Si Si3 0.538512 0.675999 0.770230
Si Si4 0.395486 0.178108 0.126427
Si Si5 0.897238 0.678731 0.758456
Si Si6 0.480268 0.678927 0.614150
Si Si7 0.443004 0.676917 0.921492
O O1 0.250122 0.247650 0.141931
O O2 0.342924 0.224197 0.128210
O O3 0.295785 0.000000 0.091919
O O4 0.306440 0.220672 0.971647
O O5 0.792681 0.500000 0.864789
O O6 0.843040 0.282117 0.780411
O O7 0.548487 0.500000 0.761602
O O8 0.582760 0.762627 0.786425
O O9 0.516691 0.721474 0.679307
O O10 0.496580 0.697941 0.866794
O O11 0.397730 0.000000 0.122046
O O12 0.426405 0.245763 0.025856
O O13 0.901036 0.500000 0.761585
O O14 0.931719 0.742531 0.661516
O O15 0.915261 0.750192 0.847974
O O16 0.500000 0.713028 0.500000
O O17 0.473816 0.500000 0.625569
O O18 0.434608 0.500000 0.930569
#
# Coordination Sequence:
#
# PCOD9172848 Si02
#       7
#     8   8   8   8   8   8   8
#     4   9  18  30  42  61  91 125 161 194 224 266
#     4   9  17  30  44  63  91 123 158 194 229 267
#     4   9  19  32  45  65  90 119 156 190 224 275
#     4  11  20  30  43  64  94 126 157 192 232 269
#     4  10  18  30  48  71  98 122 153 195 236 278
#     4   9  19  36  54  72  95 121 152 191 233 280
#     4  10  19  30  44  63  91 127 163 192 221 268
#
# _framework density 15.385241000000001
#
# number of rings (size 3 to 8) (size 9 to 14) (size 15 to 20)
#    0.000    2.429    1.429    2.571    0.000    7.143 
#    0.000    0.000    0.000    0.000    0.000    1.000 
#    0.000    0.000    0.000    0.000    0.000    0.000 
#
# Total GULP energy -156068.140587 kJ/mol
# GULP energy per Si atom -5573.862164 kJ/mol
# Density = 1.535022 g / cm^3
# Si number density = 15.385241 Si / 1000 Ang^3
#
#
#
# Elastic Constant Matrix: (Units=GPa)
#
#
# Indices 1 2 3 4 5 6 
#
# 1 135.3810 54.9179 64.0724 0.0000 0.3510 0.0000
# 2 54.9179 34.8864 27.3429 0.0000 -2.7197 0.0000
# 3 64.0724 27.3429 65.3581 0.0000 -6.4853 0.0000
# 4 0.0000 0.0000 0.0000 17.1704 0.0000 0.6057
# 5 0.3510 -2.7197 -6.4853 0.0000 12.5203 0.0000
# 6 0.0000 0.0000 0.0000 0.6057 0.0000 27.1373
#
#
#
# Elastic Compliance Matrix: (Units=1/GPa)
#
#
# Indices 1 2 3 4 5 6 
#
# 1 0.028519 -0.034198 -0.015252 0.000000 -0.016128 0.000000
# 2 -0.034198 0.083657 0.000449 0.000000 0.019363 0.000000
# 3 -0.015252 0.000449 0.031748 0.000000 0.016970 0.000000
# 4 0.000000 0.000000 0.000000 0.058286 0.000000 -0.001301
# 5 -0.016128 0.019363 0.016970 0.000000 0.093319 0.000000
# 6 0.000000 0.000000 0.000000 -0.001301 0.000000 0.036879
#
#
# Mechanical properties :
#
#
# Convention : Reuss Voigt Hill
#
# Bulk Modulus (GPa) = 21.77613 58.69912 40.23762
# Shear Modulus (GPa) = 11.21785 17.31842 14.26813
#
# Velocity S-wave (km/s) = 2.70317 3.35871 3.04861
# Velocity P-wave (km/s) = 4.89157 7.29911 6.21307
#
# Compressibility (1/GPa) = 0.04592185
#
# Stress axis : x y z
#
# Youngs Moduli (GPa) = 35.06394 11.95353 31.49795
#
# Poissons Ratio (x) = 0.40879 0.48039
# Poissons Ratio (y) = 1.19913 -0.01413
# Poissons Ratio (z) = 0.53478 -0.00536
#
# Static dielectric constant tensor:
#      x y z
#    x 1.527400 0.000000 0.003040 
#    y 0.000000 1.513220 0.000000 
#    z 0.003040 0.000000 1.498310 
# 
# From -- ./inp_files/247738.got.cif
#   From: 2010.05.17/outbox.cif.g08.bks.cpg/sg12_124_cif.got.tgz:247738.got - 2010.06.03 13:09:07.
