data_PCOD9172839
_publ_section_title
;
Structure prediction by ZEFSAII (Michael W. Deem and Ramdas Pophale) SiO2 
 PCOD9172839
Probable space group: C 2/M
;
_chemical_formula_sum "Si O2"
_cell_formula_units_Z 48
_cell_length_a 8.136495
_cell_length_b 22.313254
_cell_length_c 22.725459
_cell_angle_alpha 90.000000
_cell_angle_beta 144.546719
_cell_angle_gamma 90.000000
_cell_volume 2393.150876
_symmetry_space_group_name_H-M "C 2/M"
_symmetry_group_IT_number 12
_symmetry_cell_setting 'monoclinic'
loop_
_space_group_symop_operation_xyz
x,y,z
-x,y,-z
-x,-y,-z
x,-y,z
1/2+x,1/2+y,z
1/2-x,1/2+y,-z
1/2-x,1/2-y,-z
1/2+x,1/2-y,z
loop_
_atom_site_type_symbol
_atom_site_label
_atom_site_fract_x
_atom_site_fract_y
_atom_site_fract_z
Si Si1 0.357980 0.432737 0.524257
Si Si2 0.168575 0.208158 0.109396
Si Si3 0.326776 0.847837 0.689053
Si Si4 0.059875 0.726371 0.578516
Si Si5 0.203525 0.160279 0.888301
Si Si6 0.685704 0.114239 0.688638
O O1 0.500000 0.427473 0.500000
O O2 0.403943 0.500000 0.559232
O O3 0.536262 0.384276 0.613803
O O4 0.022610 0.421647 0.415866
O O5 0.471386 0.174165 0.199781
O O6 0.220918 0.279773 0.126970
O O7 0.986457 0.185692 0.112344
O O8 0.000000 0.196717 0.000000
O O9 0.247752 0.786195 0.631897
O O10 0.522077 0.887438 0.703094
O O11 0.168996 0.681566 0.658587
O O12 0.000000 0.693649 0.500000
O O13 0.750000 0.750000 0.500000
O O14 0.017883 0.110463 0.799841
O O15 0.500000 0.136990 0.000000
#
# Coordination Sequence:
#
# PCOD9172839 Si02
#       6
#     8   8   8   8   8   8
#     4   9  17  31  51  74  96 123 162 207 247 281
#     4  10  19  30  45  68  99 129 160 193 233 285
#     4  10  18  30  48  71 101 125 157 201 238 291
#     4  12  19  29  45  71 104 128 155 191 240 297
#     4  10  19  31  45  66 100 130 160 194 232 283
#     4  10  19  31  47  72  99 127 160 198 240 288
#
# _framework density 20.057238999999999
#
# number of rings (size 3 to 8) (size 9 to 14) (size 15 to 20)
#    0.000    1.833    5.000    2.500    0.000    0.000 
#    3.000    0.000    0.000    1.500    0.000    0.000 
#    0.000    0.000    0.000    0.000    0.000    1.333 
#
# Total GULP energy -133606.379700 kJ/mol
# GULP energy per Si atom -5566.932488 kJ/mol
# Density = 2.001159 g / cm^3
# Si number density = 20.057239 Si / 1000 Ang^3
#
#
#
# Elastic Constant Matrix: (Units=GPa)
#
#
# Indices 1 2 3 4 5 6 
#
# 1 28.2102 -6.9747 7.6697 0.0000 4.2475 0.0002
# 2 -6.9747 52.0667 38.1644 -0.0003 3.8735 0.0000
# 3 7.6697 38.1644 182.3418 -0.0035 11.5237 -0.0003
# 4 0.0000 -0.0003 -0.0035 15.4376 0.0003 -1.5807
# 5 4.2475 3.8735 11.5237 0.0003 21.4415 0.0002
# 6 0.0002 0.0000 -0.0003 -1.5807 0.0002 6.2324
#
#
#
# Elastic Compliance Matrix: (Units=1/GPa)
#
#
# Indices 1 2 3 4 5 6 
#
# 1 0.039332 0.007911 -0.002823 0.000000 -0.007703 -0.000001
# 2 0.007911 0.024331 -0.005226 -0.000001 -0.003154 -0.000001
# 3 -0.002823 -0.005226 0.006834 0.000002 -0.002169 0.000001
# 4 0.000000 -0.000001 0.000002 0.066504 -0.000002 0.016867
# 5 -0.007703 -0.003154 -0.002169 -0.000002 0.049900 -0.000002
# 6 -0.000001 -0.000001 0.000001 0.016867 -0.000002 0.164730
#
#
# Mechanical properties :
#
#
# Convention : Reuss Voigt Hill
#
# Bulk Modulus (GPa) = 14.24082 37.81527 26.02805
# Shear Modulus (GPa) = 13.32219 23.53957 18.43088
#
# Velocity S-wave (km/s) = 2.58002 3.42953 3.03465
# Velocity P-wave (km/s) = 3.99885 5.88021 5.02830
#
# Compressibility (1/GPa) = 0.07022068
#
# Stress axis : x y z
#
# Youngs Moduli (GPa) = 25.42479 41.09960 146.32986
#
# Poissons Ratio (x) = -0.32515 0.41315
# Poissons Ratio (y) = -0.20114 0.76472
# Poissons Ratio (z) = 0.07178 0.21479
#
# Static dielectric constant tensor:
#      x y z
#    x 1.270950 0.000000 0.208500 
#    y 0.000000 1.694370 0.000000 
#    z 0.208500 0.000000 1.709720 
# 
# From -- ./inp_files/197930.got.cif
#   From: 2010.05.17/outbox.cif.g08.bks.cpg/sg12_99_cif.got.tgz:197930.got - 2010.06.03 13:09:07.
