data_PCOD9172464
_publ_section_title
;
Structure prediction by ZEFSAII (Michael W. Deem and Ramdas Pophale) SiO2 
 PCOD9172464
Probable space group: C 2/M
;
_chemical_formula_sum "Si O2"
_cell_formula_units_Z 56
_cell_length_a 9.823713
_cell_length_b 13.704035
_cell_length_c 18.879657
_cell_angle_alpha 90.000000
_cell_angle_beta 126.759033
_cell_angle_gamma 90.000000
_cell_volume 2036.278602
_symmetry_space_group_name_H-M "C 2/M"
_symmetry_group_IT_number 12
_symmetry_cell_setting 'monoclinic'
loop_
_space_group_symop_operation_xyz
x,y,z
-x,y,-z
-x,-y,-z
x,-y,z
1/2+x,1/2+y,z
1/2-x,1/2+y,-z
1/2-x,1/2-y,-z
1/2+x,1/2-y,z
loop_
_atom_site_type_symbol
_atom_site_label
_atom_site_fract_x
_atom_site_fract_y
_atom_site_fract_z
Si Si1 0.807845 0.610376 0.011913
Si Si2 0.120704 0.115193 0.449318
Si Si3 0.987076 0.387185 0.581624
Si Si4 0.743590 0.886241 0.311837
Si Si5 0.160145 0.317861 0.136598
Si Si6 0.350965 0.682076 0.702307
Si Si7 0.576340 0.389374 0.125519
O O1 0.859526 0.500000 0.043518
O O2 0.816099 0.630105 0.930380
O O3 0.609762 0.619458 0.968242
O O4 0.957064 0.675444 0.090376
O O5 0.298134 0.153397 0.537465
O O6 0.128244 0.135326 0.367600
O O7 0.924621 0.135486 0.406504
O O8 0.138258 0.000000 0.465228
O O9 0.002622 0.500000 0.608903
O O10 0.000000 0.385938 0.500000
O O11 0.150687 0.330956 0.659557
O O12 0.756739 0.869223 0.230933
O O13 0.617094 0.798005 0.291401
O O14 0.700265 0.000000 0.310971
O O15 0.191599 0.202306 0.139544
O O16 0.443605 0.628619 0.795696
O O17 0.639031 0.500000 0.133638
#
# Coordination Sequence:
#
# PCOD9172464 Si02
#       7
#     8   8   8   8   8   8   8
#     4  10  19  33  53  72  92 123 161 196 228 270
#     4   9  17  31  51  72  93 120 158 197 230 271
#     4   8  14  26  46  71  94 118 153 195 232 268
#     4  10  20  32  48  71  96 123 156 193 233 277
#     4  10  19  32  51  72  95 122 157 196 233 273
#     4  10  18  29  50  71  95 124 155 193 234 275
#     4  10  20  32  49  73  98 123 154 192 235 281
#
# _framework density 27.501149999999999
#
# number of rings (size 3 to 8) (size 9 to 14) (size 15 to 20)
#    0.000    2.429    0.000    5.143    0.000    2.857 
#    0.000    1.429    0.000   21.000    0.000    0.000 
#    0.000    0.000    0.000    0.000    0.000    0.000 
#
# Total GULP energy -156732.835881 kJ/mol
# GULP energy per Si atom -5597.601281 kJ/mol
# Density = 2.743856 g / cm^3
# Si number density = 27.501150 Si / 1000 Ang^3
#
#
#
# Elastic Constant Matrix: (Units=GPa)
#
#
# Indices 1 2 3 4 5 6 
#
# 1 103.1974 3.3253 24.8447 0.0000 8.8710 0.0000
# 2 3.3253 173.3319 17.9039 0.0000 23.6729 0.0000
# 3 24.8447 17.9039 153.9341 0.0000 14.3414 0.0000
# 4 0.0000 0.0000 0.0000 27.7004 0.0000 -3.3330
# 5 8.8710 23.6729 14.3414 0.0000 46.4416 0.0000
# 6 0.0000 0.0000 0.0000 -3.3330 0.0000 14.8874
#
#
#
# Elastic Compliance Matrix: (Units=1/GPa)
#
#
# Indices 1 2 3 4 5 6 
#
# 1 0.010185 0.000175 -0.001518 0.000000 -0.001566 0.000000
# 2 0.000175 0.006233 -0.000468 0.000000 -0.003066 0.000000
# 3 -0.001518 -0.000468 0.006946 0.000000 -0.001617 0.000000
# 4 0.000000 0.000000 0.000000 0.037100 0.000000 0.008306
# 5 -0.001566 -0.003066 -0.001617 0.000000 0.023894 0.000000
# 6 0.000000 0.000000 0.000000 0.008306 0.000000 0.069030
#
#
# Mechanical properties :
#
#
# Convention : Reuss Voigt Hill
#
# Bulk Modulus (GPa) = 50.65117 58.06790 54.35954
# Shear Modulus (GPa) = 30.56418 43.43182 36.99800
#
# Velocity S-wave (km/s) = 3.33735 3.97832 3.67185
# Velocity P-wave (km/s) = 5.77134 6.50102 6.14702
#
# Compressibility (1/GPa) = 0.01974288
#
# Stress axis : x y z
#
# Youngs Moduli (GPa) = 98.18692 160.43656 143.96064
#
# Poissons Ratio (x) = -0.02812 0.21857
# Poissons Ratio (y) = -0.01721 0.06731
# Poissons Ratio (z) = 0.14908 0.07502
#
# Static dielectric constant tensor:
#      x y z
#    x 2.297520 0.000000 0.026430 
#    y 0.000000 2.039780 0.000000 
#    z 0.026430 0.000000 2.079670 
# 
# From -- ./inp_files/360840.got.cif
#   From: 2010.05.17/outbox.cif.g08.bks.cpg/sg12_181_cif.got.tgz:360840.got - 2010.06.03 13:09:07.
