data_PCOD9172662
_publ_section_title
;
Structure prediction by ZEFSAII (Michael W. Deem and Ramdas Pophale) SiO2 
 PCOD9172662
Probable space group: C 2/M
;
_chemical_formula_sum "Si O2"
_cell_formula_units_Z 56
_cell_length_a 16.487228
_cell_length_b 29.986510
_cell_length_c 8.670847
_cell_angle_alpha 90.000000
_cell_angle_beta 121.729743
_cell_angle_gamma 90.000000
_cell_volume 3646.102903
_symmetry_space_group_name_H-M "C 2/M"
_symmetry_group_IT_number 12
_symmetry_cell_setting 'monoclinic'
loop_
_space_group_symop_operation_xyz
x,y,z
-x,y,-z
-x,-y,-z
x,-y,z
1/2+x,1/2+y,z
1/2-x,1/2+y,-z
1/2-x,1/2-y,-z
1/2+x,1/2-y,z
loop_
_atom_site_type_symbol
_atom_site_label
_atom_site_fract_x
_atom_site_fract_y
_atom_site_fract_z
Si Si1 0.295651 0.320069 0.358967
Si Si2 0.204349 0.179931 0.267664
Si Si3 0.107981 0.000000 0.173596
Si Si4 0.607420 0.407368 0.041288
Si Si5 0.396600 0.228256 0.461353
Si Si6 0.892019 0.000000 0.457633
Si Si7 0.396600 0.228256 0.831848
Si Si8 0.892580 0.907368 0.326448
O O1 0.299588 0.324491 0.549588
O O2 0.362974 0.278156 0.382383
O O3 0.188545 0.305218 0.207967
O O4 0.331669 0.364976 0.317595
O O5 0.168331 0.135024 0.154257
O O6 0.311455 0.194782 0.330877
O O7 0.137026 0.221844 0.156435
O O8 0.148837 0.046448 0.151384
O O9 0.106461 0.000000 0.356461
O O10 0.000000 0.000000 0.000000
O O11 0.500000 0.401747 0.000000
O O12 0.601688 0.410707 0.851688
O O13 0.500000 0.217650 0.500000
O O14 0.400159 0.227870 0.650159
O O15 0.851163 0.953552 0.353709
O O16 0.000000 0.000000 0.500000
O O17 0.500000 0.217650 0.000000
O O18 0.000000 0.901747 0.500000
#
# Coordination Sequence:
#
# PCOD9172662 Si02
#       8
#     8   8   4   8   8   4   8   8
#     4   9  18  32  46  65  91 122 154 186 224 267
#     4   9  18  32  46  65  91 122 154 186 224 267
#     4  10  18  30  46  64  89 120 149 182 222 268
#     4  11  20  30  45  67  93 121 151 186 223 267
#     4   9  18  31  47  65  91 121 153 190 226 263
#     4  10  18  30  46  64  89 120 149 182 222 268
#     4   9  18  31  47  65  91 121 153 190 226 263
#     4  11  20  30  45  67  93 121 151 186 223 267
#
# _framework density 15.358864000000001
#
# number of rings (size 3 to 8) (size 9 to 14) (size 15 to 20)
#    0.000    2.286    0.000    8.143    0.000    4.571 
#    0.000    2.857    0.000    0.000    0.000    1.000 
#    0.000    0.000    0.000    0.000    0.000    0.000 
#
# Total GULP energy -156144.869889 kJ/mol
# GULP energy per Si atom -5576.602496 kJ/mol
# Density = 1.532391 g / cm^3
# Si number density = 15.358864 Si / 1000 Ang^3
#
#
#
# Elastic Constant Matrix: (Units=GPa)
#
#
# Indices 1 2 3 4 5 6 
#
# 1 86.1746 59.1196 35.8869 0.0000 1.0981 0.0000
# 2 59.1196 151.8718 59.2929 0.0000 -0.1968 0.0000
# 3 35.8869 59.2929 86.8078 0.0000 -1.8172 0.0000
# 4 0.0000 0.0000 0.0000 25.7650 0.0000 -3.2478
# 5 1.0981 -0.1968 -1.8172 0.0000 27.9705 0.0000
# 6 0.0000 0.0000 0.0000 -3.2478 0.0000 22.9047
#
#
#
# Elastic Compliance Matrix: (Units=1/GPa)
#
#
# Indices 1 2 3 4 5 6 
#
# 1 0.016528 -0.005128 -0.003350 0.000000 -0.000903 0.000000
# 2 -0.005128 0.010573 -0.005103 0.000000 -0.000056 0.000000
# 3 -0.003350 -0.005103 0.016414 0.000000 0.001162 0.000000
# 4 0.000000 0.000000 0.000000 0.039519 0.000000 0.005604
# 5 -0.000903 -0.000056 0.001162 0.000000 0.035862 0.000000
# 6 0.000000 0.000000 0.000000 0.005604 0.000000 0.044454
#
#
# Mechanical properties :
#
#
# Convention : Reuss Voigt Hill
#
# Bulk Modulus (GPa) = 61.14222 70.38368 65.76295
# Shear Modulus (GPa) = 25.51512 26.69836 26.10674
#
# Velocity S-wave (km/s) = 4.08028 4.17382 4.12732
# Velocity P-wave (km/s) = 7.87996 8.31584 8.10083
#
# Compressibility (1/GPa) = 0.01635531
#
# Stress axis : x y z
#
# Youngs Moduli (GPa) = 60.50165 94.58307 60.92263
#
# Poissons Ratio (x) = 0.48498 0.20406
# Poissons Ratio (y) = 0.31023 0.31089
# Poissons Ratio (z) = 0.20265 0.48265
#
# Static dielectric constant tensor:
#      x y z
#    x 1.504370 0.000000 -0.007990 
#    y 0.000000 1.527510 0.000000 
#    z -0.007990 0.000000 1.511400 
# 
# From -- ./inp_files/67930.got.cif
#   From: 2010.05.17/outbox.cif.g08.bks.cpg/sg12_34_cif.got.tgz:67930.got - 2010.06.03 13:09:07.
