data_PCOD9172730
_publ_section_title
;
Structure prediction by ZEFSAII (Michael W. Deem and Ramdas Pophale) SiO2 
 PCOD9172730
Probable space group: C 2/M
;
_chemical_formula_sum "Si O2"
_cell_formula_units_Z 64
_cell_length_a 21.127453
_cell_length_b 7.327009
_cell_length_c 23.122322
_cell_angle_alpha 90.000000
_cell_angle_beta 122.968606
_cell_angle_gamma 90.000000
_cell_volume 3002.971139
_symmetry_space_group_name_H-M "C 2/M"
_symmetry_group_IT_number 12
_symmetry_cell_setting 'monoclinic'
loop_
_space_group_symop_operation_xyz
x,y,z
-x,y,-z
-x,-y,-z
x,-y,z
1/2+x,1/2+y,z
1/2-x,1/2+y,-z
1/2-x,1/2-y,-z
1/2+x,1/2-y,z
loop_
_atom_site_type_symbol
_atom_site_label
_atom_site_fract_x
_atom_site_fract_y
_atom_site_fract_z
Si Si1 0.927669 0.213041 0.799239
Si Si2 0.120342 0.278116 0.572073
Si Si3 0.309827 0.222613 0.194293
Si Si4 0.257039 0.722912 0.714732
Si Si5 0.705943 0.717446 0.037436
Si Si6 0.021813 0.721959 0.419258
Si Si7 0.965940 0.223001 0.044958
Si Si8 0.016963 0.279746 0.726746
O O1 0.842962 0.287630 0.753368
O O2 0.980820 0.287833 0.876458
O O3 0.970318 0.225825 0.759679
O O4 0.917864 0.000000 0.808867
O O5 0.120973 0.500000 0.571575
O O6 0.200997 0.217390 0.635741
O O7 0.090575 0.218678 0.494515
O O8 0.055440 0.226578 0.586045
O O9 0.279048 0.276026 0.241765
O O10 0.254631 0.285803 0.115870
O O11 0.395960 0.281273 0.227331
O O12 0.310420 0.000000 0.193948
O O13 0.257123 0.500000 0.713264
O O14 0.700433 0.500000 0.042713
O O15 0.750000 0.750000 0.000000
O O16 0.620316 0.786063 0.992079
O O17 0.022684 0.500000 0.419047
O O18 0.019004 0.782916 0.351786
O O19 0.964662 0.000000 0.046365
O O20 0.000000 0.274313 0.000000
O O21 0.018150 0.500000 0.726122
#
# Coordination Sequence:
#
# PCOD9172730 Si02
#       8
#     8   8   8   8   8   8   8   8
#     4  10  20  31  46  68  94 121 149 183 225 271
#     4   8  12  21  40  67  93 111 142 192 230 251
#     4   9  16  27  46  69  87 110 150 193 226 255
#     4   9  15  26  44  67  90 113 148 193 226 252
#     4  10  19  30  46  67  91 116 145 184 226 268
#     4   8  13  22  40  67  93 115 142 184 229 261
#     4   9  17  31  49  67  87 117 156 191 222 261
#     4  10  18  30  47  68  95 122 147 180 226 274
#
# _framework density 21.312225999999999
#
# number of rings (size 3 to 8) (size 9 to 14) (size 15 to 20)
#    0.000    2.875    1.250    2.250    0.000    3.000 
#    0.000    0.625    0.000    4.500    0.000    1.750 
#    0.000    0.000    0.000    0.000    0.000    0.000 
#
# Total GULP energy -178713.933260 kJ/mol
# GULP energy per Si atom -5584.810414 kJ/mol
# Density = 2.126372 g / cm^3
# Si number density = 21.312226 Si / 1000 Ang^3
#
#
#
# Elastic Constant Matrix: (Units=GPa)
#
#
# Indices 1 2 3 4 5 6 
#
# 1 168.4144 -5.2372 110.5620 0.0000 25.4989 -0.0001
# 2 -5.2372 81.5373 2.0199 0.0000 6.2162 -0.0004
# 3 110.5620 2.0199 236.8240 0.0000 27.1589 0.0000
# 4 0.0000 0.0000 0.0000 -9.5963 0.0000 -17.8450
# 5 25.4989 6.2162 27.1589 0.0000 31.6266 0.0000
# 6 -0.0001 -0.0004 0.0000 -17.8450 0.0000 16.0366
#
#
#
# Elastic Compliance Matrix: (Units=1/GPa)
#
#
# Indices 1 2 3 4 5 6 
#
# 1 0.009086 0.001004 -0.003758 0.000000 -0.004296 0.000000
# 2 0.001004 0.012570 -0.000222 0.000000 -0.003090 0.000000
# 3 -0.003758 -0.000222 0.006241 0.000000 -0.002286 0.000000
# 4 0.000000 0.000000 0.000000 -0.033952 0.000000 -0.037780
# 5 -0.004296 -0.003090 -0.002286 0.000000 0.037653 0.000000
# 6 0.000000 0.000000 0.000000 -0.037780 0.000000 0.020317
#
#
# Mechanical properties :
#
#
# Convention : Reuss Voigt Hill
#
# Bulk Modulus (GPa) = 45.56507 77.94058 61.75282
# Shear Modulus (GPa) = 76.70867 32.90878 54.80873
#
# Velocity S-wave (km/s) = 6.00591 3.93380 5.07670
# Velocity P-wave (km/s) = 8.33791 7.56857 7.96254
#
# Compressibility (1/GPa) = 0.02194664
#
# Stress axis : x y z
#
# Youngs Moduli (GPa) = 110.05373 79.55517 160.23107
#
# Poissons Ratio (x) = -0.07989 0.60213
# Poissons Ratio (y) = -0.11052 0.03552
# Poissons Ratio (z) = 0.41357 0.01764
#
# Static dielectric constant tensor:
#      x y z
#    x 1.698210 0.000000 0.027140 
#    y 0.000000 1.838470 0.000000 
#    z 0.027140 0.000000 1.754620 
# 
# From -- ./inp_files/315338.got.cif
#   From: 2010.05.17/outbox.cif.g08.bks.cpg/sg12_158_cif.got.tgz:315338.got - 2010.06.03 13:09:07.
