data_PCOD9172148
_publ_section_title
;
Structure prediction by ZEFSAII (Michael W. Deem and Ramdas Pophale) SiO2 
 PCOD9172148
Probable space group: C 2/M
;
_chemical_formula_sum "Si O2"
_cell_formula_units_Z 64
_cell_length_a 24.271461
_cell_length_b 9.102468
_cell_length_c 17.244516
_cell_angle_alpha 90.000000
_cell_angle_beta 84.723704
_cell_angle_gamma 90.000000
_cell_volume 3793.691394
_symmetry_space_group_name_H-M "C 2/M"
_symmetry_group_IT_number 12
_symmetry_cell_setting 'monoclinic'
loop_
_space_group_symop_operation_xyz
x,y,z
-x,y,-z
-x,-y,-z
x,-y,z
1/2+x,1/2+y,z
1/2-x,1/2+y,-z
1/2-x,1/2-y,-z
1/2+x,1/2-y,z
loop_
_atom_site_type_symbol
_atom_site_label
_atom_site_fract_x
_atom_site_fract_y
_atom_site_fract_z
Si Si1 0.855987 0.331191 0.660800
Si Si2 0.266656 0.674929 0.577774
Si Si3 0.309157 0.176340 0.265366
Si Si4 0.560295 0.675791 0.957743
Si Si5 0.871377 0.823931 0.900900
Si Si6 0.777886 0.330638 0.824739
Si Si7 0.569514 0.823548 0.790307
Si Si8 0.448080 0.822298 0.760528
O O1 0.857851 0.500000 0.633403
O O2 0.825558 0.231744 0.602136
O O3 0.818002 0.328100 0.743588
O O4 0.915827 0.285034 0.685398
O O5 0.267063 0.500000 0.569418
O O6 0.250000 0.750000 0.500000
O O7 0.222606 0.714665 0.651156
O O8 0.277501 0.252674 0.197968
O O9 0.373356 0.218967 0.258331
O O10 0.304701 0.000000 0.256657
O O11 0.560389 0.500000 0.945629
O O12 0.569103 0.755742 0.875844
O O13 0.500000 0.715375 0.000000
O O14 0.606527 0.710801 0.016153
O O15 0.812556 0.753988 0.885709
O O16 0.916204 0.757039 0.834992
O O17 0.869544 0.000000 0.891959
O O18 0.768347 0.500000 0.847137
O O19 0.512432 0.782221 0.755321
O O20 0.569246 0.000000 0.796802
O O21 0.442342 0.000000 0.771092
#
# Coordination Sequence:
#
# PCOD9172148 Si02
#       8
#     8   8   8   8   8   8   8   8
#     4   8  15  28  46  71 100 124 154 196 238 281
#     4  10  19  32  53  78 102 126 156 195 240 289
#     4   9  19  35  52  74 102 130 162 200 245 297
#     4  10  20  33  46  68 100 132 169 211 253 294
#     4  10  18  29  47  68  95 128 165 211 254 292
#     4   9  17  30  49  71  95 125 164 208 250 294
#     4  10  20  33  51  73  99 132 168 206 248 295
#     4   9  17  29  47  72  99 128 164 205 244 286
#
# _framework density 16.870111999999999
#
# number of rings (size 3 to 8) (size 9 to 14) (size 15 to 20)
#    0.000    2.625    1.250    1.875    0.000    5.250 
#    0.000    0.625    0.000    0.750    0.000    5.250 
#    0.000    0.000    0.000    0.000    0.000    0.000 
#
# Total GULP energy -178359.080157 kJ/mol
# GULP energy per Si atom -5573.721255 kJ/mol
# Density = 1.683171 g / cm^3
# Si number density = 16.870112 Si / 1000 Ang^3
#
#
#
# Elastic Constant Matrix: (Units=GPa)
#
#
# Indices 1 2 3 4 5 6 
#
# 1 133.0477 42.2999 59.6205 0.0000 26.8540 0.0000
# 2 42.2999 38.4356 37.9655 0.0000 14.9158 0.0000
# 3 59.6205 37.9655 76.3035 0.0000 28.5253 0.0000
# 4 0.0000 0.0000 0.0000 23.2699 0.0000 7.5692
# 5 26.8540 14.9158 28.5253 0.0000 26.2147 0.0000
# 6 0.0000 0.0000 0.0000 7.5692 0.0000 22.4109
#
#
#
# Elastic Compliance Matrix: (Units=1/GPa)
#
#
# Indices 1 2 3 4 5 6 
#
# 1 0.012951 -0.008246 -0.004739 0.000000 -0.003419 0.000000
# 2 -0.008246 0.056501 -0.021593 0.000000 -0.000205 0.000000
# 3 -0.004739 -0.021593 0.035644 0.000000 -0.021645 0.000000
# 4 0.000000 0.000000 0.000000 0.048278 0.000000 -0.016306
# 5 -0.003419 -0.000205 -0.021645 0.000000 0.065319 0.000000
# 6 0.000000 0.000000 0.000000 -0.016306 0.000000 0.050128
#
#
# Mechanical properties :
#
#
# Convention : Reuss Voigt Hill
#
# Bulk Modulus (GPa) = 27.82331 58.61763 43.22047
# Shear Modulus (GPa) = 14.28755 21.57249 17.93002
#
# Velocity S-wave (km/s) = 2.91334 3.57983 3.26364
# Velocity P-wave (km/s) = 5.27685 7.20477 6.31482
#
# Compressibility (1/GPa) = 0.03594108
#
# Stress axis : x y z
#
# Youngs Moduli (GPa) = 77.21277 17.69893 28.05552
#
# Poissons Ratio (x) = 0.14594 0.13294
# Poissons Ratio (y) = 0.63668 0.60580
# Poissons Ratio (z) = 0.36588 0.38217
#
# Static dielectric constant tensor:
#      x y z
#    x 1.599000 0.000000 0.009790 
#    y 0.000000 1.566500 0.000000 
#    z 0.009790 0.000000 1.539030 
# 
# From -- ./inp_files/287625.got.cif
#   From: 2010.05.17/outbox.cif.g08.bks.cpg/sg12_144_cif.got.tgz:287625.got - 2010.06.03 13:09:07.
