data_PCOD9172659
_publ_section_title
;
Structure prediction by ZEFSAII (Michael W. Deem and Ramdas Pophale) SiO2 
 PCOD9172659
Probable space group: C 2/M
;
_chemical_formula_sum "Si O2"
_cell_formula_units_Z 56
_cell_length_a 24.134348
_cell_length_b 9.264576
_cell_length_c 18.117600
_cell_angle_alpha 90.000000
_cell_angle_beta 118.234309
_cell_angle_gamma 90.000000
_cell_volume 3569.009593
_symmetry_space_group_name_H-M "C 2/M"
_symmetry_group_IT_number 12
_symmetry_cell_setting 'monoclinic'
loop_
_space_group_symop_operation_xyz
x,y,z
-x,y,-z
-x,-y,-z
x,-y,z
1/2+x,1/2+y,z
1/2-x,1/2+y,-z
1/2-x,1/2-y,-z
1/2+x,1/2-y,z
loop_
_atom_site_type_symbol
_atom_site_label
_atom_site_fract_x
_atom_site_fract_y
_atom_site_fract_z
Si Si1 0.425046 0.169421 0.947705
Si Si2 0.336054 0.166538 0.610956
Si Si3 0.857995 0.829409 0.771990
Si Si4 0.343264 0.329955 0.015981
Si Si5 0.814817 0.166014 0.452884
Si Si6 0.300031 0.829483 0.130147
Si Si7 0.791309 0.670249 0.292735
O O1 0.399169 0.249714 0.859062
O O2 0.408125 0.000000 0.934176
O O3 0.500000 0.181804 0.000000
O O4 0.392404 0.244059 0.997214
O O5 0.365344 0.256307 0.696678
O O6 0.260520 0.167166 0.578188
O O7 0.345470 0.242646 0.538177
O O8 0.356445 0.000000 0.623705
O O9 0.784402 0.812902 0.748129
O O10 0.871362 0.000000 0.778013
O O11 0.357468 0.500000 0.026403
O O12 0.337128 0.263942 0.093748
O O13 0.274198 0.312521 0.935147
O O14 0.822060 0.238641 0.377624
O O15 0.835348 0.000000 0.466853
O O16 0.310505 0.788702 0.221882
O O17 0.314246 0.000000 0.130150
O O18 0.804216 0.500000 0.311622
#
# Coordination Sequence:
#
# PCOD9172659 Si02
#       7
#     8   8   8   8   8   8   8
#     4  11  23  36  49  66  90 121 157 196 236 277
#     4   9  16  26  39  57  83 117 150 182 223 269
#     4  10  18  30  46  64  86 115 153 192 229 272
#     4  10  19  32  48  68  89 117 154 192 233 273
#     4   9  16  24  36  58  85 116 151 184 219 261
#     4   9  17  30  46  67  93 121 151 187 229 277
#     4   9  16  27  42  62  90 120 150 183 223 272
#
# _framework density 15.690628999999999
#
# number of rings (size 3 to 8) (size 9 to 14) (size 15 to 20)
#    0.000    2.429    1.429    2.143    0.000    6.286 
#    0.000    0.000    0.000    0.000    0.000    0.000 
#    0.000    1.143    0.000   12.000    0.000    6.286 
#
# Total GULP energy -156107.620910 kJ/mol
# GULP energy per Si atom -5575.272175 kJ/mol
# Density = 1.565492 g / cm^3
# Si number density = 15.690629 Si / 1000 Ang^3
#
#
#
# Elastic Constant Matrix: (Units=GPa)
#
#
# Indices 1 2 3 4 5 6 
#
# 1 42.0933 56.1480 49.7458 0.0000 -17.4606 0.0000
# 2 56.1480 140.9228 88.7777 0.0000 -25.8990 0.0000
# 3 49.7458 88.7777 119.2273 0.0000 -44.9043 0.0000
# 4 0.0000 0.0000 0.0000 31.0289 0.0000 -7.4265
# 5 -17.4606 -25.8990 -44.9043 0.0000 24.7214 0.0000
# 6 0.0000 0.0000 0.0000 -7.4265 0.0000 17.8052
#
#
#
# Elastic Compliance Matrix: (Units=1/GPa)
#
#
# Indices 1 2 3 4 5 6 
#
# 1 0.060982 -0.016140 -0.011309 0.000000 0.005620 0.000000
# 2 -0.016140 0.019077 -0.013413 0.000000 -0.015777 0.000000
# 3 -0.011309 -0.013413 0.046829 0.000000 0.063021 0.000000
# 4 0.000000 0.000000 0.000000 0.035802 0.000000 0.014933
# 5 0.005620 -0.015777 0.063021 0.000000 0.142363 0.000000
# 6 0.000000 0.000000 0.000000 0.014933 0.000000 0.062392
#
#
# Mechanical properties :
#
#
# Convention : Reuss Voigt Hill
#
# Bulk Modulus (GPa) = 22.14154 76.84294 49.49224
# Shear Modulus (GPa) = 10.77067 21.88255 16.32661
#
# Velocity S-wave (km/s) = 2.62284 3.73852 3.22923
# Velocity P-wave (km/s) = 4.82849 8.22894 6.74647
#
# Compressibility (1/GPa) = 0.04516398
#
# Stress axis : x y z
#
# Youngs Moduli (GPa) = 16.39824 52.41962 21.35445
#
# Poissons Ratio (x) = 0.84603 0.24151
# Poissons Ratio (y) = 0.26466 0.28642
# Poissons Ratio (z) = 0.18545 0.70309
#
# Static dielectric constant tensor:
#      x y z
#    x 1.493370 0.000000 -0.014730 
#    y 0.000000 1.522830 0.000000 
#    z -0.014730 0.000000 1.514110 
# 
# From -- ./inp_files/287880.got.cif
#   From: 2010.05.17/outbox.cif.g08.bks.cpg/sg12_144_cif.got.tgz:287880.got - 2010.06.03 13:09:07.
