data_PCOD9172367
_publ_section_title
;
Structure prediction by ZEFSAII (Michael W. Deem and Ramdas Pophale) SiO2 
 PCOD9172367
Probable space group: C 2/M
;
_chemical_formula_sum "Si O2"
_cell_formula_units_Z 32
_cell_length_a 9.862313
_cell_length_b 13.641306
_cell_length_c 9.658182
_cell_angle_alpha 90.000000
_cell_angle_beta 62.125831
_cell_angle_gamma 90.000000
_cell_volume 1148.605357
_symmetry_space_group_name_H-M "C 2/M"
_symmetry_group_IT_number 12
_symmetry_cell_setting 'monoclinic'
loop_
_space_group_symop_operation_xyz
x,y,z
-x,y,-z
-x,-y,-z
x,-y,z
1/2+x,1/2+y,z
1/2-x,1/2+y,-z
1/2-x,1/2-y,-z
1/2+x,1/2-y,z
loop_
_atom_site_type_symbol
_atom_site_label
_atom_site_fract_x
_atom_site_fract_y
_atom_site_fract_z
Si Si1 0.714866 0.818149 0.858708
Si Si2 0.360538 0.115847 0.413048
Si Si3 0.188713 0.385876 0.168258
Si Si4 0.038773 0.113422 0.645634
O O1 0.673921 0.864405 0.732136
O O2 0.689722 0.701290 0.869303
O O3 0.899589 0.832756 0.785445
O O4 0.645925 0.870403 0.026222
O O5 0.541437 0.137413 0.336420
O O6 0.212342 0.154084 0.568550
O O7 0.350494 0.000000 0.440683
O O8 0.231303 0.500000 0.167791
O O9 0.000000 0.115571 0.500000
O O10 0.033988 0.000000 0.692122
#
# Coordination Sequence:
#
# PCOD9172367 Si02
#       4
#     8   8   8   8
#     4  10  18  29  49  69  92 121 151 187 228 268
#     4   9  17  31  51  71  90 116 153 193 226 261
#     4  10  20  31  46  70  95 120 151 186 226 271
#     4   8  14  26  46  70  91 114 149 191 227 259
#
# _framework density 27.859874000000001
#
# number of rings (size 3 to 8) (size 9 to 14) (size 15 to 20)
#    0.000    2.750    0.000    4.500    0.000    3.000 
#    0.000    0.000    0.000   21.750    0.000    0.000 
#    0.000    0.000    0.000    0.000    0.000    0.000 
#
# Total GULP energy -89540.456933 kJ/mol
# GULP energy per Si atom -5596.278558 kJ/mol
# Density = 2.779646 g / cm^3
# Si number density = 27.859874 Si / 1000 Ang^3
#
#
#
# Elastic Constant Matrix: (Units=GPa)
#
#
# Indices 1 2 3 4 5 6 
#
# 1 101.2969 4.4936 28.3591 0.0000 -11.9109 0.0000
# 2 4.4936 135.9518 41.4274 0.0000 -25.9277 0.0000
# 3 28.3591 41.4274 180.0370 0.0000 -11.8552 0.0000
# 4 0.0000 0.0000 0.0000 20.1891 0.0000 5.1649
# 5 -11.9109 -25.9277 -11.8552 0.0000 58.4356 0.0000
# 6 0.0000 0.0000 0.0000 5.1649 0.0000 18.4534
#
#
#
# Elastic Compliance Matrix: (Units=1/GPa)
#
#
# Indices 1 2 3 4 5 6 
#
# 1 0.010552 0.000547 -0.001653 0.000000 0.002058 0.000000
# 2 0.000547 0.008569 -0.001825 0.000000 0.003544 0.000000
# 3 -0.001653 -0.001825 0.006243 0.000000 0.000120 0.000000
# 4 0.000000 0.000000 0.000000 0.053352 0.000000 -0.014933
# 5 0.002058 0.003544 0.000120 0.000000 0.019129 0.000000
# 6 0.000000 0.000000 0.000000 -0.014933 0.000000 0.058370
#
#
# Mechanical properties :
#
#
# Convention : Reuss Voigt Hill
#
# Bulk Modulus (GPa) = 51.27072 62.87176 57.07124
# Shear Modulus (GPa) = 29.66017 42.28268 35.97143
#
# Velocity S-wave (km/s) = 3.26639 3.89998 3.59716
# Velocity P-wave (km/s) = 5.71566 6.54950 6.14674
#
# Compressibility (1/GPa) = 0.01950431
#
# Stress axis : x y z
#
# Youngs Moduli (GPa) = 94.76522 116.69582 160.19208
#
# Poissons Ratio (x) = -0.06388 0.26473
# Poissons Ratio (y) = -0.05187 0.29231
# Poissons Ratio (z) = 0.15661 0.21294
#
# Static dielectric constant tensor:
#      x y z
#    x 2.332460 0.000000 -0.063180 
#    y 0.000000 2.067830 0.000000 
#    z -0.063180 0.000000 2.116570 
# 
# From -- ./inp_files/45206.got.cif
#   From: 2010.05.17/outbox.cif.g08.bks.cpg/sg12_23_cif.got.tgz:45206.got - 2010.06.03 13:09:07.
