data_PCOD9172089
_publ_section_title
;
Structure prediction by ZEFSAII (Michael W. Deem and Ramdas Pophale) SiO2 
 PCOD9172089
Probable space group: C 2/M
;
_chemical_formula_sum "Si O2"
_cell_formula_units_Z 64
_cell_length_a 24.439150
_cell_length_b 7.911764
_cell_length_c 22.332734
_cell_angle_alpha 90.000000
_cell_angle_beta 129.584846
_cell_angle_gamma 90.000000
_cell_volume 3327.947151
_symmetry_space_group_name_H-M "C 2/M"
_symmetry_group_IT_number 12
_symmetry_cell_setting 'monoclinic'
loop_
_space_group_symop_operation_xyz
x,y,z
-x,y,-z
-x,-y,-z
x,-y,z
1/2+x,1/2+y,z
1/2-x,1/2+y,-z
1/2-x,1/2-y,-z
1/2+x,1/2-y,z
loop_
_atom_site_type_symbol
_atom_site_label
_atom_site_fract_x
_atom_site_fract_y
_atom_site_fract_z
Si Si1 0.532291 0.805185 0.335876
Si Si2 0.320813 0.305435 0.779578
Si Si3 0.088313 0.196679 0.921809
Si Si4 0.879180 0.201346 0.184179
Si Si5 0.822135 0.704595 0.264331
Si Si6 0.477317 0.792627 0.418297
Si Si7 0.564071 0.199261 0.232278
Si Si8 0.080948 0.695780 0.048104
O O1 0.450029 0.794942 0.256893
O O2 0.528574 0.731738 0.400086
O O3 0.572531 0.732802 0.306125
O O4 0.554723 0.000000 0.357766
O O5 0.311568 0.500000 0.755483
O O6 0.244299 0.232524 0.743631
O O7 0.367164 0.220917 0.760307
O O8 0.367000 0.294820 0.872321
O O9 0.130811 0.253272 0.891873
O O10 0.004911 0.216350 0.846110
O O11 0.103397 0.000000 0.943057
O O12 0.100769 0.291427 0.992368
O O13 0.821149 0.237615 0.194345
O O14 0.893675 0.000000 0.193514
O O15 0.820052 0.500000 0.262473
O O16 0.897123 0.758314 0.345364
O O17 0.500000 0.738326 0.500000
O O18 0.478494 0.000000 0.417957
O O19 0.547044 0.000000 0.224304
O O20 0.082386 0.500000 0.068671
O O21 0.000000 0.757202 0.000000
#
# Coordination Sequence:
#
# PCOD9172089 Si02
#       8
#     8   8   8   8   8   8   8   8
#     4   8  15  27  45  71 100 126 157 198 237 278
#     4  11  22  34  49  68  95 130 165 202 244 289
#     4  10  19  31  49  72  96 123 160 204 248 288
#     4   9  17  29  48  72  95 124 160 198 240 287
#     4   9  19  34  50  72  99 128 162 197 238 289
#     4   8  13  26  52  80 100 121 155 198 237 277
#     4  10  18  29  46  69  96 127 164 203 242 282
#     4  11  22  34  49  71  96 124 164 207 246 287
#
# _framework density 19.231075000000001
#
# number of rings (size 3 to 8) (size 9 to 14) (size 15 to 20)
#    0.000    2.500    1.250    2.625    0.000    3.500 
#    0.000    0.625    0.000    6.750    0.000    0.000 
#    0.000    0.000    0.000    0.000    0.000    1.250 
#
# Total GULP energy -178340.917265 kJ/mol
# GULP energy per Si atom -5573.153665 kJ/mol
# Density = 1.918730 g / cm^3
# Si number density = 19.231075 Si / 1000 Ang^3
#
#
#
# Elastic Constant Matrix: (Units=GPa)
#
#
# Indices 1 2 3 4 5 6 
#
# 1 132.3295 -1.1505 50.8014 0.0005 -31.0756 -0.0014
# 2 -1.1505 26.2589 -1.9021 0.0006 0.6660 -0.0017
# 3 50.8014 -1.9021 66.3263 0.0002 -30.8191 -0.0005
# 4 0.0005 0.0006 0.0002 -302.0642 0.0001 770.0730
# 5 -31.0756 0.6660 -30.8191 0.0001 33.6582 -0.0003
# 6 -0.0014 -0.0017 -0.0005 770.0730 -0.0003-1921.5495
#
#
#
# Elastic Compliance Matrix: (Units=1/GPa)
#
#
# Indices 1 2 3 4 5 6 
#
# 1 0.011046 -0.000094 -0.006481 0.000000 0.004266 0.000000
# 2 -0.000094 0.038166 0.001349 0.000000 0.000394 0.000000
# 3 -0.006481 0.001349 0.030088 0.000000 0.021540 0.000000
# 4 0.000000 0.000000 0.000000 0.152735 0.000000 0.061209
# 5 0.004266 0.000394 0.021540 0.000000 0.053364 0.000000
# 6 0.000000 0.000000 0.000000 0.061209 0.000000 0.024010
#
#
# Mechanical properties :
#
#
# Convention : Reuss Voigt Hill
#
# Bulk Modulus (GPa) = 14.52439 35.60135 25.06287
# Shear Modulus (GPa) = 14.58537 -426.18005 -205.79734
#
# Velocity S-wave (km/s) = 2.75694 -14.90272 -10.35593
# Velocity P-wave (km/s) = 4.20753 16.66040 11.39881
#
# Compressibility (1/GPa) = 0.06884973
#
# Stress axis : x y z
#
# Youngs Moduli (GPa) = 90.53145 26.20131 33.23546
#
# Poissons Ratio (x) = 0.00245 0.21539
# Poissons Ratio (y) = 0.00848 -0.04484
# Poissons Ratio (z) = 0.58672 -0.03535
#
# Static dielectric constant tensor:
#      x y z
#    x 1.720900 0.000000 -0.036330 
#    y 0.000000 1.695590 0.000000 
#    z -0.036330 0.000000 1.651910 
# 
# From -- ./inp_files/324239.got.cif
#   From: 2010.05.17/outbox.cif.g08.bks.cpg/sg12_163_cif.got.tgz:324239.got - 2010.06.03 13:09:07.
