data_PCOD9172263
_publ_section_title
;
Structure prediction by ZEFSAII (Michael W. Deem and Ramdas Pophale) SiO2 
 PCOD9172263
Probable space group: C 2/M
;
_chemical_formula_sum "Si O2"
_cell_formula_units_Z 48
_cell_length_a 23.138897
_cell_length_b 9.005732
_cell_length_c 14.444269
_cell_angle_alpha 90.000000
_cell_angle_beta 103.441083
_cell_angle_gamma 90.000000
_cell_volume 2927.492071
_symmetry_space_group_name_H-M "C 2/M"
_symmetry_group_IT_number 12
_symmetry_cell_setting 'monoclinic'
loop_
_space_group_symop_operation_xyz
x,y,z
-x,y,-z
-x,-y,-z
x,-y,z
1/2+x,1/2+y,z
1/2-x,1/2+y,-z
1/2-x,1/2-y,-z
1/2+x,1/2-y,z
loop_
_atom_site_type_symbol
_atom_site_label
_atom_site_fract_x
_atom_site_fract_y
_atom_site_fract_z
Si Si1 0.388011 0.322790 0.821002
Si Si2 0.951398 0.180774 0.406834
Si Si3 0.169540 0.178232 0.540093
Si Si4 0.803584 0.677093 0.643570
Si Si5 0.567167 0.171028 0.983818
Si Si6 0.518782 0.678555 0.789752
O O1 0.382213 0.500000 0.821990
O O2 0.335513 0.250900 0.742476
O O3 0.450521 0.287708 0.792080
O O4 0.393818 0.257396 0.926263
O O5 0.886097 0.223028 0.417825
O O6 0.966817 0.229260 0.308767
O O7 0.000000 0.230574 0.500000
O O8 0.953439 0.000000 0.406187
O O9 0.168509 0.257496 0.440399
O O10 0.233186 0.210441 0.610315
O O11 0.166271 0.000000 0.523529
O O12 0.811026 0.500000 0.649023
O O13 0.561104 0.247901 0.882093
O O14 0.585565 0.000000 0.983078
O O15 0.500000 0.174307 0.000000
O O16 0.525222 0.500000 0.797317
#
# Coordination Sequence:
#
# PCOD9172263 Si02
#       6
#     8   8   8   8   8   8
#     4  10  18  29  48  71  93 119 154 191 227 271
#     4   9  16  28  48  71  93 119 153 189 223 266
#     4   9  18  32  48  67  92 123 156 188 226 271
#     4  10  19  30  46  68  94 122 153 191 230 268
#     4   9  17  29  45  67  96 124 149 184 231 276
#     4   9  17  29  47  70  94 121 153 189 228 271
#
# _framework density 16.396287000000001
#
# number of rings (size 3 to 8) (size 9 to 14) (size 15 to 20)
#    0.000    2.667    0.000    2.500    0.000    6.000 
#    0.000    0.833    0.000    3.000    0.000    0.000 
#    0.000    0.000    0.000    0.000    0.000    0.000 
#
# Total GULP energy -133803.430959 kJ/mol
# GULP energy per Si atom -5575.142957 kJ/mol
# Density = 1.635897 g / cm^3
# Si number density = 16.396287 Si / 1000 Ang^3
#
#
#
# Elastic Constant Matrix: (Units=GPa)
#
#
# Indices 1 2 3 4 5 6 
#
# 1 60.5734 23.7186 57.2659 0.0000 -7.1574 0.0000
# 2 23.7186 36.1286 50.6839 0.0000 7.1318 0.0000
# 3 57.2659 50.6839 175.3522 0.0000 4.2193 0.0000
# 4 0.0000 0.0000 0.0000 31.3721 0.0000 4.9437
# 5 -7.1574 7.1318 4.2193 0.0000 23.9626 0.0000
# 6 0.0000 0.0000 0.0000 4.9437 0.0000 13.5399
#
#
#
# Elastic Compliance Matrix: (Units=1/GPa)
#
#
# Indices 1 2 3 4 5 6 
#
# 1 0.028973 -0.013436 -0.005908 0.000000 0.013693 0.000000
# 2 -0.013436 0.056196 -0.011404 0.000000 -0.018730 0.000000
# 3 -0.005908 -0.011404 0.010936 0.000000 -0.000296 0.000000
# 4 0.000000 0.000000 0.000000 0.033821 0.000000 -0.012349
# 5 0.013693 -0.018730 -0.000296 0.000000 0.051448 0.000000
# 6 0.000000 0.000000 0.000000 -0.012349 0.000000 0.078364
#
#
# Mechanical properties :
#
#
# Convention : Reuss Voigt Hill
#
# Bulk Modulus (GPa) = 28.89487 59.48790 44.19138
# Shear Modulus (GPa) = 15.02529 23.13396 19.07963
#
# Velocity S-wave (km/s) = 3.03047 3.76031 3.41494
# Velocity P-wave (km/s) = 5.46864 7.43056 6.52378
#
# Compressibility (1/GPa) = 0.03460822
#
# Stress axis : x y z
#
# Youngs Moduli (GPa) = 34.51432 17.79486 91.44421
#
# Poissons Ratio (x) = 0.23910 0.54025
# Poissons Ratio (y) = 0.46374 1.04286
# Poissons Ratio (z) = 0.20391 0.20294
#
# Static dielectric constant tensor:
#      x y z
#    x 1.540060 0.000000 0.002840 
#    y 0.000000 1.547400 0.000000 
#    z 0.002840 0.000000 1.535560 
# 
# From -- ./inp_files/230438.got.cif
#   From: 2010.05.17/outbox.cif.g08.bks.cpg/sg12_116_cif.got.tgz:230438.got - 2010.06.03 13:09:07.
