data_PCOD9172166
_publ_section_title
;
Structure prediction by ZEFSAII (Michael W. Deem and Ramdas Pophale) SiO2 
 PCOD9172166
Probable space group: C 2/M
;
_chemical_formula_sum "Si O2"
_cell_formula_units_Z 60
_cell_length_a 26.047760
_cell_length_b 17.789210
_cell_length_c 11.746993
_cell_angle_alpha 90.000000
_cell_angle_beta 148.332805
_cell_angle_gamma 90.000000
_cell_volume 2857.591700
_symmetry_space_group_name_H-M "C 2/M"
_symmetry_group_IT_number 12
_symmetry_cell_setting 'monoclinic'
loop_
_space_group_symop_operation_xyz
x,y,z
-x,y,-z
-x,-y,-z
x,-y,z
1/2+x,1/2+y,z
1/2-x,1/2+y,-z
1/2-x,1/2-y,-z
1/2+x,1/2-y,z
loop_
_atom_site_type_symbol
_atom_site_label
_atom_site_fract_x
_atom_site_fract_y
_atom_site_fract_z
Si Si1 0.142569 0.411933 0.046047
Si Si2 0.500000 0.362148 0.500000
Si Si3 0.324176 0.332514 0.314368
Si Si4 0.959850 0.285804 0.041820
Si Si5 0.748477 0.914504 0.494753
Si Si6 0.736364 0.301166 0.284172
Si Si7 0.385818 0.579751 0.068156
Si Si8 0.559571 0.374672 0.263198
O O1 0.122349 0.500000 0.984308
O O2 0.220242 0.374743 0.103744
O O3 0.053308 0.352696 0.891753
O O4 0.191689 0.409126 0.266656
O O5 0.405112 0.319068 0.370839
O O6 0.550652 0.407558 0.698393
O O7 0.303320 0.257046 0.344526
O O8 0.379054 0.386655 0.506425
O O9 0.851862 0.248309 0.828889
O O10 0.972981 0.212593 0.807306
O O11 0.000000 0.318119 0.000000
O O12 0.718598 0.853193 0.532486
O O13 0.863719 0.898259 0.687268
O O14 0.736916 0.000000 0.513846
O O15 0.687754 0.353657 0.096818
O O16 0.335227 0.500000 0.979200
O O17 0.460156 0.582166 0.101134
#
# Coordination Sequence:
#
# PCOD9172166 Si02
#       8
#     8   4   8   8   8   8   8   8
#     4   9  20  33  48  74 106 139 172 205 241 288
#     4  10  21  38  56  76  91 124 166 216 269 300
#     4   9  20  35  56  73  98 128 170 216 252 299
#     4  10  18  29  47  70 103 142 173 199 231 283
#     4  10  18  30  49  74 106 139 165 198 245 295
#     4  10  20  32  49  77 104 135 163 202 247 299
#     4  10  20  33  51  77 104 128 161 206 254 304
#     4   9  18  31  49  77 105 136 171 201 243 288
#
# _framework density 20.996701000000002
#
# number of rings (size 3 to 8) (size 9 to 14) (size 15 to 20)
#    0.000    2.400    1.333    1.000    1.867    6.133 
#    0.000    2.000    0.000    0.000    0.000    1.867 
#    0.000    0.000    0.000    1.600    0.000    0.000 
#
# Total GULP energy -167079.471209 kJ/mol
# GULP energy per Si atom -5569.315707 kJ/mol
# Density = 2.094891 g / cm^3
# Si number density = 20.996701 Si / 1000 Ang^3
#
#
#
# Elastic Constant Matrix: (Units=GPa)
#
#
# Indices 1 2 3 4 5 6 
#
# 1 88.7056 27.1098 0.0638 0.0000 16.1505 0.0000
# 2 27.1098 114.1738 3.4316 0.0000 13.9569 0.0000
# 3 0.0638 3.4316 33.4131 0.0000 -8.5370 0.0000
# 4 0.0000 0.0000 0.0000 16.8185 0.0000 0.5977
# 5 16.1505 13.9569 -8.5370 0.0000 22.0121 0.0000
# 6 0.0000 0.0000 0.0000 0.5977 0.0000 9.4068
#
#
#
# Elastic Compliance Matrix: (Units=1/GPa)
#
#
# Indices 1 2 3 4 5 6 
#
# 1 0.013637 -0.001993 -0.002281 0.000000 -0.009626 0.000000
# 2 -0.001993 0.010026 -0.002527 0.000000 -0.005875 0.000000
# 3 -0.002281 -0.002527 0.034442 0.000000 0.016633 0.000000
# 4 0.000000 0.000000 0.000000 0.059593 0.000000 -0.003787
# 5 -0.009626 -0.005875 0.016633 0.000000 0.062668 0.000000
# 6 0.000000 0.000000 0.000000 -0.003787 0.000000 0.106547
#
#
# Mechanical properties :
#
#
# Convention : Reuss Voigt Hill
#
# Bulk Modulus (GPa) = 22.47013 33.05587 27.76300
# Shear Modulus (GPa) = 15.85551 23.35998 19.60775
#
# Velocity S-wave (km/s) = 2.75097 3.33912 3.05921
# Velocity P-wave (km/s) = 4.56239 5.53569 5.07244
#
# Compressibility (1/GPa) = 0.04450352
#
# Stress axis : x y z
#
# Youngs Moduli (GPa) = 73.33248 99.74251 29.03431
#
# Poissons Ratio (x) = 0.19874 0.06623
# Poissons Ratio (y) = 0.14612 0.07337
# Poissons Ratio (z) = 0.16727 0.25204
#
# Static dielectric constant tensor:
#      x y z
#    x 1.802960 0.000000 0.005280 
#    y 0.000000 1.776650 0.000000 
#    z 0.005280 0.000000 1.807080 
# 
# From -- ./inp_files/177369.got.cif
#   From: 2010.05.17/outbox.cif.g08.bks.cpg/sg12_89_cif.got.tgz:177369.got - 2010.06.03 13:09:07.
