data_PCOD9172658
_publ_section_title
;
Structure prediction by ZEFSAII (Michael W. Deem and Ramdas Pophale) SiO2 
 PCOD9172658
Probable space group: C 2/M
;
_chemical_formula_sum "Si O2"
_cell_formula_units_Z 32
_cell_length_a 23.834726
_cell_length_b 5.533006
_cell_length_c 11.403595
_cell_angle_alpha 90.000000
_cell_angle_beta 127.634937
_cell_angle_gamma 90.000000
_cell_volume 1190.948558
_symmetry_space_group_name_H-M "C 2/M"
_symmetry_group_IT_number 12
_symmetry_cell_setting 'monoclinic'
loop_
_space_group_symop_operation_xyz
x,y,z
-x,y,-z
-x,-y,-z
x,-y,z
1/2+x,1/2+y,z
1/2-x,1/2+y,-z
1/2-x,1/2-y,-z
1/2+x,1/2-y,z
loop_
_atom_site_type_symbol
_atom_site_label
_atom_site_fract_x
_atom_site_fract_y
_atom_site_fract_z
Si Si1 0.287553 0.000000 0.955302
Si Si2 0.905355 0.000000 0.779348
Si Si3 0.927143 0.500000 0.302672
Si Si4 0.860836 0.500000 0.473061
Si Si5 0.211105 0.000000 0.556798
Si Si6 0.319541 0.500000 0.973112
Si Si7 0.473585 0.500000 0.258905
Si Si8 0.880553 0.500000 0.763800
O O1 0.355084 0.000000 0.130179
O O2 0.293200 0.246189 0.891023
O O3 0.216574 0.000000 0.942193
O O4 0.827094 0.000000 0.620093
O O5 0.910998 0.252176 0.853703
O O6 0.959712 0.000000 0.740966
O O7 0.903475 0.500000 0.406882
O O8 0.967111 0.750372 0.323179
O O9 0.818235 0.246479 0.423158
O O10 0.900386 0.500000 0.650006
O O11 0.295349 0.000000 0.654253
O O12 0.402590 0.500000 0.090867
#
# Coordination Sequence:
#
# PCOD9172658 Si02
#       8
#     4   4   4   4   4   4   4   4
#     4   8  14  25  41  58  79 111 143 168 197 231
#     4  10  18  30  46  64  83 111 142 174 215 252
#     4  10  19  30  42  62  93 119 140 168 199 245
#     4  10  18  30  46  64  83 111 142 174 215 252
#     4  10  19  33  48  62  81 104 142 191 223 244
#     4   8  14  25  41  58  79 111 143 168 197 231
#     4  10  19  30  42  62  93 119 140 168 199 245
#     4  10  19  33  48  62  81 104 142 191 223 244
#
# _framework density 26.869340000000001
#
# number of rings (size 3 to 8) (size 9 to 14) (size 15 to 20)
#    0.000    2.500    0.000    5.250    0.000    0.000 
#    0.000   15.000    0.000    0.000    0.000    0.000 
#    0.000   11.000    0.000    0.000    0.000    0.000 
#
# Total GULP energy -89620.468333 kJ/mol
# GULP energy per Si atom -5601.279271 kJ/mol
# Density = 2.680818 g / cm^3
# Si number density = 26.869340 Si / 1000 Ang^3
#
#
#
# Elastic Constant Matrix: (Units=GPa)
#
#
# Indices 1 2 3 4 5 6 
#
# 1 158.6664 78.7680 -1.6743 0.0000 4.3636 0.0000
# 2 78.7680 349.1131 12.4041 0.0000 15.2472 0.0000
# 3 -1.6743 12.4041 78.2945 0.0000 -4.6850 0.0000
# 4 0.0000 0.0000 0.0000 -4.7795 0.0000 26.7333
# 5 4.3636 15.2472 -4.6850 0.0000 35.1029 0.0000
# 6 0.0000 0.0000 0.0000 26.7333 0.0000 37.3610
#
#
#
# Elastic Compliance Matrix: (Units=1/GPa)
#
#
# Indices 1 2 3 4 5 6 
#
# 1 0.007111 -0.001613 0.000400 0.000000 -0.000130 0.000000
# 2 -0.001613 0.003309 -0.000638 0.000000 -0.001322 0.000000
# 3 0.000400 -0.000638 0.012999 0.000000 0.001962 0.000000
# 4 0.000000 0.000000 0.000000 -0.041827 0.000000 0.029929
# 5 -0.000130 -0.001322 0.001962 0.000000 0.029340 0.000000
# 6 0.000000 0.000000 0.000000 0.029929 0.000000 0.005351
#
#
# Mechanical properties :
#
#
# Convention : Reuss Voigt Hill
#
# Bulk Modulus (GPa) = 50.71699 85.00774 67.86237
# Shear Modulus (GPa) = 188.27174 46.64196 117.45685
#
# Velocity S-wave (km/s) = 8.37983 4.17091 6.61884
# Velocity P-wave (km/s) = 10.60872 7.40955 9.15004
#
# Compressibility (1/GPa) = 0.01971726
#
# Stress axis : x y z
#
# Youngs Moduli (GPa) = 140.62616 302.23282 76.92725
#
# Poissons Ratio (x) = 0.48749 -0.03076
# Poissons Ratio (y) = 0.22682 0.04906
# Poissons Ratio (z) = -0.05623 0.19276
#
# Static dielectric constant tensor:
#      x y z
#    x 2.034640 0.000000 0.013360 
#    y 0.000000 2.303280 0.000000 
#    z 0.013360 0.000000 2.040450 
# 
# From -- ./inp_files/32339.got.cif
#   From: 2010.05.17/outbox.cif.g08.bks.cpg/sg12_17_cif.got.tgz:32339.got - 2010.06.03 13:09:07.
