data_PCOD9172435
_publ_section_title
;
Structure prediction by ZEFSAII (Michael W. Deem and Ramdas Pophale) SiO2 
 PCOD9172435
Probable space group: C 2/M
;
_chemical_formula_sum "Si O2"
_cell_formula_units_Z 56
_cell_length_a 16.424887
_cell_length_b 12.866708
_cell_length_c 14.105517
_cell_angle_alpha 90.000000
_cell_angle_beta 120.384345
_cell_angle_gamma 90.000000
_cell_volume 2571.546773
_symmetry_space_group_name_H-M "C 2/M"
_symmetry_group_IT_number 12
_symmetry_cell_setting 'monoclinic'
loop_
_space_group_symop_operation_xyz
x,y,z
-x,y,-z
-x,-y,-z
x,-y,z
1/2+x,1/2+y,z
1/2-x,1/2+y,-z
1/2-x,1/2-y,-z
1/2+x,1/2-y,z
loop_
_atom_site_type_symbol
_atom_site_label
_atom_site_fract_x
_atom_site_fract_y
_atom_site_fract_z
Si Si1 0.595657 0.739118 0.732167
Si Si2 0.450428 0.883451 0.119920
Si Si3 0.286977 0.886916 0.561974
Si Si4 0.925101 0.809943 0.880915
Si Si5 0.612447 0.321024 0.346169
Si Si6 0.778787 0.304231 0.919001
Si Si7 0.111725 0.611082 0.580894
O O1 0.583038 0.835110 0.799410
O O2 0.491218 0.692323 0.670495
O O3 0.678940 0.663778 0.815977
O O4 0.629724 0.789854 0.655172
O O5 0.521596 0.796815 0.120879
O O6 0.487635 0.000000 0.151705
O O7 0.360341 0.883388 0.996767
O O8 0.332885 0.789038 0.641171
O O9 0.179756 0.873535 0.463424
O O10 0.341726 0.884233 0.493866
O O11 0.300567 0.000000 0.615078
O O12 0.901803 0.866974 0.768037
O O13 0.831183 0.778516 0.881860
O O14 0.000000 0.858717 0.000000
O O15 0.750000 0.250000 0.000000
O O16 0.140536 0.500000 0.642218
O O17 0.000000 0.609096 0.500000
#
# Coordination Sequence:
#
# PCOD9172435 Si02
#       7
#     8   8   8   8   8   8   8
#     4  10  18  31  51  75 103 135 169 210 259 316
#     4   9  18  31  50  76 105 134 168 211 254 300
#     4  10  21  36  53  77 109 141 179 221 262 315
#     4   9  18  32  52  77 102 132 169 213 259 314
#     4  10  20  34  54  78 104 143 179 212 267 316
#     4   9  18  31  47  71 101 132 165 202 250 307
#     4  10  18  29  49  78 102 122 160 220 274 305
#
# _framework density 21.776776000000002
#
# number of rings (size 3 to 8) (size 9 to 14) (size 15 to 20)
#    0.000    2.429    1.429    2.143    0.000    4.857 
#    0.000    0.714    0.000    0.429    0.000    9.000 
#    0.000    0.000    0.000    0.000    0.000    0.000 
#
# Total GULP energy -156066.744141 kJ/mol
# GULP energy per Si atom -5573.812291 kJ/mol
# Density = 2.172721 g / cm^3
# Si number density = 21.776776 Si / 1000 Ang^3
#
#
#
# Elastic Constant Matrix: (Units=GPa)
#
#
# Indices 1 2 3 4 5 6 
#
# 1 71.3815 -5.8237 19.0575 0.0000 20.8091 0.0000
# 2 -5.8237 37.8542 3.5104 0.0000 4.0968 0.0000
# 3 19.0575 3.5104 91.1527 0.0000 26.5604 0.0000
# 4 0.0000 0.0000 0.0000 7.5686 0.0000 -1.9623
# 5 20.8091 4.0968 26.5604 0.0000 46.0544 0.0000
# 6 0.0000 0.0000 0.0000 -1.9623 0.0000 16.4552
#
#
#
# Elastic Compliance Matrix: (Units=1/GPa)
#
#
# Indices 1 2 3 4 5 6 
#
# 1 0.016749 0.003478 -0.001611 0.000000 -0.006948 0.000000
# 2 0.003478 0.027409 -0.000738 0.000000 -0.003584 0.000000
# 3 -0.001611 -0.000738 0.013348 0.000000 -0.006904 0.000000
# 4 0.000000 0.000000 0.000000 0.136341 0.000000 0.016259
# 5 -0.006948 -0.003584 -0.006904 0.000000 0.029153 0.000000
# 6 0.000000 0.000000 0.000000 0.016259 0.000000 0.062710
#
#
# Mechanical properties :
#
#
# Convention : Reuss Voigt Hill
#
# Bulk Modulus (GPa) = 16.73308 25.98630 21.35969
# Shear Modulus (GPa) = 16.48138 26.25858 21.36998
#
# Velocity S-wave (km/s) = 2.75404 3.47624 3.13600
# Velocity P-wave (km/s) = 4.22062 5.29823 4.78983
#
# Compressibility (1/GPa) = 0.05976184
#
# Stress axis : x y z
#
# Youngs Moduli (GPa) = 59.70659 36.48492 74.91953
#
# Poissons Ratio (x) = -0.12690 0.12070
# Poissons Ratio (y) = -0.20766 0.05532
# Poissons Ratio (z) = 0.09619 0.02694
#
# Static dielectric constant tensor:
#      x y z
#    x 1.790230 0.000000 0.008500 
#    y 0.000000 1.831490 0.000000 
#    z 0.008500 0.000000 1.867640 
# 
# From -- ./inp_files/225367.got.cif
#   From: 2010.05.17/outbox.cif.g08.bks.cpg/sg12_113_cif.got.tgz:225367.got - 2010.06.03 13:09:07.
