data_PCOD9172898
_publ_section_title
;
Structure prediction by ZEFSAII (Michael W. Deem and Ramdas Pophale) SiO2 
 PCOD9172898
Probable space group: C 2/M
;
_chemical_formula_sum "Si O2"
_cell_formula_units_Z 64
_cell_length_a 29.991600
_cell_length_b 7.253517
_cell_length_c 13.441628
_cell_angle_alpha 90.000000
_cell_angle_beta 101.606883
_cell_angle_gamma 90.000000
_cell_volume 2864.357567
_symmetry_space_group_name_H-M "C 2/M"
_symmetry_group_IT_number 12
_symmetry_cell_setting 'monoclinic'
loop_
_space_group_symop_operation_xyz
x,y,z
-x,y,-z
-x,-y,-z
x,-y,z
1/2+x,1/2+y,z
1/2-x,1/2+y,-z
1/2-x,1/2-y,-z
1/2+x,1/2-y,z
loop_
_atom_site_type_symbol
_atom_site_label
_atom_site_fract_x
_atom_site_fract_y
_atom_site_fract_z
Si Si1 0.681804 0.722618 0.392119
Si Si2 0.144239 0.775045 0.004688
Si Si3 0.579959 0.723077 0.278474
Si Si4 0.647803 0.725083 0.584851
Si Si5 0.317098 0.285193 0.187327
Si Si6 0.784018 0.778180 0.797372
Si Si7 0.546601 0.724207 0.470868
Si Si8 0.550479 0.275223 0.048546
O O1 0.685949 0.500000 0.398556
O O2 0.631700 0.770491 0.327788
O O3 0.679861 0.785168 0.506205
O O4 0.714283 0.787119 0.317030
O O5 0.164775 0.710711 0.909167
O O6 0.146004 0.000000 0.006605
O O7 0.174398 0.716697 0.113482
O O8 0.091843 0.720833 0.995548
O O9 0.579410 0.500000 0.275608
O O10 0.549075 0.780309 0.356868
O O11 0.563890 0.786437 0.164809
O O12 0.648989 0.500000 0.584233
O O13 0.663690 0.790307 0.699903
O O14 0.595259 0.778328 0.540075
O O15 0.330185 0.500000 0.192951
O O16 0.262875 0.271524 0.170963
O O17 0.786892 0.000000 0.794253
O O18 0.500000 0.787120 0.500000
O O19 0.546429 0.500000 0.474306
O O20 0.549874 0.500000 0.047852
O O21 0.500000 0.213664 0.000000
#
# Coordination Sequence:
#
# PCOD9172898 Si02
#       8
#     8   8   8   8   8   8   8   8
#     4   8  13  24  42  58  75 106 145 179 208 248
#     4   9  17  29  42  59  86 118 145 175 218 263
#     4   8  12  20  32  48  73 104 139 175 206 244
#     4   8  15  26  38  56  85 116 139 169 221 266
#     4  10  20  31  43  63  94 120 139 176 229 267
#     4  10  18  30  49  65  81 114 158 185 206 253
#     4   8  13  20  33  52  75 109 147 172 200 255
#     4   9  15  22  35  57  82 111 144 175 213 258
#
# _framework density 22.343578000000001
#
# number of rings (size 3 to 8) (size 9 to 14) (size 15 to 20)
#    0.000    3.250    1.250    1.875    0.000    1.500 
#    0.000    5.000    0.000    0.000    0.000    0.000 
#    0.000    2.500    0.000    0.000    0.000    0.500 
#
# Total GULP energy -178581.547072 kJ/mol
# GULP energy per Si atom -5580.673346 kJ/mol
# Density = 2.229272 g / cm^3
# Si number density = 22.343578 Si / 1000 Ang^3
#
#
#
# Elastic Constant Matrix: (Units=GPa)
#
#
# Indices 1 2 3 4 5 6 
#
# 1 144.5236 -7.7287 64.6112 0.0000 -30.3828 0.0000
# 2 -7.7287 99.4867 3.8522 0.0000 -2.8014 0.0000
# 3 64.6112 3.8522 123.0697 0.0000 -20.7314 0.0000
# 4 0.0000 0.0000 0.0000 -20.1620 0.0000 -0.3717
# 5 -30.3828 -2.8014 -20.7314 0.0000 38.1296 0.0000
# 6 0.0000 0.0000 0.0000 -0.3717 0.0000 -8.1784
#
#
#
# Elastic Compliance Matrix: (Units=1/GPa)
#
#
# Indices 1 2 3 4 5 6 
#
# 1 0.010161 0.001123 -0.004394 0.000000 0.005790 0.000000
# 2 0.001123 0.010201 -0.000695 0.000000 0.001266 0.000000
# 3 -0.004394 -0.000695 0.010849 0.000000 0.002346 0.000000
# 4 0.000000 0.000000 0.000000 -0.049640 0.000000 0.002256
# 5 0.005790 0.001266 0.002346 0.000000 0.032209 0.000000
# 6 0.000000 0.000000 0.000000 0.002256 0.000000 -0.122376
#
#
# Mechanical properties :
#
#
# Convention : Reuss Voigt Hill
#
# Bulk Modulus (GPa) = 42.95986 54.28326 48.62156
# Shear Modulus (GPa) = -53.82020 22.38086 -15.71967
#
# Velocity S-wave (km/s) = -4.91323 3.16835 -2.65532
# Velocity P-wave (km/s) = 3.59413 6.14265 3.52238
#
# Compressibility (1/GPa) = 0.02327754
#
# Stress axis : x y z
#
# Youngs Moduli (GPa) = 98.41500 98.02601 92.17017
#
# Poissons Ratio (x) = -0.11004 0.40503
# Poissons Ratio (y) = -0.11048 0.06410
# Poissons Ratio (z) = 0.43247 0.06817
#
# Static dielectric constant tensor:
#      x y z
#    x 1.782940 0.000000 -0.023110 
#    y 0.000000 1.980490 0.000000 
#    z -0.023110 0.000000 1.803550 
# 
# From -- ./inp_files/182020.got.cif
#   From: 2010.05.17/outbox.cif.g08.bks.cpg/sg12_92_cif.got.tgz:182020.got - 2010.06.03 13:09:07.
