data_PCOD9172887
_publ_section_title
;
Structure prediction by ZEFSAII (Michael W. Deem and Ramdas Pophale) SiO2 
 PCOD9172887
Probable space group: C 2/M
;
_chemical_formula_sum "Si O2"
_cell_formula_units_Z 56
_cell_length_a 29.313803
_cell_length_b 7.469158
_cell_length_c 16.257832
_cell_angle_alpha 90.000000
_cell_angle_beta 65.253067
_cell_angle_gamma 90.000000
_cell_volume 3232.745249
_symmetry_space_group_name_H-M "C 2/M"
_symmetry_group_IT_number 12
_symmetry_cell_setting 'monoclinic'
loop_
_space_group_symop_operation_xyz
x,y,z
-x,y,-z
-x,-y,-z
x,-y,z
1/2+x,1/2+y,z
1/2-x,1/2+y,-z
1/2-x,1/2-y,-z
1/2+x,1/2-y,z
loop_
_atom_site_type_symbol
_atom_site_label
_atom_site_fract_x
_atom_site_fract_y
_atom_site_fract_z
Si Si1 0.023985 0.500000 0.615615
Si Si2 0.258455 0.298149 0.897441
Si Si3 0.590042 0.707222 0.141552
Si Si4 0.646357 0.707681 0.269919
Si Si5 0.448668 0.282907 0.085438
Si Si6 0.851263 0.782996 0.056318
Si Si7 0.022325 0.782896 0.755949
Si Si8 0.418017 0.000000 0.599280
O O1 0.034962 0.672267 0.664932
O O2 0.058197 0.500000 0.508893
O O3 0.966033 0.500000 0.626117
O O4 0.277342 0.500000 0.889660
O O5 0.301578 0.214550 0.807244
O O6 0.205116 0.285605 0.892306
O O7 0.250000 0.250000 0.000000
O O8 0.584323 0.500000 0.120284
O O9 0.610261 0.711967 0.217613
O O10 0.534378 0.779171 0.179750
O O11 0.630046 0.780677 0.047616
O O12 0.651768 0.500000 0.293163
O O13 0.617770 0.829969 0.356775
O O14 0.450236 0.500000 0.078830
O O15 0.396820 0.227125 0.081244
O O16 0.448256 0.239418 0.182451
O O17 0.500000 0.221827 0.000000
O O18 0.847027 0.000000 0.062514
O O19 0.023308 0.000000 0.742299
#
# Coordination Sequence:
#
# PCOD9172887 Si02
#       8
#     4   8   8   8   8   8   8   4
#     4  11  24  38  53  88 106 130 185 228 274 336
#     4  11  22  33  48  74 109 146 183 217 259 313
#     4   9  15  27  48  73 105 146 180 208 251 308
#     4  10  21  36  53  76 106 146 183 214 263 324
#     4   9  16  29  51  76 107 150 185 209 257 319
#     4  10  18  30  48  75 110 144 185 220 247 310
#     4  10  19  35  55  75 110 150 177 219 266 315
#     4  11  24  38  58  78 110 138 173 232 282 318
#
# _framework density 17.322737
#
# number of rings (size 3 to 8) (size 9 to 14) (size 15 to 20)
#    0.000    2.000    4.286    0.429    2.000    0.571 
#    2.571    1.786    0.000    0.000    0.000    1.000 
#    0.000    0.000    0.000    0.000    0.000    0.000 
#
# Total GULP energy -155973.491521 kJ/mol
# GULP energy per Si atom -5570.481840 kJ/mol
# Density = 1.728331 g / cm^3
# Si number density = 17.322737 Si / 1000 Ang^3
#
#
#
# Elastic Constant Matrix: (Units=GPa)
#
#
# Indices 1 2 3 4 5 6 
#
# 1 71.0174 8.9020 35.1719 0.0000 -9.1030 0.0000
# 2 8.9020 75.2321 40.8841 0.0000 -2.1080 0.0000
# 3 35.1719 40.8841 113.8101 0.0000 -9.3761 0.0000
# 4 0.0000 0.0000 0.0000 20.2809 0.0000 -2.1371
# 5 -9.1030 -2.1080 -9.3761 0.0000 26.9856 0.0000
# 6 0.0000 0.0000 0.0000 -2.1371 0.0000 14.0911
#
#
#
# Elastic Compliance Matrix: (Units=1/GPa)
#
#
# Indices 1 2 3 4 5 6 
#
# 1 0.017099 0.000971 -0.005303 0.000000 0.004001 0.000000
# 2 0.000971 0.016588 -0.006306 0.000000 -0.000568 0.000000
# 3 -0.005303 -0.006306 0.012871 0.000000 0.002191 0.000000
# 4 0.000000 0.000000 0.000000 0.050108 0.000000 0.007600
# 5 0.004001 -0.000568 0.002191 0.000000 0.039123 0.000000
# 6 0.000000 0.000000 0.000000 0.007600 0.000000 0.072119
#
#
# Mechanical properties :
#
#
# Convention : Reuss Voigt Hill
#
# Bulk Modulus (GPa) = 39.55435 47.77506 43.66470
# Shear Modulus (GPa) = 21.04263 23.94496 22.49379
#
# Velocity S-wave (km/s) = 3.48909 3.72194 3.60740
# Velocity P-wave (km/s) = 6.25420 6.79042 6.52782
#
# Compressibility (1/GPa) = 0.02528167
#
# Stress axis : x y z
#
# Youngs Moduli (GPa) = 58.48386 60.28370 77.69270
#
# Poissons Ratio (x) = -0.05853 0.41203
# Poissons Ratio (y) = -0.05678 0.48992
# Poissons Ratio (z) = 0.31016 0.38014
#
# Static dielectric constant tensor:
#      x y z
#    x 1.598250 0.000000 -0.016560 
#    y 0.000000 1.662890 0.000000 
#    z -0.016560 0.000000 1.588510 
# 
# From -- ./inp_files/291498.got.cif
#   From: 2010.05.17/outbox.cif.g08.bks.cpg/sg12_146_cif.got.tgz:291498.got - 2010.06.03 13:09:07.
