data_PCOD9172064
_publ_section_title
;
Structure prediction by ZEFSAII (Michael W. Deem and Ramdas Pophale) SiO2 
 PCOD9172064
Probable space group: C 2/M
;
_chemical_formula_sum "Si O2"
_cell_formula_units_Z 64
_cell_length_a 29.585098
_cell_length_b 8.568650
_cell_length_c 21.881219
_cell_angle_alpha 90.000000
_cell_angle_beta 132.556392
_cell_angle_gamma 90.000000
_cell_volume 4085.975382
_symmetry_space_group_name_H-M "C 2/M"
_symmetry_group_IT_number 12
_symmetry_cell_setting 'monoclinic'
loop_
_space_group_symop_operation_xyz
x,y,z
-x,y,-z
-x,-y,-z
x,-y,z
1/2+x,1/2+y,z
1/2-x,1/2+y,-z
1/2-x,1/2-y,-z
1/2+x,1/2-y,z
loop_
_atom_site_type_symbol
_atom_site_label
_atom_site_fract_x
_atom_site_fract_y
_atom_site_fract_z
Si Si1 0.785141 0.186592 0.176842
Si Si2 0.750496 0.687999 0.403571
Si Si3 0.800043 0.186976 0.997689
Si Si4 0.892414 0.811962 0.180577
Si Si5 0.653094 0.811894 0.403232
Si Si6 0.975146 0.688633 0.663004
Si Si7 0.188928 0.311010 0.665318
Si Si8 0.052286 0.690276 0.500765
O O1 0.723046 0.246464 0.087572
O O2 0.843392 0.239186 0.188089
O O3 0.792786 0.246812 0.252243
O O4 0.784858 0.000000 0.175482
O O5 0.749189 0.500000 0.402866
O O6 0.687893 0.749853 0.375576
O O7 0.805263 0.736143 0.500172
O O8 0.767233 0.738666 0.350512
O O9 0.797309 0.000000 0.993084
O O10 0.750000 0.250000 0.000000
O O11 0.864005 0.232501 0.088458
O O12 0.959415 0.746746 0.254359
O O13 0.894554 0.000000 0.184888
O O14 0.583381 0.760123 0.350392
O O15 0.653707 0.000000 0.402305
O O16 0.975739 0.500000 0.663426
O O17 0.962803 0.740255 0.581882
O O18 0.189518 0.500000 0.668367
O O19 0.119720 0.261683 0.584348
O O20 0.052304 0.500000 0.500431
O O21 0.000000 0.742157 0.500000
#
# Coordination Sequence:
#
# PCOD9172064 Si02
#       8
#     8   8   8   8   8   8   8   8
#     4  10  20  32  46  68  97 125 157 194 232 277
#     4   9  17  30  47  66  89 118 155 197 237 276
#     4   9  17  31  49  68  92 122 156 194 234 273
#     4   9  19  32  45  66  96 124 152 190 230 273
#     4   9  17  30  46  66  91 117 153 199 237 272
#     4  10  18  29  46  68  91 121 160 195 226 270
#     4  10  18  30  47  67  91 122 160 196 229 272
#     4   9  16  26  41  62  89 122 158 190 219 258
#
# _framework density 15.663335
#
# number of rings (size 3 to 8) (size 9 to 14) (size 15 to 20)
#    0.000    2.625    1.250    2.250    0.000    5.000 
#    0.000    0.625    0.000    2.250    0.000    0.875 
#    0.000    7.000    0.000    0.000    0.000    0.000 
#
# Total GULP energy -178309.602564 kJ/mol
# GULP energy per Si atom -5572.175080 kJ/mol
# Density = 1.562768 g / cm^3
# Si number density = 15.663335 Si / 1000 Ang^3
#
#
#
# Elastic Constant Matrix: (Units=GPa)
#
#
# Indices 1 2 3 4 5 6 
#
# 1 129.4927 24.9831 82.3356 0.0000 -2.3665 0.0000
# 2 24.9831 14.3974 28.2223 0.0000 -0.8596 0.0000
# 3 82.3356 28.2223 153.6033 0.0000 -3.4887 0.0000
# 4 0.0000 0.0000 0.0000 22.5729 0.0000 0.1978
# 5 -2.3665 -0.8596 -3.4887 0.0000 7.8905 0.0000
# 6 0.0000 0.0000 0.0000 0.1978 0.0000 21.6466
#
#
#
# Elastic Compliance Matrix: (Units=1/GPa)
#
#
# Indices 1 2 3 4 5 6 
#
# 1 0.013368 -0.014290 -0.004530 0.000000 0.000450 0.000000
# 2 -0.014290 0.123903 -0.015047 0.000000 0.002559 0.000000
# 3 -0.004530 -0.015047 0.011753 0.000000 0.002199 0.000000
# 4 0.000000 0.000000 0.000000 0.044304 0.000000 -0.000405
# 5 0.000450 0.002559 0.002199 0.000000 0.128120 0.000000
# 6 0.000000 0.000000 0.000000 -0.000405 0.000000 0.046200
#
#
# Mechanical properties :
#
#
# Convention : Reuss Voigt Hill
#
# Bulk Modulus (GPa) = 12.30177 63.17505 37.73841
# Shear Modulus (GPa) = 10.81129 21.21882 16.01506
#
# Velocity S-wave (km/s) = 2.63007 3.68459 3.20105
# Velocity P-wave (km/s) = 4.13448 7.64998 6.14883
#
# Compressibility (1/GPa) = 0.08128914
#
# Stress axis : x y z
#
# Youngs Moduli (GPa) = 74.80638 8.07084 85.08526
#
# Poissons Ratio (x) = 0.11534 0.38541
# Poissons Ratio (y) = 1.06902 1.28029
# Poissons Ratio (z) = 0.33885 0.12144
#
# Static dielectric constant tensor:
#      x y z
#    x 1.513250 0.000000 -0.000500 
#    y 0.000000 1.538190 0.000000 
#    z -0.000500 0.000000 1.521420 
# 
# From -- ./inp_files/326834.got.cif
#   From: 2010.05.17/outbox.cif.g08.bks.cpg/sg12_164_cif.got.tgz:326834.got - 2010.06.03 13:09:07.
