data_PCOD9172597
_publ_section_title
;
Structure prediction by ZEFSAII (Michael W. Deem and Ramdas Pophale) SiO2 
 PCOD9172597
Probable space group: C 2/M
;
_chemical_formula_sum "Si O2"
_cell_formula_units_Z 44
_cell_length_a 20.281729
_cell_length_b 13.978344
_cell_length_c 20.340803
_cell_angle_alpha 90.000000
_cell_angle_beta 159.950609
_cell_angle_gamma 90.000000
_cell_volume 1977.004663
_symmetry_space_group_name_H-M "C 2/M"
_symmetry_group_IT_number 12
_symmetry_cell_setting 'monoclinic'
loop_
_space_group_symop_operation_xyz
x,y,z
-x,y,-z
-x,-y,-z
x,-y,z
1/2+x,1/2+y,z
1/2-x,1/2+y,-z
1/2-x,1/2-y,-z
1/2+x,1/2-y,z
loop_
_atom_site_type_symbol
_atom_site_label
_atom_site_fract_x
_atom_site_fract_y
_atom_site_fract_z
Si Si1 0.962463 0.500000 0.271137
Si Si2 0.210007 0.000000 0.533192
Si Si3 0.844353 0.652969 0.761024
Si Si4 0.461573 0.500000 0.187542
Si Si5 0.473318 0.295051 0.785145
Si Si6 0.784353 0.886476 0.214882
Si Si7 0.914668 0.715502 0.246133
O O1 0.962171 0.603955 0.307674
O O2 0.131153 0.500000 0.375516
O O3 0.761297 0.500000 0.040897
O O4 0.250606 0.913115 0.618819
O O5 0.004367 0.000000 0.304826
O O6 0.738127 0.646332 0.730488
O O7 0.852249 0.753526 0.731385
O O8 0.065728 0.619219 0.980696
O O9 0.561579 0.405935 0.255370
O O10 0.462483 0.244348 0.703703
O O11 0.695074 0.286483 0.014641
O O12 0.903600 0.803313 0.287962
O O13 0.838291 0.000000 0.267915
#
# Coordination Sequence:
#
# PCOD9172597 Si02
#       7
#     4   4   8   4   8   8   8
#     4  10  20  40  56  84 121 145 193 244 275 341
#     4  12  20  35  61  86 111 155 189 232 293 340
#     4  10  18  32  54  84 115 147 192 231 285 346
#     4  10  24  34  53  92 118 146 186 246 288 332
#     4   9  18  33  51  80 113 147 190 234 281 337
#     4  10  18  29  53  90 112 148 191 234 287 345
#     4   9  18  30  56  82 108 154 188 229 289 335
#
# _framework density 22.255890000000001
#
# number of rings (size 3 to 8) (size 9 to 14) (size 15 to 20)
#    0.000    2.182    3.636    0.545    3.818    0.727 
#    0.000    0.909    0.000    7.636    0.000    1.273 
#    0.000    0.000    0.000    0.000    0.000    0.000 
#
# Total GULP energy -122848.983580 kJ/mol
# GULP energy per Si atom -5584.044708 kJ/mol
# Density = 2.220523 g / cm^3
# Si number density = 22.255890 Si / 1000 Ang^3
#
#
#
# Elastic Constant Matrix: (Units=GPa)
#
#
# Indices 1 2 3 4 5 6 
#
# 1 145.1088 107.6637 33.1726 0.0042 -13.0242 -0.0002
# 2 107.6637 222.8087 23.3225 0.0061 -8.6899 0.0030
# 3 33.1726 23.3225 78.8298 0.0035 13.6869 0.0013
# 4 0.0042 0.0061 0.0035 28.7273 0.0034 -9.9272
# 5 -13.0242 -8.6899 13.6869 0.0034 20.6713 0.0006
# 6 -0.0002 0.0030 0.0013 -9.9272 0.0006 26.3610
#
#
#
# Elastic Compliance Matrix: (Units=1/GPa)
#
#
# Indices 1 2 3 4 5 6 
#
# 1 0.012961 -0.005307 -0.005553 -0.000001 0.009612 0.000000
# 2 -0.005307 0.007003 0.000261 -0.000001 -0.000572 -0.000001
# 3 -0.005553 0.000261 0.017551 0.000000 -0.015010 0.000000
# 4 -0.000001 -0.000001 0.000000 0.040018 -0.000008 0.015070
# 5 0.009612 -0.000572 -0.015010 -0.000008 0.064131 -0.000004
# 6 0.000000 -0.000001 0.000000 0.015070 -0.000004 0.043610
#
#
# Mechanical properties :
#
#
# Convention : Reuss Voigt Hill
#
# Bulk Modulus (GPa) = 61.28572 86.11830 73.70201
# Shear Modulus (GPa) = 23.59486 33.99116 28.79301
#
# Velocity S-wave (km/s) = 3.25955 3.91229 3.60074
# Velocity P-wave (km/s) = 6.46242 7.69329 7.10456
#
# Compressibility (1/GPa) = 0.01631702
#
# Stress axis : x y z
#
# Youngs Moduli (GPa) = 77.15546 142.79996 56.97557
#
# Poissons Ratio (x) = 0.75779 0.31638
# Poissons Ratio (y) = 0.40944 -0.01485
# Poissons Ratio (z) = 0.42844 -0.03722
#
# Static dielectric constant tensor:
#      x y z
#    x 1.790170 0.000000 0.040100 
#    y 0.000000 1.947980 0.000000 
#    z 0.040100 0.000000 1.894220 
# 
# From -- ./inp_files/277975.got.cif
#   From: 2010.05.17/outbox.cif.g08.bks.cpg/sg12_139_cif.got.tgz:277975.got - 2010.06.03 13:09:07.
