data_PCOD9172377
_publ_section_title
;
Structure prediction by ZEFSAII (Michael W. Deem and Ramdas Pophale) SiO2 
 PCOD9172377
Probable space group: C 2/M
;
_chemical_formula_sum "Si O2"
_cell_formula_units_Z 40
_cell_length_a 14.001381
_cell_length_b 22.030731
_cell_length_c 9.431800
_cell_angle_alpha 90.000000
_cell_angle_beta 49.555368
_cell_angle_gamma 90.000000
_cell_volume 2214.103771
_symmetry_space_group_name_H-M "C 2/M"
_symmetry_group_IT_number 12
_symmetry_cell_setting 'monoclinic'
loop_
_space_group_symop_operation_xyz
x,y,z
-x,y,-z
-x,-y,-z
x,-y,z
1/2+x,1/2+y,z
1/2-x,1/2+y,-z
1/2-x,1/2-y,-z
1/2+x,1/2-y,z
loop_
_atom_site_type_symbol
_atom_site_label
_atom_site_fract_x
_atom_site_fract_y
_atom_site_fract_z
Si Si1 0.060178 0.237736 0.742933
Si Si2 0.590749 0.930965 0.777164
Si Si3 0.188983 0.816379 0.052913
Si Si4 0.943285 0.642332 0.709926
Si Si5 0.262553 0.681997 0.669681
O O1 0.153845 0.265274 0.771519
O O2 0.140439 0.207297 0.539260
O O3 0.948346 0.190822 0.881887
O O4 0.995030 0.298696 0.744400
O O5 0.503931 0.915558 0.726865
O O6 0.698388 0.880372 0.681313
O O7 0.636370 0.000000 0.732092
O O8 0.500000 0.922200 0.000000
O O9 0.182150 0.830571 0.228003
O O10 0.250000 0.750000 0.000000
O O11 0.292733 0.856445 0.871826
O O12 0.000000 0.647814 0.500000
#
# Coordination Sequence:
#
# PCOD9172377 Si02
#       5
#     8   8   8   8   8
#     4   9  19  30  52  79 109 134 168 208 268 323
#     4  10  20  35  54  72  97 140 186 220 254 299
#     4  10  18  29  49  73 107 139 167 202 261 315
#     4  10  19  32  49  78 106 132 168 215 263 314
#     4  10  18  33  50  77 105 138 170 217 259 316
#
# _framework density 18.066001
#
# number of rings (size 3 to 8) (size 9 to 14) (size 15 to 20)
#    0.000    2.200    2.000    3.000    0.000    0.400 
#    0.000    0.000    0.000    3.600    0.000    1.400 
#    0.000    0.000    0.000    0.000    0.000    0.000 
#
# Total GULP energy -111445.532631 kJ/mol
# GULP energy per Si atom -5572.276632 kJ/mol
# Density = 1.802488 g / cm^3
# Si number density = 18.066001 Si / 1000 Ang^3
#
#
#
# Elastic Constant Matrix: (Units=GPa)
#
#
# Indices 1 2 3 4 5 6 
#
# 1 65.4249 13.3381 29.8910 0.0000 -13.8127 0.0000
# 2 13.3381 56.5365 15.0314 0.0000 -14.9024 0.0000
# 3 29.8910 15.0314 67.5105 0.0000 -4.6758 0.0000
# 4 0.0000 0.0000 0.0000 0.7810 0.0000 9.3002
# 5 -13.8127 -14.9024 -4.6758 0.0000 28.9901 0.0000
# 6 0.0000 0.0000 0.0000 9.3002 0.0000 5.4623
#
#
#
# Elastic Compliance Matrix: (Units=1/GPa)
#
#
# Indices 1 2 3 4 5 6 
#
# 1 0.021115 -0.000456 -0.008664 0.000000 0.008429 0.000000
# 2 -0.000456 0.021521 -0.003882 0.000000 0.010219 0.000000
# 3 -0.008664 -0.003882 0.019304 0.000000 -0.003010 0.000000
# 4 0.000000 0.000000 0.000000 -0.066429 0.000000 0.113103
# 5 0.008429 0.010219 -0.003010 0.000000 0.043278 0.000000
# 6 0.000000 0.000000 0.000000 0.113103 0.000000 -0.009498
#
#
# Mechanical properties :
#
#
# Convention : Reuss Voigt Hill
#
# Bulk Modulus (GPa) = 27.82644 33.99920 30.91282
# Shear Modulus (GPa) = 74.32097 15.79410 45.05753
#
# Velocity S-wave (km/s) = 6.42089 2.95997 4.99947
# Velocity P-wave (km/s) = 8.39087 5.52650 7.10453
#
# Compressibility (1/GPa) = 0.03593704
#
# Stress axis : x y z
#
# Youngs Moduli (GPa) = 47.35861 46.46585 51.80191
#
# Poissons Ratio (x) = 0.02121 0.44880
# Poissons Ratio (y) = 0.02162 0.20109
# Poissons Ratio (z) = 0.41030 0.18037
#
# Static dielectric constant tensor:
#      x y z
#    x 1.696580 0.000000 -0.001960 
#    y 0.000000 1.589120 0.000000 
#    z -0.001960 0.000000 1.710810 
# 
# From -- ./inp_files/50407.got.cif
#   From: 2010.05.17/outbox.cif.g08.bks.cpg/sg12_26_cif.got.tgz:50407.got - 2010.06.03 13:09:07.
