data_PCOD9172551
_publ_section_title
;
Structure prediction by ZEFSAII (Michael W. Deem and Ramdas Pophale) SiO2 
 PCOD9172551
Probable space group: C 2/M
;
_chemical_formula_sum "Si O2"
_cell_formula_units_Z 56
_cell_length_a 16.981910
_cell_length_b 19.108849
_cell_length_c 13.458615
_cell_angle_alpha 90.000000
_cell_angle_beta 46.458454
_cell_angle_gamma 90.000000
_cell_volume 3165.808069
_symmetry_space_group_name_H-M "C 2/M"
_symmetry_group_IT_number 12
_symmetry_cell_setting 'monoclinic'
loop_
_space_group_symop_operation_xyz
x,y,z
-x,y,-z
-x,-y,-z
x,-y,z
1/2+x,1/2+y,z
1/2-x,1/2+y,-z
1/2-x,1/2-y,-z
1/2+x,1/2-y,z
loop_
_atom_site_type_symbol
_atom_site_label
_atom_site_fract_x
_atom_site_fract_y
_atom_site_fract_z
Si Si1 0.740021 0.419233 0.206325
Si Si2 0.032516 0.081270 0.086174
Si Si3 0.970094 0.821737 0.631423
Si Si4 0.856581 0.581451 0.320581
Si Si5 0.630272 0.280763 0.084370
Si Si6 0.444326 0.146785 0.943142
Si Si7 0.138730 0.917811 0.593539
O O1 0.711761 0.500000 0.214628
O O2 0.634603 0.371441 0.291484
O O3 0.794205 0.412582 0.268430
O O4 0.830304 0.393985 0.048494
O O5 0.115023 0.139900 0.057459
O O6 0.923888 0.088435 0.247902
O O7 0.069993 0.000000 0.064477
O O8 0.000000 0.093012 0.000000
O O9 0.936697 0.775171 0.754408
O O10 0.000000 0.787847 0.500000
O O11 0.069733 0.870676 0.578469
O O12 0.882905 0.500000 0.312146
O O13 0.765093 0.603205 0.479549
O O14 0.968994 0.622327 0.213906
O O15 0.578369 0.228339 0.050016
O O16 0.750000 0.250000 0.000000
O O17 0.500000 0.131961 0.000000
O O18 0.134542 0.000000 0.567451
#
# Coordination Sequence:
#
# PCOD9172551 Si02
#       7
#     8   8   8   8   8   8   8
#     4  10  18  29  51  79 108 141 170 207 259 322
#     4   9  19  37  58  80 103 137 189 235 272 317
#     4  11  20  32  50  75 109 140 177 219 270 322
#     4   9  17  30  49  76 109 139 172 209 257 325
#     4  11  22  38  53  77 107 144 180 224 274 327
#     4  10  20  35  53  75 108 145 181 212 265 322
#     4   9  17  29  50  79 108 135 171 223 272 313
#
# _framework density 17.689005999999999
#
# number of rings (size 3 to 8) (size 9 to 14) (size 15 to 20)
#    0.000    2.143    2.857    1.286    0.000    2.857 
#    0.000    4.286    0.000    0.000    0.000    0.000 
#    0.000    6.286    0.000    0.000    0.000    0.000 
#
# Total GULP energy -155971.066512 kJ/mol
# GULP energy per Si atom -5570.395233 kJ/mol
# Density = 1.764875 g / cm^3
# Si number density = 17.689006 Si / 1000 Ang^3
#
#
#
# Elastic Constant Matrix: (Units=GPa)
#
#
# Indices 1 2 3 4 5 6 
#
# 1 29.0470 11.5275 21.3781 0.0000 -1.6088 0.0000
# 2 11.5275 47.0276 21.9582 0.0000 -15.1661 0.0000
# 3 21.3781 21.9582 95.2418 0.0000 -12.9590 0.0000
# 4 0.0000 0.0000 0.0000 20.8817 0.0000 -6.8736
# 5 -1.6088 -15.1661 -12.9590 0.0000 28.3227 0.0000
# 6 0.0000 0.0000 0.0000 -6.8736 0.0000 12.5648
#
#
#
# Elastic Compliance Matrix: (Units=1/GPa)
#
#
# Indices 1 2 3 4 5 6 
#
# 1 0.043933 -0.008688 -0.008693 0.000000 -0.006134 0.000000
# 2 -0.008688 0.029205 -0.002903 0.000000 0.013817 0.000000
# 3 -0.008693 -0.002903 0.013694 0.000000 0.004217 0.000000
# 4 0.000000 0.000000 0.000000 0.058406 0.000000 0.031951
# 5 -0.006134 0.013817 0.004217 0.000000 0.044287 0.000000
# 6 0.000000 0.000000 0.000000 0.031951 0.000000 0.097067
#
#
# Mechanical properties :
#
#
# Convention : Reuss Voigt Hill
#
# Bulk Modulus (GPa) = 21.61529 31.22709 26.42119
# Shear Modulus (GPa) = 14.59504 20.11734 17.35619
#
# Velocity S-wave (km/s) = 2.87556 3.37602 3.13579
# Velocity P-wave (km/s) = 4.82403 5.73484 5.29904
#
# Compressibility (1/GPa) = 0.04626354
#
# Stress axis : x y z
#
# Youngs Moduli (GPa) = 22.76194 34.24045 73.02499
#
# Poissons Ratio (x) = 0.29749 0.63479
# Poissons Ratio (y) = 0.19776 0.21200
# Poissons Ratio (z) = 0.19786 0.09940
#
# Static dielectric constant tensor:
#      x y z
#    x 1.597630 0.000000 0.010790 
#    y 0.000000 1.592990 0.000000 
#    z 0.010790 0.000000 1.648610 
# 
# From -- ./inp_files/159161.got.cif
#   From: 2010.05.17/outbox.cif.g08.bks.cpg/sg12_80_cif.got.tgz:159161.got - 2010.06.03 13:09:07.
