data_PCOD9172157
_publ_section_title
;
Structure prediction by ZEFSAII (Michael W. Deem and Ramdas Pophale) SiO2 
 PCOD9172157
Probable space group: C 2/M
;
_chemical_formula_sum "Si O2"
_cell_formula_units_Z 64
_cell_length_a 25.677959
_cell_length_b 8.915515
_cell_length_c 24.502788
_cell_angle_alpha 90.000000
_cell_angle_beta 46.176608
_cell_angle_gamma 90.000000
_cell_volume 4047.112562
_symmetry_space_group_name_H-M "C 2/M"
_symmetry_group_IT_number 12
_symmetry_cell_setting 'monoclinic'
loop_
_space_group_symop_operation_xyz
x,y,z
-x,y,-z
-x,-y,-z
x,-y,z
1/2+x,1/2+y,z
1/2-x,1/2+y,-z
1/2-x,1/2-y,-z
1/2+x,1/2-y,z
loop_
_atom_site_type_symbol
_atom_site_label
_atom_site_fract_x
_atom_site_fract_y
_atom_site_fract_z
Si Si1 0.901608 0.818372 0.428556
Si Si2 0.526278 0.682198 0.420933
Si Si3 0.811556 0.181587 0.682951
Si Si4 0.664017 0.179998 0.845253
Si Si5 0.061997 0.826526 0.001873
Si Si6 0.776699 0.320021 0.590510
Si Si7 0.109919 0.819925 0.688269
Si Si8 0.544337 0.821072 0.841127
O O1 0.830271 0.747343 0.506598
O O2 0.909404 0.777600 0.359573
O O3 0.969876 0.770131 0.415721
O O4 0.895396 0.000000 0.436292
O O5 0.500000 0.731850 0.500000
O O6 0.524686 0.500000 0.422422
O O7 0.609479 0.726300 0.352950
O O8 0.745015 0.223700 0.770215
O O9 0.798778 0.252597 0.632938
O O10 0.810340 0.000000 0.677778
O O11 0.611306 0.221182 0.832780
O O12 0.660540 0.000000 0.853426
O O13 0.631433 0.253432 0.923092
O O14 0.027563 0.742328 0.078287
O O15 0.074393 0.000000 0.005595
O O16 0.000000 0.817604 0.000000
O O17 0.782563 0.500000 0.587130
O O18 0.693669 0.279845 0.638331
O O19 0.061325 0.744802 0.769740
O O20 0.103774 0.000000 0.697741
O O21 0.541217 0.000000 0.841539
#
# Coordination Sequence:
#
# PCOD9172157 Si02
#       8
#     8   8   8   8   8   8   8   8
#     4  10  20  35  51  66  89 125 165 202 236 278
#     4   9  16  29  52  72  87 116 163 205 236 276
#     4  10  18  31  50  71  93 124 160 196 236 279
#     4   9  17  28  44  68  95 122 155 191 229 277
#     4   9  17  28  44  66  96 129 155 184 226 278
#     4  11  21  31  45  68  96 125 157 196 238 282
#     4  10  21  33  46  67  96 127 160 195 235 283
#     4  10  18  29  47  69  95 126 157 189 229 279
#
# _framework density 15.813743000000001
#
# number of rings (size 3 to 8) (size 9 to 14) (size 15 to 20)
#    0.000    2.250    2.500    1.500    0.000    3.500 
#    0.000    1.250    0.000    0.000    0.000    0.875 
#    0.000    0.000    0.000    0.000    0.000    0.000 
#
# Total GULP energy -178454.175296 kJ/mol
# GULP energy per Si atom -5576.692978 kJ/mol
# Density = 1.577775 g / cm^3
# Si number density = 15.813743 Si / 1000 Ang^3
#
#
#
# Elastic Constant Matrix: (Units=GPa)
#
#
# Indices 1 2 3 4 5 6 
#
# 1 60.6080 20.0050 55.5752 -0.0002 11.8215 0.0000
# 2 20.0050 22.6287 45.9693 0.0006 3.6854 0.0006
# 3 55.5752 45.9693 173.0247 -0.0001 2.6593 0.0000
# 4 -0.0002 0.0006 -0.0001 30.6430 0.0000 2.5303
# 5 11.8215 3.6854 2.6593 0.0000 18.3308 0.0000
# 6 0.0000 0.0006 0.0000 2.5303 0.0000 9.6308
#
#
#
# Elastic Compliance Matrix: (Units=1/GPa)
#
#
# Indices 1 2 3 4 5 6 
#
# 1 0.028588 -0.009942 -0.006302 0.000000 -0.015523 0.000001
# 2 -0.009942 0.104159 -0.024311 -0.000002 -0.011003 -0.000006
# 3 -0.006302 -0.024311 0.014157 0.000000 0.006898 0.000001
# 4 0.000000 -0.000002 0.000000 0.033358 0.000000 -0.008764
# 5 -0.015523 -0.011003 0.006898 0.000000 0.065775 0.000000
# 6 0.000001 -0.000006 0.000001 -0.008764 0.000000 0.106136
#
#
# Mechanical properties :
#
#
# Convention : Reuss Voigt Hill
#
# Bulk Modulus (GPa) = 15.19907 55.48448 35.34177
# Shear Modulus (GPa) = 10.98385 20.70171 15.84278
#
# Velocity S-wave (km/s) = 2.63834 3.62207 3.16861
# Velocity P-wave (km/s) = 4.34894 7.25637 5.98198
#
# Compressibility (1/GPa) = 0.06579351
#
# Stress axis : x y z
#
# Youngs Moduli (GPa) = 34.97988 9.60070 70.63824
#
# Poissons Ratio (x) = 0.09545 0.44519
# Poissons Ratio (y) = 0.34778 1.71725
# Poissons Ratio (z) = 0.22046 0.23340
#
# Static dielectric constant tensor:
#      x y z
#    x 1.514430 0.000000 -0.008920 
#    y 0.000000 1.527860 0.000000 
#    z -0.008920 0.000000 1.518040 
# 
# From -- ./inp_files/324153.got.cif
#   From: 2010.05.17/outbox.cif.g08.bks.cpg/sg12_163_cif.got.tgz:324153.got - 2010.06.03 13:09:07.
