data_PCOD9172203
_publ_section_title
;
Structure prediction by ZEFSAII (Michael W. Deem and Ramdas Pophale) SiO2 
 PCOD9172203
Probable space group: C 2/M
;
_chemical_formula_sum "Si O2"
_cell_formula_units_Z 60
_cell_length_a 25.789144
_cell_length_b 16.814300
_cell_length_c 13.450166
_cell_angle_alpha 90.000000
_cell_angle_beta 143.185332
_cell_angle_gamma 90.000000
_cell_volume 3494.909022
_symmetry_space_group_name_H-M "C 2/M"
_symmetry_group_IT_number 12
_symmetry_cell_setting 'monoclinic'
loop_
_space_group_symop_operation_xyz
x,y,z
-x,y,-z
-x,-y,-z
x,-y,z
1/2+x,1/2+y,z
1/2-x,1/2+y,-z
1/2-x,1/2-y,-z
1/2+x,1/2-y,z
loop_
_atom_site_type_symbol
_atom_site_label
_atom_site_fract_x
_atom_site_fract_y
_atom_site_fract_z
Si Si1 0.086544 0.408581 0.405962
Si Si2 0.500000 0.343465 0.500000
Si Si3 0.360789 0.237521 0.393982
Si Si4 0.988446 0.312116 0.094727
Si Si5 0.785166 0.907475 0.649781
Si Si6 0.666565 0.297792 0.090331
Si Si7 0.450579 0.410422 0.214349
Si Si8 0.607895 0.328751 0.355003
O O1 0.071336 0.500000 0.410909
O O2 0.095015 0.346791 0.510050
O O3 0.181323 0.403898 0.499557
O O4 0.016678 0.375947 0.220464
O O5 0.421237 0.287715 0.414538
O O6 0.472118 0.394758 0.362313
O O7 0.263252 0.225866 0.208434
O O8 0.356253 0.284509 0.492456
O O9 0.054138 0.237538 0.211297
O O10 0.893750 0.276081 0.970823
O O11 0.000000 0.341224 0.000000
O O12 0.823532 0.857097 0.800334
O O13 0.820237 0.868197 0.603180
O O14 0.811077 0.000000 0.695758
O O15 0.617685 0.346035 0.929405
O O16 0.420593 0.500000 0.151658
O O17 0.537916 0.392545 0.286165
#
# Coordination Sequence:
#
# PCOD9172203 Si02
#       8
#     8   4   8   8   8   8   8   8
#     4   9  20  34  50  72 102 138 171 210 255 301
#     4  10  21  40  59  76  92 134 178 216 267 308
#     4   9  20  36  58  74  98 129 177 224 253 304
#     4  10  18  29  47  72 106 142 173 198 236 300
#     4  10  18  30  50  77 109 139 172 207 246 299
#     4  10  20  32  52  81 105 137 169 211 254 298
#     4  10  20  34  53  78 108 134 165 211 265 314
#     4   9  18  31  49  77 106 142 171 200 248 301
#
# _framework density 17.167829000000001
#
# number of rings (size 3 to 8) (size 9 to 14) (size 15 to 20)
#    0.000    2.400    1.333    1.800    1.867    2.933 
#    0.000    2.333    0.000    3.200    0.000    0.000 
#    0.000    0.000    0.000    0.000    0.000    0.000 
#
# Total GULP energy -167340.477273 kJ/mol
# GULP energy per Si atom -5578.015909 kJ/mol
# Density = 1.712875 g / cm^3
# Si number density = 17.167829 Si / 1000 Ang^3
#
#
#
# Elastic Constant Matrix: (Units=GPa)
#
#
# Indices 1 2 3 4 5 6 
#
# 1 26.4002 2.5301 -1.6858 0.0000 -4.2937 0.0000
# 2 2.5301 40.9577 6.4544 0.0000 11.4244 0.0000
# 3 -1.6858 6.4544 58.1349 0.0000 3.5972 0.0000
# 4 0.0000 0.0000 0.0000 18.6991 0.0000 6.2100
# 5 -4.2937 11.4244 3.5972 0.0000 14.2841 0.0000
# 6 0.0000 0.0000 0.0000 6.2100 0.0000 9.5856
#
#
#
# Elastic Compliance Matrix: (Units=1/GPa)
#
#
# Indices 1 2 3 4 5 6 
#
# 1 0.041731 -0.007927 0.000936 0.000000 0.018648 0.000000
# 2 -0.007927 0.033154 -0.002156 0.000000 -0.028357 0.000000
# 3 0.000936 -0.002156 0.017618 0.000000 -0.002431 0.000000
# 4 0.000000 0.000000 0.000000 0.068139 0.000000 -0.044143
# 5 0.018648 -0.028357 -0.002431 0.000000 0.098905 0.000000
# 6 0.000000 0.000000 0.000000 -0.044143 0.000000 0.132922
#
#
# Mechanical properties :
#
#
# Convention : Reuss Voigt Hill
#
# Bulk Modulus (GPa) = 13.47527 15.56557 14.52042
# Shear Modulus (GPa) = 11.48106 16.39337 13.93722
#
# Velocity S-wave (km/s) = 2.58883 3.09348 2.85234
# Velocity P-wave (km/s) = 4.09906 4.67396 4.39592
#
# Compressibility (1/GPa) = 0.07421004
#
# Stress axis : x y z
#
# Youngs Moduli (GPa) = 23.96298 30.16184 56.75909
#
# Poissons Ratio (x) = 0.23909 -0.05315
# Poissons Ratio (y) = 0.18996 0.12238
# Poissons Ratio (z) = -0.02244 0.06503
#
# Static dielectric constant tensor:
#      x y z
#    x 1.555480 0.000000 0.004780 
#    y 0.000000 1.580970 0.000000 
#    z 0.004780 0.000000 1.580160 
# 
# From -- ./inp_files/177370.got.cif
#   From: 2010.05.17/outbox.cif.g08.bks.cpg/sg12_89_cif.got.tgz:177370.got - 2010.06.03 13:09:07.
