data_PCOD9172059
_publ_section_title
;
Structure prediction by ZEFSAII (Michael W. Deem and Ramdas Pophale) SiO2 
 PCOD9172059
Probable space group: C 2/M
;
_chemical_formula_sum "Si O2"
_cell_formula_units_Z 64
_cell_length_a 26.377013
_cell_length_b 8.642927
_cell_length_c 21.939055
_cell_angle_alpha 90.000000
_cell_angle_beta 127.156725
_cell_angle_gamma 90.000000
_cell_volume 3986.164826
_symmetry_space_group_name_H-M "C 2/M"
_symmetry_group_IT_number 12
_symmetry_cell_setting 'monoclinic'
loop_
_space_group_symop_operation_xyz
x,y,z
-x,y,-z
-x,-y,-z
x,-y,z
1/2+x,1/2+y,z
1/2-x,1/2+y,-z
1/2-x,1/2-y,-z
1/2+x,1/2-y,z
loop_
_atom_site_type_symbol
_atom_site_label
_atom_site_fract_x
_atom_site_fract_y
_atom_site_fract_z
Si Si1 0.543642 0.815090 0.589751
Si Si2 0.185127 0.813182 0.677690
Si Si3 0.691856 0.684599 0.998719
Si Si4 0.612422 0.184436 0.839723
Si Si5 0.240848 0.186547 0.589221
Si Si6 0.728458 0.685376 0.842639
Si Si7 0.150457 0.186393 0.412581
Si Si8 0.995558 0.814303 0.683129
O O1 0.500000 0.775479 0.500000
O O2 0.615443 0.760665 0.630132
O O3 0.517333 0.735197 0.631452
O O4 0.542260 0.000000 0.597384
O O5 0.221412 0.764140 0.642814
O O6 0.221869 0.775440 0.766822
O O7 0.177601 0.000000 0.670399
O O8 0.692052 0.500000 0.997073
O O9 0.710220 0.744422 0.078948
O O10 0.750000 0.750000 0.000000
O O11 0.630442 0.749949 0.919423
O O12 0.665620 0.250669 0.831444
O O13 0.544579 0.239148 0.766015
O O14 0.617378 0.000000 0.843623
O O15 0.186550 0.235145 0.501056
O O16 0.306976 0.250982 0.611698
O O17 0.243723 0.000000 0.590480
O O18 0.729022 0.500000 0.850178
O O19 0.077249 0.235793 0.359269
O O20 0.151461 0.000000 0.411834
O O21 0.999401 0.000000 0.690821
#
# Coordination Sequence:
#
# PCOD9172059 Si02
#       8
#     8   8   8   8   8   8   8   8
#     4  11  23  34  46  69 100 132 166 203 245 293
#     4  10  20  33  51  72  98 133 167 201 244 297
#     4  10  18  29  46  67  95 131 166 198 240 288
#     4  11  20  31  47  70 100 130 164 203 245 290
#     4   9  18  34  53  73  95 125 167 210 250 291
#     4  10  18  30  47  70  99 131 166 200 241 291
#     4   9  19  34  52  72  95 126 166 211 253 291
#     4  11  21  34  51  71  98 132 168 203 246 300
#
# _framework density 16.055533
#
# number of rings (size 3 to 8) (size 9 to 14) (size 15 to 20)
#    0.000    1.875    1.250    5.625    0.000    4.000 
#    0.000    2.500    0.000    0.000    0.000    0.875 
#    0.000    7.000    0.000    0.000    0.000    0.000 
#
# Total GULP energy -178577.454048 kJ/mol
# GULP energy per Si atom -5580.545439 kJ/mol
# Density = 1.601899 g / cm^3
# Si number density = 16.055533 Si / 1000 Ang^3
#
#
#
# Elastic Constant Matrix: (Units=GPa)
#
#
# Indices 1 2 3 4 5 6 
#
# 1 105.8178 30.3172 74.3159 0.0000 -1.4679 0.0000
# 2 30.3172 65.8447 53.6720 0.0000 -1.7112 0.0000
# 3 74.3159 53.6720 149.8242 0.0000 -2.1987 0.0000
# 4 0.0000 0.0000 0.0000 26.0126 0.0000 0.7933
# 5 -1.4679 -1.7112 -2.1987 0.0000 14.6197 0.0000
# 6 0.0000 0.0000 0.0000 0.7933 0.0000 21.7401
#
#
#
# Elastic Compliance Matrix: (Units=1/GPa)
#
#
# Indices 1 2 3 4 5 6 
#
# 1 0.014565 -0.001148 -0.006809 0.000000 0.000304 0.000000
# 2 -0.001148 0.021569 -0.007137 0.000000 0.001336 0.000000
# 3 -0.006809 -0.007137 0.012614 0.000000 0.000378 0.000000
# 4 0.000000 0.000000 0.000000 0.038486 0.000000 -0.001404
# 5 0.000304 0.001336 0.000378 0.000000 0.068645 0.000000
# 6 0.000000 0.000000 0.000000 -0.001404 0.000000 0.046049
#
#
# Mechanical properties :
#
#
# Convention : Reuss Voigt Hill
#
# Bulk Modulus (GPa) = 53.88239 70.89966 62.39102
# Shear Modulus (GPa) = 20.98167 23.35325 22.16746
#
# Velocity S-wave (km/s) = 3.61892 3.81797 3.71977
# Velocity P-wave (km/s) = 7.14807 7.98065 7.57581
#
# Compressibility (1/GPa) = 0.01855894
#
# Stress axis : x y z
#
# Youngs Moduli (GPa) = 68.65638 46.36366 79.27566
#
# Poissons Ratio (x) = 0.05324 0.53978
# Poissons Ratio (y) = 0.07884 0.56582
# Poissons Ratio (z) = 0.46747 0.33091
#
# Static dielectric constant tensor:
#      x y z
#    x 1.506880 0.000000 -0.004460 
#    y 0.000000 1.541350 0.000000 
#    z -0.004460 0.000000 1.565990 
# 
# From -- ./inp_files/326952.got.cif
#   From: 2010.05.17/outbox.cif.g08.bks.cpg/sg12_164_cif.got.tgz:326952.got - 2010.06.03 13:09:07.
