data_PCOD9172180
_publ_section_title
;
Structure prediction by ZEFSAII (Michael W. Deem and Ramdas Pophale) SiO2 
 PCOD9172180
Probable space group: C 2/M
;
_chemical_formula_sum "Si O2"
_cell_formula_units_Z 64
_cell_length_a 19.765509
_cell_length_b 8.780553
_cell_length_c 21.072266
_cell_angle_alpha 90.000000
_cell_angle_beta 85.154531
_cell_angle_gamma 90.000000
_cell_volume 3644.065911
_symmetry_space_group_name_H-M "C 2/M"
_symmetry_group_IT_number 12
_symmetry_cell_setting 'monoclinic'
loop_
_space_group_symop_operation_xyz
x,y,z
-x,y,-z
-x,-y,-z
x,-y,z
1/2+x,1/2+y,z
1/2-x,1/2+y,-z
1/2-x,1/2-y,-z
1/2+x,1/2-y,z
loop_
_atom_site_type_symbol
_atom_site_label
_atom_site_fract_x
_atom_site_fract_y
_atom_site_fract_z
Si Si1 0.617008 0.818943 0.103728
Si Si2 0.678587 0.682317 0.981183
Si Si3 0.959312 0.818504 0.776438
Si Si4 0.424459 0.816019 0.315765
Si Si5 0.486440 0.815173 0.571807
Si Si6 0.632435 0.182208 0.327791
Si Si7 0.734146 0.681318 0.846183
Si Si8 0.274215 0.180918 0.290987
O O1 0.560813 0.744969 0.153205
O O2 0.690376 0.788649 0.131673
O O3 0.608655 0.000000 0.101602
O O4 0.622733 0.751320 0.032515
O O5 0.679997 0.500000 0.987577
O O6 0.680113 0.717625 0.906101
O O7 0.750000 0.750000 0.000000
O O8 0.903158 0.756460 0.730899
O O9 0.030288 0.756910 0.743362
O O10 0.958488 0.000000 0.776812
O O11 0.457908 0.769229 0.380100
O O12 0.345944 0.774886 0.315984
O O13 0.430504 0.000000 0.310215
O O14 0.500000 0.757355 0.500000
O O15 0.413859 0.774486 0.608207
O O16 0.488384 0.000000 0.569034
O O17 0.709282 0.236526 0.325753
O O18 0.629363 0.000000 0.320063
O O19 0.730821 0.500000 0.833201
O O20 0.723501 0.773253 0.783134
O O21 0.265537 0.000000 0.297580
#
# Coordination Sequence:
#
# PCOD9172180 Si02
#       8
#     8   8   8   8   8   8   8   8
#     4  10  18  29  47  71 100 132 168 215 263 308
#     4   9  17  28  42  65  97 131 169 215 263 310
#     4  11  20  31  51  76 100 132 174 216 260 311
#     4   9  20  36  52  75 106 136 169 212 258 304
#     4   8  15  32  58  80  99 133 176 210 247 301
#     4  10  19  32  52  77 106 135 169 213 254 298
#     4   9  18  30  46  68  99 136 170 209 259 306
#     4  11  21  32  50  75 105 139 173 211 255 306
#
# _framework density 17.562799999999999
#
# number of rings (size 3 to 8) (size 9 to 14) (size 15 to 20)
#    0.000    2.375    1.250    4.125    0.000    3.500 
#    0.000    0.625    0.000   10.125    0.000    5.250 
#    0.000    0.000    0.000    0.000    0.000    0.000 
#
# Total GULP energy -178451.196969 kJ/mol
# GULP energy per Si atom -5576.599905 kJ/mol
# Density = 1.752283 g / cm^3
# Si number density = 17.562800 Si / 1000 Ang^3
#
#
#
# Elastic Constant Matrix: (Units=GPa)
#
#
# Indices 1 2 3 4 5 6 
#
# 1 103.9266 37.8749 49.9350 0.0000 -15.0261 0.0000
# 2 37.8749 50.0002 33.9173 0.0000 -7.0884 0.0000
# 3 49.9350 33.9173 107.7051 0.0000 -29.5906 0.0000
# 4 0.0000 0.0000 0.0000 16.0130 0.0000 -4.1871
# 5 -15.0261 -7.0884 -29.5906 0.0000 20.0846 0.0000
# 6 0.0000 0.0000 0.0000 -4.1871 0.0000 23.2360
#
#
#
# Elastic Compliance Matrix: (Units=1/GPa)
#
#
# Indices 1 2 3 4 5 6 
#
# 1 0.014762 -0.008497 -0.003289 0.000000 0.003199 0.000000
# 2 -0.008497 0.030596 -0.007519 0.000000 -0.006636 0.000000
# 3 -0.003289 -0.007519 0.019778 0.000000 0.024024 0.000000
# 4 0.000000 0.000000 0.000000 0.065537 0.000000 0.011810
# 5 0.003199 -0.006636 0.024024 0.000000 0.085235 0.000000
# 6 0.000000 0.000000 0.000000 0.011810 0.000000 0.045165
#
#
# Mechanical properties :
#
#
# Convention : Reuss Voigt Hill
#
# Bulk Modulus (GPa) = 37.70002 56.12068 46.91035
# Shear Modulus (GPa) = 16.20617 21.19370 18.69993
#
# Velocity S-wave (km/s) = 3.04098 3.47758 3.26659
# Velocity P-wave (km/s) = 5.81744 6.93891 6.40277
#
# Compressibility (1/GPa) = 0.02652518
#
# Stress axis : x y z
#
# Youngs Moduli (GPa) = 67.74216 32.68414 50.56245
#
# Poissons Ratio (x) = 0.27773 0.16631
# Poissons Ratio (y) = 0.57562 0.38016
# Poissons Ratio (z) = 0.22282 0.24574
#
# Static dielectric constant tensor:
#      x y z
#    x 1.599430 0.000000 -0.018800 
#    y 0.000000 1.588960 0.000000 
#    z -0.018800 0.000000 1.607760 
# 
# From -- ./inp_files/319182.got.cif
#   From: 2010.05.17/outbox.cif.g08.bks.cpg/sg12_160_cif.got.tgz:319182.got - 2010.06.03 13:09:07.
