data_PCOD9172401
_publ_section_title
;
Structure prediction by ZEFSAII (Michael W. Deem and Ramdas Pophale) SiO2 
 PCOD9172401
Probable space group: C 2/M
;
_chemical_formula_sum "Si O2"
_cell_formula_units_Z 48
_cell_length_a 9.190888
_cell_length_b 18.859294
_cell_length_c 32.380646
_cell_angle_alpha 90.000000
_cell_angle_beta 149.669863
_cell_angle_gamma 90.000000
_cell_volume 2834.288444
_symmetry_space_group_name_H-M "C 2/M"
_symmetry_group_IT_number 12
_symmetry_cell_setting 'monoclinic'
loop_
_space_group_symop_operation_xyz
x,y,z
-x,y,-z
-x,-y,-z
x,-y,z
1/2+x,1/2+y,z
1/2-x,1/2+y,-z
1/2-x,1/2-y,-z
1/2+x,1/2-y,z
loop_
_atom_site_type_symbol
_atom_site_label
_atom_site_fract_x
_atom_site_fract_y
_atom_site_fract_z
Si Si1 0.217033 0.676550 0.089910
Si Si2 0.003658 0.917798 0.280399
Si Si3 0.836529 0.298055 0.680030
Si Si4 0.133048 0.295874 0.161426
Si Si5 0.771394 0.820187 0.596235
Si Si6 0.241034 0.082817 0.246159
O O1 0.071016 0.686406 0.098720
O O2 0.381770 0.749749 0.119650
O O3 0.461096 0.616557 0.155439
O O4 0.000000 0.659927 0.000000
O O5 0.189432 0.886090 0.363141
O O6 0.174432 0.909922 0.278816
O O7 0.722696 0.867720 0.206895
O O8 0.933747 0.000000 0.268936
O O9 0.748894 0.248969 0.619892
O O10 0.562671 0.312835 0.641122
O O11 0.077296 0.252474 0.763917
O O12 0.991386 0.368937 0.701827
O O13 0.500000 0.826774 0.500000
O O14 0.278050 0.000000 0.245848
#
# Coordination Sequence:
#
# PCOD9172401 Si02
#       6
#     8   8   8   8   8   8
#     4  10  18  29  49  75 101 126 160 208 250 286
#     4   9  18  34  52  70  97 133 169 202 243 296
#     4  10  19  34  53  73  98 131 169 201 241 297
#     4   9  17  31  49  70  94 129 167 198 240 293
#     4  11  21  33  53  78 102 126 160 209 253 291
#     4   9  19  35  53  72  98 134 171 203 241 294
#
# _framework density 16.935468
#
# number of rings (size 3 to 8) (size 9 to 14) (size 15 to 20)
#    0.000    2.333    0.000    6.000    0.000    1.333 
#    0.000    0.000    0.000    3.000    0.000    0.000 
#    0.000    0.000    0.000    0.000    0.000    0.000 
#
# Total GULP energy -133891.466356 kJ/mol
# GULP energy per Si atom -5578.811098 kJ/mol
# Density = 1.689692 g / cm^3
# Si number density = 16.935468 Si / 1000 Ang^3
#
#
#
# Elastic Constant Matrix: (Units=GPa)
#
#
# Indices 1 2 3 4 5 6 
#
# 1 55.3113 43.7044 43.9633 -0.0005 -12.9247 -0.0011
# 2 43.7044 135.0914 38.5639 0.0003 -10.1877 0.0005
# 3 43.9633 38.5639 103.9211 0.0005 -31.1451 -0.0022
# 4 -0.0005 0.0003 0.0005 6.9744 -0.0025 -3.1825
# 5 -12.9247 -10.1877 -31.1451 -0.0025 22.5436 -0.0034
# 6 -0.0011 0.0005 -0.0022 -3.1825 -0.0034 25.0708
#
#
#
# Elastic Compliance Matrix: (Units=1/GPa)
#
#
# Indices 1 2 3 4 5 6 
#
# 1 0.032786 -0.007437 -0.011066 0.000004 0.000148 0.000001
# 2 -0.007437 0.009976 -0.000824 -0.000002 -0.000893 -0.000001
# 3 -0.011066 -0.000824 0.021498 0.000009 0.022984 0.000006
# 4 0.000004 -0.000002 0.000009 0.152197 0.000033 0.019320
# 5 0.000148 -0.000893 0.022984 0.000033 0.075793 0.000016
# 6 0.000001 -0.000001 0.000006 0.019320 0.000016 0.042339
#
#
# Mechanical properties :
#
#
# Convention : Reuss Voigt Hill
#
# Bulk Modulus (GPa) = 39.05114 60.75413 49.90264
# Shear Modulus (GPa) = 13.09666 22.12392 17.61029
#
# Velocity S-wave (km/s) = 2.78389 3.61829 3.22816
# Velocity P-wave (km/s) = 5.78293 7.30806 6.58977
#
# Compressibility (1/GPa) = 0.02560745
#
# Stress axis : x y z
#
# Youngs Moduli (GPa) = 30.50117 100.24011 46.51613
#
# Poissons Ratio (x) = 0.74545 0.51474
# Poissons Ratio (y) = 0.22683 0.03831
# Poissons Ratio (z) = 0.33752 0.08256
#
# Static dielectric constant tensor:
#      x y z
#    x 1.566490 0.000000 -0.011770 
#    y 0.000000 1.564440 0.000000 
#    z -0.011770 0.000000 1.558030 
# 
# From -- ./inp_files/195912.got.cif
#   From: 2010.05.17/outbox.cif.g08.bks.cpg/sg12_98_cif.got.tgz:195912.got - 2010.06.03 13:09:07.
