data_PCOD9172143
_publ_section_title
;
Structure prediction by ZEFSAII (Michael W. Deem and Ramdas Pophale) SiO2 
 PCOD9172143
Probable space group: C 2/M
;
_chemical_formula_sum "Si O2"
_cell_formula_units_Z 48
_cell_length_a 14.442093
_cell_length_b 23.561974
_cell_length_c 10.352440
_cell_angle_alpha 90.000000
_cell_angle_beta 113.236471
_cell_angle_gamma 90.000000
_cell_volume 3237.020184
_symmetry_space_group_name_H-M "C 2/M"
_symmetry_group_IT_number 12
_symmetry_cell_setting 'monoclinic'
loop_
_space_group_symop_operation_xyz
x,y,z
-x,y,-z
-x,-y,-z
x,-y,z
1/2+x,1/2+y,z
1/2-x,1/2+y,-z
1/2-x,1/2-y,-z
1/2+x,1/2-y,z
loop_
_atom_site_type_symbol
_atom_site_label
_atom_site_fract_x
_atom_site_fract_y
_atom_site_fract_z
Si Si1 0.625002 0.435302 0.716825
Si Si2 0.115865 0.759682 0.043640
Si Si3 0.695710 0.682062 0.833314
Si Si4 0.190348 0.820883 0.339149
Si Si5 0.114990 0.064672 0.402913
Si Si6 0.615270 0.251197 0.540370
O O1 0.651745 0.500000 0.767285
O O2 0.685172 0.385400 0.819287
O O3 0.505634 0.427376 0.677873
O O4 0.637011 0.429872 0.568277
O O5 0.191223 0.706042 0.090302
O O6 0.150857 0.801033 0.178580
O O7 0.133899 0.791671 0.918550
O O8 0.000000 0.744338 0.000000
O O9 0.650339 0.707695 0.676052
O O10 0.171975 0.886608 0.357184
O O11 0.306043 0.800732 0.416664
O O12 0.129681 0.785582 0.415294
O O13 0.139099 0.000000 0.377845
O O14 0.500000 0.234948 0.500000
#
# Coordination Sequence:
#
# PCOD9172143 Si02
#       6
#     8   8   8   8   8   8
#     4   9  16  27  46  68  90 118 148 183 226 267
#     4  10  20  31  45  66  94 124 149 181 226 267
#     4  10  19  31  46  66  94 122 148 184 224 269
#     4  10  19  29  46  70  91 119 152 184 226 268
#     4   9  16  27  45  68  93 117 144 185 229 266
#     4  10  18  29  47  68  92 118 150 189 224 267
#
# _framework density 14.828453
#
# number of rings (size 3 to 8) (size 9 to 14) (size 15 to 20)
#    0.000    2.333    1.667    4.000    0.000    0.000 
#    0.000    0.833    0.000    4.000    0.000    0.000 
#    0.000    0.000    0.000    0.000    0.000    0.000 
#
# Total GULP energy -133809.090752 kJ/mol
# GULP energy per Si atom -5575.378781 kJ/mol
# Density = 1.479470 g / cm^3
# Si number density = 14.828453 Si / 1000 Ang^3
#
#
#
# Elastic Constant Matrix: (Units=GPa)
#
#
# Indices 1 2 3 4 5 6 
#
# 1 99.1012 48.3613 8.9984 0.0000 1.8822 0.0000
# 2 48.3613 135.1209 23.4347 0.0000 3.6574 0.0000
# 3 8.9984 23.4347 28.7481 0.0000 -10.9785 0.0000
# 4 0.0000 0.0000 0.0000 17.8694 0.0000 -2.8135
# 5 1.8822 3.6574 -10.9785 0.0000 18.0146 0.0000
# 6 0.0000 0.0000 0.0000 -2.8135 0.0000 15.7395
#
#
#
# Elastic Compliance Matrix: (Units=1/GPa)
#
#
# Indices 1 2 3 4 5 6 
#
# 1 0.012237 -0.004235 -0.000701 0.000000 -0.000846 0.000000
# 2 -0.004235 0.011034 -0.010889 0.000000 -0.008434 0.000000
# 3 -0.000701 -0.010889 0.058327 0.000000 0.037830 0.000000
# 4 0.000000 0.000000 0.000000 0.057582 0.000000 0.010293
# 5 -0.000846 -0.008434 0.037830 0.000000 0.080365 0.000000
# 6 0.000000 0.000000 0.000000 0.010293 0.000000 0.065374
#
#
# Mechanical properties :
#
#
# Convention : Reuss Voigt Hill
#
# Bulk Modulus (GPa) = 20.02100 47.17321 33.59711
# Shear Modulus (GPa) = 15.00511 22.46976 18.73743
#
# Velocity S-wave (km/s) = 3.18451 3.89693 3.55859
# Velocity P-wave (km/s) = 5.20120 7.22009 6.29215
#
# Compressibility (1/GPa) = 0.04994755
#
# Stress axis : x y z
#
# Youngs Moduli (GPa) = 81.71758 90.63279 17.14462
#
# Poissons Ratio (x) = 0.38387 0.01201
# Poissons Ratio (y) = 0.34611 0.18669
# Poissons Ratio (z) = 0.05726 0.98692
#
# Static dielectric constant tensor:
#      x y z
#    x 1.484080 0.000000 -0.004160 
#    y 0.000000 1.482690 0.000000 
#    z -0.004160 0.000000 1.488680 
# 
# From -- ./inp_files/64847.got.cif
#   From: 2010.05.17/outbox.cif.g08.bks.cpg/sg12_33_cif.got.tgz:64847.got - 2010.06.03 13:09:07.
