data_PCOD9172881
_publ_section_title
;
Structure prediction by ZEFSAII (Michael W. Deem and Ramdas Pophale) SiO2 
 PCOD9172881
Probable space group: C 2/M
;
_chemical_formula_sum "Si O2"
_cell_formula_units_Z 34
_cell_length_a 13.385220
_cell_length_b 7.486221
_cell_length_c 12.131287
_cell_angle_alpha 90.000000
_cell_angle_beta 99.401727
_cell_angle_gamma 90.000000
_cell_volume 1199.283129
_symmetry_space_group_name_H-M "C 2/M"
_symmetry_group_IT_number 12
_symmetry_cell_setting 'monoclinic'
loop_
_space_group_symop_operation_xyz
x,y,z
-x,y,-z
-x,-y,-z
x,-y,z
1/2+x,1/2+y,z
1/2-x,1/2+y,-z
1/2-x,1/2-y,-z
1/2+x,1/2-y,z
loop_
_atom_site_type_symbol
_atom_site_label
_atom_site_fract_x
_atom_site_fract_y
_atom_site_fract_z
Si Si1 0.667230 0.293964 0.647741
Si Si2 0.492260 0.700130 0.830076
Si Si3 0.500000 0.000000 0.000000
Si Si4 0.726262 0.214367 0.122001
Si Si5 0.389418 0.282646 0.593678
O O1 0.635440 0.500000 0.648953
O O2 0.684970 0.232483 0.776392
O O3 0.607612 0.216975 0.531895
O O4 0.783713 0.287638 0.623660
O O5 0.534806 0.500000 0.849038
O O6 0.375380 0.693505 0.853235
O O7 0.476275 0.756969 0.699088
O O8 0.535854 0.845376 0.918965
O O9 0.704841 0.000000 0.129263
O O10 0.750000 0.250000 0.000000
O O11 0.383878 0.500000 0.590492
#
# Coordination Sequence:
#
# PCOD9172881 Si02
#       5
#     8   8   2   8   8
#     4   8  14  24  41  65  95 129 157 194 253 307
#     4  10  20  34  52  75 102 135 172 212 256 299
#     4  12  22  36  52  74 106 140 178 214 250 298
#     4  10  18  30  48  74 108 139 168 205 253 310
#     4   8  14  25  42  66  94 122 159 203 251 304
#
# _framework density 28.350269000000001
#
# number of rings (size 3 to 8) (size 9 to 14) (size 15 to 20)
#    0.000    2.824    1.176    1.059    1.647    0.941 
#    0.000    0.000    0.000    0.000    0.000    3.294 
#    0.000    9.412    0.000    0.000    0.000    0.000 
#
# Total GULP energy -94964.737919 kJ/mol
# GULP energy per Si atom -5586.161054 kJ/mol
# Density = 2.828574 g / cm^3
# Si number density = 28.350269 Si / 1000 Ang^3
#
#
#
# Elastic Constant Matrix: (Units=GPa)
#
#
# Indices 1 2 3 4 5 6 
#
# 1 85.1647 21.4276 38.5962 0.0000 4.0692 0.0000
# 2 21.4276 149.5502 59.6387 0.0000 1.0815 0.0000
# 3 38.5962 59.6387 301.1264 0.0000 -37.9660 0.0000
# 4 0.0000 0.0000 0.0000 7.5872 0.0000 16.4142
# 5 4.0692 1.0815 -37.9660 0.0000 60.8038 0.0000
# 6 0.0000 0.0000 0.0000 16.4142 0.0000 6.3623
#
#
#
# Elastic Compliance Matrix: (Units=1/GPa)
#
#
# Indices 1 2 3 4 5 6 
#
# 1 0.012876 -0.001171 -0.001655 0.000000 -0.001874 0.000000
# 2 -0.001171 0.007437 -0.001443 0.000000 -0.000955 0.000000
# 3 -0.001655 -0.001443 0.004164 0.000000 0.002736 0.000000
# 4 0.000000 0.000000 0.000000 -0.028769 0.000000 0.074221
# 5 -0.001874 -0.000955 0.002736 0.000000 0.018297 0.000000
# 6 0.000000 0.000000 0.000000 0.074221 0.000000 -0.034307
#
#
# Mechanical properties :
#
#
# Convention : Reuss Voigt Hill
#
# Bulk Modulus (GPa) = 62.74198 86.12956 74.43577
# Shear Modulus (GPa) = -775.11711 42.69593 -366.21059
#
# Velocity S-wave (km/s) = -16.55297 3.88495 -11.37779
# Velocity P-wave (km/s) = 18.52446 7.11128 12.09515
#
# Compressibility (1/GPa) = 0.01593829
#
# Stress axis : x y z
#
# Youngs Moduli (GPa) = 77.66316 134.46297 240.16804
#
# Poissons Ratio (x) = 0.15752 0.39739
# Poissons Ratio (y) = 0.09098 0.34660
# Poissons Ratio (z) = 0.12850 0.19405
#
# Static dielectric constant tensor:
#      x y z
#    x 2.434600 0.000000 0.087330 
#    y 0.000000 1.886280 0.000000 
#    z 0.087330 0.000000 2.285850 
# 
# From -- ./inp_files/151360.got.cif
#   From: 2010.05.17/outbox.cif.g08.bks.cpg/sg12_76_cif.got.tgz:151360.got - 2010.06.03 13:09:07.
