data_PCOD9172248
_publ_section_title
;
Structure prediction by ZEFSAII (Michael W. Deem and Ramdas Pophale) SiO2 
 PCOD9172248
Probable space group: C 2/M
;
_chemical_formula_sum "Si O2"
_cell_formula_units_Z 56
_cell_length_a 23.592299
_cell_length_b 17.474082
_cell_length_c 8.345903
_cell_angle_alpha 90.000000
_cell_angle_beta 69.781549
_cell_angle_gamma 90.000000
_cell_volume 3228.624451
_symmetry_space_group_name_H-M "C 2/M"
_symmetry_group_IT_number 12
_symmetry_cell_setting 'monoclinic'
loop_
_space_group_symop_operation_xyz
x,y,z
-x,y,-z
-x,-y,-z
x,-y,z
1/2+x,1/2+y,z
1/2-x,1/2+y,-z
1/2-x,1/2-y,-z
1/2+x,1/2-y,z
loop_
_atom_site_type_symbol
_atom_site_label
_atom_site_fract_x
_atom_site_fract_y
_atom_site_fract_z
Si Si1 0.793542 0.122383 0.028086
Si Si2 0.313458 0.353607 0.670875
Si Si3 0.068527 0.587141 0.478503
Si Si4 0.846128 0.585741 0.915333
Si Si5 0.231690 0.084720 0.606606
Si Si6 0.681076 0.216932 0.852773
Si Si7 0.156138 0.295894 0.522529
O O1 0.826453 0.104360 0.827010
O O2 0.722622 0.101630 0.075616
O O3 0.806123 0.087827 0.191279
O O4 0.807176 0.211880 0.043727
O O5 0.308363 0.402344 0.513257
O O6 0.244986 0.324350 0.763677
O O7 0.347684 0.274281 0.598199
O O8 0.069686 0.500000 0.540238
O O9 0.109781 0.588921 0.278653
O O10 0.100050 0.647493 0.563148
O O11 0.000000 0.605833 0.500000
O O12 0.847988 0.500000 0.982759
O O13 0.860404 0.652798 0.025688
O O14 0.283191 0.151655 0.562656
O O15 0.260610 0.000000 0.568543
O O16 0.660214 0.239116 0.696078
#
# Coordination Sequence:
#
# PCOD9172248 Si02
#       7
#     8   8   8   8   8   8   8
#     4  11  18  30  47  67  95 130 159 195 237 285
#     4  10  19  30  47  68  98 128 165 193 234 289
#     4  10  20  33  48  66  91 126 169 213 249 277
#     4  10  19  30  45  67  94 128 167 198 235 286
#     4  11  20  29  44  70 100 127 161 193 228 286
#     4  10  18  29  48  67  90 122 164 197 238 287
#     4  11  18  32  48  66  92 130 166 199 239 286
#
# _framework density 17.344849
#
# number of rings (size 3 to 8) (size 9 to 14) (size 15 to 20)
#    0.000    1.571    4.286    4.286    0.000    6.286 
#    0.000    0.714    0.000    2.571    0.000    0.000 
#    0.000    0.571    0.000    5.143    0.000    7.143 
#
# Total GULP energy -155912.303887 kJ/mol
# GULP energy per Si atom -5568.296567 kJ/mol
# Density = 1.730537 g / cm^3
# Si number density = 17.344849 Si / 1000 Ang^3
#
#
#
# Elastic Constant Matrix: (Units=GPa)
#
#
# Indices 1 2 3 4 5 6 
#
# 1 39.0526 17.5804 18.8010 0.0000 2.8866 0.0000
# 2 17.5804 68.8832 23.7878 0.0000 0.4255 0.0000
# 3 18.8010 23.7878 78.6034 0.0000 27.4738 0.0000
# 4 0.0000 0.0000 0.0000 16.3401 0.0000 2.7833
# 5 2.8866 0.4255 27.4738 0.0000 19.5527 0.0000
# 6 0.0000 0.0000 0.0000 2.7833 0.0000 17.1995
#
#
#
# Elastic Compliance Matrix: (Units=1/GPa)
#
#
# Indices 1 2 3 4 5 6 
#
# 1 0.031506 -0.005098 -0.008659 0.000000 0.007626 0.000000
# 2 -0.005098 0.018866 -0.009058 0.000000 0.013070 0.000000
# 3 -0.008659 -0.009058 0.033444 0.000000 -0.045517 0.000000
# 4 0.000000 0.000000 0.000000 0.062934 0.000000 -0.010184
# 5 0.007626 0.013070 -0.045517 0.000000 0.113690 0.000000
# 6 0.000000 0.000000 0.000000 -0.010184 0.000000 0.059789
#
#
# Mechanical properties :
#
#
# Convention : Reuss Voigt Hill
#
# Bulk Modulus (GPa) = 26.18755 34.09750 30.14252
# Shear Modulus (GPa) = 13.20699 19.04314 16.12506
#
# Velocity S-wave (km/s) = 2.76241 3.31707 3.05236
# Velocity P-wave (km/s) = 5.03045 5.86275 5.46248
#
# Compressibility (1/GPa) = 0.03818609
#
# Stress axis : x y z
#
# Youngs Moduli (GPa) = 31.73974 53.00578 29.90096
#
# Poissons Ratio (x) = 0.27022 0.25890
# Poissons Ratio (y) = 0.16181 0.27085
# Poissons Ratio (z) = 0.27482 0.48014
#
# Static dielectric constant tensor:
#      x y z
#    x 1.576230 0.000000 0.064770 
#    y 0.000000 1.646340 0.000000 
#    z 0.064770 0.000000 1.674170 
# 
# From -- ./inp_files/97320.got.cif
#   From: 2010.05.17/outbox.cif.g08.bks.cpg/sg12_49_cif.got.tgz:97320.got - 2010.06.03 13:09:07.
