data_PCOD9172463
_publ_section_title
;
Structure prediction by ZEFSAII (Michael W. Deem and Ramdas Pophale) SiO2 
 PCOD9172463
Probable space group: C 2/M
;
_chemical_formula_sum "Si O2"
_cell_formula_units_Z 60
_cell_length_a 14.850746
_cell_length_b 16.801976
_cell_length_c 22.046401
_cell_angle_alpha 90.000000
_cell_angle_beta 145.436771
_cell_angle_gamma 90.000000
_cell_volume 3120.835480
_symmetry_space_group_name_H-M "C 2/M"
_symmetry_group_IT_number 12
_symmetry_cell_setting 'monoclinic'
loop_
_space_group_symop_operation_xyz
x,y,z
-x,y,-z
-x,-y,-z
x,-y,z
1/2+x,1/2+y,z
1/2-x,1/2+y,-z
1/2-x,1/2-y,-z
1/2+x,1/2-y,z
loop_
_atom_site_type_symbol
_atom_site_label
_atom_site_fract_x
_atom_site_fract_y
_atom_site_fract_z
Si Si1 0.993741 0.708182 0.321782
Si Si2 0.000000 0.858508 0.500000
Si Si3 0.984781 0.244455 0.870151
Si Si4 0.837585 0.366954 0.884502
Si Si5 0.262257 0.276633 0.642844
Si Si6 0.232901 0.280881 0.903222
Si Si7 0.027157 0.116589 0.647672
Si Si8 0.181867 0.590831 0.512231
O O1 0.110001 0.746848 0.336029
O O2 0.078336 0.639067 0.405572
O O3 0.842156 0.680553 0.198456
O O4 0.962455 0.785897 0.345707
O O5 0.851007 0.799015 0.416321
O O6 0.988613 0.906260 0.431171
O O7 0.902907 0.309378 0.867460
O O8 0.850923 0.204894 0.754686
O O9 0.106754 0.282153 0.888195
O O10 0.098434 0.192167 0.976437
O O11 0.766133 0.309896 0.898060
O O12 0.686042 0.410109 0.770997
O O13 0.000000 0.406372 0.000000
O O14 0.179161 0.354492 0.570373
O O15 0.865364 0.092372 0.591207
O O16 0.131995 0.500000 0.492505
#
# Coordination Sequence:
#
# PCOD9172463 Si02
#       8
#     8   4   8   8   8   8   8   8
#     4   9  16  32  48  67  92 126 167 200 236 288
#     4  12  16  26  52  76  96 118 158 198 246 298
#     4   9  15  26  43  71  98 121 151 209 251 281
#     4   9  16  26  44  73 101 123 154 206 255 286
#     4  10  18  29  50  71  94 125 160 201 247 291
#     4   8  16  25  42  69  97 120 157 200 250 292
#     4  10  18  30  50  72  95 127 163 201 242 293
#     4  11  21  34  48  67  99 135 169 199 239 293
#
# _framework density 19.225621
#
# number of rings (size 3 to 8) (size 9 to 14) (size 15 to 20)
#    0.000    2.400    4.000    1.600    0.000    0.000 
#    0.000    0.667    0.000    1.200    0.000    0.000 
#    0.000    7.733    0.000    0.000    0.000    0.000 
#
# Total GULP energy -167062.906101 kJ/mol
# GULP energy per Si atom -5568.763537 kJ/mol
# Density = 1.918186 g / cm^3
# Si number density = 19.225621 Si / 1000 Ang^3
#
#
#
# Elastic Constant Matrix: (Units=GPa)
#
#
# Indices 1 2 3 4 5 6 
#
# 1 57.8339 6.3984 10.6353 0.0002 -7.6947 0.0000
# 2 6.3984 80.5090 32.3010 0.0005 -4.3841 0.0001
# 3 10.6353 32.3010 169.1837 0.0013 -2.9275 0.0005
# 4 0.0002 0.0005 0.0013 -8.9645 0.0004 2.3641
# 5 -7.6947 -4.3841 -2.9275 0.0004 30.5277 0.0001
# 6 0.0000 0.0001 0.0005 2.3641 0.0001 1.8840
#
#
#
# Elastic Compliance Matrix: (Units=1/GPa)
#
#
# Indices 1 2 3 4 5 6 
#
# 1 0.018131 -0.000841 -0.000904 0.000000 0.004363 0.000000
# 2 -0.000841 0.013578 -0.002514 0.000000 0.001497 -0.000001
# 3 -0.000904 -0.002514 0.006448 0.000000 0.000030 -0.000002
# 4 0.000000 0.000000 0.000000 -0.083814 0.000001 0.105175
# 5 0.004363 0.001497 0.000030 0.000001 0.034074 -0.000003
# 6 0.000000 -0.000001 -0.000002 0.105175 -0.000003 0.398814
#
#
# Mechanical properties :
#
#
# Convention : Reuss Voigt Hill
#
# Bulk Modulus (GPa) = 33.73802 45.13290 39.43546
# Shear Modulus (GPa) = 12.32659 21.90223 17.11441
#
# Velocity S-wave (km/s) = 2.53485 3.37890 2.98684
# Velocity P-wave (km/s) = 5.11408 6.22487 5.69661
#
# Compressibility (1/GPa) = 0.02964015
#
# Stress axis : x y z
#
# Youngs Moduli (GPa) = 55.15557 73.64987 155.08807
#
# Poissons Ratio (x) = 0.06192 0.14016
# Poissons Ratio (y) = 0.04637 0.38982
# Poissons Ratio (z) = 0.04985 0.18512
#
# Static dielectric constant tensor:
#      x y z
#    x 1.727790 0.000000 0.017350 
#    y 0.000000 1.616820 0.000000 
#    z 0.017350 0.000000 1.759720 
# 
# From -- ./inp_files/311360.got.cif
#   From: 2010.05.17/outbox.cif.g08.bks.cpg/sg12_156_cif.got.tgz:311360.got - 2010.06.03 13:09:07.
