data_PCOD9172155
_publ_section_title
;
Structure prediction by ZEFSAII (Michael W. Deem and Ramdas Pophale) SiO2 
 PCOD9172155
Probable space group: C 2/M
;
_chemical_formula_sum "Si O2"
_cell_formula_units_Z 64
_cell_length_a 19.613500
_cell_length_b 7.591891
_cell_length_c 18.833202
_cell_angle_alpha 90.000000
_cell_angle_beta 92.832626
_cell_angle_gamma 90.000000
_cell_volume 2800.904267
_symmetry_space_group_name_H-M "C 2/M"
_symmetry_group_IT_number 12
_symmetry_cell_setting 'monoclinic'
loop_
_space_group_symop_operation_xyz
x,y,z
-x,y,-z
-x,-y,-z
x,-y,z
1/2+x,1/2+y,z
1/2-x,1/2+y,-z
1/2-x,1/2-y,-z
1/2+x,1/2-y,z
loop_
_atom_site_type_symbol
_atom_site_label
_atom_site_fract_x
_atom_site_fract_y
_atom_site_fract_z
Si Si1 0.847300 0.785309 0.543777
Si Si2 0.986148 0.798740 0.192729
Si Si3 0.235624 0.797074 0.253131
Si Si4 0.088640 0.708087 0.075846
Si Si5 0.259766 0.200135 0.900805
Si Si6 0.300297 0.296430 0.396930
Si Si7 0.615248 0.714294 0.923359
Si Si8 0.909996 0.215245 0.688338
O O1 0.775244 0.719664 0.571876
O O2 0.849751 0.726660 0.461883
O O3 0.903423 0.734026 0.605223
O O4 0.156166 0.000000 0.457108
O O5 0.040243 0.798828 0.130329
O O6 0.026150 0.720474 0.262063
O O7 0.920381 0.719012 0.150497
O O8 0.968912 0.000000 0.211172
O O9 0.256212 0.697184 0.183842
O O10 0.289913 0.787487 0.319753
O O11 0.161721 0.732017 0.278095
O O12 0.226741 0.000000 0.232838
O O13 0.087034 0.500000 0.092941
O O14 0.165625 0.781157 0.088513
O O15 0.074961 0.731477 0.991708
O O16 0.192934 0.279908 0.933006
O O17 0.265802 0.000000 0.926768
O O18 0.316865 0.500000 0.385811
O O19 0.615809 0.500000 0.920846
O O20 0.910899 0.000000 0.690613
#
# Coordination Sequence:
#
# PCOD9172155 Si02
#       8
#     8   8   8   8   8   8   8   8
#     4   8  14  24  38  61  93 127 160 194 236 284
#     4  10  19  34  54  74  97 129 164 198 239 289
#     4  10  18  29  47  69  94 126 162 199 239 289
#     4  11  22  35  53  74  98 125 158 203 248 291
#     4  10  21  36  51  72  98 126 162 203 246 288
#     4   9  15  23  38  62  95 128 156 194 240 284
#     4  10  22  37  53  72  97 128 163 200 241 293
#     4   8  14  26  45  68  92 120 158 196 232 278
#
# _framework density 22.849764
#
# number of rings (size 3 to 8) (size 9 to 14) (size 15 to 20)
#    0.000    2.500    1.250    2.625    0.000    3.500 
#    0.000    0.000    0.000    0.000    0.000    0.875 
#    0.000    7.000    0.000    0.000    0.000    0.000 
#
# Total GULP energy -178504.273602 kJ/mol
# GULP energy per Si atom -5578.258550 kJ/mol
# Density = 2.279776 g / cm^3
# Si number density = 22.849764 Si / 1000 Ang^3
#
#
#
# Elastic Constant Matrix: (Units=GPa)
#
#
# Indices 1 2 3 4 5 6 
#
# 1 47.1605 0.9383 -3.8140 0.0000 16.4257 0.0000
# 2 0.9383 65.9567 7.3418 0.0000 2.2146 0.0000
# 3 -3.8140 7.3418 117.8831 0.0000 34.3275 0.0000
# 4 0.0000 0.0000 0.0000 19.7559 0.0000 2.2420
# 5 16.4257 2.2146 34.3275 0.0000 29.5143 0.0000
# 6 0.0000 0.0000 0.0000 2.2420 0.0000 2.7576
#
#
#
# Elastic Compliance Matrix: (Units=1/GPa)
#
#
# Indices 1 2 3 4 5 6 
#
# 1 0.031987 -0.000541 0.009437 0.000000 -0.028737 0.000000
# 2 -0.000541 0.015277 -0.001093 0.000000 0.000426 0.000000
# 3 0.009437 -0.001093 0.015669 0.000000 -0.023394 0.000000
# 4 0.000000 0.000000 0.000000 0.055763 0.000000 -0.045336
# 5 -0.028737 0.000426 -0.023394 0.000000 0.077052 0.000000
# 6 0.000000 0.000000 0.000000 -0.045336 0.000000 0.399499
#
#
# Mechanical properties :
#
#
# Convention : Reuss Voigt Hill
#
# Bulk Modulus (GPa) = 12.73256 26.65916 19.69586
# Shear Modulus (GPa) = 8.25329 25.50783 16.88056
#
# Velocity S-wave (km/s) = 1.90258 3.34477 2.72097
# Velocity P-wave (km/s) = 3.22658 5.15841 4.30232
#
# Compressibility (1/GPa) = 0.07853880
#
# Stress axis : x y z
#
# Youngs Moduli (GPa) = 31.26264 65.46000 63.82196
#
# Poissons Ratio (x) = 0.03539 -0.60227
# Poissons Ratio (y) = 0.01690 0.06975
# Poissons Ratio (z) = -0.29502 0.07154
#
# Static dielectric constant tensor:
#      x y z
#    x 1.855400 0.000000 0.059860 
#    y 0.000000 1.824780 0.000000 
#    z 0.059860 0.000000 1.899300 
# 
# From -- ./inp_files/319267.got.cif
#   From: 2010.05.17/outbox.cif.g08.bks.cpg/sg12_160_cif.got.tgz:319267.got - 2010.06.03 13:09:07.
