data_PCOD9172695
_publ_section_title
;
Structure prediction by ZEFSAII (Michael W. Deem and Ramdas Pophale) SiO2 
 PCOD9172695
Probable space group: C 2/M
;
_chemical_formula_sum "Si O2"
_cell_formula_units_Z 64
_cell_length_a 5.340952
_cell_length_b 26.270974
_cell_length_c 25.272277
_cell_angle_alpha 90.000000
_cell_angle_beta 106.896052
_cell_angle_gamma 90.000000
_cell_volume 3392.935829
_symmetry_space_group_name_H-M "C 2/M"
_symmetry_group_IT_number 12
_symmetry_cell_setting 'monoclinic'
loop_
_space_group_symop_operation_xyz
x,y,z
-x,y,-z
-x,-y,-z
x,-y,z
1/2+x,1/2+y,z
1/2-x,1/2+y,-z
1/2-x,1/2-y,-z
1/2+x,1/2-y,z
loop_
_atom_site_type_symbol
_atom_site_label
_atom_site_fract_x
_atom_site_fract_y
_atom_site_fract_z
Si Si1 0.798803 0.606097 0.535141
Si Si2 0.148288 0.170203 0.762560
Si Si3 0.008355 0.575215 0.656431
Si Si4 0.404857 0.554547 0.278113
Si Si5 0.081415 0.722403 0.425309
Si Si6 0.978648 0.194219 0.935833
Si Si7 0.562988 0.190912 0.697308
Si Si8 0.583836 0.809597 0.109709
O O1 0.500000 0.597273 0.500000
O O2 0.830506 0.665707 0.553630
O O3 0.000000 0.596765 0.500000
O O4 0.884947 0.572697 0.590826
O O5 0.129710 0.108437 0.754681
O O6 0.345312 0.191524 0.729881
O O7 0.265089 0.184748 0.826311
O O8 0.858933 0.193534 0.737196
O O9 0.302054 0.554932 0.680118
O O10 0.040941 0.634452 0.671990
O O11 0.807765 0.555376 0.688039
O O12 0.373294 0.500000 0.247008
O O13 0.329109 0.759882 0.442749
O O14 0.996176 0.724046 0.358028
O O15 0.705951 0.167412 0.905225
O O16 0.968663 0.250492 0.908900
O O17 0.232868 0.169173 0.925580
O O18 0.000000 0.199948 0.000000
#
# Coordination Sequence:
#
# PCOD9172695 Si02
#       8
#     8   8   8   8   8   8   8   8
#     4  11  22  36  56  74  94 128 163 206 259 298
#     4  10  19  33  50  73 105 126 166 208 251 306
#     4   9  19  35  55  73  99 125 165 191 236 314
#     4  10  19  34  58  80  99 131 160 195 246 311
#     4  11  22  36  48  70  97 127 172 208 244 297
#     4  10  19  33  48  67 100 140 183 217 239 280
#     4   9  19  35  47  65  95 138 160 199 244 299
#     4  10  18  30  46  70  98 132 169 215 252 278
#
# _framework density 18.862721000000001
#
# number of rings (size 3 to 8) (size 9 to 14) (size 15 to 20)
#    0.000    2.000    0.000    5.250    0.000    5.500 
#   13.500    0.000    0.000    7.500    0.000    0.000 
#    0.000    5.500    0.000    0.000    0.000    0.000 
#
# Total GULP energy -178586.220511 kJ/mol
# GULP energy per Si atom -5580.819391 kJ/mol
# Density = 1.881979 g / cm^3
# Si number density = 18.862721 Si / 1000 Ang^3
#
#
#
# Elastic Constant Matrix: (Units=GPa)
#
#
# Indices 1 2 3 4 5 6 
#
# 1 128.7454 -2.4125 -2.8861 0.0000 12.1369 0.0000
# 2 -2.4125 51.7051 4.2253 0.0000 6.1248 0.0000
# 3 -2.8861 4.2253 72.4561 0.0000 12.8840 0.0000
# 4 0.0000 0.0000 0.0000 9.5649 0.0000 4.1484
# 5 12.1369 6.1248 12.8840 0.0000 26.8494 0.0000
# 6 0.0000 0.0000 0.0000 4.1484 0.0000 -5.6855
#
#
#
# Elastic Compliance Matrix: (Units=1/GPa)
#
#
# Indices 1 2 3 4 5 6 
#
# 1 0.008223 0.000820 0.001065 0.000000 -0.004415 0.000000
# 2 0.000820 0.019969 -0.000280 0.000000 -0.004791 0.000000
# 3 0.001065 -0.000280 0.015234 0.000000 -0.007728 0.000000
# 4 0.000000 0.000000 0.000000 0.079417 0.000000 0.057946
# 5 -0.004415 -0.004791 -0.007728 0.000000 0.044042 0.000000
# 6 0.000000 0.000000 0.000000 0.057946 0.000000 -0.133604
#
#
# Mechanical properties :
#
#
# Convention : Reuss Voigt Hill
#
# Bulk Modulus (GPa) = 21.44302 27.86224 24.65263
# Shear Modulus (GPa) = 109.60936 23.07774 66.34355
#
# Velocity S-wave (km/s) = 7.63120 3.50159 5.93701
# Velocity P-wave (km/s) = 9.43607 5.58134 7.75212
#
# Compressibility (1/GPa) = 0.04663523
#
# Stress axis : x y z
#
# Youngs Moduli (GPa) = 121.61479 50.07730 65.64117
#
# Poissons Ratio (x) = -0.04104 -0.06989
# Poissons Ratio (y) = -0.09968 0.01837
# Poissons Ratio (z) = -0.12949 0.01401
#
# Static dielectric constant tensor:
#      x y z
#    x 1.709270 0.000000 0.002250 
#    y 0.000000 1.768220 0.000000 
#    z 0.002250 0.000000 1.644540 
# 
# From -- ./inp_files/298533.got.cif
#   From: 2010.05.17/outbox.cif.g08.bks.cpg/sg12_150_cif.got.tgz:298533.got - 2010.06.03 13:09:07.
