data_PCOD9172024
_publ_section_title
;
Structure prediction by ZEFSAII (Michael W. Deem and Ramdas Pophale) SiO2 
 PCOD9172024
Probable space group: C 2/M
;
_chemical_formula_sum "Si O2"
_cell_formula_units_Z 64
_cell_length_a 27.499369
_cell_length_b 12.162070
_cell_length_c 15.489999
_cell_angle_alpha 90.000000
_cell_angle_beta 133.791489
_cell_angle_gamma 90.000000
_cell_volume 3739.697034
_symmetry_space_group_name_H-M "C 2/M"
_symmetry_group_IT_number 12
_symmetry_cell_setting 'monoclinic'
loop_
_space_group_symop_operation_xyz
x,y,z
-x,y,-z
-x,-y,-z
x,-y,z
1/2+x,1/2+y,z
1/2-x,1/2+y,-z
1/2-x,1/2-y,-z
1/2+x,1/2-y,z
loop_
_atom_site_type_symbol
_atom_site_label
_atom_site_fract_x
_atom_site_fract_y
_atom_site_fract_z
Si Si1 0.533239 0.230213 0.821886
Si Si2 0.753622 0.771570 0.138846
Si Si3 0.779422 0.129342 0.356766
Si Si4 0.132655 0.128690 0.060610
Si Si5 0.658430 0.868983 0.877012
Si Si6 0.336986 0.719675 0.714791
Si Si7 0.098312 0.873452 0.373384
Si Si8 0.958972 0.377465 0.871557
O O1 0.587759 0.182747 0.822517
O O2 0.467566 0.296086 0.708122
O O3 0.504700 0.130249 0.843757
O O4 0.572230 0.308800 0.937842
O O5 0.772933 0.839108 0.248078
O O6 0.699803 0.679300 0.101183
O O7 0.814073 0.705803 0.167633
O O8 0.713816 0.847632 0.021080
O O9 0.732989 0.218095 0.351148
O O10 0.854980 0.141079 0.485444
O O11 0.759693 0.000000 0.345418
O O12 0.140388 0.153394 0.171957
O O13 0.873317 0.000000 0.961300
O O14 0.653675 0.000000 0.854012
O O15 0.351240 0.650652 0.645838
O O16 0.390471 0.816786 0.771278
O O17 0.076206 0.000000 0.340000
O O18 0.943082 0.500000 0.879172
O O19 0.000000 0.323212 0.000000
#
# Coordination Sequence:
#
# PCOD9172024 Si02
#       8
#     8   8   8   8   8   8   8   8
#     4  10  20  33  49  76 104 139 174 212 255 305
#     4   9  20  34  54  82 105 129 166 212 263 315
#     4  10  20  36  55  76 103 138 175 214 256 302
#     4  10  18  30  49  74 105 135 167 208 257 306
#     4  10  19  35  58  81 105 131 164 214 271 317
#     4  10  19  32  50  77 103 136 176 214 254 301
#     4  10  21  35  52  73 105 144 179 213 251 300
#     4  10  18  29  45  71 104 134 166 206 254 306
#
# _framework density 17.113685
#
# number of rings (size 3 to 8) (size 9 to 14) (size 15 to 20)
#    0.000    2.125    1.250    2.625    0.000    0.000 
#    0.000    4.375    0.000   17.250    0.000    0.000 
#    0.000    0.000    0.000    0.000    0.000    0.000 
#
# Total GULP energy -178226.870128 kJ/mol
# GULP energy per Si atom -5569.589692 kJ/mol
# Density = 1.707473 g / cm^3
# Si number density = 17.113685 Si / 1000 Ang^3
#
#
#
# Elastic Constant Matrix: (Units=GPa)
#
#
# Indices 1 2 3 4 5 6 
#
# 1 70.6434 9.1243 17.0757 0.0000 9.3687 0.0000
# 2 9.1243 78.5442 17.8363 0.0000 9.6360 0.0000
# 3 17.0757 17.8363 62.6742 0.0000 8.9159 0.0000
# 4 0.0000 0.0000 0.0000 17.8240 0.0000 -3.9827
# 5 9.3687 9.6360 8.9159 0.0000 16.0529 0.0000
# 6 0.0000 0.0000 0.0000 -3.9827 0.0000 9.3015
#
#
#
# Elastic Compliance Matrix: (Units=1/GPa)
#
#
# Indices 1 2 3 4 5 6 
#
# 1 0.015944 -0.000212 -0.003233 0.000000 -0.007382 0.000000
# 2 -0.000212 0.014276 -0.003044 0.000000 -0.006755 0.000000
# 3 -0.003233 -0.003044 0.018648 0.000000 -0.006643 0.000000
# 4 0.000000 0.000000 0.000000 0.062040 0.000000 0.026564
# 5 -0.007382 -0.006755 -0.006643 0.000000 0.074346 0.000000
# 6 0.000000 0.000000 0.000000 0.026564 0.000000 0.118884
#
#
# Mechanical properties :
#
#
# Convention : Reuss Voigt Hill
#
# Bulk Modulus (GPa) = 27.86434 33.32605 30.59520
# Shear Modulus (GPa) = 15.19391 19.82405 17.50898
#
# Velocity S-wave (km/s) = 2.98287 3.40718 3.20206
# Velocity P-wave (km/s) = 5.30854 5.91558 5.62026
#
# Compressibility (1/GPa) = 0.03588816
#
# Stress axis : x y z
#
# Youngs Moduli (GPa) = 62.72137 70.04602 53.62575
#
# Poissons Ratio (x) = 0.01487 0.17339
# Poissons Ratio (y) = 0.01331 0.16324
# Poissons Ratio (z) = 0.20280 0.21323
#
# Static dielectric constant tensor:
#      x y z
#    x 1.600790 0.000000 -0.022410 
#    y 0.000000 1.574700 0.000000 
#    z -0.022410 0.000000 1.585620 
# 
# From -- ./inp_files/245961.got.cif
#   From: 2010.05.17/outbox.cif.g08.bks.cpg/sg12_123_cif.got.tgz:245961.got - 2010.06.03 13:09:07.
