data_PCOD9172103
_publ_section_title
;
Structure prediction by ZEFSAII (Michael W. Deem and Ramdas Pophale) SiO2 
 PCOD9172103
Probable space group: C 2/M
;
_chemical_formula_sum "Si O2"
_cell_formula_units_Z 40
_cell_length_a 11.938086
_cell_length_b 25.192460
_cell_length_c 8.872972
_cell_angle_alpha 90.000000
_cell_angle_beta 41.604245
_cell_angle_gamma 90.000000
_cell_volume 1771.864251
_symmetry_space_group_name_H-M "C 2/M"
_symmetry_group_IT_number 12
_symmetry_cell_setting 'monoclinic'
loop_
_space_group_symop_operation_xyz
x,y,z
-x,y,-z
-x,-y,-z
x,-y,z
1/2+x,1/2+y,z
1/2-x,1/2+y,-z
1/2-x,1/2-y,-z
1/2+x,1/2-y,z
loop_
_atom_site_type_symbol
_atom_site_label
_atom_site_fract_x
_atom_site_fract_y
_atom_site_fract_z
Si Si1 0.243550 0.561482 0.612671
Si Si2 0.340203 0.667774 0.371879
Si Si3 0.502291 0.227857 0.817090
Si Si4 0.824391 0.344788 0.769452
Si Si5 0.658977 0.060376 0.043003
O O1 0.294832 0.500000 0.531462
O O2 0.347936 0.608240 0.428159
O O3 0.045495 0.566526 0.764035
O O4 0.237382 0.569623 0.799125
O O5 0.479918 0.712113 0.261968
O O6 0.171377 0.694456 0.609674
O O7 0.308808 0.667913 0.224676
O O8 0.360798 0.197852 0.863005
O O9 0.500000 0.226291 0.000000
O O10 0.778201 0.398735 0.898432
O O11 0.000000 0.351306 0.500000
O O12 0.692876 0.000000 0.051625
#
# Coordination Sequence:
#
# PCOD9172103 Si02
#       5
#     8   8   8   8   8
#     4   9  16  28  47  69  96 128 156 185 237 295
#     4  10  20  32  49  73  96 127 162 195 238 279
#     4  10  20  34  49  65  98 131 161 198 235 279
#     4  10  18  29  46  71 101 124 159 195 232 282
#     4   9  16  26  45  71 100 130 148 180 244 300
#
# _framework density 22.575092999999999
#
# number of rings (size 3 to 8) (size 9 to 14) (size 15 to 20)
#    0.000    2.400    4.000    2.400    0.000    2.000 
#    0.000    4.000    0.000    0.600    0.000    0.000 
#    0.000   24.800    0.000    0.000    0.000    0.000 
#
# Total GULP energy -111783.754596 kJ/mol
# GULP energy per Si atom -5589.187730 kJ/mol
# Density = 2.252371 g / cm^3
# Si number density = 22.575093 Si / 1000 Ang^3
#
#
#
# Elastic Constant Matrix: (Units=GPa)
#
#
# Indices 1 2 3 4 5 6 
#
# 1 44.5244 55.2916 47.2245 0.0000 6.6525 0.0000
# 2 55.2916 177.1862 78.6391 0.0000 29.3037 0.0000
# 3 47.2245 78.6391 84.2047 0.0000 14.1409 0.0000
# 4 0.0000 0.0000 0.0000 37.0346 0.0000 17.5033
# 5 6.6525 29.3037 14.1409 0.0000 27.5729 0.0000
# 6 0.0000 0.0000 0.0000 17.5033 0.0000 -3.5161
#
#
#
# Elastic Compliance Matrix: (Units=1/GPa)
#
#
# Indices 1 2 3 4 5 6 
#
# 1 0.060855 -0.007817 -0.028186 0.000000 0.008080 0.000000
# 2 -0.007817 0.011704 -0.005224 0.000000 -0.007873 0.000000
# 3 -0.028186 -0.005224 0.033361 0.000000 -0.004757 0.000000
# 4 0.000000 0.000000 0.000000 0.008054 0.000000 0.040092
# 5 0.008080 -0.007873 -0.004757 0.000000 0.045125 0.000000
# 6 0.000000 0.000000 0.000000 0.040092 0.000000 -0.084828
#
#
# Mechanical properties :
#
#
# Convention : Reuss Voigt Hill
#
# Bulk Modulus (GPa) = 42.61537 74.24731 58.43134
# Shear Modulus (GPa) = 30.38684 20.53561 25.46123
#
# Velocity S-wave (km/s) = 3.67281 3.01933 3.36199
# Velocity P-wave (km/s) = 6.07488 6.71681 6.40390
#
# Compressibility (1/GPa) = 0.02346571
#
# Stress axis : x y z
#
# Youngs Moduli (GPa) = 16.43263 85.44322 29.97513
#
# Poissons Ratio (x) = 0.66788 0.84488
# Poissons Ratio (y) = 0.12845 0.15659
# Poissons Ratio (z) = 0.46317 0.44636
#
# Static dielectric constant tensor:
#      x y z
#    x 1.816940 0.000000 -0.047220 
#    y 0.000000 1.822590 0.000000 
#    z -0.047220 0.000000 1.857130 
# 
# From -- ./inp_files/50121.got.cif
#   From: 2010.05.17/outbox.cif.g08.bks.cpg/sg12_26_cif.got.tgz:50121.got - 2010.06.03 13:09:07.
