data_PCOD9172388
_publ_section_title
;
Structure prediction by ZEFSAII (Michael W. Deem and Ramdas Pophale) SiO2 
 PCOD9172388
Probable space group: C 2/M
;
_chemical_formula_sum "Si O2"
_cell_formula_units_Z 56
_cell_length_a 19.564569
_cell_length_b 13.519970
_cell_length_c 12.778218
_cell_angle_alpha 90.000000
_cell_angle_beta 80.356660
_cell_angle_gamma 90.000000
_cell_volume 3332.236246
_symmetry_space_group_name_H-M "C 2/M"
_symmetry_group_IT_number 12
_symmetry_cell_setting 'monoclinic'
loop_
_space_group_symop_operation_xyz
x,y,z
-x,y,-z
-x,-y,-z
x,-y,z
1/2+x,1/2+y,z
1/2-x,1/2+y,-z
1/2-x,1/2-y,-z
1/2+x,1/2-y,z
loop_
_atom_site_type_symbol
_atom_site_label
_atom_site_fract_x
_atom_site_fract_y
_atom_site_fract_z
Si Si1 0.280892 0.882459 0.380687
Si Si2 0.854888 0.298055 0.156725
Si Si3 0.500663 0.883858 0.832450
Si Si4 0.320284 0.209539 0.585409
Si Si5 0.156073 0.618472 0.062660
Si Si6 0.767704 0.116047 0.214218
Si Si7 0.545635 0.111304 0.384600
O O1 0.319260 0.857413 0.261891
O O2 0.322202 0.834359 0.467874
O O3 0.208697 0.820961 0.402939
O O4 0.274220 0.000000 0.394768
O O5 0.936368 0.321790 0.138016
O O6 0.833997 0.184529 0.178228
O O7 0.826050 0.333372 0.052490
O O8 0.423225 0.855323 0.887365
O O9 0.499886 0.875079 0.706899
O O10 0.511564 0.000000 0.856787
O O11 0.264764 0.145861 0.665913
O O12 0.393742 0.190400 0.620044
O O13 0.157386 0.500000 0.050609
O O14 0.209454 0.642602 0.141865
O O15 0.781399 0.000000 0.205077
O O16 0.500000 0.113055 0.500000
O O17 0.577505 0.000000 0.366369
#
# Coordination Sequence:
#
# PCOD9172388 Si02
#       7
#     8   8   8   8   8   8   8
#     4  10  20  32  50  75 104 132 165 207 253 299
#     4  11  21  32  50  79 106 132 165 210 258 302
#     4  10  19  31  50  76 103 132 164 208 262 305
#     4  10  19  33  52  73 100 134 167 205 252 301
#     4  10  19  33  53  75 102 133 167 208 258 308
#     4  10  20  35  54  74  99 136 176 208 245 300
#     4  10  18  29  49  74 101 129 162 207 254 300
#
# _framework density 16.805531999999999
#
# number of rings (size 3 to 8) (size 9 to 14) (size 15 to 20)
#    0.000    1.857    1.429    4.286    0.000    2.286 
#    0.000    0.000    0.000    3.000    0.000    0.000 
#    0.000    0.000    0.000    0.000    0.000    0.000 
#
# Total GULP energy -156230.550479 kJ/mol
# GULP energy per Si atom -5579.662517 kJ/mol
# Density = 1.676728 g / cm^3
# Si number density = 16.805532 Si / 1000 Ang^3
#
#
#
# Elastic Constant Matrix: (Units=GPa)
#
#
# Indices 1 2 3 4 5 6 
#
# 1 52.3914 34.1988 -9.1729 0.0000 0.3044 0.0000
# 2 34.1988 80.2157 14.3362 0.0000 -2.8313 0.0000
# 3 -9.1729 14.3362 93.0827 0.0000 1.4015 0.0000
# 4 0.0000 0.0000 0.0000 18.1768 0.0000 2.7243
# 5 0.3044 -2.8313 1.4015 0.0000 15.6502 0.0000
# 6 0.0000 0.0000 0.0000 2.7243 0.0000 26.7715
#
#
#
# Elastic Compliance Matrix: (Units=1/GPa)
#
#
# Indices 1 2 3 4 5 6 
#
# 1 0.028560 -0.013170 0.004894 0.000000 -0.003376 0.000000
# 2 -0.013170 0.018991 -0.004284 0.000000 0.004075 0.000000
# 3 0.004894 -0.004284 0.011914 0.000000 -0.001937 0.000000
# 4 0.000000 0.000000 0.000000 0.055867 0.000000 -0.005685
# 5 -0.003376 0.004075 -0.001937 0.000000 0.064873 0.000000
# 6 0.000000 0.000000 0.000000 -0.005685 0.000000 0.037932
#
#
# Mechanical properties :
#
#
# Convention : Reuss Voigt Hill
#
# Bulk Modulus (GPa) = 29.11661 33.82376 31.47019
# Shear Modulus (GPa) = 19.63040 24.54155 22.08598
#
# Velocity S-wave (km/s) = 3.42144 3.82557 3.62913
# Velocity P-wave (km/s) = 5.74209 6.29949 6.02724
#
# Compressibility (1/GPa) = 0.03434465
#
# Stress axis : x y z
#
# Youngs Moduli (GPa) = 35.01356 52.65720 83.93221
#
# Poissons Ratio (x) = 0.69350 -0.41074
# Poissons Ratio (y) = 0.46113 0.35957
# Poissons Ratio (z) = -0.17135 0.22559
#
# Static dielectric constant tensor:
#      x y z
#    x 1.568530 0.000000 0.005740 
#    y 0.000000 1.544380 0.000000 
#    z 0.005740 0.000000 1.598390 
# 
# From -- ./inp_files/164863.got.cif
#   From: 2010.05.17/outbox.cif.g08.bks.cpg/sg12_83_cif.got.tgz:164863.got - 2010.06.03 13:09:07.
