data_PCOD9172079
_publ_section_title
;
Structure prediction by ZEFSAII (Michael W. Deem and Ramdas Pophale) SiO2 
 PCOD9172079
Probable space group: C 2/M
;
_chemical_formula_sum "Si O2"
_cell_formula_units_Z 56
_cell_length_a 33.608065
_cell_length_b 9.127587
_cell_length_c 18.738177
_cell_angle_alpha 90.000000
_cell_angle_beta 36.722720
_cell_angle_gamma 90.000000
_cell_volume 3437.056237
_symmetry_space_group_name_H-M "C 2/M"
_symmetry_group_IT_number 12
_symmetry_cell_setting 'monoclinic'
loop_
_space_group_symop_operation_xyz
x,y,z
-x,y,-z
-x,-y,-z
x,-y,z
1/2+x,1/2+y,z
1/2-x,1/2+y,-z
1/2-x,1/2-y,-z
1/2+x,1/2-y,z
loop_
_atom_site_type_symbol
_atom_site_label
_atom_site_fract_x
_atom_site_fract_y
_atom_site_fract_z
Si Si1 0.644616 0.826268 0.175571
Si Si2 0.385217 0.823379 0.497514
Si Si3 0.347237 0.168254 0.397930
Si Si4 0.754729 0.674184 0.263864
Si Si5 0.805404 0.831979 0.324107
Si Si6 0.006025 0.826542 0.406143
Si Si7 0.240023 0.672796 0.906556
O O1 0.576168 0.740000 0.280962
O O2 0.697053 0.767543 0.158707
O O3 0.633946 0.000000 0.199447
O O4 0.680668 0.800048 0.047662
O O5 0.389358 0.787518 0.406834
O O6 0.316744 0.752297 0.623946
O O7 0.446408 0.757640 0.452749
O O8 0.381609 0.000000 0.508750
O O9 0.270778 0.171785 0.536513
O O10 0.349536 0.266233 0.324292
O O11 0.362264 0.000000 0.357894
O O12 0.746826 0.500000 0.285743
O O13 0.802619 0.738511 0.255920
O O14 0.777898 0.701150 0.149655
O O15 0.822045 0.000000 0.285406
O O16 0.000000 0.806722 0.500000
O O17 0.002303 0.000000 0.396477
O O18 0.257970 0.500000 0.886874
#
# Coordination Sequence:
#
# PCOD9172079 Si02
#       7
#     8   8   8   8   8   8   8
#     4  10  20  34  52  71  92 121 158 197 233 272
#     4  10  20  32  47  69  95 124 160 196 230 274
#     4   8  15  27  41  60  89 122 153 187 229 275
#     4  10  18  29  46  68  97 128 155 188 233 280
#     4   9  16  25  40  64  92 121 155 191 226 271
#     4  11  23  36  49  68  96 127 157 190 231 279
#     4   9  19  34  50  70  95 123 155 192 235 279
#
# _framework density 16.293012000000001
#
# number of rings (size 3 to 8) (size 9 to 14) (size 15 to 20)
#    0.000    2.429    0.000    3.857    0.000   10.286 
#    0.000    0.000    0.000    0.000    0.000    1.000 
#    0.000    8.000    0.000    0.000    0.000    0.000 
#
# Total GULP energy -156123.589305 kJ/mol
# GULP energy per Si atom -5575.842475 kJ/mol
# Density = 1.625593 g / cm^3
# Si number density = 16.293012 Si / 1000 Ang^3
#
#
#
# Elastic Constant Matrix: (Units=GPa)
#
#
# Indices 1 2 3 4 5 6 
#
# 1 122.3164 73.3708 35.6058 0.0003 22.5472 -0.0003
# 2 73.3708 92.4614 37.0995 0.0001 15.9355 -0.0008
# 3 35.6058 37.0995 36.7874 0.0010 10.2757 -0.0006
# 4 0.0003 0.0001 0.0010 15.0436 -0.0005 7.9192
# 5 22.5472 15.9355 10.2757 -0.0005 21.7671 0.0002
# 6 -0.0003 -0.0008 -0.0006 7.9192 0.0002 23.9108
#
#
#
# Elastic Compliance Matrix: (Units=1/GPa)
#
#
# Indices 1 2 3 4 5 6 
#
# 1 0.017204 -0.010872 -0.003379 0.000000 -0.008267 0.000000
# 2 -0.010872 0.025595 -0.015207 0.000001 -0.000298 0.000000
# 3 -0.003379 -0.015207 0.048036 -0.000004 -0.008044 0.000002
# 4 0.000000 0.000001 -0.000004 0.080510 0.000004 -0.026665
# 5 -0.008267 -0.000298 -0.008044 0.000004 0.058520 -0.000002
# 6 0.000000 0.000000 0.000002 -0.026665 -0.000002 0.050653
#
#
# Mechanical properties :
#
#
# Convention : Reuss Voigt Hill
#
# Bulk Modulus (GPa) = 31.32680 60.41306 45.86993
# Shear Modulus (GPa) = 14.28273 19.17690 16.72982
#
# Velocity S-wave (km/s) = 2.96398 3.43447 3.20786
# Velocity P-wave (km/s) = 5.56619 7.27235 6.47571
#
# Compressibility (1/GPa) = 0.03192155
#
# Stress axis : x y z
#
# Youngs Moduli (GPa) = 58.12559 39.06979 20.81771
#
# Poissons Ratio (x) = 0.42475 0.07034
# Poissons Ratio (y) = 0.63192 0.31657
# Poissons Ratio (z) = 0.19638 0.59412
#
# Static dielectric constant tensor:
#      x y z
#    x 1.551360 0.000000 0.018630 
#    y 0.000000 1.545910 0.000000 
#    z 0.018630 0.000000 1.524240 
# 
# From -- ./inp_files/287385.got.cif
#   From: 2010.05.17/outbox.cif.g08.bks.cpg/sg12_144_cif.got.tgz:287385.got - 2010.06.03 13:09:07.
