data_PCOD9172454
_publ_section_title
;
Structure prediction by ZEFSAII (Michael W. Deem and Ramdas Pophale) SiO2 
 PCOD9172454
Probable space group: C 2/M
;
_chemical_formula_sum "Si O2"
_cell_formula_units_Z 60
_cell_length_a 25.797906
_cell_length_b 19.320367
_cell_length_c 5.021674
_cell_angle_alpha 90.000000
_cell_angle_beta 90.541512
_cell_angle_gamma 90.000000
_cell_volume 2502.816137
_symmetry_space_group_name_H-M "C 2/M"
_symmetry_group_IT_number 12
_symmetry_cell_setting 'monoclinic'
loop_
_space_group_symop_operation_xyz
x,y,z
-x,y,-z
-x,-y,-z
x,-y,z
1/2+x,1/2+y,z
1/2-x,1/2+y,-z
1/2-x,1/2-y,-z
1/2+x,1/2-y,z
loop_
_atom_site_type_symbol
_atom_site_label
_atom_site_fract_x
_atom_site_fract_y
_atom_site_fract_z
Si Si1 0.340128 0.921818 0.015397
Si Si2 0.544268 0.191258 0.815374
Si Si3 0.500000 0.318177 0.500000
Si Si4 0.610435 0.643060 0.496660
Si Si5 0.141198 0.774016 0.000133
Si Si6 0.409083 0.076674 0.520307
Si Si7 0.208127 0.924362 0.371713
Si Si8 0.741100 0.655374 0.871882
O O1 0.389095 0.919659 0.819318
O O2 0.301315 0.860124 0.936304
O O3 0.317762 0.000000 0.972028
O O4 0.359129 0.918850 0.320318
O O5 0.519328 0.263790 0.721558
O O6 0.600590 0.212740 0.936519
O O7 0.556349 0.140078 0.573161
O O8 0.500000 0.159179 0.000000
O O9 0.449836 0.362153 0.570174
O O10 0.619708 0.665833 0.800476
O O11 0.647293 0.579788 0.431707
O O12 0.632489 0.704599 0.306043
O O13 0.202767 0.779513 0.931199
O O14 0.431922 0.000000 0.474976
O O15 0.233348 0.867052 0.565887
O O16 0.229454 0.000000 0.427748
O O17 0.216603 0.902037 0.069944
#
# Coordination Sequence:
#
# PCOD9172454 Si02
#       8
#     8   8   4   8   8   8   8   8
#     4  10  20  38  58  80 114 154 181 216 279 338
#     4  11  22  38  64  82 108 148 191 227 284 341
#     4  10  20  36  58  82  98 144 192 224 274 340
#     4   9  18  31  49  75 111 137 179 234 269 315
#     4   9  19  34  52  85 109 138 185 234 268 318
#     4  10  24  40  57  85 118 142 180 235 280 330
#     4  10  18  29  49  81 112 144 185 230 265 313
#     4  10  19  33  57  81 113 148 190 224 267 327
#
# _framework density 23.972992999999999
#
# number of rings (size 3 to 8) (size 9 to 14) (size 15 to 20)
#    0.000    2.133    1.333    2.000    1.867    1.333 
#    0.000    2.000    0.000    0.000    0.000    7.467 
#    0.000    0.000    0.000    0.000    0.000    0.000 
#
# Total GULP energy -167461.483033 kJ/mol
# GULP energy per Si atom -5582.049434 kJ/mol
# Density = 2.391843 g / cm^3
# Si number density = 23.972993 Si / 1000 Ang^3
#
#
#
# Elastic Constant Matrix: (Units=GPa)
#
#
# Indices 1 2 3 4 5 6 
#
# 1 147.9127 7.4496 5.6790 0.0000 -3.9079 0.0000
# 2 7.4496 66.9327 5.2242 0.0000 -5.5739 0.0000
# 3 5.6790 5.2242 61.4050 0.0000 -2.2907 0.0000
# 4 0.0000 0.0000 0.0000 14.0760 0.0000 2.2041
# 5 -3.9079 -5.5739 -2.2907 0.0000 39.3226 0.0000
# 6 0.0000 0.0000 0.0000 2.2041 0.0000 11.0840
#
#
#
# Elastic Compliance Matrix: (Units=1/GPa)
#
#
# Indices 1 2 3 4 5 6 
#
# 1 0.006830 -0.000671 -0.000554 0.000000 0.000551 0.000000
# 2 -0.000671 0.015275 -0.001162 0.000000 0.002031 0.000000
# 3 -0.000554 -0.001162 0.016463 0.000000 0.000739 0.000000
# 4 0.000000 0.000000 0.000000 0.073326 0.000000 -0.014582
# 5 0.000551 0.002031 0.000739 0.000000 0.025816 0.000000
# 6 0.000000 0.000000 0.000000 -0.014582 0.000000 0.093120
#
#
# Mechanical properties :
#
#
# Convention : Reuss Voigt Hill
#
# Bulk Modulus (GPa) = 29.59056 34.77290 32.18173
# Shear Modulus (GPa) = 20.25363 30.08968 25.17166
#
# Velocity S-wave (km/s) = 2.90979 3.54665 3.24389
# Velocity P-wave (km/s) = 4.86408 5.59537 5.24249
#
# Compressibility (1/GPa) = 0.03379456
#
# Stress axis : x y z
#
# Youngs Moduli (GPa) = 146.40470 65.46706 60.74233
#
# Poissons Ratio (x) = 0.04393 0.03365
# Poissons Ratio (y) = 0.09825 0.07057
# Poissons Ratio (z) = 0.08111 0.07605
#
# Static dielectric constant tensor:
#      x y z
#    x 2.014060 0.000000 0.010460 
#    y 0.000000 1.892220 0.000000 
#    z 0.010460 0.000000 1.859170 
# 
# From -- ./inp_files/29177.got.cif
#   From: 2010.05.17/outbox.cif.g08.bks.cpg/sg12_15_cif.got.tgz:29177.got - 2010.06.03 13:09:07.
