data_PCOD9172232
_publ_section_title
;
Structure prediction by ZEFSAII (Michael W. Deem and Ramdas Pophale) SiO2 
 PCOD9172232
Probable space group: C 2/M
;
_chemical_formula_sum "Si O2"
_cell_formula_units_Z 56
_cell_length_a 29.501541
_cell_length_b 13.617622
_cell_length_c 29.685511
_cell_angle_alpha 90.000000
_cell_angle_beta 164.075560
_cell_angle_gamma 90.000000
_cell_volume 3272.097462
_symmetry_space_group_name_H-M "C 2/M"
_symmetry_group_IT_number 12
_symmetry_cell_setting 'monoclinic'
loop_
_space_group_symop_operation_xyz
x,y,z
-x,y,-z
-x,-y,-z
x,-y,z
1/2+x,1/2+y,z
1/2-x,1/2+y,-z
1/2-x,1/2-y,-z
1/2+x,1/2-y,z
loop_
_atom_site_type_symbol
_atom_site_label
_atom_site_fract_x
_atom_site_fract_y
_atom_site_fract_z
Si Si1 0.687937 0.117499 0.892996
Si Si2 0.168500 0.619348 0.406222
Si Si3 0.921398 0.618950 0.778287
Si Si4 0.778045 0.794728 0.131724
Si Si5 0.159479 0.116588 0.712492
Si Si6 0.972137 0.881777 0.236438
Si Si7 0.271116 0.383731 0.318529
O O1 0.508268 0.146170 0.741421
O O2 0.715371 0.180167 0.874274
O O3 0.691633 0.000000 0.890316
O O4 0.833778 0.145343 0.067389
O O5 0.168345 0.500000 0.407605
O O6 0.339647 0.651370 0.593032
O O7 0.172322 0.646275 0.357087
O O8 0.927619 0.500000 0.785694
O O9 0.837245 0.655701 0.743949
O O10 0.104644 0.660105 0.950345
O O11 0.799104 0.823448 0.203554
O O12 0.914683 0.845119 0.230415
O O13 0.247929 0.152004 0.751006
O O14 0.963499 0.124329 0.515774
O O15 0.196260 0.000000 0.754848
O O16 0.971883 0.000000 0.237366
O O17 0.235438 0.500000 0.281631
#
# Coordination Sequence:
#
# PCOD9172232 Si02
#       7
#     8   8   8   8   8   8   8
#     4  10  22  39  49  66 100 134 174 217 245 285
#     4   9  18  33  52  71  99 137 166 197 244 291
#     4  10  18  29  47  75 106 128 159 201 240 299
#     4  12  21  30  48  75  98 133 169 206 250 289
#     4   9  17  31  50  74 104 134 163 193 240 303
#     4  10  19  33  52  72 100 134 165 201 247 298
#     4   8  16  31  49  72 106 138 157 189 242 303
#
# _framework density 17.114405000000001
#
# number of rings (size 3 to 8) (size 9 to 14) (size 15 to 20)
#    0.000    2.286    1.429    3.429    0.000    3.429 
#    2.571    2.143    0.000    0.000    0.000    4.000 
#    0.000    0.000    0.000    0.000    0.000    0.000 
#
# Total GULP energy -156158.863535 kJ/mol
# GULP energy per Si atom -5577.102269 kJ/mol
# Density = 1.707545 g / cm^3
# Si number density = 17.114405 Si / 1000 Ang^3
#
#
#
# Elastic Constant Matrix: (Units=GPa)
#
#
# Indices 1 2 3 4 5 6 
#
# 1 99.7493 40.9420 45.6570 0.0016 -4.3269 0.0017
# 2 40.9420 54.0625 27.9707 -0.0109 -9.9428 -0.0042
# 3 45.6570 27.9707 98.4637 -0.0033 1.6069 0.0015
# 4 0.0016 -0.0109 -0.0033 11.7796 -0.0100 1.2636
# 5 -4.3269 -9.9428 1.6069 -0.0100 24.8334 -0.0015
# 6 0.0017 -0.0042 0.0015 1.2636 -0.0015 24.2791
#
#
#
# Elastic Compliance Matrix: (Units=1/GPa)
#
#
# Indices 1 2 3 4 5 6 
#
# 1 0.016249 -0.010057 -0.004663 -0.000013 -0.000894 -0.000002
# 2 -0.010057 0.030173 -0.004081 0.000037 0.010592 0.000005
# 3 -0.004663 -0.004081 0.013532 -0.000002 -0.003322 -0.000001
# 4 -0.000013 0.000037 -0.000002 0.085369 0.000047 -0.004443
# 5 -0.000894 0.010592 -0.003322 0.000047 0.044569 0.000002
# 6 -0.000002 0.000005 -0.000001 -0.004443 0.000002 0.041419
#
#
# Mechanical properties :
#
#
# Convention : Reuss Voigt Hill
#
# Bulk Modulus (GPa) = 44.73937 53.49054 49.11496
# Shear Modulus (GPa) = 18.09224 21.35880 19.72552
#
# Velocity S-wave (km/s) = 3.25489 3.53654 3.39863
# Velocity P-wave (km/s) = 6.35011 6.92811 6.64539
#
# Compressibility (1/GPa) = 0.02235168
#
# Stress axis : x y z
#
# Youngs Moduli (GPa) = 61.54391 33.14247 73.90138
#
# Poissons Ratio (x) = 0.33332 0.34459
# Poissons Ratio (y) = 0.61896 0.30156
# Poissons Ratio (z) = 0.28697 0.13524
#
# Static dielectric constant tensor:
#      x y z
#    x 1.583630 0.000000 0.005960 
#    y 0.000000 1.585680 0.000000 
#    z 0.005960 0.000000 1.617670 
# 
# From -- ./inp_files/349790.got.cif
#   From: 2010.05.17/outbox.cif.g08.bks.cpg/sg12_175_cif.got.tgz:349790.got - 2010.06.03 13:09:07.
