data_PCOD9172755
_publ_section_title
;
Structure prediction by ZEFSAII (Michael W. Deem and Ramdas Pophale) SiO2 
 PCOD9172755
Probable space group: C 2/M
;
_chemical_formula_sum "Si O2"
_cell_formula_units_Z 40
_cell_length_a 5.470057
_cell_length_b 35.300257
_cell_length_c 10.029724
_cell_angle_alpha 90.000000
_cell_angle_beta 111.006404
_cell_angle_gamma 90.000000
_cell_volume 1807.972426
_symmetry_space_group_name_H-M "C 2/M"
_symmetry_group_IT_number 12
_symmetry_cell_setting 'monoclinic'
loop_
_space_group_symop_operation_xyz
x,y,z
-x,y,-z
-x,-y,-z
x,-y,z
1/2+x,1/2+y,z
1/2-x,1/2+y,-z
1/2-x,1/2-y,-z
1/2+x,1/2-y,z
loop_
_atom_site_type_symbol
_atom_site_label
_atom_site_fract_x
_atom_site_fract_y
_atom_site_fract_z
Si Si1 0.001356 0.850350 0.289824
Si Si2 0.609366 0.271462 0.171480
Si Si3 0.189787 0.458765 0.408209
Si Si4 0.010365 0.622958 0.304800
Si Si5 0.247458 0.099812 0.995453
O O1 0.769166 0.851062 0.353368
O O2 0.079512 0.809377 0.251392
O O3 0.279498 0.871054 0.367469
O O4 0.860417 0.874579 0.145057
O O5 0.407710 0.242246 0.204679
O O6 0.500000 0.277774 0.000000
O O7 0.500000 0.455535 0.500000
O O8 0.154973 0.500000 0.333935
O O9 0.106016 0.420321 0.320953
O O10 0.000000 0.459638 0.500000
O O11 0.852091 0.627360 0.133467
O O12 0.500000 0.077057 0.000000
O O13 0.000000 0.077053 0.000000
#
# Coordination Sequence:
#
# PCOD9172755 Si02
#       5
#     8   8   8   8   8
#     4  10  18  30  47  71 102 135 169 201 236 283
#     4  10  19  28  41  65 102 142 172 200 238 282
#     4  10  21  37  55  76 102 126 153 201 262 310
#     4  10  18  30  51  71  94 130 167 199 242 294
#     4   8  15  25  42  64  91 124 160 190 223 271
#
# _framework density 22.124230000000001
#
# number of rings (size 3 to 8) (size 9 to 14) (size 15 to 20)
#    0.000    2.400    0.000    4.200    0.000    5.600 
#    0.000    0.000    0.000   10.800    0.000    0.000 
#    0.000   56.000    0.000    0.000    0.000    0.000 
#
# Total GULP energy -111366.475135 kJ/mol
# GULP energy per Si atom -5568.323757 kJ/mol
# Density = 2.207387 g / cm^3
# Si number density = 22.124230 Si / 1000 Ang^3
#
#
#
# Elastic Constant Matrix: (Units=GPa)
#
#
# Indices 1 2 3 4 5 6 
#
# 1 238.3489 25.1582 17.2177 0.0000 6.6402 0.0000
# 2 25.1582 98.3865 8.4867 0.0000 0.4609 0.0000
# 3 17.2177 8.4867 36.6893 0.0000 3.5026 0.0000
# 4 0.0000 0.0000 0.0000 18.8647 0.0000 -2.9493
# 5 6.6402 0.4609 3.5026 0.0000 28.3709 0.0000
# 6 0.0000 0.0000 0.0000 -2.9493 0.0000 37.9401
#
#
#
# Elastic Compliance Matrix: (Units=1/GPa)
#
#
# Indices 1 2 3 4 5 6 
#
# 1 0.004450 -0.000980 -0.001785 0.000000 -0.000805 0.000000
# 2 -0.000980 0.010587 -0.002018 0.000000 0.000307 0.000000
# 3 -0.001785 -0.002018 0.028857 0.000000 -0.003112 0.000000
# 4 0.000000 0.000000 0.000000 0.053661 0.000000 0.004171
# 5 -0.000805 0.000307 -0.003112 0.000000 0.035815 0.000000
# 6 0.000000 0.000000 0.000000 0.004171 0.000000 0.026682
#
#
# Mechanical properties :
#
#
# Convention : Reuss Voigt Hill
#
# Bulk Modulus (GPa) = 29.13034 52.79442 40.96238
# Shear Modulus (GPa) = 27.61478 38.53929 33.07704
#
# Velocity S-wave (km/s) = 3.53678 4.17819 3.87079
# Velocity P-wave (km/s) = 5.46568 6.86957 6.20744
#
# Compressibility (1/GPa) = 0.03432846
#
# Stress axis : x y z
#
# Youngs Moduli (GPa) = 224.70047 94.45268 34.65307
#
# Poissons Ratio (x) = 0.09259 0.06185
# Poissons Ratio (y) = 0.22027 0.06994
# Poissons Ratio (z) = 0.40106 0.19063
#
# Static dielectric constant tensor:
#      x y z
#    x 1.977890 0.000000 -0.061320 
#    y 0.000000 1.769980 0.000000 
#    z -0.061320 0.000000 1.882490 
# 
# From -- ./inp_files/115454.got.cif
#   From: 2010.05.17/outbox.cif.g08.bks.cpg/sg12_58_cif.got.tgz:115454.got - 2010.06.03 13:09:07.
