data_PCOD9172455
_publ_section_title
;
Structure prediction by ZEFSAII (Michael W. Deem and Ramdas Pophale) SiO2 
 PCOD9172455
Probable space group: C 2/M
;
_chemical_formula_sum "Si O2"
_cell_formula_units_Z 56
_cell_length_a 9.125438
_cell_length_b 28.022439
_cell_length_c 13.762861
_cell_angle_alpha 90.000000
_cell_angle_beta 46.355774
_cell_angle_gamma 90.000000
_cell_volume 2546.774784
_symmetry_space_group_name_H-M "C 2/M"
_symmetry_group_IT_number 12
_symmetry_cell_setting 'monoclinic'
loop_
_space_group_symop_operation_xyz
x,y,z
-x,y,-z
-x,-y,-z
x,-y,z
1/2+x,1/2+y,z
1/2-x,1/2+y,-z
1/2-x,1/2-y,-z
1/2+x,1/2-y,z
loop_
_atom_site_type_symbol
_atom_site_label
_atom_site_fract_x
_atom_site_fract_y
_atom_site_fract_z
Si Si1 0.875542 0.879465 0.699624
Si Si2 0.187380 0.054901 0.813366
Si Si3 0.064282 0.444261 0.759302
Si Si4 0.231892 0.055065 0.069317
Si Si5 0.233406 0.616854 0.380297
Si Si6 0.069548 0.189916 0.861706
Si Si7 0.226621 0.711840 0.860449
O O1 0.761098 0.911362 0.673448
O O2 0.807649 0.906165 0.830764
O O3 0.793435 0.826088 0.748690
O O4 0.118085 0.877636 0.596120
O O5 0.387443 0.076459 0.771559
O O6 0.233794 0.064041 0.678129
O O7 0.947015 0.065471 0.927314
O O8 0.203021 0.000000 0.835246
O O9 0.112906 0.500000 0.716500
O O10 0.945422 0.443010 0.917261
O O11 0.202279 0.000000 0.116170
O O12 0.320393 0.650968 0.254922
O O13 0.000000 0.627094 0.500000
O O14 0.209491 0.235255 0.824080
O O15 0.880652 0.207352 0.881122
O O16 0.000000 0.171716 0.000000
O O17 0.000000 0.699972 0.000000
#
# Coordination Sequence:
#
# PCOD9172455 Si02
#       7
#     8   8   8   8   8   8   8
#     4  10  20  32  51  78 108 146 188 227 273 327
#     4   9  19  33  52  78 106 143 187 225 267 326
#     4  10  18  29  49  81 117 146 179 229 281 325
#     4   9  16  28  47  76 116 153 180 215 270 332
#     4  10  23  42  59  77 108 149 191 227 270 332
#     4  10  21  37  60  87 112 142 181 226 276 326
#     4  10  19  33  55  85 115 142 180 224 272 328
#
# _framework density 21.988596000000001
#
# number of rings (size 3 to 8) (size 9 to 14) (size 15 to 20)
#    0.000    2.286    0.000    3.857    0.000    9.429 
#    0.000    3.571    0.000    1.714    0.000    0.000 
#    0.000    0.000    0.000    0.000    0.000    0.000 
#
# Total GULP energy -156158.899373 kJ/mol
# GULP energy per Si atom -5577.103549 kJ/mol
# Density = 2.193855 g / cm^3
# Si number density = 21.988596 Si / 1000 Ang^3
#
#
#
# Elastic Constant Matrix: (Units=GPa)
#
#
# Indices 1 2 3 4 5 6 
#
# 1 141.9029 37.2025 35.2863 0.0000 -34.1425 0.0000
# 2 37.2025 78.0454 31.4411 0.0000 -10.1267 0.0000
# 3 35.2863 31.4411 60.6767 0.0000 -21.1269 0.0000
# 4 0.0000 0.0000 0.0000 4.9796 0.0000 -7.8757
# 5 -34.1425 -10.1267 -21.1269 0.0000 38.0509 0.0000
# 6 0.0000 0.0000 0.0000 -7.8757 0.0000 31.1200
#
#
#
# Elastic Compliance Matrix: (Units=1/GPa)
#
#
# Indices 1 2 3 4 5 6 
#
# 1 0.010034 -0.003170 -0.001675 0.000000 0.007230 0.000000
# 2 -0.003170 0.017201 -0.008015 0.000000 -0.002717 0.000000
# 3 -0.001675 -0.008015 0.025217 0.000000 0.010365 0.000000
# 4 0.000000 0.000000 0.000000 0.334841 0.000000 0.084740
# 5 0.007230 -0.002717 0.010365 0.000000 0.037799 0.000000
# 6 0.000000 0.000000 0.000000 0.084740 0.000000 0.053579
#
#
# Mechanical properties :
#
#
# Convention : Reuss Voigt Hill
#
# Bulk Modulus (GPa) = 37.41053 54.27608 45.84331
# Shear Modulus (GPa) = 9.74082 26.60978 18.17530
#
# Velocity S-wave (km/s) = 2.10703 3.48251 2.87815
# Velocity P-wave (km/s) = 4.79270 6.39593 5.65145
#
# Compressibility (1/GPa) = 0.02673044
#
# Stress axis : x y z
#
# Youngs Moduli (GPa) = 99.65822 58.13728 39.65502
#
# Poissons Ratio (x) = 0.18430 0.06644
# Poissons Ratio (y) = 0.31592 0.31785
# Poissons Ratio (z) = 0.16697 0.46600
#
# Static dielectric constant tensor:
#      x y z
#    x 1.916470 0.000000 0.028200 
#    y 0.000000 1.852650 0.000000 
#    z 0.028200 0.000000 1.831510 
# 
# From -- ./inp_files/200822.got.cif
#   From: 2010.05.17/outbox.cif.g08.bks.cpg/sg12_101_cif.got.tgz:200822.got - 2010.06.03 13:09:07.
