data_PCOD9172266
_publ_section_title
;
Structure prediction by ZEFSAII (Michael W. Deem and Ramdas Pophale) SiO2 
 PCOD9172266
Probable space group: C 2/M
;
_chemical_formula_sum "Si O2"
_cell_formula_units_Z 28
_cell_length_a 17.743771
_cell_length_b 5.422254
_cell_length_c 13.812502
_cell_angle_alpha 90.000000
_cell_angle_beta 81.216412
_cell_angle_gamma 90.000000
_cell_volume 1313.332520
_symmetry_space_group_name_H-M "C 2/M"
_symmetry_group_IT_number 12
_symmetry_cell_setting 'monoclinic'
loop_
_space_group_symop_operation_xyz
x,y,z
-x,y,-z
-x,-y,-z
x,-y,z
1/2+x,1/2+y,z
1/2-x,1/2+y,-z
1/2-x,1/2-y,-z
1/2+x,1/2-y,z
loop_
_atom_site_type_symbol
_atom_site_label
_atom_site_fract_x
_atom_site_fract_y
_atom_site_fract_z
Si Si1 0.713436 0.500000 0.397433
Si Si2 0.076091 0.000000 0.045268
Si Si3 0.391839 0.000000 0.415463
Si Si4 0.265525 0.500000 0.056074
Si Si5 0.143065 0.500000 0.355296
Si Si6 0.932090 0.000000 0.434089
Si Si7 0.606283 0.000000 0.160295
O O1 0.801132 0.500000 0.412261
O O2 0.692887 0.249497 0.345959
O O3 0.651811 0.500000 0.497385
O O4 0.083236 0.750358 0.108602
O O5 0.000000 0.000000 0.000000
O O6 0.144112 0.000000 0.951821
O O7 0.430684 0.749556 0.373920
O O8 0.399291 0.000000 0.531915
O O9 0.199532 0.500000 0.147938
O O10 0.250000 0.250000 0.000000
O O11 0.086084 0.500000 0.276744
O O12 0.000000 0.000000 0.500000
#
# Coordination Sequence:
#
# PCOD9172266 Si02
#       7
#     4   4   4   4   4   4   4
#     4  10  19  33  52  72  96 131 169 204 237 286
#     4  10  19  33  53  75  97 128 162 197 237 290
#     4  10  19  33  51  72  96 130 170 205 236 286
#     4   8  16  30  49  72  95 120 156 192 232 286
#     4  10  18  30  51  75  98 125 164 205 242 282
#     4  10  18  29  48  71  93 122 163 210 244 278
#     4  10  19  32  52  75  98 128 162 199 241 288
#
# _framework density 21.319811000000001
#
# number of rings (size 3 to 8) (size 9 to 14) (size 15 to 20)
#    0.000    2.286    0.000    6.000    0.000    0.000 
#    0.000    0.000    0.000   27.429    0.000    0.000 
#    0.000    0.000    0.000    0.000    0.000    0.000 
#
# Total GULP energy -78035.004291 kJ/mol
# GULP energy per Si atom -5573.928878 kJ/mol
# Density = 2.127129 g / cm^3
# Si number density = 21.319811 Si / 1000 Ang^3
#
#
#
# Elastic Constant Matrix: (Units=GPa)
#
#
# Indices 1 2 3 4 5 6 
#
# 1 123.3437 39.4140 21.5854 0.0000 25.1209 0.0000
# 2 39.4140 233.1363 35.0080 0.0000 16.9182 0.0000
# 3 21.5854 35.0080 67.9050 0.0000 10.2847 0.0000
# 4 0.0000 0.0000 0.0000 21.8583 0.0000 13.7158
# 5 25.1209 16.9182 10.2847 0.0000 17.6891 0.0000
# 6 0.0000 0.0000 0.0000 13.7158 0.0000 21.1622
#
#
#
# Elastic Compliance Matrix: (Units=1/GPa)
#
#
# Indices 1 2 3 4 5 6 
#
# 1 0.011612 -0.000705 -0.001022 0.000000 -0.015222 0.000000
# 2 -0.000705 0.004880 -0.001904 0.000000 -0.002559 0.000000
# 3 -0.001022 -0.001904 0.017038 0.000000 -0.006633 0.000000
# 4 0.000000 0.000000 0.000000 0.077109 0.000000 -0.049977
# 5 -0.015222 -0.002559 -0.006633 0.000000 0.084453 0.000000
# 6 0.000000 0.000000 0.000000 -0.049977 0.000000 0.079645
#
#
# Mechanical properties :
#
#
# Convention : Reuss Voigt Hill
#
# Bulk Modulus (GPa) = 38.07099 68.48886 53.27992
# Shear Modulus (GPa) = 17.19660 34.03376 25.61518
#
# Velocity S-wave (km/s) = 2.84316 3.99976 3.46999
# Velocity P-wave (km/s) = 5.35480 7.31608 6.41089
#
# Compressibility (1/GPa) = 0.02626672
#
# Stress axis : x y z
#
# Youngs Moduli (GPa) = 86.11992 204.91057 58.69327
#
# Poissons Ratio (x) = 0.14446 0.06000
# Poissons Ratio (y) = 0.06071 0.11177
# Poissons Ratio (z) = 0.08803 0.39020
#
# Static dielectric constant tensor:
#      x y z
#    x 1.807400 0.000000 -0.046370 
#    y 0.000000 1.892720 0.000000 
#    z -0.046370 0.000000 1.786260 
# 
# From -- ./inp_files/219703.got.cif
#   From: 2010.05.17/outbox.cif.g08.bks.cpg/sg12_110_cif.got.tgz:219703.got - 2010.06.03 13:09:07.
