data_PCOD9172732
_publ_section_title
;
Structure prediction by ZEFSAII (Michael W. Deem and Ramdas Pophale) SiO2 
 PCOD9172732
Probable space group: C 2/M
;
_chemical_formula_sum "Si O2"
_cell_formula_units_Z 64
_cell_length_a 29.105989
_cell_length_b 8.685984
_cell_length_c 14.642401
_cell_angle_alpha 90.000000
_cell_angle_beta 77.946002
_cell_angle_gamma 90.000000
_cell_volume 3620.185927
_symmetry_space_group_name_H-M "C 2/M"
_symmetry_group_IT_number 12
_symmetry_cell_setting 'monoclinic'
loop_
_space_group_symop_operation_xyz
x,y,z
-x,y,-z
-x,-y,-z
x,-y,z
1/2+x,1/2+y,z
1/2-x,1/2+y,-z
1/2-x,1/2-y,-z
1/2+x,1/2-y,z
loop_
_atom_site_type_symbol
_atom_site_label
_atom_site_fract_x
_atom_site_fract_y
_atom_site_fract_z
Si Si1 0.598323 0.318230 0.959686
Si Si2 0.209287 0.815450 0.450130
Si Si3 0.865334 0.317742 0.881319
Si Si4 0.727263 0.685247 0.720285
Si Si5 0.066854 0.812497 0.773270
Si Si6 0.961481 0.181473 0.848367
Si Si7 0.237109 0.314240 0.103746
Si Si8 0.646465 0.816483 0.622187
O O1 0.609733 0.500000 0.954039
O O2 0.591012 0.266739 0.859706
O O3 0.634558 0.234222 0.011829
O O4 0.550087 0.299064 0.038546
O O5 0.250000 0.750000 0.500000
O O6 0.224652 0.741740 0.348087
O O7 0.162333 0.758221 0.519589
O O8 0.211195 0.000000 0.446036
O O9 0.867662 0.500000 0.876443
O O10 0.914551 0.252121 0.823581
O O11 0.817022 0.265519 0.856077
O O12 0.723421 0.500000 0.714301
O O13 0.730142 0.730547 0.825022
O O14 0.684332 0.759373 0.682496
O O15 0.096582 0.742244 0.679048
O O16 0.012576 0.760788 0.799708
O O17 0.068078 0.000000 0.769226
O O18 0.960971 0.000000 0.831077
O O19 0.238194 0.500000 0.099116
O O20 0.250000 0.250000 0.000000
O O21 0.648567 0.000000 0.614716
#
# Coordination Sequence:
#
# PCOD9172732 Si02
#       8
#     8   8   8   8   8   8   8   8
#     4   8  16  29  45  63  87 126 166 199 238 287
#     4  10  18  33  54  75  97 126 162 201 247 298
#     4   9  18  32  46  65  93 125 163 207 244 279
#     4  10  20  36  54  72  97 134 171 203 246 294
#     4  10  18  30  47  68  97 128 165 202 242 296
#     4   8  16  30  47  66  89 128 168 201 241 293
#     4  10  23  37  51  72 101 135 172 210 247 287
#     4  11  22  33  48  75 106 131 160 202 251 299
#
# _framework density 17.678649
#
# number of rings (size 3 to 8) (size 9 to 14) (size 15 to 20)
#    0.750    1.750    0.000    4.500    1.750    4.500 
#    0.000    0.625    0.000    0.000    0.000    0.875 
#    0.000    7.000    0.000    0.000    0.000    0.000 
#
# Total GULP energy -178152.005428 kJ/mol
# GULP energy per Si atom -5567.250170 kJ/mol
# Density = 1.763841 g / cm^3
# Si number density = 17.678649 Si / 1000 Ang^3
#
#
#
# Elastic Constant Matrix: (Units=GPa)
#
#
# Indices 1 2 3 4 5 6 
#
# 1 32.6134 3.6843 6.9733 0.0000 -6.0376 0.0000
# 2 3.6843 40.6782 9.4933 0.0000 -4.7430 0.0000
# 3 6.9733 9.4933 57.9219 0.0000 -12.0809 0.0000
# 4 0.0000 0.0000 0.0000 21.4236 0.0000 -6.4293
# 5 -6.0376 -4.7430 -12.0809 0.0000 23.2963 0.0000
# 6 0.0000 0.0000 0.0000 -6.4293 0.0000 20.4173
#
#
#
# Elastic Compliance Matrix: (Units=1/GPa)
#
#
# Indices 1 2 3 4 5 6 
#
# 1 0.032609 -0.001626 -0.002204 0.000000 0.006977 0.000000
# 2 -0.001626 0.025884 -0.003404 0.000000 0.003084 0.000000
# 3 -0.002204 -0.003404 0.019986 0.000000 0.009100 0.000000
# 4 0.000000 0.000000 0.000000 0.051549 0.000000 0.016232
# 5 0.006977 0.003084 0.009100 0.000000 0.050080 0.000000
# 6 0.000000 0.000000 0.000000 0.016232 0.000000 0.054089
#
#
# Mechanical properties :
#
#
# Convention : Reuss Voigt Hill
#
# Bulk Modulus (GPa) = 15.62198 19.05727 17.33963
# Shear Modulus (GPa) = 18.51844 20.43164 19.47504
#
# Velocity S-wave (km/s) = 3.24003 3.40328 3.32266
# Velocity P-wave (km/s) = 4.78047 5.12312 4.95475
#
# Compressibility (1/GPa) = 0.06401236
#
# Stress axis : x y z
#
# Youngs Moduli (GPa) = 30.66661 38.63352 50.03550
#
# Poissons Ratio (x) = 0.06280 0.11029
# Poissons Ratio (y) = 0.04985 0.17030
# Poissons Ratio (z) = 0.06759 0.13149
#
# Static dielectric constant tensor:
#      x y z
#    x 1.649260 0.000000 -0.025370 
#    y 0.000000 1.592800 0.000000 
#    z -0.025370 0.000000 1.636470 
# 
# From -- ./inp_files/248287.got.cif
#   From: 2010.05.17/outbox.cif.g08.bks.cpg/sg12_125_cif.got.tgz:248287.got - 2010.06.03 13:09:07.
