data_PCOD9172026
_publ_section_title
;
Structure prediction by ZEFSAII (Michael W. Deem and Ramdas Pophale) SiO2 
 PCOD9172026
Probable space group: C 2/M
;
_chemical_formula_sum "Si O2"
_cell_formula_units_Z 48
_cell_length_a 23.975075
_cell_length_b 7.540686
_cell_length_c 17.444433
_cell_angle_alpha 90.000000
_cell_angle_beta 132.121847
_cell_angle_gamma 90.000000
_cell_volume 2339.202223
_symmetry_space_group_name_H-M "C 2/M"
_symmetry_group_IT_number 12
_symmetry_cell_setting 'monoclinic'
loop_
_space_group_symop_operation_xyz
x,y,z
-x,y,-z
-x,-y,-z
x,-y,z
1/2+x,1/2+y,z
1/2-x,1/2+y,-z
1/2-x,1/2-y,-z
1/2+x,1/2-y,z
loop_
_atom_site_type_symbol
_atom_site_label
_atom_site_fract_x
_atom_site_fract_y
_atom_site_fract_z
Si Si1 0.560634 0.783646 0.620317
Si Si2 0.802087 0.288102 0.475732
Si Si3 0.382840 0.702644 0.919428
Si Si4 0.225866 0.717531 0.719909
Si Si5 0.026082 0.702908 0.142841
Si Si6 0.533092 0.217102 0.322991
O O1 0.500000 0.728216 0.500000
O O2 0.645090 0.727676 0.678336
O O3 0.530794 0.727753 0.676016
O O4 0.560916 0.000000 0.618758
O O5 0.807652 0.500000 0.473588
O O6 0.750000 0.250000 0.500000
O O7 0.770714 0.223506 0.365609
O O8 0.886417 0.224312 0.569858
O O9 0.378238 0.500000 0.941800
O O10 0.299268 0.777669 0.833690
O O11 0.420148 0.703740 0.868987
O O12 0.442803 0.794771 0.029751
O O13 0.228543 0.500000 0.723373
O O14 0.052781 0.500000 0.170970
O O15 0.025550 0.775996 0.228253
O O16 0.532078 0.000000 0.321066
#
# Coordination Sequence:
#
# PCOD9172026 Si02
#       6
#     8   8   8   8   8   8
#     4   9  14  26  47  70  96 126 156 195 238 277
#     4  10  18  29  45  71  99 122 149 190 240 286
#     4  10  19  32  49  71  97 127 161 196 236 283
#     4   9  17  28  46  71  97 122 156 197 238 280
#     4  10  19  32  49  71  97 127 161 196 236 283
#     4   9  17  28  46  71  97 122 156 197 238 280
#
# _framework density 20.519817
#
# number of rings (size 3 to 8) (size 9 to 14) (size 15 to 20)
#    0.000    2.500    1.667    3.000    0.000    0.000 
#    0.000    2.500    0.000    0.000    0.000   10.500 
#    0.000    0.000    0.000    0.000    0.000    0.000 
#
# Total GULP energy -133980.505152 kJ/mol
# GULP energy per Si atom -5582.521048 kJ/mol
# Density = 2.047311 g / cm^3
# Si number density = 20.519817 Si / 1000 Ang^3
#
#
#
# Elastic Constant Matrix: (Units=GPa)
#
#
# Indices 1 2 3 4 5 6 
#
# 1 62.9497 -8.8564 7.6300 0.0000 22.5740 0.0000
# 2 -8.8564 49.5728 -3.7855 0.0000 -0.2688 0.0000
# 3 7.6300 -3.7855 64.2858 0.0000 18.4447 0.0000
# 4 0.0000 0.0000 0.0000 0.7279 0.0000 -2.7859
# 5 22.5740 -0.2688 18.4447 0.0000 39.4975 0.0000
# 6 0.0000 0.0000 0.0000 -2.7859 0.0000 9.2087
#
#
#
# Elastic Compliance Matrix: (Units=1/GPa)
#
#
# Indices 1 2 3 4 5 6 
#
# 1 0.020707 0.003733 0.001328 0.000000 -0.012430 0.000000
# 2 0.003733 0.020945 0.001572 -0.000001 -0.002725 0.000000
# 3 0.001328 0.001572 0.018135 0.000000 -0.009217 0.000000
# 4 0.000000 -0.000001 0.000000 -8.699443 0.000000 -2.631860
# 5 -0.012430 -0.002725 -0.009217 0.000000 0.036708 0.000000
# 6 0.000000 0.000000 0.000000 -2.631860 0.000000 -0.687629
#
#
# Mechanical properties :
#
#
# Convention : Reuss Voigt Hill
#
# Bulk Modulus (GPa) = 13.68827 18.53162 16.10994
# Shear Modulus (GPa) = -0.53882 22.00816 10.73467
#
# Velocity S-wave (km/s) = -0.51299 3.27851 2.28970
# Velocity P-wave (km/s) = 2.51682 4.83551 3.85464
#
# Compressibility (1/GPa) = 0.07305526
#
# Stress axis : x y z
#
# Youngs Moduli (GPa) = 48.29208 47.74494 55.14184
#
# Poissons Ratio (x) = -0.17826 -0.07325
# Poissons Ratio (y) = -0.18030 -0.08669
# Poissons Ratio (z) = -0.06415 -0.07506
#
# Static dielectric constant tensor:
#      x y z
#    x 1.707880 0.000000 0.000810 
#    y 0.000000 1.765150 0.000000 
#    z 0.000810 0.000000 1.714400 
# 
# From -- ./inp_files/287964.got.cif
#   From: 2010.05.17/outbox.cif.g08.bks.cpg/sg12_144_cif.got.tgz:287964.got - 2010.06.03 13:09:07.
