data_PCOD9172389
_publ_section_title
;
Structure prediction by ZEFSAII (Michael W. Deem and Ramdas Pophale) SiO2 
 PCOD9172389
Probable space group: C 2/M
;
_chemical_formula_sum "Si O2"
_cell_formula_units_Z 40
_cell_length_a 24.712867
_cell_length_b 9.096286
_cell_length_c 21.241222
_cell_angle_alpha 90.000000
_cell_angle_beta 31.214044
_cell_angle_gamma 90.000000
_cell_volume 2474.542200
_symmetry_space_group_name_H-M "C 2/M"
_symmetry_group_IT_number 12
_symmetry_cell_setting 'monoclinic'
loop_
_space_group_symop_operation_xyz
x,y,z
-x,y,-z
-x,-y,-z
x,-y,z
1/2+x,1/2+y,z
1/2-x,1/2+y,-z
1/2-x,1/2-y,-z
1/2+x,1/2-y,z
loop_
_atom_site_type_symbol
_atom_site_label
_atom_site_fract_x
_atom_site_fract_y
_atom_site_fract_z
Si Si1 0.392680 0.825619 0.411688
Si Si2 0.006265 0.323523 0.067476
Si Si3 0.815013 0.325198 0.346474
Si Si4 0.821027 0.174699 0.019142
Si Si5 0.610717 0.325319 0.193170
O O1 0.293201 0.762090 0.547668
O O2 0.366900 0.797779 0.363348
O O3 0.500316 0.745435 0.320543
O O4 0.402348 0.000000 0.410674
O O5 0.019865 0.500000 0.061105
O O6 0.898920 0.284172 0.210105
O O7 0.101210 0.242962 0.007406
O O8 0.000000 0.289271 0.000000
O O9 0.794044 0.500000 0.363325
O O10 0.708036 0.251061 0.131568
O O11 0.810731 0.000000 0.037291
O O12 0.869095 0.201858 0.901547
O O13 0.610264 0.500000 0.203637
#
# Coordination Sequence:
#
# PCOD9172389 Si02
#       5
#     8   8   8   8   8
#     4  10  18  29  49  74 102 132 163 206 254 299
#     4  10  20  35  54  74 101 137 173 207 244 293
#     4   9  18  31  47  71 102 133 167 204 246 298
#     4  10  20  32  49  74 103 133 168 207 251 299
#     4  10  19  31  50  74 103 134 164 205 255 304
#
# _framework density 16.164605999999999
#
# number of rings (size 3 to 8) (size 9 to 14) (size 15 to 20)
#    0.000    2.200    2.000    1.800    0.000    3.600 
#    0.000    0.000    0.000    1.200    0.000    8.400 
#    0.000    0.000    0.000    0.000    0.000    0.000 
#
# Total GULP energy -111594.454829 kJ/mol
# GULP energy per Si atom -5579.722741 kJ/mol
# Density = 1.612781 g / cm^3
# Si number density = 16.164606 Si / 1000 Ang^3
#
#
#
# Elastic Constant Matrix: (Units=GPa)
#
#
# Indices 1 2 3 4 5 6 
#
# 1 96.8968 62.0251 78.4964 0.0000 -17.9038 0.0000
# 2 62.0251 59.8914 68.4896 -0.0007 -20.3464 0.0003
# 3 78.4964 68.4896 143.2629 -0.0003 -28.1698 0.0002
# 4 0.0000 -0.0007 -0.0003 28.3915 0.0002 -9.6160
# 5 -17.9038 -20.3464 -28.1698 0.0002 30.4969 -0.0001
# 6 0.0000 0.0003 0.0002 -9.6160 -0.0001 25.3647
#
#
#
# Elastic Compliance Matrix: (Units=1/GPa)
#
#
# Indices 1 2 3 4 5 6 
#
# 1 0.032074 -0.030251 -0.004127 -0.000001 -0.005165 0.000000
# 2 -0.030251 0.068133 -0.012893 0.000001 0.015787 0.000000
# 3 -0.004127 -0.012893 0.016175 0.000000 0.003917 0.000000
# 4 -0.000001 0.000001 0.000000 0.040411 0.000000 0.015320
# 5 -0.005165 0.015787 0.003917 0.000000 0.043908 0.000000
# 6 0.000000 0.000000 0.000000 0.015320 0.000000 0.045233
#
#
# Mechanical properties :
#
#
# Convention : Reuss Voigt Hill
#
# Bulk Modulus (GPa) = 45.78919 79.78591 62.78755
# Shear Modulus (GPa) = 14.37791 22.91996 18.64893
#
# Velocity S-wave (km/s) = 2.98563 3.76960 3.40029
# Velocity P-wave (km/s) = 6.34615 8.27116 7.37176
#
# Compressibility (1/GPa) = 0.02183922
#
# Stress axis : x y z
#
# Youngs Moduli (GPa) = 31.17828 14.67716 61.82295
#
# Poissons Ratio (x) = 0.44401 0.25515
# Poissons Ratio (y) = 0.94319 0.79707
# Poissons Ratio (z) = 0.12867 0.18923
#
# Static dielectric constant tensor:
#      x y z
#    x 1.510640 0.000000 0.002110 
#    y 0.000000 1.532770 0.000000 
#    z 0.002110 0.000000 1.530690 
# 
# From -- ./inp_files/162379.got.cif
#   From: 2010.05.17/outbox.cif.g08.bks.cpg/sg12_82_cif.got.tgz:162379.got - 2010.06.03 13:09:07.
