data_PCOD9172302
_publ_section_title
;
Structure prediction by ZEFSAII (Michael W. Deem and Ramdas Pophale) SiO2 
 PCOD9172302
Probable space group: C 2/M
;
_chemical_formula_sum "Si O2"
_cell_formula_units_Z 64
_cell_length_a 9.232060
_cell_length_b 20.840119
_cell_length_c 21.404753
_cell_angle_alpha 90.000000
_cell_angle_beta 50.805986
_cell_angle_gamma 90.000000
_cell_volume 3191.660060
_symmetry_space_group_name_H-M "C 2/M"
_symmetry_group_IT_number 12
_symmetry_cell_setting 'monoclinic'
loop_
_space_group_symop_operation_xyz
x,y,z
-x,y,-z
-x,-y,-z
x,-y,z
1/2+x,1/2+y,z
1/2-x,1/2+y,-z
1/2-x,1/2-y,-z
1/2+x,1/2-y,z
loop_
_atom_site_type_symbol
_atom_site_label
_atom_site_fract_x
_atom_site_fract_y
_atom_site_fract_z
Si Si1 0.212445 0.853332 0.484449
Si Si2 0.441208 0.803666 0.805066
Si Si3 0.149888 0.740506 0.299321
Si Si4 0.758311 0.714195 0.588791
Si Si5 0.787494 0.570951 0.083691
Si Si6 0.910840 0.573884 0.190700
Si Si7 0.278951 0.792997 0.052721
Si Si8 0.825419 0.074667 0.618199
O O1 0.199770 0.784211 0.453021
O O2 0.309861 0.838022 0.523252
O O3 0.292105 0.900387 0.409661
O O4 0.014217 0.884138 0.559614
O O5 0.653926 0.778163 0.756691
O O6 0.382477 0.808426 0.748746
O O7 0.434389 0.870925 0.843293
O O8 0.309918 0.748400 0.867887
O O9 0.153119 0.710141 0.367299
O O10 0.967616 0.785482 0.343026
O O11 0.702501 0.500000 0.096461
O O12 0.805344 0.582731 0.153494
O O13 0.700302 0.634337 0.076062
O O14 0.000000 0.566833 0.000000
O O15 0.978825 0.500000 0.172362
O O16 0.779227 0.582503 0.287549
O O17 0.500000 0.799389 0.000000
O O18 0.250000 0.750000 0.000000
O O19 0.869283 0.000000 0.599336
#
# Coordination Sequence:
#
# PCOD9172302 Si02
#       8
#     8   8   8   8   8   8   8   8
#     4  10  18  29  48  73 106 140 178 228 290 336
#     4  11  20  35  57  81 113 149 184 235 293 341
#     4  10  20  33  52  78 106 142 187 231 287 342
#     4  10  20  32  50  76 108 141 180 237 285 337
#     4   9  18  35  59  86 114 146 186 231 274 321
#     4  10  20  34  56  83 111 147 194 242 284 334
#     4  11  22  36  57  88 121 150 186 230 281 343
#     4  10  19  33  53  79 109 144 191 242 281 328
#
# _framework density 20.052261000000001
#
# number of rings (size 3 to 8) (size 9 to 14) (size 15 to 20)
#    0.000    1.875    0.000    7.500    0.000    2.500 
#    0.000    0.000    0.000    5.250    0.000    7.000 
#    0.000    0.000    0.000    0.000    0.000    0.000 
#
# Total GULP energy -178410.471116 kJ/mol
# GULP energy per Si atom -5575.327222 kJ/mol
# Density = 2.000662 g / cm^3
# Si number density = 20.052261 Si / 1000 Ang^3
#
#
#
# Elastic Constant Matrix: (Units=GPa)
#
#
# Indices 1 2 3 4 5 6 
#
# 1 80.5869 25.0617 16.6984 0.0000 16.2789 0.0000
# 2 25.0617 149.4207 21.3430 0.0000 13.2334 0.0000
# 3 16.6984 21.3430 75.5127 0.0000 10.5095 0.0000
# 4 0.0000 0.0000 0.0000 29.0100 0.0000 7.8793
# 5 16.2789 13.2334 10.5095 0.0000 39.8205 0.0000
# 6 0.0000 0.0000 0.0000 7.8793 0.0000 23.0100
#
#
#
# Elastic Compliance Matrix: (Units=1/GPa)
#
#
# Indices 1 2 3 4 5 6 
#
# 1 0.014315 -0.001690 -0.002026 0.000000 -0.004756 0.000000
# 2 -0.001690 0.007310 -0.001506 0.000000 -0.001341 0.000000
# 3 -0.002026 -0.001506 0.014463 0.000000 -0.002488 0.000000
# 4 0.000000 0.000000 0.000000 0.038006 0.000000 -0.013014
# 5 -0.004756 -0.001341 -0.002488 0.000000 0.028159 0.000000
# 6 0.000000 0.000000 0.000000 -0.013014 0.000000 0.047916
#
#
# Mechanical properties :
#
#
# Convention : Reuss Voigt Hill
#
# Bulk Modulus (GPa) = 38.99593 47.96960 43.48276
# Shear Modulus (GPa) = 29.55778 34.52926 32.04352
#
# Velocity S-wave (km/s) = 3.84348 4.15416 4.00184
# Velocity P-wave (km/s) = 6.25986 6.85446 6.56390
#
# Compressibility (1/GPa) = 0.02564370
#
# Stress axis : x y z
#
# Youngs Moduli (GPa) = 69.85615 136.80158 69.14345
#
# Poissons Ratio (x) = 0.23126 0.14008
# Poissons Ratio (y) = 0.11809 0.10411
# Poissons Ratio (z) = 0.14152 0.20597
#
# Static dielectric constant tensor:
#      x y z
#    x 1.754060 0.000000 -0.007660 
#    y 0.000000 1.749110 0.000000 
#    z -0.007660 0.000000 1.794280 
# 
# From -- ./inp_files/301690.got.cif
#   From: 2010.05.17/outbox.cif.g08.bks.cpg/sg12_151_cif.got.tgz:301690.got - 2010.06.03 13:09:07.
