data_PCOD9172803
_publ_section_title
;
Structure prediction by ZEFSAII (Michael W. Deem and Ramdas Pophale) SiO2 
 PCOD9172803
Probable space group: C 2/M
;
_chemical_formula_sum "Si O2"
_cell_formula_units_Z 64
_cell_length_a 27.031201
_cell_length_b 23.397751
_cell_length_c 17.988963
_cell_angle_alpha 90.000000
_cell_angle_beta 18.810217
_cell_angle_gamma 90.000000
_cell_volume 3668.487854
_symmetry_space_group_name_H-M "C 2/M"
_symmetry_group_IT_number 12
_symmetry_cell_setting 'monoclinic'
loop_
_space_group_symop_operation_xyz
x,y,z
-x,y,-z
-x,-y,-z
x,-y,z
1/2+x,1/2+y,z
1/2-x,1/2+y,-z
1/2-x,1/2-y,-z
1/2+x,1/2-y,z
loop_
_atom_site_type_symbol
_atom_site_label
_atom_site_fract_x
_atom_site_fract_y
_atom_site_fract_z
Si Si1 0.938530 0.195884 0.278682
Si Si2 0.698168 0.822928 0.505145
Si Si3 0.385973 0.674031 0.521676
Si Si4 0.674389 0.731394 0.184212
Si Si5 0.841870 0.064739 0.678641
Si Si6 0.535001 0.152277 0.376064
Si Si7 0.780216 0.209178 0.232471
Si Si8 0.886421 0.371419 0.898922
O O1 0.803093 0.163905 0.426562
O O2 0.882966 0.261561 0.365662
O O3 0.952230 0.173607 0.343497
O O4 0.089163 0.195499 0.012955
O O5 0.805846 0.813430 0.279773
O O6 0.559033 0.865091 0.683282
O O7 0.519088 0.697609 0.386919
O O8 0.338088 0.612573 0.619917
O O9 0.254872 0.722874 0.711478
O O10 0.633076 0.794477 0.270601
O O11 0.750000 0.750000 0.000000
O O12 0.792600 0.687368 0.052149
O O13 0.000000 0.070706 0.500000
O O14 0.832061 0.000000 0.664771
O O15 0.705824 0.079051 0.929572
O O16 0.500000 0.115954 0.500000
O O17 0.381491 0.179475 0.558878
O O18 0.614617 0.125343 0.189944
#
# Coordination Sequence:
#
# PCOD9172803 Si02
#       8
#     8   8   8   8   8   8   8   8
#     4  10  18  30  48  69 106 140 170 201 244 304
#     4   9  19  31  44  73 103 143 173 193 242 318
#     4  10  20  31  48  76  99 136 178 212 253 298
#     4   9  17  26  43  70 105 131 157 194 246 305
#     4  11  23  37  54  74  99 135 180 223 267 309
#     4   9  19  25  44  77 103 128 162 194 250 309
#     4   9  18  28  46  74 109 139 161 197 244 316
#     4  10  19  34  48  66 103 135 166 212 253 305
#
# _framework density 17.445879000000001
#
# number of rings (size 3 to 8) (size 9 to 14) (size 15 to 20)
#    0.000    2.375    1.250    3.375    8.750    0.000 
#    0.000    1.875    0.000    1.875    0.000    3.500 
#    0.000    5.000    0.000    0.000    0.000    0.000 
#
# Total GULP energy -178274.845382 kJ/mol
# GULP energy per Si atom -5571.088918 kJ/mol
# Density = 1.740617 g / cm^3
# Si number density = 17.445879 Si / 1000 Ang^3
#
#
#
# Elastic Constant Matrix: (Units=GPa)
#
#
# Indices 1 2 3 4 5 6 
#
# 1 81.8609 15.3920 27.9900 -0.0018 9.4175 0.0014
# 2 15.3920 52.6061 20.6885 0.0001 3.1514 -0.0010
# 3 27.9900 20.6885 85.2138 0.0015 16.1097 -0.0031
# 4 -0.0018 0.0001 0.0015 12.6542 -0.0028 4.1118
# 5 9.4175 3.1514 16.1097 -0.0028 32.9522 0.0004
# 6 0.0014 -0.0010 -0.0031 4.1118 0.0004 10.2855
#
#
#
# Elastic Compliance Matrix: (Units=1/GPa)
#
#
# Indices 1 2 3 4 5 6 
#
# 1 0.014183 -0.002595 -0.003646 0.000003 -0.002023 -0.000005
# 2 -0.002595 0.021499 -0.004538 0.000000 0.000904 0.000001
# 3 -0.003646 -0.004538 0.015156 -0.000006 -0.005934 0.000007
# 4 0.000003 0.000000 -0.000006 0.090823 0.000010 -0.036308
# 5 -0.002023 0.000904 -0.005934 0.000010 0.033739 -0.000007
# 6 -0.000005 0.000001 0.000007 -0.036308 -0.000007 0.111739
#
#
# Mechanical properties :
#
#
# Convention : Reuss Voigt Hill
#
# Bulk Modulus (GPa) = 34.15299 38.64685 36.39992
# Shear Modulus (GPa) = 15.70066 21.55241 18.62653
#
# Velocity S-wave (km/s) = 3.00319 3.51862 3.27107
# Velocity P-wave (km/s) = 5.62535 6.22158 5.93097
#
# Compressibility (1/GPa) = 0.02928001
#
# Stress axis : x y z
#
# Youngs Moduli (GPa) = 70.50602 46.51381 65.97845
#
# Poissons Ratio (x) = 0.12069 0.24058
# Poissons Ratio (y) = 0.18294 0.29943
# Poissons Ratio (z) = 0.25709 0.21109
#
# Static dielectric constant tensor:
#      x y z
#    x 1.648120 0.000000 0.030450 
#    y 0.000000 1.573440 0.000000 
#    z 0.030450 0.000000 1.633860 
# 
# From -- ./inp_files/294285.got.cif
#   From: 2010.05.17/outbox.cif.g08.bks.cpg/sg12_148_cif.got.tgz:294285.got - 2010.06.03 13:09:07.
