data_PCOD9172245
_publ_section_title
;
Structure prediction by ZEFSAII (Michael W. Deem and Ramdas Pophale) SiO2 
 PCOD9172245
Probable space group: C 2/M
;
_chemical_formula_sum "Si O2"
_cell_formula_units_Z 64
_cell_length_a 11.474012
_cell_length_b 20.632061
_cell_length_c 17.926536
_cell_angle_alpha 90.000000
_cell_angle_beta 46.781472
_cell_angle_gamma 90.000000
_cell_volume 3092.653069
_symmetry_space_group_name_H-M "C 2/M"
_symmetry_group_IT_number 12
_symmetry_cell_setting 'monoclinic'
loop_
_space_group_symop_operation_xyz
x,y,z
-x,y,-z
-x,-y,-z
x,-y,z
1/2+x,1/2+y,z
1/2-x,1/2+y,-z
1/2-x,1/2-y,-z
1/2+x,1/2-y,z
loop_
_atom_site_type_symbol
_atom_site_label
_atom_site_fract_x
_atom_site_fract_y
_atom_site_fract_z
Si Si1 0.100246 0.426924 0.613469
Si Si2 0.972152 0.832047 0.857285
Si Si3 0.572867 0.243072 0.243528
Si Si4 0.279874 0.428226 0.184287
Si Si5 0.902599 0.375259 0.234017
Si Si6 0.409066 0.791244 0.459085
Si Si7 0.902332 0.714392 0.109409
Si Si8 0.270150 0.073386 0.966305
O O1 0.140339 0.500000 0.570079
O O2 0.175849 0.414373 0.663383
O O3 0.129875 0.366706 0.544781
O O4 0.908375 0.425908 0.714225
O O5 0.989852 0.809360 0.764617
O O6 0.120769 0.875293 0.816260
O O7 0.982082 0.764799 0.898924
O O8 0.814980 0.873176 0.945635
O O9 0.483826 0.183690 0.243949
O O10 0.543772 0.233829 0.342740
O O11 0.758184 0.242579 0.141851
O O12 0.338459 0.500000 0.178537
O O13 0.301344 0.420487 0.086067
O O14 0.822308 0.336996 0.200959
O O15 0.042609 0.415049 0.131597
O O16 0.500000 0.785852 0.500000
O O17 0.250000 0.750000 0.500000
O O18 0.000000 0.682850 0.000000
O O19 0.244299 0.000000 0.004274
#
# Coordination Sequence:
#
# PCOD9172245 Si02
#       8
#     8   8   8   8   8   8   8   8
#     4   9  19  38  64  91 119 154 200 259 319 379
#     4  11  19  29  50  73 116 151 196 242 306 357
#     4  10  23  36  55  83 117 153 199 252 308 377
#     4   9  17  29  51  81 116 155 193 247 307 359
#     4   9  18  32  53  77 113 152 197 242 305 354
#     4  11  26  43  71 101 128 161 210 267 336 386
#     4  11  20  31  52  81 117 160 202 245 298 365
#     4  10  18  29  47  78 111 152 197 242 294 359
#
# _framework density 20.694208
#
# number of rings (size 3 to 8) (size 9 to 14) (size 15 to 20)
#    0.000    2.000    0.000    6.375    7.000    3.250 
#    0.000    0.000    0.000    8.625    0.000    0.000 
#    0.000    0.000    0.000    0.000    0.000    0.000 
#
# Total GULP energy -178282.080468 kJ/mol
# GULP energy per Si atom -5571.315015 kJ/mol
# Density = 2.064711 g / cm^3
# Si number density = 20.694208 Si / 1000 Ang^3
#
#
#
# Elastic Constant Matrix: (Units=GPa)
#
#
# Indices 1 2 3 4 5 6 
#
# 1 47.7195 33.8521 9.2082 -0.0001 16.6636 0.0002
# 2 33.8521 131.1491 26.0917 0.0000 19.2959 0.0000
# 3 9.2082 26.0917 34.6351 0.0000 13.7712 0.0001
# 4 -0.0001 0.0000 0.0000 23.5683 0.0000 1.4055
# 5 16.6636 19.2959 13.7712 0.0000 26.4648 -0.0001
# 6 0.0002 0.0000 0.0001 1.4055 -0.0001 28.7649
#
#
#
# Elastic Compliance Matrix: (Units=1/GPa)
#
#
# Indices 1 2 3 4 5 6 
#
# 1 0.030331 -0.006024 0.002927 0.000000 -0.016229 0.000000
# 2 -0.006024 0.010481 -0.006007 0.000000 -0.000724 0.000000
# 3 0.002927 -0.006007 0.039857 0.000000 -0.018203 0.000000
# 4 0.000000 0.000000 0.000000 0.042554 0.000000 -0.002079
# 5 -0.016229 -0.000724 -0.018203 0.000000 0.058005 0.000000
# 6 0.000000 0.000000 0.000000 -0.002079 0.000000 0.034866
#
#
# Mechanical properties :
#
#
# Convention : Reuss Voigt Hill
#
# Bulk Modulus (GPa) = 16.00956 39.08974 27.54965
# Shear Modulus (GPa) = 19.59843 25.38306 22.49075
#
# Velocity S-wave (km/s) = 3.08075 3.50605 3.30026
# Velocity P-wave (km/s) = 4.51750 5.94307 5.27863
#
# Compressibility (1/GPa) = 0.06246269
#
# Stress axis : x y z
#
# Youngs Moduli (GPa) = 32.96912 95.40923 25.08957
#
# Poissons Ratio (x) = 0.57470 -0.07343
# Poissons Ratio (y) = 0.19859 0.15070
# Poissons Ratio (z) = -0.09649 0.57309
#
# Static dielectric constant tensor:
#      x y z
#    x 1.828140 0.000000 0.012690 
#    y 0.000000 1.809080 0.000000 
#    z 0.012690 0.000000 1.772650 
# 
# From -- ./inp_files/184728.got.cif
#   From: 2010.05.17/outbox.cif.g08.bks.cpg/sg12_93_cif.got.tgz:184728.got - 2010.06.03 13:09:07.
