data_PCOD9172515
_publ_section_title
;
Structure prediction by ZEFSAII (Michael W. Deem and Ramdas Pophale) SiO2 
 PCOD9172515
Probable space group: C 2/M
;
_chemical_formula_sum "Si O2"
_cell_formula_units_Z 52
_cell_length_a 13.793409
_cell_length_b 19.445312
_cell_length_c 12.355641
_cell_angle_alpha 90.000000
_cell_angle_beta 135.611772
_cell_angle_gamma 90.000000
_cell_volume 2318.194081
_symmetry_space_group_name_H-M "C 2/M"
_symmetry_group_IT_number 12
_symmetry_cell_setting 'monoclinic'
loop_
_space_group_symop_operation_xyz
x,y,z
-x,y,-z
-x,-y,-z
x,-y,z
1/2+x,1/2+y,z
1/2-x,1/2+y,-z
1/2-x,1/2-y,-z
1/2+x,1/2-y,z
loop_
_atom_site_type_symbol
_atom_site_label
_atom_site_fract_x
_atom_site_fract_y
_atom_site_fract_z
Si Si1 0.879731 0.720603 0.539337
Si Si2 0.729042 0.362766 0.025403
Si Si3 0.386124 0.423904 0.271703
Si Si4 0.107709 0.387336 0.173749
Si Si5 0.507810 0.921504 0.333407
Si Si6 0.500000 0.317267 0.500000
Si Si7 0.552334 0.762001 0.886317
O O1 0.750000 0.750000 0.500000
O O2 0.903787 0.639449 0.539307
O O3 0.880536 0.762605 0.428793
O O4 0.005042 0.740809 0.722271
O O5 0.818336 0.314398 0.014443
O O6 0.845844 0.397625 0.193990
O O7 0.659433 0.416351 0.888442
O O8 0.610752 0.310588 0.974455
O O9 0.437092 0.500000 0.332358
O O10 0.257558 0.406606 0.249057
O O11 0.495284 0.366987 0.394114
O O12 0.069481 0.417685 0.260110
O O13 0.070572 0.305700 0.155961
O O14 0.000000 0.415360 0.000000
O O15 0.518948 0.000000 0.381453
#
# Coordination Sequence:
#
# PCOD9172515 Si02
#       7
#     8   8   8   8   8   4   8
#     4  10  21  38  56  79 112 153 196 231 274 343
#     4   9  17  31  53  74 108 142 178 225 280 334
#     4  12  22  33  51  82 117 146 180 226 289 352
#     4  10  18  29  50  80 112 140 171 223 286 342
#     4  10  20  34  55  82 111 143 185 241 291 335
#     4  12  23  38  55  78 114 156 192 230 277 346
#     4   9  17  33  50  75 106 144 186 227 267 332
#
# _framework density 22.431253999999999
#
# number of rings (size 3 to 8) (size 9 to 14) (size 15 to 20)
#    0.000    2.154    4.615    3.000    0.000    0.615 
#    0.000    1.154    0.000    0.000    0.000    0.000 
#    0.000    3.692    0.000    0.000    0.000    0.000 
#
# Total GULP energy -144833.057309 kJ/mol
# GULP energy per Si atom -5570.502204 kJ/mol
# Density = 2.238020 g / cm^3
# Si number density = 22.431254 Si / 1000 Ang^3
#
#
#
# Elastic Constant Matrix: (Units=GPa)
#
#
# Indices 1 2 3 4 5 6 
#
# 1 34.6824 22.8757 -9.9870 0.0000 0.9939 0.0000
# 2 22.8757 203.7098 31.5545 0.0000 5.5053 0.0000
# 3 -9.9870 31.5545 44.8091 0.0000 2.1320 0.0000
# 4 0.0000 0.0000 0.0000 20.8895 0.0000 5.6028
# 5 0.9939 5.5053 2.1320 0.0000 21.1014 0.0000
# 6 0.0000 0.0000 0.0000 5.6028 0.0000 15.1134
#
#
#
# Elastic Compliance Matrix: (Units=1/GPa)
#
#
# Indices 1 2 3 4 5 6 
#
# 1 0.036368 -0.005962 0.012371 0.000000 -0.001407 0.000000
# 2 -0.005962 0.006511 -0.005874 0.000000 -0.000824 0.000000
# 3 0.012371 -0.005874 0.029307 0.000000 -0.002011 0.000000
# 4 0.000000 0.000000 0.000000 0.053156 0.000000 -0.019706
# 5 -0.001407 -0.000824 -0.002011 0.000000 0.047875 0.000000
# 6 0.000000 0.000000 0.000000 -0.019706 0.000000 0.073472
#
#
# Mechanical properties :
#
#
# Convention : Reuss Voigt Hill
#
# Bulk Modulus (GPa) = 13.65097 41.34307 27.49702
# Shear Modulus (GPa) = 18.51591 27.33806 22.92698
#
# Velocity S-wave (km/s) = 2.87618 3.49485 3.20050
# Velocity P-wave (km/s) = 4.13870 5.89545 5.09338
#
# Compressibility (1/GPa) = 0.07325489
#
# Stress axis : x y z
#
# Youngs Moduli (GPa) = 27.49646 153.59308 34.12187
#
# Poissons Ratio (x) = 0.91576 -0.42213
# Poissons Ratio (y) = 0.16394 0.20045
# Poissons Ratio (z) = -0.34017 0.90228
#
# Static dielectric constant tensor:
#      x y z
#    x 1.901060 0.000000 0.015490 
#    y 0.000000 1.910440 0.000000 
#    z 0.015490 0.000000 1.964540 
# 
# From -- ./inp_files/226364.got.cif
#   From: 2010.05.17/outbox.cif.g08.bks.cpg/sg12_114_cif.got.tgz:226364.got - 2010.06.03 13:09:07.
