data_PCOD9172128
_publ_section_title
;
Structure prediction by ZEFSAII (Michael W. Deem and Ramdas Pophale) SiO2 
 PCOD9172128
Probable space group: C 2/M
;
_chemical_formula_sum "Si O2"
_cell_formula_units_Z 64
_cell_length_a 18.823159
_cell_length_b 23.497037
_cell_length_c 19.365034
_cell_angle_alpha 90.000000
_cell_angle_beta 152.883598
_cell_angle_gamma 90.000000
_cell_volume 3903.893288
_symmetry_space_group_name_H-M "C 2/M"
_symmetry_group_IT_number 12
_symmetry_cell_setting 'monoclinic'
loop_
_space_group_symop_operation_xyz
x,y,z
-x,y,-z
-x,-y,-z
x,-y,z
1/2+x,1/2+y,z
1/2-x,1/2+y,-z
1/2-x,1/2-y,-z
1/2+x,1/2-y,z
loop_
_atom_site_type_symbol
_atom_site_label
_atom_site_fract_x
_atom_site_fract_y
_atom_site_fract_z
Si Si1 0.361334 0.187964 0.777364
Si Si2 0.110553 0.252874 0.652911
Si Si3 0.672781 0.257032 0.040166
Si Si4 0.280122 0.436147 0.109525
Si Si5 0.364372 0.323004 0.526812
Si Si6 0.008276 0.066341 0.426063
Si Si7 0.942685 0.561800 0.871883
Si Si8 0.586809 0.676835 0.836110
O O1 0.232998 0.216137 0.715049
O O2 0.302340 0.196340 0.647035
O O3 0.358108 0.120986 0.788880
O O4 0.529256 0.215809 0.936786
O O5 0.223113 0.281900 0.807111
O O6 0.000000 0.283453 0.500000
O O7 0.993776 0.211862 0.594511
O O8 0.792057 0.217504 0.100133
O O9 0.599457 0.303912 0.925865
O O10 0.326637 0.500000 0.128524
O O11 0.344622 0.427585 0.243562
O O12 0.352999 0.386908 0.126295
O O13 0.094517 0.434043 0.954389
O O14 0.385995 0.388854 0.523464
O O15 0.419400 0.316680 0.653292
O O16 0.000000 0.079972 0.500000
O O17 0.050848 0.000000 0.455888
O O18 0.864853 0.500000 0.792130
O O19 0.000000 0.560420 0.000000
#
# Coordination Sequence:
#
# PCOD9172128 Si02
#       8
#     8   8   8   8   8   8   8   8
#     4  11  19  28  44  63  85 115 148 180 220 254
#     4   9  18  31  44  62  86 110 137 177 221 259
#     4  10  18  29  47  63  83 115 144 178 216 255
#     4   9  17  30  43  58  82 114 149 185 213 245
#     4   9  19  29  40  58  85 117 144 179 212 249
#     4   9  16  24  37  54  77 111 150 181 209 238
#     4  10  20  27  37  59  87 115 149 188 217 243
#     4   9  18  32  44  61  85 113 150 180 210 252
#
# _framework density 16.393891
#
# number of rings (size 3 to 8) (size 9 to 14) (size 15 to 20)
#    0.000    2.500    1.250    2.250    5.250    1.000 
#    0.000    0.000    0.000    0.375    0.000    0.000 
#    0.000    2.500    0.000    0.000    0.000    1.875 
#
# Total GULP energy -178152.482194 kJ/mol
# GULP energy per Si atom -5567.265069 kJ/mol
# Density = 1.635658 g / cm^3
# Si number density = 16.393891 Si / 1000 Ang^3
#
#
#
# Elastic Constant Matrix: (Units=GPa)
#
#
# Indices 1 2 3 4 5 6 
#
# 1 19.6887 14.6646 21.2360 -0.0004 -16.7005 -0.0005
# 2 14.6646 49.1512 14.9121 -0.0002 -21.2119 -0.0004
# 3 21.2360 14.9121 102.5942 -0.0008 -25.3661 -0.0009
# 4 -0.0004 -0.0002 -0.0008 12.1368 -0.0006 -9.1796
# 5 -16.7005 -21.2119 -25.3661 -0.0006 25.6826 -0.0007
# 6 -0.0005 -0.0004 -0.0009 -9.1796 -0.0007 10.5693
#
#
#
# Elastic Compliance Matrix: (Units=1/GPa)
#
#
# Indices 1 2 3 4 5 6 
#
# 1 0.117791 -0.004689 -0.007567 0.000040 0.065249 0.000044
# 2 -0.004689 0.032278 0.002800 0.000012 0.026376 0.000013
# 3 -0.007567 0.002800 0.013577 0.000007 0.010802 0.000008
# 4 0.000040 0.000012 0.000007 0.240148 0.000054 0.208573
# 5 0.065249 0.026376 0.010802 0.000054 0.113819 0.000059
# 6 0.000044 0.000013 0.000008 0.208573 0.000059 0.275763
#
#
# Mechanical properties :
#
#
# Convention : Reuss Voigt Hill
#
# Bulk Modulus (GPa) = 6.90924 30.33993 18.62458
# Shear Modulus (GPa) = 5.81036 17.71917 11.76477
#
# Velocity S-wave (km/s) = 1.88465 3.29118 2.68177
# Velocity P-wave (km/s) = 2.99325 5.74365 4.57980
#
# Compressibility (1/GPa) = 0.14473369
#
# Stress axis : x y z
#
# Youngs Moduli (GPa) = 8.48964 30.98132 73.65266
#
# Poissons Ratio (x) = 0.14526 0.55736
# Poissons Ratio (y) = 0.03981 -0.20625
# Poissons Ratio (z) = 0.06425 -0.08676
#
# Static dielectric constant tensor:
#      x y z
#    x 1.543150 0.000000 -0.015120 
#    y 0.000000 1.548600 0.000000 
#    z -0.015120 0.000000 1.661740 
# 
# From -- ./inp_files/279506.got.cif
#   From: 2010.05.17/outbox.cif.g08.bks.cpg/sg12_140_cif.got.tgz:279506.got - 2010.06.03 13:09:07.
