data_PCOD9172868
_publ_section_title
;
Structure prediction by ZEFSAII (Michael W. Deem and Ramdas Pophale) SiO2 
 PCOD9172868
Probable space group: C 2/M
;
_chemical_formula_sum "Si O2"
_cell_formula_units_Z 64
_cell_length_a 25.413173
_cell_length_b 8.904974
_cell_length_c 24.203488
_cell_angle_alpha 90.000000
_cell_angle_beta 46.501502
_cell_angle_gamma 90.000000
_cell_volume 3973.219119
_symmetry_space_group_name_H-M "C 2/M"
_symmetry_group_IT_number 12
_symmetry_cell_setting 'monoclinic'
loop_
_space_group_symop_operation_xyz
x,y,z
-x,y,-z
-x,-y,-z
x,-y,z
1/2+x,1/2+y,z
1/2-x,1/2+y,-z
1/2-x,1/2-y,-z
1/2+x,1/2-y,z
loop_
_atom_site_type_symbol
_atom_site_label
_atom_site_fract_x
_atom_site_fract_y
_atom_site_fract_z
Si Si1 0.332137 0.179159 0.156067
Si Si2 0.437327 0.674088 0.998184
Si Si3 0.226670 0.680825 0.412424
Si Si4 0.116533 0.680815 0.674570
Si Si5 0.546538 0.820187 0.841092
Si Si6 0.693405 0.179726 0.308085
Si Si7 0.908080 0.820625 0.424491
Si Si8 0.026126 0.320392 0.418330
O O1 0.385977 0.223976 0.167850
O O2 0.253512 0.242864 0.226931
O O3 0.330488 0.000000 0.155181
O O4 0.368742 0.242346 0.074106
O O5 0.420906 0.500000 0.001390
O O6 0.474435 0.745573 0.917658
O O7 0.500000 0.685545 0.000000
O O8 0.228041 0.500000 0.417772
O O9 0.303688 0.751346 0.372631
O O10 0.208898 0.716207 0.361210
O O11 0.163768 0.750314 0.495578
O O12 0.121332 0.500000 0.666655
O O13 0.067796 0.717953 0.763329
O O14 0.086053 0.751843 0.640779
O O15 0.539176 0.000000 0.850850
O O16 0.610803 0.220050 0.353467
O O17 0.700343 0.000000 0.297822
O O18 0.975564 0.769071 0.413070
O O19 0.902119 0.000000 0.426765
O O20 0.018110 0.500000 0.414096
O O21 0.000000 0.293573 0.500000
#
# Coordination Sequence:
#
# PCOD9172868 Si02
#       8
#     8   8   8   8   8   8   8   8
#     4  10  18  30  48  73 106 136 170 211 254 304
#     4   9  17  28  45  70 101 137 172 205 249 304
#     4  11  21  36  55  76 104 139 175 216 262 312
#     4  11  22  37  54  76 106 141 178 216 259 312
#     4   9  18  31  48  72 102 137 171 207 254 304
#     4  10  20  33  54  78 103 135 173 213 261 313
#     4  12  25  38  53  76 103 137 179 222 263 308
#     4  10  20  39  59  76  99 134 175 218 268 313
#
# _framework density 16.107845000000001
#
# number of rings (size 3 to 8) (size 9 to 14) (size 15 to 20)
#    0.000    1.750    2.500    3.000    0.000    4.250 
#    0.000    0.000    0.000    0.000    0.000    0.875 
#    0.000    0.000    0.000    0.000    0.000    0.000 
#
# Total GULP energy -178658.977219 kJ/mol
# GULP energy per Si atom -5583.093038 kJ/mol
# Density = 1.607118 g / cm^3
# Si number density = 16.107845 Si / 1000 Ang^3
#
#
#
# Elastic Constant Matrix: (Units=GPa)
#
#
# Indices 1 2 3 4 5 6 
#
# 1 71.9533 45.4066 63.6082 -0.0002 9.5229 -0.0004
# 2 45.4066 66.1381 67.5318 0.0019 0.1108 0.0034
# 3 63.6082 67.5318 159.9608 -0.0001 -11.2800 -0.0004
# 4 -0.0002 0.0019 -0.0001 30.3266 -0.0001 -3.7188
# 5 9.5229 0.1108 -11.2800 -0.0001 15.8345 0.0001
# 6 -0.0004 0.0034 -0.0004 -3.7188 0.0001 24.1563
#
#
#
# Elastic Compliance Matrix: (Units=1/GPa)
#
#
# Indices 1 2 3 4 5 6 
#
# 1 0.035507 -0.013803 -0.010309 0.000001 -0.028601 0.000003
# 2 -0.013803 0.033106 -0.008338 -0.000003 0.002130 -0.000005
# 3 -0.010309 -0.008338 0.015069 0.000001 0.016993 0.000001
# 4 0.000001 -0.000003 0.000001 0.033609 0.000000 0.005174
# 5 -0.028601 0.002130 0.016993 0.000000 0.092444 -0.000001
# 6 0.000003 -0.000005 0.000001 0.005174 -0.000001 0.042194
#
#
# Mechanical properties :
#
#
# Convention : Reuss Voigt Hill
#
# Bulk Modulus (GPa) = 53.23962 72.34949 62.79455
# Shear Modulus (GPa) = 15.47563 22.16385 18.81974
#
# Velocity S-wave (km/s) = 3.10296 3.71343 3.42183
# Velocity P-wave (km/s) = 6.77950 7.96236 7.39462
#
# Compressibility (1/GPa) = 0.01878300
#
# Stress axis : x y z
#
# Youngs Moduli (GPa) = 28.16349 30.20600 66.36119
#
# Poissons Ratio (x) = 0.41694 0.68411
# Poissons Ratio (y) = 0.38874 0.55329
# Poissons Ratio (z) = 0.29033 0.25185
#
# Static dielectric constant tensor:
#      x y z
#    x 1.516820 0.000000 0.003680 
#    y 0.000000 1.535810 0.000000 
#    z 0.003680 0.000000 1.531620 
# 
# From -- ./inp_files/324174.got.cif
#   From: 2010.05.17/outbox.cif.g08.bks.cpg/sg12_163_cif.got.tgz:324174.got - 2010.06.03 13:09:07.
