data_PCOD9172222
_publ_section_title
;
Structure prediction by ZEFSAII (Michael W. Deem and Ramdas Pophale) SiO2 
 PCOD9172222
Probable space group: C 2/M
;
_chemical_formula_sum "Si O2"
_cell_formula_units_Z 48
_cell_length_a 20.013702
_cell_length_b 8.244157
_cell_length_c 16.205238
_cell_angle_alpha 90.000000
_cell_angle_beta 77.659894
_cell_angle_gamma 90.000000
_cell_volume 2612.026175
_symmetry_space_group_name_H-M "C 2/M"
_symmetry_group_IT_number 12
_symmetry_cell_setting 'monoclinic'
loop_
_space_group_symop_operation_xyz
x,y,z
-x,y,-z
-x,-y,-z
x,-y,z
1/2+x,1/2+y,z
1/2-x,1/2+y,-z
1/2-x,1/2-y,-z
1/2+x,1/2-y,z
loop_
_atom_site_type_symbol
_atom_site_label
_atom_site_fract_x
_atom_site_fract_y
_atom_site_fract_z
Si Si1 0.449667 0.695966 0.260749
Si Si2 0.817568 0.196242 0.030882
Si Si3 0.158686 0.806346 0.281896
Si Si4 0.025240 0.306076 0.404541
Si Si5 0.416525 0.302392 0.865512
Si Si6 0.808850 0.804158 0.222200
O O1 0.449325 0.500000 0.259137
O O2 0.476912 0.747258 0.342854
O O3 0.507139 0.749963 0.179031
O O4 0.374297 0.753663 0.256679
O O5 0.815693 0.253887 0.125563
O O6 0.818594 0.000000 0.032356
O O7 0.750000 0.250000 0.000000
O O8 0.882860 0.251562 0.959850
O O9 0.101978 0.747707 0.361422
O O10 0.132039 0.751283 0.198186
O O11 0.235309 0.747206 0.275466
O O12 0.157980 0.000000 0.281399
O O13 0.023524 0.500000 0.405935
O O14 0.000000 0.244815 0.500000
O O15 0.416923 0.500000 0.866473
O O16 0.810695 0.000000 0.220435
#
# Coordination Sequence:
#
# PCOD9172222 Si02
#       6
#     8   8   8   8   8   8
#     4   9  19  35  53  77 109 141 176 215 263 315
#     4  10  18  29  47  73 105 142 184 223 256 297
#     4  10  19  33  55  79 105 139 178 215 258 314
#     4  10  21  38  60  83 104 129 167 214 264 322
#     4   8  15  29  48  71  99 137 180 217 251 297
#     4  10  20  32  50  78 111 145 178 219 262 303
#
# _framework density 18.376539000000001
#
# number of rings (size 3 to 8) (size 9 to 14) (size 15 to 20)
#    0.000    2.500    1.667    2.000    0.000    2.667 
#    0.000    4.167    0.000    0.000    0.000    4.667 
#    0.000    0.000    0.000    0.000    0.000    0.000 
#
# Total GULP energy -133855.807604 kJ/mol
# GULP energy per Si atom -5577.325317 kJ/mol
# Density = 1.833471 g / cm^3
# Si number density = 18.376539 Si / 1000 Ang^3
#
#
#
# Elastic Constant Matrix: (Units=GPa)
#
#
# Indices 1 2 3 4 5 6 
#
# 1 184.5954 18.2119 86.5907 0.0000 -9.1044 0.0000
# 2 18.2119 14.6669 12.8359 0.0000 -0.8980 0.0000
# 3 86.5907 12.8359 128.6677 0.0000 -23.1807 0.0000
# 4 0.0000 0.0000 0.0000 14.7905 0.0000 1.4318
# 5 -9.1044 -0.8980 -23.1807 0.0000 21.6131 0.0000
# 6 0.0000 0.0000 0.0000 1.4318 0.0000 24.1542
#
#
#
# Elastic Compliance Matrix: (Units=1/GPa)
#
#
# Indices 1 2 3 4 5 6 
#
# 1 0.008494 -0.005790 -0.005624 0.000000 -0.002694 0.000000
# 2 -0.005790 0.079296 -0.004784 0.000000 -0.004276 0.000000
# 3 -0.005624 -0.004784 0.014343 0.000000 0.012815 0.000000
# 4 0.000000 0.000000 0.000000 0.068001 0.000000 -0.004031
# 5 -0.002694 -0.004276 0.012815 0.000000 0.058700 0.000000
# 6 0.000000 0.000000 0.000000 -0.004031 0.000000 0.041640
#
#
# Mechanical properties :
#
#
# Convention : Reuss Voigt Hill
#
# Bulk Modulus (GPa) = 14.33984 62.57855 38.45919
# Shear Modulus (GPa) = 15.33206 26.13100 20.73153
#
# Velocity S-wave (km/s) = 2.89161 3.77500 3.36244
# Velocity P-wave (km/s) = 4.35532 7.28891 6.00404
#
# Compressibility (1/GPa) = 0.06973579
#
# Stress axis : x y z
#
# Youngs Moduli (GPa) = 117.73504 12.61105 69.72141
#
# Poissons Ratio (x) = 0.07301 0.39211
# Poissons Ratio (y) = 0.68166 0.33358
# Poissons Ratio (z) = 0.66213 0.06034
#
# Static dielectric constant tensor:
#      x y z
#    x 1.633610 0.000000 -0.012780 
#    y 0.000000 1.644670 0.000000 
#    z -0.012780 0.000000 1.625780 
# 
# From -- ./inp_files/221681.got.cif
#   From: 2010.05.17/outbox.cif.g08.bks.cpg/sg12_111_cif.got.tgz:221681.got - 2010.06.03 13:09:07.
