data_PCOD9172592
_publ_section_title
;
Structure prediction by ZEFSAII (Michael W. Deem and Ramdas Pophale) SiO2 
 PCOD9172592
Probable space group: C 2/M
;
_chemical_formula_sum "Si O2"
_cell_formula_units_Z 56
_cell_length_a 15.645094
_cell_length_b 18.113187
_cell_length_c 19.641426
_cell_angle_alpha 90.000000
_cell_angle_beta 29.018374
_cell_angle_gamma 90.000000
_cell_volume 2700.029139
_symmetry_space_group_name_H-M "C 2/M"
_symmetry_group_IT_number 12
_symmetry_cell_setting 'monoclinic'
loop_
_space_group_symop_operation_xyz
x,y,z
-x,y,-z
-x,-y,-z
x,-y,z
1/2+x,1/2+y,z
1/2-x,1/2+y,-z
1/2-x,1/2-y,-z
1/2+x,1/2-y,z
loop_
_atom_site_type_symbol
_atom_site_label
_atom_site_fract_x
_atom_site_fract_y
_atom_site_fract_z
Si Si1 0.788918 0.916509 0.653014
Si Si2 0.729463 0.314477 0.220767
Si Si3 0.175458 0.340895 0.333576
Si Si4 0.295200 0.583544 0.121141
Si Si5 0.211073 0.265682 0.105535
Si Si6 0.177348 0.794328 0.638690
Si Si7 0.339615 0.353677 0.487122
O O1 0.689433 0.863026 0.774591
O O2 0.741559 0.908276 0.606517
O O3 0.000000 0.897592 0.500000
O O4 0.773238 0.000000 0.687109
O O5 0.685913 0.236362 0.286121
O O6 0.806581 0.288816 0.094243
O O7 0.550120 0.361592 0.331828
O O8 0.195157 0.401915 0.262174
O O9 0.326250 0.334324 0.286583
O O10 0.000000 0.348463 0.500000
O O11 0.265992 0.500000 0.116290
O O12 0.246949 0.650372 0.103683
O O13 0.500000 0.591567 0.000000
O O14 0.005787 0.243636 0.254913
O O15 0.250000 0.250000 0.000000
O O16 0.309907 0.725333 0.545018
O O17 0.233471 0.847454 0.537961
#
# Coordination Sequence:
#
# PCOD9172592 Si02
#       7
#     8   8   8   8   8   8   8
#     4   9  15  26  45  70 104 140 170 203 255 323
#     4   9  16  30  49  75 105 137 179 220 267 315
#     4  11  18  32  60  85 112 149 189 233 270 331
#     4  10  23  42  60  80 112 153 189 230 287 342
#     4  10  21  36  57  82 102 135 187 237 273 327
#     4  10  18  29  53  80 107 135 176 227 271 314
#     4   9  16  27  45  73 106 139 167 211 267 314
#
# _framework density 20.740517000000001
#
# number of rings (size 3 to 8) (size 9 to 14) (size 15 to 20)
#    0.000    2.286    2.857    1.286    2.000    0.286 
#    0.000    2.143    0.000    5.143    0.000    1.000 
#    0.000    0.000    0.000    0.000    0.000    0.000 
#
# Total GULP energy -155886.739254 kJ/mol
# GULP energy per Si atom -5567.383545 kJ/mol
# Density = 2.069331 g / cm^3
# Si number density = 20.740517 Si / 1000 Ang^3
#
#
#
# Elastic Constant Matrix: (Units=GPa)
#
#
# Indices 1 2 3 4 5 6 
#
# 1 77.0364 46.7354 31.8958 0.0039 31.2562 -0.0010
# 2 46.7354 98.3918 32.9766 -0.0311 23.3023 0.0028
# 3 31.8958 32.9766 68.3826 -0.0147 33.2027 0.0047
# 4 0.0039 -0.0311 -0.0147 14.9806 0.0084 4.1086
# 5 31.2562 23.3023 33.2027 0.0084 41.8264 -0.0006
# 6 -0.0010 0.0028 0.0047 4.1086 -0.0006 20.1955
#
#
#
# Elastic Compliance Matrix: (Units=1/GPa)
#
#
# Indices 1 2 3 4 5 6 
#
# 1 0.022989 -0.007684 -0.001228 -0.000018 -0.011923 0.000006
# 2 -0.007684 0.015003 -0.003874 0.000031 0.000459 -0.000008
# 3 -0.001228 -0.003874 0.025337 0.000030 -0.017037 -0.000012
# 4 -0.000018 0.000031 0.000030 0.070698 -0.000042 -0.014383
# 5 -0.011923 0.000459 -0.017037 -0.000042 0.046088 0.000013
# 6 0.000006 -0.000008 -0.000012 -0.014383 0.000013 0.052442
#
#
# Mechanical properties :
#
#
# Convention : Reuss Voigt Hill
#
# Bulk Modulus (GPa) = 26.48492 51.89183 39.18838
# Shear Modulus (GPa) = 18.46980 24.21403 21.34192
#
# Velocity S-wave (km/s) = 2.98739 3.42054 3.21128
# Velocity P-wave (km/s) = 4.96958 6.37762 5.71711
#
# Compressibility (1/GPa) = 0.03775733
#
# Stress axis : x y z
#
# Youngs Moduli (GPa) = 43.49979 66.65348 39.46873
#
# Poissons Ratio (x) = 0.51217 0.04846
# Poissons Ratio (y) = 0.33426 0.15288
# Poissons Ratio (z) = 0.05341 0.25819
#
# Static dielectric constant tensor:
#      x y z
#    x 1.918700 0.000000 -0.022400 
#    y 0.000000 1.733090 0.000010 
#    z -0.022400 0.000010 1.812290 
# 
# From -- ./inp_files/317130.got.cif
#   From: 2010.05.17/outbox.cif.g08.bks.cpg/sg12_159_cif.got.tgz:317130.got - 2010.06.03 13:09:07.
