data_PCOD9172409
_publ_section_title
;
Structure prediction by ZEFSAII (Michael W. Deem and Ramdas Pophale) SiO2 
 PCOD9172409
Probable space group: C 2/M
;
_chemical_formula_sum "Si O2"
_cell_formula_units_Z 40
_cell_length_a 19.643578
_cell_length_b 13.118111
_cell_length_c 10.026594
_cell_angle_alpha 90.000000
_cell_angle_beta 50.284706
_cell_angle_gamma 90.000000
_cell_volume 1987.471856
_symmetry_space_group_name_H-M "C 2/M"
_symmetry_group_IT_number 12
_symmetry_cell_setting 'monoclinic'
loop_
_space_group_symop_operation_xyz
x,y,z
-x,y,-z
-x,-y,-z
x,-y,z
1/2+x,1/2+y,z
1/2-x,1/2+y,-z
1/2-x,1/2-y,-z
1/2+x,1/2-y,z
loop_
_atom_site_type_symbol
_atom_site_label
_atom_site_fract_x
_atom_site_fract_y
_atom_site_fract_z
Si Si1 0.835861 0.383936 0.836550
Si Si2 0.552536 0.287698 0.243804
Si Si3 0.793290 0.179501 0.769434
Si Si4 0.896011 0.115355 0.087861
Si Si5 0.863718 0.878757 0.417181
O O1 0.839167 0.500000 0.790453
O O2 0.778362 0.371000 0.043750
O O3 0.930804 0.331025 0.745578
O O4 0.792672 0.302532 0.788380
O O5 0.610412 0.345711 0.283825
O O6 0.452559 0.321331 0.353319
O O7 0.601168 0.313958 0.044091
O O8 0.791716 0.145039 0.619663
O O9 0.846644 0.149246 0.284368
O O10 0.868471 0.000000 0.085088
O O11 0.000000 0.110003 0.000000
O O12 0.881550 0.000000 0.393144
#
# Coordination Sequence:
#
# PCOD9172409 Si02
#       5
#     8   8   8   8   8
#     4   9  19  34  48  65  96 128 154 188 236 275
#     4   9  17  30  47  75  91 123 154 185 233 282
#     4   9  19  32  49  73  88 123 159 194 229 272
#     4   8  15  27  44  69 100 123 141 183 242 279
#     4  10  18  29  49  75  99 117 148 202 240 261
#
# _framework density 20.126069999999999
#
# number of rings (size 3 to 8) (size 9 to 14) (size 15 to 20)
#    1.200    1.800    0.000    3.000    0.000    4.000 
#    0.000    3.000    0.000    6.600    0.000    0.000 
#    0.000    0.000    0.000    0.000    0.000    0.000 
#
# Total GULP energy -111338.920777 kJ/mol
# GULP energy per Si atom -5566.946039 kJ/mol
# Density = 2.008026 g / cm^3
# Si number density = 20.126070 Si / 1000 Ang^3
#
#
#
# Elastic Constant Matrix: (Units=GPa)
#
#
# Indices 1 2 3 4 5 6 
#
# 1 32.5020 14.8187 6.6544 0.0000 5.0328 0.0000
# 2 14.8187 81.3640 -3.7816 0.0000 0.4193 0.0000
# 3 6.6544 -3.7816 84.2683 0.0000 31.2020 0.0000
# 4 0.0000 0.0000 0.0000 21.0362 0.0000 -0.6688
# 5 5.0328 0.4193 31.2020 0.0000 30.7748 0.0000
# 6 0.0000 0.0000 0.0000 -0.6688 0.0000 14.1326
#
#
#
# Elastic Compliance Matrix: (Units=1/GPa)
#
#
# Indices 1 2 3 4 5 6 
#
# 1 0.034599 -0.006352 -0.001528 0.000000 -0.004023 0.000000
# 2 -0.006352 0.013508 0.001267 0.000000 -0.000430 0.000000
# 3 -0.001528 0.001267 0.019146 0.000000 -0.019179 0.000000
# 4 0.000000 0.000000 0.000000 0.047609 0.000000 0.002253
# 5 -0.004023 -0.000430 -0.019179 0.000000 0.052603 0.000000
# 6 0.000000 0.000000 0.000000 0.002253 0.000000 0.070865
#
#
# Mechanical properties :
#
#
# Convention : Reuss Voigt Hill
#
# Bulk Modulus (GPa) = 18.50896 25.94640 22.22768
# Shear Modulus (GPa) = 18.54848 25.21826 21.88337
#
# Velocity S-wave (km/s) = 3.03910 3.54363 3.30102
# Velocity P-wave (km/s) = 4.64019 5.44638 5.05937
#
# Compressibility (1/GPa) = 0.05402790
#
# Stress axis : x y z
#
# Youngs Moduli (GPa) = 28.90262 74.02813 52.23097
#
# Poissons Ratio (x) = 0.47021 0.07980
# Poissons Ratio (y) = 0.18358 -0.06617
# Poissons Ratio (z) = 0.04416 -0.09379
#
# Static dielectric constant tensor:
#      x y z
#    x 1.748270 0.000000 -0.021970 
#    y 0.000000 1.707970 0.000000 
#    z -0.021970 0.000000 1.779410 
# 
# From -- ./inp_files/175515.got.cif
#   From: 2010.05.17/outbox.cif.g08.bks.cpg/sg12_88_cif.got.tgz:175515.got - 2010.06.03 13:09:07.
