data_PCOD9172057
_publ_section_title
;
Structure prediction by ZEFSAII (Michael W. Deem and Ramdas Pophale) SiO2 
 PCOD9172057
Probable space group: C 2/M
;
_chemical_formula_sum "Si O2"
_cell_formula_units_Z 56
_cell_length_a 23.360328
_cell_length_b 9.120294
_cell_length_c 21.941292
_cell_angle_alpha 90.000000
_cell_angle_beta 130.990240
_cell_angle_gamma 90.000000
_cell_volume 3528.532592
_symmetry_space_group_name_H-M "C 2/M"
_symmetry_group_IT_number 12
_symmetry_cell_setting 'monoclinic'
loop_
_space_group_symop_operation_xyz
x,y,z
-x,y,-z
-x,-y,-z
x,-y,z
1/2+x,1/2+y,z
1/2-x,1/2+y,-z
1/2-x,1/2-y,-z
1/2+x,1/2-y,z
loop_
_atom_site_type_symbol
_atom_site_label
_atom_site_fract_x
_atom_site_fract_y
_atom_site_fract_z
Si Si1 0.020628 0.175926 0.268422
Si Si2 0.243893 0.168177 0.590464
Si Si3 0.348968 0.675752 0.121205
Si Si4 0.868486 0.332046 0.567959
Si Si5 0.413972 0.324186 0.918984
Si Si6 0.120971 0.676628 0.233375
Si Si7 0.803684 0.175928 0.952780
O O1 0.063099 0.235663 0.357953
O O2 0.062575 0.249905 0.240087
O O3 0.931912 0.214404 0.203717
O O4 0.028394 0.000000 0.269702
O O5 0.174191 0.266862 0.520404
O O6 0.305214 0.169898 0.577857
O O7 0.294227 0.214569 0.683393
O O8 0.219003 0.000000 0.580631
O O9 0.340722 0.500000 0.119535
O O10 0.278849 0.751329 0.105927
O O11 0.341432 0.716209 0.044243
O O12 0.891531 0.500000 0.575131
O O13 0.407661 0.500000 0.903829
O O14 0.394663 0.238055 0.844220
O O15 0.357190 0.283041 0.933993
O O16 0.500000 0.295252 0.000000
O O17 0.113980 0.500000 0.231611
O O18 0.795754 0.000000 0.946760
#
# Coordination Sequence:
#
# PCOD9172057 Si02
#       7
#     8   8   8   8   8   8   8
#     4  10  18  29  46  67  94 126 155 186 230 279
#     4   8  15  27  40  58  88 122 152 183 224 273
#     4   9  18  32  49  68  90 119 154 190 228 270
#     4   9  16  25  40  64  91 118 151 189 226 268
#     4  10  20  34  50  68  94 126 156 186 225 276
#     4  10  20  31  45  68  95 123 157 194 229 268
#     4   9  18  32  49  68  90 119 154 190 227 266
#
# _framework density 15.870621
#
# number of rings (size 3 to 8) (size 9 to 14) (size 15 to 20)
#    0.000    2.714    0.000    3.000    0.000    8.286 
#    0.000    2.857    0.000    0.000    0.000    1.000 
#    0.000    8.000    0.000    0.000    0.000    0.000 
#
# Total GULP energy -156032.991813 kJ/mol
# GULP energy per Si atom -5572.606850 kJ/mol
# Density = 1.583450 g / cm^3
# Si number density = 15.870621 Si / 1000 Ang^3
#
#
#
# Elastic Constant Matrix: (Units=GPa)
#
#
# Indices 1 2 3 4 5 6 
#
# 1 80.6872 40.5540 62.6739 0.0000 13.7093 0.0000
# 2 40.5540 56.9828 63.5927 0.0000 11.0039 0.0000
# 3 62.6739 63.5927 141.4295 0.0000 18.0079 0.0000
# 4 0.0000 0.0000 0.0000 24.1813 0.0000 5.3197
# 5 13.7093 11.0039 18.0079 0.0000 20.7040 0.0000
# 6 0.0000 0.0000 0.0000 5.3197 0.0000 19.4172
#
#
#
# Elastic Compliance Matrix: (Units=1/GPa)
#
#
# Indices 1 2 3 4 5 6 
#
# 1 0.021542 -0.008845 -0.004893 0.000000 -0.005307 0.000000
# 2 -0.008845 0.039436 -0.013370 0.000000 -0.003474 0.000000
# 3 -0.004893 -0.013370 0.015669 0.000000 -0.003282 0.000000
# 4 0.000000 0.000000 0.000000 0.044006 0.000000 -0.012056
# 5 -0.005307 -0.003474 -0.003282 0.000000 0.056515 0.000000
# 6 0.000000 0.000000 0.000000 -0.012056 0.000000 0.054804
#
#
# Mechanical properties :
#
#
# Convention : Reuss Voigt Hill
#
# Bulk Modulus (GPa) = 44.58460 68.08231 56.33345
# Shear Modulus (GPa) = 17.02619 20.34578 18.68598
#
# Velocity S-wave (km/s) = 3.27893 3.58436 3.43504
# Velocity P-wave (km/s) = 6.51834 7.75381 7.16276
#
# Compressibility (1/GPa) = 0.02242927
#
# Stress axis : x y z
#
# Youngs Moduli (GPa) = 46.42150 25.35751 63.82163
#
# Poissons Ratio (x) = 0.22430 0.31229
# Poissons Ratio (y) = 0.41062 0.85329
# Poissons Ratio (z) = 0.22715 0.33903
#
# Static dielectric constant tensor:
#      x y z
#    x 1.500290 0.000000 0.002690 
#    y 0.000000 1.532820 0.000000 
#    z 0.002690 0.000000 1.539480 
# 
# From -- ./inp_files/287354.got.cif
#   From: 2010.05.17/outbox.cif.g08.bks.cpg/sg12_144_cif.got.tgz:287354.got - 2010.06.03 13:09:07.
