data_PCOD9172600
_publ_section_title
;
Structure prediction by ZEFSAII (Michael W. Deem and Ramdas Pophale) SiO2 
 PCOD9172600
Probable space group: C 2/M
;
_chemical_formula_sum "Si O2"
_cell_formula_units_Z 44
_cell_length_a 10.392995
_cell_length_b 26.002907
_cell_length_c 14.181572
_cell_angle_alpha 90.000000
_cell_angle_beta 138.527621
_cell_angle_gamma 90.000000
_cell_volume 2538.135536
_symmetry_space_group_name_H-M "C 2/M"
_symmetry_group_IT_number 12
_symmetry_cell_setting 'monoclinic'
loop_
_space_group_symop_operation_xyz
x,y,z
-x,y,-z
-x,-y,-z
x,-y,z
1/2+x,1/2+y,z
1/2-x,1/2+y,-z
1/2-x,1/2-y,-z
1/2+x,1/2-y,z
loop_
_atom_site_type_symbol
_atom_site_label
_atom_site_fract_x
_atom_site_fract_y
_atom_site_fract_z
Si Si1 0.088054 0.000000 0.443494
Si Si2 0.458683 0.000000 0.274393
Si Si3 0.850967 0.500000 0.003627
Si Si4 0.275851 0.187011 0.907333
Si Si5 0.190082 0.096220 0.173441
Si Si6 0.055909 0.914734 0.778588
Si Si7 0.269491 0.699282 0.893324
O O1 0.320953 0.000000 0.570911
O O2 0.000000 0.000000 0.500000
O O3 0.015361 0.949978 0.346162
O O4 0.336252 0.950532 0.239328
O O5 0.459735 0.000000 0.161727
O O6 0.715780 0.449904 0.919904
O O7 0.000000 0.500000 0.000000
O O8 0.153926 0.138813 0.803870
O O9 0.195548 0.243131 0.832638
O O10 0.500000 0.181916 0.000000
O O11 0.264616 0.187119 0.015361
O O12 0.291014 0.150066 0.200595
O O13 0.109970 0.096308 0.235534
O O14 0.000000 0.090032 0.000000
O O15 0.500000 0.703047 0.000000
#
# Coordination Sequence:
#
# PCOD9172600 Si02
#       7
#     4   4   4   8   8   8   8
#     4  11  28  44  54  81 123 159 199 247 294 350
#     4  12  21  36  60  81 111 156 193 239 295 351
#     4  11  20  31  54  84 110 143 196 240 290 352
#     4  10  18  29  54  86 121 155 191 229 306 355
#     4  11  19  34  59  90 119 143 191 251 291 342
#     4  11  21  37  58  82 118 156 189 242 300 343
#     4   9  17  31  50  87 125 148 179 250 296 345
#
# _framework density 17.335560000000001
#
# number of rings (size 3 to 8) (size 9 to 14) (size 15 to 20)
#    0.000    1.455    5.455    3.000    0.000    2.909 
#    0.000    0.000    0.000    1.091    0.000    0.000 
#    0.000    0.000    0.000    0.000    0.000    0.000 
#
# Total GULP energy -122731.562575 kJ/mol
# GULP energy per Si atom -5578.707390 kJ/mol
# Density = 1.729610 g / cm^3
# Si number density = 17.335560 Si / 1000 Ang^3
#
#
#
# Elastic Constant Matrix: (Units=GPa)
#
#
# Indices 1 2 3 4 5 6 
#
# 1 128.8962 57.1422 26.9040 0.0000 -14.5326 0.0000
# 2 57.1422 201.3336 51.0312 0.0000 2.0524 0.0000
# 3 26.9040 51.0312 65.6212 0.0000 -1.3442 0.0000
# 4 0.0000 0.0000 0.0000 3.2997 0.0000 0.1356
# 5 -14.5326 2.0524 -1.3442 0.0000 23.8338 0.0000
# 6 0.0000 0.0000 0.0000 0.1356 0.0000 28.4783
#
#
#
# Elastic Compliance Matrix: (Units=1/GPa)
#
#
# Indices 1 2 3 4 5 6 
#
# 1 0.009932 -0.002343 -0.002124 0.000000 0.006138 0.000000
# 2 -0.002343 0.006754 -0.004338 0.000000 -0.002255 0.000000
# 3 -0.002124 -0.004338 0.019487 0.000000 0.000177 0.000000
# 4 0.000000 0.000000 0.000000 0.303116 0.000000 -0.001443
# 5 0.006138 -0.002255 0.000177 0.000000 0.045904 0.000000
# 6 0.000000 0.000000 0.000000 -0.001443 0.000000 0.035121
#
#
# Mechanical properties :
#
#
# Convention : Reuss Voigt Hill
#
# Bulk Modulus (GPa) = 53.87117 74.00064 63.93591
# Shear Modulus (GPa) = 11.25835 28.50726 19.88280
#
# Velocity S-wave (km/s) = 2.55117 4.05957 3.39032
# Velocity P-wave (km/s) = 6.31038 8.04694 7.23098
#
# Compressibility (1/GPa) = 0.01856280
#
# Stress axis : x y z
#
# Youngs Moduli (GPa) = 100.68058 148.04949 51.31565
#
# Poissons Ratio (x) = 0.34690 0.10901
# Poissons Ratio (y) = 0.23591 0.22262
# Poissons Ratio (z) = 0.21387 0.64228
#
# Static dielectric constant tensor:
#      x y z
#    x 1.588670 0.000000 -0.007650 
#    y 0.000000 1.629890 0.000000 
#    z -0.007650 0.000000 1.551880 
# 
# From -- ./inp_files/124514.got.cif
#   From: 2010.05.17/outbox.cif.g08.bks.cpg/sg12_63_cif.got.tgz:124514.got - 2010.06.03 13:09:07.
