data_PCOD9172314
_publ_section_title
;
Structure prediction by ZEFSAII (Michael W. Deem and Ramdas Pophale) SiO2 
 PCOD9172314
Probable space group: C 2/M
;
_chemical_formula_sum "Si O2"
_cell_formula_units_Z 64
_cell_length_a 21.326428
_cell_length_b 7.491170
_cell_length_c 20.673266
_cell_angle_alpha 90.000000
_cell_angle_beta 105.190063
_cell_angle_gamma 90.000000
_cell_volume 3187.366914
_symmetry_space_group_name_H-M "C 2/M"
_symmetry_group_IT_number 12
_symmetry_cell_setting 'monoclinic'
loop_
_space_group_symop_operation_xyz
x,y,z
-x,y,-z
-x,-y,-z
x,-y,z
1/2+x,1/2+y,z
1/2-x,1/2+y,-z
1/2-x,1/2-y,-z
1/2+x,1/2-y,z
loop_
_atom_site_type_symbol
_atom_site_label
_atom_site_fract_x
_atom_site_fract_y
_atom_site_fract_z
Si Si1 0.566694 0.280652 0.784445
Si Si2 0.329596 0.708142 0.290646
Si Si3 0.947223 0.217199 0.075594
Si Si4 0.684074 0.716699 0.211871
Si Si5 0.658291 0.788321 0.425777
Si Si6 0.077624 0.206737 0.285065
Si Si7 0.698720 0.286069 0.576278
Si Si8 0.092273 0.217121 0.074130
O O1 0.568108 0.500000 0.784509
O O2 0.619536 0.216666 0.747119
O O3 0.578512 0.224992 0.861804
O O4 0.494136 0.220245 0.745617
O O5 0.347164 0.500000 0.302715
O O6 0.256560 0.719060 0.243829
O O7 0.327424 0.784901 0.362742
O O8 0.022907 0.269161 0.086740
O O9 0.946637 0.000000 0.074921
O O10 0.909445 0.276090 0.000918
O O11 0.686766 0.500000 0.214150
O O12 0.635096 0.780525 0.255266
O O13 0.651260 0.773553 0.135552
O O14 0.601711 0.716338 0.365102
O O15 0.656077 0.750360 0.501356
O O16 0.728338 0.717420 0.419430
O O17 0.658216 0.000000 0.417319
O O18 0.072648 0.000000 0.263970
O O19 0.704470 0.500000 0.583597
O O20 0.092714 0.000000 0.074112
#
# Coordination Sequence:
#
# PCOD9172314 Si02
#       8
#     8   8   8   8   8   8   8   8
#     4   9  17  30  48  70  97 130 165 199 237 284
#     4  10  20  34  50  70  99 131 161 195 239 291
#     4   8  12  22  42  69  98 125 158 200 242 276
#     4  10  18  29  48  74 100 125 160 203 242 281
#     4  10  19  31  50  74  97 122 157 200 242 284
#     4  10  18  30  50  75  98 122 160 204 241 279
#     4   9  18  32  48  69  96 125 159 196 237 284
#     4   8  13  22  41  71 101 123 153 204 247 273
#
# _framework density 20.079270000000001
#
# number of rings (size 3 to 8) (size 9 to 14) (size 15 to 20)
#    0.000    2.750    2.500    1.125    0.000    1.000 
#    0.000    1.875    0.000    3.750    0.000    2.625 
#    0.000    0.000    0.000    0.000    0.000    0.000 
#
# Total GULP energy -178497.813463 kJ/mol
# GULP energy per Si atom -5578.056671 kJ/mol
# Density = 2.003357 g / cm^3
# Si number density = 20.079270 Si / 1000 Ang^3
#
#
#
# Elastic Constant Matrix: (Units=GPa)
#
#
# Indices 1 2 3 4 5 6 
#
# 1 101.3301 -3.1332 76.7043 0.0000 -17.8690 0.0000
# 2 -3.1332 53.1755 -6.8221 0.0000 -8.2712 0.0000
# 3 76.7043 -6.8221 167.7097 0.0000 -14.9335 0.0000
# 4 0.0000 0.0000 0.0000 0.4990 0.0000 5.5719
# 5 -17.8690 -8.2712 -14.9335 0.0000 28.5184 0.0000
# 6 0.0000 0.0000 0.0000 5.5719 0.0000 9.4399
#
#
#
# Elastic Compliance Matrix: (Units=1/GPa)
#
#
# Indices 1 2 3 4 5 6 
#
# 1 0.016259 0.001176 -0.006766 0.000000 0.006986 0.000000
# 2 0.001176 0.020086 0.000906 0.000000 0.007037 0.000000
# 3 -0.006766 0.000906 0.009168 0.000000 0.000824 0.000000
# 4 0.000000 0.000000 0.000000 -0.358461 0.000000 0.211579
# 5 0.006986 0.007037 0.000824 0.000000 0.041914 0.000000
# 6 0.000000 0.000000 0.000000 0.211579 0.000000 -0.018950
#
#
# Mechanical properties :
#
#
# Convention : Reuss Voigt Hill
#
# Bulk Modulus (GPa) = 27.66742 50.63479 39.15110
# Shear Modulus (GPa) = -18.61726 24.72255 3.05264
#
# Velocity S-wave (km/s) = -3.04828 3.51272 1.23434
# Velocity P-wave (km/s) = 1.19149 6.45945 4.64457
#
# Compressibility (1/GPa) = 0.03614360
#
# Stress axis : x y z
#
# Youngs Moduli (GPa) = 61.50457 49.78659 109.08051
#
# Poissons Ratio (x) = -0.05857 0.73808
# Poissons Ratio (y) = -0.07236 -0.09878
# Poissons Ratio (z) = 0.41616 -0.04508
#
# Static dielectric constant tensor:
#      x y z
#    x 1.672970 0.000000 -0.012340 
#    y 0.000000 1.767890 0.000000 
#    z -0.012340 0.000000 1.726820 
# 
# From -- ./inp_files/287784.got.cif
#   From: 2010.05.17/outbox.cif.g08.bks.cpg/sg12_144_cif.got.tgz:287784.got - 2010.06.03 13:09:07.
