data_PCOD9172520
_publ_section_title
;
Structure prediction by ZEFSAII (Michael W. Deem and Ramdas Pophale) SiO2 
 PCOD9172520
Probable space group: C 2/M
;
_chemical_formula_sum "Si O2"
_cell_formula_units_Z 48
_cell_length_a 34.719584
_cell_length_b 12.931847
_cell_length_c 10.608351
_cell_angle_alpha 90.000000
_cell_angle_beta 26.861518
_cell_angle_gamma 90.000000
_cell_volume 2152.104910
_symmetry_space_group_name_H-M "C 2/M"
_symmetry_group_IT_number 12
_symmetry_cell_setting 'monoclinic'
loop_
_space_group_symop_operation_xyz
x,y,z
-x,y,-z
-x,-y,-z
x,-y,z
1/2+x,1/2+y,z
1/2-x,1/2+y,-z
1/2-x,1/2-y,-z
1/2+x,1/2-y,z
loop_
_atom_site_type_symbol
_atom_site_label
_atom_site_fract_x
_atom_site_fract_y
_atom_site_fract_z
Si Si1 0.827445 0.624667 0.099589
Si Si2 0.198258 0.374078 0.096768
Si Si3 0.764931 0.625360 0.736396
Si Si4 0.075280 0.728210 0.864264
Si Si5 0.816548 0.877066 0.281945
Si Si6 0.996075 0.378883 0.321424
O O1 0.833763 0.500000 0.078984
O O2 0.772456 0.646351 0.384771
O O3 0.777709 0.653740 0.117016
O O4 0.925729 0.660675 0.820156
O O5 0.198556 0.500000 0.098184
O O6 0.248919 0.346216 0.076198
O O7 0.099800 0.337024 0.394885
O O8 0.775407 0.500000 0.700643
O O9 0.851567 0.677588 0.434289
O O10 0.695259 0.649146 0.831227
O O11 0.113207 0.814157 0.847089
O O12 0.032932 0.639960 0.074605
O O13 0.000000 0.773820 0.000000
O O14 0.831021 0.000000 0.249801
O O15 0.987235 0.500000 0.374586
#
# Coordination Sequence:
#
# PCOD9172520 Si02
#       6
#     8   8   8   8   8   8
#     4   9  17  31  51  75 106 144 173 206 256 314
#     4   9  17  29  50  80 111 137 166 205 263 325
#     4  10  19  33  54  82 109 133 166 214 268 319
#     4  12  22  33  54  77 108 139 178 217 263 305
#     4  10  22  38  55  74 102 142 184 219 257 301
#     4  10  18  29  50  81 114 141 165 204 264 327
#
# _framework density 22.303744999999999
#
# number of rings (size 3 to 8) (size 9 to 14) (size 15 to 20)
#    0.000    2.000    3.333    1.500    0.000    3.000 
#    0.000    0.833    0.000    0.000    0.000    0.000 
#    0.000    9.333    0.000    0.000    0.000    0.000 
#
# Total GULP energy -134022.822297 kJ/mol
# GULP energy per Si atom -5584.284262 kJ/mol
# Density = 2.225298 g / cm^3
# Si number density = 22.303745 Si / 1000 Ang^3
#
#
#
# Elastic Constant Matrix: (Units=GPa)
#
#
# Indices 1 2 3 4 5 6 
#
# 1 207.6339 46.6833 26.2704 0.0000 11.1096 0.0000
# 2 46.6833 68.7904 7.2518 0.0000 -1.5060 0.0000
# 3 26.2704 7.2518 46.0437 0.0000 9.6888 0.0000
# 4 0.0000 0.0000 0.0000 20.2138 0.0000 6.4008
# 5 11.1096 -1.5060 9.6888 0.0000 42.5472 0.0000
# 6 0.0000 0.0000 0.0000 6.4008 0.0000 43.7666
#
#
#
# Elastic Compliance Matrix: (Units=1/GPa)
#
#
# Indices 1 2 3 4 5 6 
#
# 1 0.006079 -0.003874 -0.002621 0.000000 -0.001128 0.000000
# 2 -0.003874 0.017301 -0.000899 0.000000 0.001829 0.000000
# 3 -0.002621 -0.000899 0.024387 0.000000 -0.004901 0.000000
# 4 0.000000 0.000000 0.000000 0.051873 0.000000 -0.007586
# 5 -0.001128 0.001829 -0.004901 0.000000 0.024978 0.000000
# 6 0.000000 0.000000 0.000000 -0.007586 0.000000 0.023958
#
#
# Mechanical properties :
#
#
# Convention : Reuss Voigt Hill
#
# Bulk Modulus (GPa) = 30.32318 53.65321 41.98820
# Shear Modulus (GPa) = 28.67669 37.45636 33.06652
#
# Velocity S-wave (km/s) = 3.58960 4.10246 3.85457
# Velocity P-wave (km/s) = 5.55026 6.82262 6.21907
#
# Compressibility (1/GPa) = 0.03297807
#
# Stress axis : x y z
#
# Youngs Moduli (GPa) = 164.49807 57.80125 41.00566
#
# Poissons Ratio (x) = 0.22391 0.10748
# Poissons Ratio (y) = 0.63724 0.03688
# Poissons Ratio (z) = 0.43116 0.05199
#
# Static dielectric constant tensor:
#      x y z
#    x 1.896740 0.000000 0.026450 
#    y 0.000000 1.896570 0.000000 
#    z 0.026450 0.000000 1.803130 
# 
# From -- ./inp_files/111471.got.cif
#   From: 2010.05.17/outbox.cif.g08.bks.cpg/sg12_56_cif.got.tgz:111471.got - 2010.06.03 13:09:07.
