data_PCOD9172462
_publ_section_title
;
Structure prediction by ZEFSAII (Michael W. Deem and Ramdas Pophale) SiO2 
 PCOD9172462
Probable space group: C 2/M
;
_chemical_formula_sum "Si O2"
_cell_formula_units_Z 56
_cell_length_a 20.670190
_cell_length_b 21.139096
_cell_length_c 8.254878
_cell_angle_alpha 90.000000
_cell_angle_beta 83.115278
_cell_angle_gamma 90.000000
_cell_volume 3580.953196
_symmetry_space_group_name_H-M "C 2/M"
_symmetry_group_IT_number 12
_symmetry_cell_setting 'monoclinic'
loop_
_space_group_symop_operation_xyz
x,y,z
-x,y,-z
-x,-y,-z
x,-y,z
1/2+x,1/2+y,z
1/2-x,1/2+y,-z
1/2-x,1/2-y,-z
1/2+x,1/2-y,z
loop_
_atom_site_type_symbol
_atom_site_label
_atom_site_fract_x
_atom_site_fract_y
_atom_site_fract_z
Si Si1 0.661981 0.768806 0.364889
Si Si2 0.207579 0.314376 0.022172
Si Si3 0.427955 0.650730 0.593093
Si Si4 0.295215 0.572367 0.120366
Si Si5 0.434858 0.573110 0.917709
Si Si6 0.286064 0.826905 0.334968
Si Si7 0.692093 0.426153 0.501872
O O1 0.662544 0.805512 0.193747
O O2 0.602025 0.720813 0.394069
O O3 0.669542 0.811070 0.523478
O O4 0.727685 0.725290 0.346305
O O5 0.254095 0.374029 0.043648
O O6 0.250000 0.250000 0.000000
O O7 0.179448 0.323900 0.850024
O O8 0.500000 0.648737 0.500000
O O9 0.428934 0.620569 0.770992
O O10 0.376481 0.608465 0.507984
O O11 0.275387 0.500000 0.087030
O O12 0.289722 0.581458 0.314938
O O13 0.370640 0.578765 0.046898
O O14 0.437841 0.500000 0.857791
O O15 0.500000 0.584996 0.000000
O O16 0.246993 0.891683 0.378706
O O17 0.686520 0.500000 0.465406
#
# Coordination Sequence:
#
# PCOD9172462 Si02
#       7
#     8   8   8   8   8   8   8
#     4   9  18  33  46  67  95 119 163 208 246 295
#     4  10  18  29  50  71  93 127 163 202 257 305
#     4  11  22  34  47  66  94 133 175 211 247 289
#     4  10  19  31  47  71 102 132 165 210 252 295
#     4  10  20  33  45  63  94 133 176 211 241 286
#     4   9  17  30  49  70  92 123 158 201 247 295
#     4  10  19  31  50  72 101 133 164 204 249 297
#
# _framework density 15.638294999999999
#
# number of rings (size 3 to 8) (size 9 to 14) (size 15 to 20)
#    0.000    2.143    1.429    3.857    2.000    4.000 
#    2.571    0.000    0.000    0.000    0.000    0.000 
#    0.000    2.286    0.000    2.571    0.000    0.000 
#
# Total GULP energy -156080.163812 kJ/mol
# GULP energy per Si atom -5574.291565 kJ/mol
# Density = 1.560270 g / cm^3
# Si number density = 15.638295 Si / 1000 Ang^3
#
#
#
# Elastic Constant Matrix: (Units=GPa)
#
#
# Indices 1 2 3 4 5 6 
#
# 1 27.7005 34.6813 23.6085 0.0000 6.8014 0.0000
# 2 34.6813 79.4781 44.6493 0.0000 4.6332 0.0000
# 3 23.6085 44.6493 109.7460 0.0000 3.5657 0.0000
# 4 0.0000 0.0000 0.0000 24.3677 0.0000 4.6941
# 5 6.8014 4.6332 3.5657 0.0000 11.6092 0.0000
# 6 0.0000 0.0000 0.0000 4.6941 0.0000 17.2667
#
#
#
# Elastic Compliance Matrix: (Units=1/GPa)
#
#
# Indices 1 2 3 4 5 6 
#
# 1 0.096260 -0.037282 -0.004233 0.000000 -0.040216 0.000000
# 2 -0.037282 0.030987 -0.004944 0.000000 0.010994 0.000000
# 3 -0.004233 -0.004944 0.012009 0.000000 0.000764 0.000000
# 4 0.000000 0.000000 0.000000 0.043306 0.000000 -0.011773
# 5 -0.040216 0.010994 0.000764 0.000000 0.105078 0.000000
# 6 0.000000 0.000000 0.000000 -0.011773 0.000000 0.061115
#
#
# Mechanical properties :
#
#
# Convention : Reuss Voigt Hill
#
# Bulk Modulus (GPa) = 21.58032 46.97808 34.27920
# Shear Modulus (GPa) = 10.93809 18.24775 14.59292
#
# Velocity S-wave (km/s) = 2.64757 3.41964 3.05807
# Velocity P-wave (km/s) = 4.81412 6.76000 5.86828
#
# Compressibility (1/GPa) = 0.04633851
#
# Stress axis : x y z
#
# Youngs Moduli (GPa) = 10.38857 32.27161 83.27011
#
# Poissons Ratio (x) = 1.20314 0.35247
# Poissons Ratio (y) = 0.38730 0.41169
# Poissons Ratio (z) = 0.04397 0.15955
#
# Static dielectric constant tensor:
#      x y z
#    x 1.478270 0.000000 0.011520 
#    y 0.000000 1.523400 0.000000 
#    z 0.011520 0.000000 1.560040 
# 
# From -- ./inp_files/76937.got.cif
#   From: 2010.05.17/outbox.cif.g08.bks.cpg/sg12_39_cif.got.tgz:76937.got - 2010.06.03 13:09:07.
