data_PCOD9172348
_publ_section_title
;
Structure prediction by ZEFSAII (Michael W. Deem and Ramdas Pophale) SiO2 
 PCOD9172348
Probable space group: C 2/M
;
_chemical_formula_sum "Si O2"
_cell_formula_units_Z 52
_cell_length_a 5.496939
_cell_length_b 24.733135
_cell_length_c 17.853967
_cell_angle_alpha 90.000000
_cell_angle_beta 57.805717
_cell_angle_gamma 90.000000
_cell_volume 2054.147441
_symmetry_space_group_name_H-M "C 2/M"
_symmetry_group_IT_number 12
_symmetry_cell_setting 'monoclinic'
loop_
_space_group_symop_operation_xyz
x,y,z
-x,y,-z
-x,-y,-z
x,-y,z
1/2+x,1/2+y,z
1/2-x,1/2+y,-z
1/2-x,1/2-y,-z
1/2+x,1/2-y,z
loop_
_atom_site_type_symbol
_atom_site_label
_atom_site_fract_x
_atom_site_fract_y
_atom_site_fract_z
Si Si1 0.153664 0.000000 0.556410
Si Si2 0.000000 0.622228 0.000000
Si Si3 0.348451 0.617405 0.442993
Si Si4 0.139704 0.105816 0.192582
Si Si5 0.970790 0.769286 0.830192
Si Si6 0.500000 0.371448 0.000000
Si Si7 0.904776 0.228886 0.629770
Si Si8 0.158480 0.564037 0.184789
O O1 0.500000 0.000000 0.500000
O O2 0.080868 0.058250 0.601475
O O3 0.000000 0.000000 0.500000
O O4 0.159917 0.587105 0.911157
O O5 0.764226 0.657233 0.996077
O O6 0.500000 0.618722 0.500000
O O7 0.478422 0.668627 0.379957
O O8 0.000000 0.622789 0.500000
O O9 0.353271 0.093443 0.225239
O O10 0.086907 0.168747 0.183174
O O11 0.833002 0.077274 0.232355
O O12 0.170123 0.762192 0.870677
O O13 0.186214 0.744873 0.731671
O O14 0.647262 0.409040 0.912610
O O15 0.696029 0.235418 0.591670
O O16 0.126489 0.500000 0.181641
#
# Coordination Sequence:
#
# PCOD9172348 Si02
#       8
#     4   4   8   8   8   4   8   8
#     4   8  16  30  48  76 112 152 178 197 254 319
#     4   8  16  28  45  71 101 132 171 218 274 326
#     4  10  19  32  53  83 120 149 176 218 264 319
#     4  10  19  33  51  74 105 138 176 227 273 332
#     4  10  21  38  56  75  96 140 190 226 277 322
#     4   8  15  26  42  67 105 136 163 205 262 335
#     4  10  21  35  53  81 107 144 185 228 270 317
#     4  10  18  29  48  77 105 137 171 211 273 337
#
# _framework density 25.314639
#
# number of rings (size 3 to 8) (size 9 to 14) (size 15 to 20)
#    0.000    2.462    0.000    2.538    0.000    1.846 
#    0.000    5.385    0.000    0.000   48.000    0.000 
#    0.000    0.000    0.000    0.000    0.000    0.308 
#
# Total GULP energy -145083.434067 kJ/mol
# GULP energy per Si atom -5580.132080 kJ/mol
# Density = 2.525702 g / cm^3
# Si number density = 25.314639 Si / 1000 Ang^3
#
#
#
# Elastic Constant Matrix: (Units=GPa)
#
#
# Indices 1 2 3 4 5 6 
#
# 1 305.2022 43.1036 19.2781 0.0000 -31.3663 0.0000
# 2 43.1036 164.6872 17.1128 0.0000 -32.6621 0.0000
# 3 19.2781 17.1128 44.2273 0.0000 -7.6541 0.0000
# 4 0.0000 0.0000 0.0000 16.0062 0.0000 -11.2329
# 5 -31.3663 -32.6621 -7.6541 0.0000 22.6870 0.0000
# 6 0.0000 0.0000 0.0000 -11.2329 0.0000 40.6744
#
#
#
# Elastic Compliance Matrix: (Units=1/GPa)
#
#
# Indices 1 2 3 4 5 6 
#
# 1 0.003847 0.000110 -0.000819 0.000000 0.005200 0.000000
# 2 0.000110 0.008567 -0.001276 0.000000 0.012054 0.000000
# 3 -0.000819 -0.001276 0.024370 0.000000 0.005252 0.000000
# 4 0.000000 0.000000 0.000000 0.077495 0.000000 0.021402
# 5 0.005200 0.012054 0.005252 0.000000 0.070394 0.000000
# 6 0.000000 0.000000 0.000000 0.021402 0.000000 0.030496
#
#
# Mechanical properties :
#
#
# Convention : Reuss Voigt Hill
#
# Bulk Modulus (GPa) = 30.47652 74.78952 52.63302
# Shear Modulus (GPa) = 21.73166 44.84835 33.29001
#
# Velocity S-wave (km/s) = 2.93313 4.21365 3.63030
# Velocity P-wave (km/s) = 4.85142 7.29940 6.19748
#
# Compressibility (1/GPa) = 0.03281215
#
# Stress axis : x y z
#
# Youngs Moduli (GPa) = 259.92565 116.73012 41.03352
#
# Poissons Ratio (x) = -0.01279 0.03362
# Poissons Ratio (y) = -0.02848 0.05237
# Poissons Ratio (z) = 0.21297 0.14898
#
# Static dielectric constant tensor:
#      x y z
#    x 2.149160 0.000000 0.084170 
#    y 0.000000 1.927310 0.000000 
#    z 0.084170 0.000000 2.068750 
# 
# From -- ./inp_files/331249.got.cif
#   From: 2010.05.17/outbox.cif.g08.bks.cpg/sg12_166_cif.got.tgz:331249.got - 2010.06.03 13:09:07.
