data_PCOD9172629
_publ_section_title
;
Structure prediction by ZEFSAII (Michael W. Deem and Ramdas Pophale) SiO2 
 PCOD9172629
Probable space group: C 2/M
;
_chemical_formula_sum "Si O2"
_cell_formula_units_Z 64
_cell_length_a 28.598371
_cell_length_b 9.284862
_cell_length_c 20.745207
_cell_angle_alpha 90.000000
_cell_angle_beta 51.971269
_cell_angle_gamma 90.000000
_cell_volume 4339.067755
_symmetry_space_group_name_H-M "C 2/M"
_symmetry_group_IT_number 12
_symmetry_cell_setting 'monoclinic'
loop_
_space_group_symop_operation_xyz
x,y,z
-x,y,-z
-x,-y,-z
x,-y,z
1/2+x,1/2+y,z
1/2-x,1/2+y,-z
1/2-x,1/2-y,-z
1/2+x,1/2-y,z
loop_
_atom_site_type_symbol
_atom_site_label
_atom_site_fract_x
_atom_site_fract_y
_atom_site_fract_z
Si Si1 0.645442 0.669515 0.977712
Si Si2 0.780074 0.670130 0.679696
Si Si3 0.809621 0.171510 0.924811
Si Si4 0.070543 0.330276 0.936777
Si Si5 0.716135 0.171366 0.176360
Si Si6 0.359315 0.670470 0.234494
Si Si7 0.192190 0.165673 0.469443
Si Si8 0.166748 0.333840 0.615977
O O1 0.633530 0.500000 0.975858
O O2 0.601613 0.766593 0.973986
O O3 0.713364 0.696122 0.896433
O O4 0.644609 0.695353 0.055398
O O5 0.791653 0.500000 0.660376
O O6 0.796503 0.709446 0.738844
O O7 0.708896 0.689139 0.731697
O O8 0.811417 0.760936 0.597303
O O9 0.820266 0.239998 0.845922
O O10 0.799940 0.000000 0.928408
O O11 0.750000 0.250000 0.000000
O O12 0.083560 0.500000 0.919638
O O13 0.098290 0.245690 0.852920
O O14 0.000000 0.310749 0.000000
O O15 0.706736 0.000000 0.175469
O O16 0.370468 0.500000 0.229250
O O17 0.363207 0.745489 0.300825
O O18 0.160691 0.256361 0.552352
O O19 0.262564 0.166691 0.427674
O O20 0.172797 0.000000 0.485431
O O21 0.647609 0.000000 0.630554
#
# Coordination Sequence:
#
# PCOD9172629 Si02
#       8
#     8   8   8   8   8   8   8   8
#     4   9  17  31  45  58  77 104 137 172 208 249
#     4   9  16  26  39  56  81 109 136 169 203 238
#     4   9  17  27  40  59  80 102 132 167 203 244
#     4  11  23  34  44  61  82 104 137 180 220 255
#     4   9  16  27  41  60  83 107 137 169 203 244
#     4  10  18  30  45  58  75 103 137 173 210 248
#     4   9  16  24  35  55  78 104 137 167 197 237
#     4   9  16  26  39  55  76 102 133 168 204 241
#
# _framework density 14.749712000000001
#
# number of rings (size 3 to 8) (size 9 to 14) (size 15 to 20)
#    0.000    2.625    1.250    2.625    0.000    7.500 
#    0.000    0.000    0.000    0.000    0.000    0.000 
#    0.000    0.000    0.000    1.125    0.000   21.000 
#
# Total GULP energy -178251.246051 kJ/mol
# GULP energy per Si atom -5570.351439 kJ/mol
# Density = 1.471614 g / cm^3
# Si number density = 14.749712 Si / 1000 Ang^3
#
#
#
# Elastic Constant Matrix: (Units=GPa)
#
#
# Indices 1 2 3 4 5 6 
#
# 1 50.0381 53.9385 51.6174 0.0004 25.7129 -0.0002
# 2 53.9385 111.4576 74.7034 0.0000 26.6554 0.0017
# 3 51.6174 74.7034 88.9914 -0.0006 40.4753 0.0002
# 4 0.0004 0.0000 -0.0006 26.2257 0.0003 9.3532
# 5 25.7129 26.6554 40.4753 0.0003 29.7512 -0.0002
# 6 -0.0002 0.0017 0.0002 9.3532 -0.0002 19.9971
#
#
#
# Elastic Compliance Matrix: (Units=1/GPa)
#
#
# Indices 1 2 3 4 5 6 
#
# 1 0.061131 -0.016736 -0.011014 -0.000002 -0.022855 0.000003
# 2 -0.016736 0.027298 -0.022723 0.000000 0.020920 -0.000002
# 3 -0.011014 -0.022723 0.060622 0.000002 -0.052597 0.000000
# 4 -0.000002 0.000000 0.000002 0.045765 -0.000002 -0.021405
# 5 -0.022855 0.020920 -0.052597 -0.000002 0.106177 0.000000
# 6 0.000003 -0.000002 0.000000 -0.021405 0.000000 0.060019
#
#
# Mechanical properties :
#
#
# Convention : Reuss Voigt Hill
#
# Bulk Modulus (GPa) = 20.78737 67.88953 44.33845
# Shear Modulus (GPa) = 10.46043 19.87665 15.16854
#
# Velocity S-wave (km/s) = 2.66596 3.67494 3.21034
# Velocity P-wave (km/s) = 4.85803 8.00841 6.62326
#
# Compressibility (1/GPa) = 0.04810612
#
# Stress axis : x y z
#
# Youngs Moduli (GPa) = 16.35826 36.63327 16.49569
#
# Poissons Ratio (x) = 0.61309 0.18168
# Poissons Ratio (y) = 0.27377 0.37483
# Poissons Ratio (z) = 0.18017 0.83240
#
# Static dielectric constant tensor:
#      x y z
#    x 1.472920 0.000000 0.033540 
#    y 0.000000 1.490880 0.000000 
#    z 0.033540 0.000000 1.484190 
# 
# From -- ./inp_files/323599.got.cif
#   From: 2010.05.17/outbox.cif.g08.bks.cpg/sg12_162_cif.got.tgz:323599.got - 2010.06.03 13:09:07.
