data_PCOD9172810
_publ_section_title
;
Structure prediction by ZEFSAII (Michael W. Deem and Ramdas Pophale) SiO2 
 PCOD9172810
Probable space group: C 2/M
;
_chemical_formula_sum "Si O2"
_cell_formula_units_Z 56
_cell_length_a 19.870553
_cell_length_b 8.084469
_cell_length_c 20.361317
_cell_angle_alpha 90.000000
_cell_angle_beta 113.258196
_cell_angle_gamma 90.000000
_cell_volume 3005.089803
_symmetry_space_group_name_H-M "C 2/M"
_symmetry_group_IT_number 12
_symmetry_cell_setting 'monoclinic'
loop_
_space_group_symop_operation_xyz
x,y,z
-x,y,-z
-x,-y,-z
x,-y,z
1/2+x,1/2+y,z
1/2-x,1/2+y,-z
1/2-x,1/2-y,-z
1/2+x,1/2-y,z
loop_
_atom_site_type_symbol
_atom_site_label
_atom_site_fract_x
_atom_site_fract_y
_atom_site_fract_z
Si Si1 0.985344 0.302456 0.569014
Si Si2 0.752802 0.698156 0.797419
Si Si3 0.404248 0.300446 0.897052
Si Si4 0.701889 0.699601 0.918991
Si Si5 0.568346 0.701509 0.944850
Si Si6 0.174056 0.196989 0.505679
Si Si7 0.356171 0.699740 0.356886
O O1 0.983758 0.500000 0.567616
O O2 0.903975 0.244860 0.558142
O O3 0.000000 0.239419 0.500000
O O4 0.061001 0.247429 0.632079
O O5 0.744046 0.500000 0.794935
O O6 0.838583 0.736459 0.827734
O O7 0.727951 0.764964 0.859067
O O8 0.702826 0.760589 0.718908
O O9 0.402058 0.500000 0.895773
O O10 0.484808 0.245125 0.906460
O O11 0.399349 0.246097 0.971762
O O12 0.703456 0.500000 0.916555
O O13 0.620328 0.754661 0.906397
O O14 0.750000 0.750000 0.000000
O O15 0.567722 0.500000 0.946508
O O16 0.250000 0.250000 0.500000
O O17 0.164885 0.261085 0.577660
O O18 0.176225 0.000000 0.509357
O O19 0.353666 0.500000 0.358319
#
# Coordination Sequence:
#
# PCOD9172810 Si02
#       7
#     8   8   8   8   8   8   8
#     4   9  17  31  53  79 104 131 169 209 242 292
#     4  10  20  32  48  72 101 130 160 202 252 298
#     4   9  16  29  48  66  89 125 164 201 244 293
#     4  10  18  30  48  69  93 122 162 207 245 286
#     4   8  15  28  46  66  88 119 160 204 245 286
#     4  10  19  33  55  79 104 135 170 209 252 300
#     4   9  19  35  51  71 104 141 168 200 257 311
#
# _framework density 18.635052000000002
#
# number of rings (size 3 to 8) (size 9 to 14) (size 15 to 20)
#    0.000    2.714    1.429    1.714    0.000    2.857 
#    0.000    3.571    0.000    1.714    0.000    0.000 
#    0.000    0.000    0.000    0.000    0.000    0.000 
#
# Total GULP energy -155933.375789 kJ/mol
# GULP energy per Si atom -5569.049135 kJ/mol
# Density = 1.859264 g / cm^3
# Si number density = 18.635052 Si / 1000 Ang^3
#
#
#
# Elastic Constant Matrix: (Units=GPa)
#
#
# Indices 1 2 3 4 5 6 
#
# 1 137.5634 11.0407 60.1079 0.0000 25.8371 0.0000
# 2 11.0407 17.3394 9.8035 0.0000 0.8412 0.0000
# 3 60.1079 9.8035 107.1426 0.0000 31.3273 0.0000
# 4 0.0000 0.0000 0.0000 17.5470 0.0000 7.8245
# 5 25.8371 0.8412 31.3273 0.0000 29.9044 0.0000
# 6 0.0000 0.0000 0.0000 7.8245 0.0000 25.7188
#
#
#
# Elastic Compliance Matrix: (Units=1/GPa)
#
#
# Indices 1 2 3 4 5 6 
#
# 1 0.010197 -0.003984 -0.004055 0.000000 -0.004450 0.000000
# 2 -0.003984 0.063115 -0.005805 0.000000 0.007748 0.000000
# 3 -0.004055 -0.005805 0.015954 0.000000 -0.013046 0.000000
# 4 0.000000 0.000000 0.000000 0.065935 0.000000 -0.020060
# 5 -0.004450 0.007748 -0.013046 0.000000 0.050734 0.000000
# 6 0.000000 0.000000 0.000000 -0.020060 0.000000 0.044985
#
#
# Mechanical properties :
#
#
# Convention : Reuss Voigt Hill
#
# Bulk Modulus (GPa) = 16.23976 47.10550 31.67263
# Shear Modulus (GPa) = 16.71493 26.70695 21.71094
#
# Velocity S-wave (km/s) = 2.99818 3.78981 3.41700
# Velocity P-wave (km/s) = 4.55181 6.66956 5.70973
#
# Compressibility (1/GPa) = 0.06157727
#
# Stress axis : x y z
#
# Youngs Moduli (GPa) = 98.07146 15.84400 62.68057
#
# Poissons Ratio (x) = 0.06313 0.25415
# Poissons Ratio (y) = 0.39074 0.36389
# Poissons Ratio (z) = 0.39765 0.09198
#
# Static dielectric constant tensor:
#      x y z
#    x 1.680350 0.000000 0.003880 
#    y 0.000000 1.658110 0.000000 
#    z 0.003880 0.000000 1.656110 
# 
# From -- ./inp_files/319356.got.cif
#   From: 2010.05.17/outbox.cif.g08.bks.cpg/sg12_160_cif.got.tgz:319356.got - 2010.06.03 13:09:07.
