data_PCOD9172067
_publ_section_title
;
Structure prediction by ZEFSAII (Michael W. Deem and Ramdas Pophale) SiO2 
 PCOD9172067
Probable space group: C 2/M
;
_chemical_formula_sum "Si O2"
_cell_formula_units_Z 64
_cell_length_a 22.939066
_cell_length_b 8.743681
_cell_length_c 21.853009
_cell_angle_alpha 90.000000
_cell_angle_beta 116.110655
_cell_angle_gamma 90.000000
_cell_volume 3935.785107
_symmetry_space_group_name_H-M "C 2/M"
_symmetry_group_IT_number 12
_symmetry_cell_setting 'monoclinic'
loop_
_space_group_symop_operation_xyz
x,y,z
-x,y,-z
-x,-y,-z
x,-y,z
1/2+x,1/2+y,z
1/2-x,1/2+y,-z
1/2-x,1/2-y,-z
1/2+x,1/2-y,z
loop_
_atom_site_type_symbol
_atom_site_label
_atom_site_fract_x
_atom_site_fract_y
_atom_site_fract_z
Si Si1 0.762062 0.682577 0.603618
Si Si2 0.205426 0.821019 0.123517
Si Si3 0.678439 0.684979 0.981826
Si Si4 0.747872 0.315731 0.270170
Si Si5 0.988707 0.815776 0.565467
Si Si6 0.650233 0.817399 0.471784
Si Si7 0.113209 0.183061 0.703714
Si Si8 0.358500 0.178516 0.157200
O O1 0.759563 0.500000 0.608524
O O2 0.775186 0.756615 0.675151
O O3 0.693637 0.741446 0.544996
O O4 0.815232 0.723142 0.576592
O O5 0.205272 0.757794 0.192308
O O6 0.281626 0.811838 0.139434
O O7 0.188572 0.000000 0.120446
O O8 0.166047 0.761997 0.046248
O O9 0.680278 0.500000 0.981288
O O10 0.634382 0.746566 0.906314
O O11 0.750000 0.750000 0.000000
O O12 0.748473 0.500000 0.269149
O O13 0.821285 0.257504 0.292841
O O14 0.922867 0.740291 0.558534
O O15 0.000000 0.772948 0.500000
O O16 0.051068 0.773167 0.634710
O O17 0.981756 0.000000 0.564939
O O18 0.653292 0.000000 0.480109
O O19 0.106263 0.237834 0.770616
O O20 0.120559 0.000000 0.705347
O O21 0.375301 0.000000 0.163068
#
# Coordination Sequence:
#
# PCOD9172067 Si02
#       8
#     8   8   8   8   8   8   8   8
#     4  10  20  34  50  69  93 118 148 187 228 269
#     4   7  13  23  35  55  83 112 144 181 217 258
#     4   9  14  22  36  54  79 112 148 185 224 265
#     4  10  18  29  46  68  93 122 154 186 224 269
#     4  10  21  35  50  69  94 120 147 185 230 272
#     4  10  21  35  52  71  89 116 153 189 226 268
#     4  10  19  30  45  66  92 123 154 186 228 273
#     4   9  16  26  38  55  82 116 153 189 221 261
#
# _framework density 16.261050999999998
#
# number of rings (size 3 to 8) (size 9 to 14) (size 15 to 20)
#    0.000    2.625    0.000    4.500    0.000    3.750 
#    0.000    1.875    0.000    0.000    0.000    0.000 
#    0.000    1.000    0.000   11.250    0.000    7.500 
#
# Total GULP energy -178224.517135 kJ/mol
# GULP energy per Si atom -5569.516160 kJ/mol
# Density = 1.622404 g / cm^3
# Si number density = 16.261051 Si / 1000 Ang^3
#
#
#
# Elastic Constant Matrix: (Units=GPa)
#
#
# Indices 1 2 3 4 5 6 
#
# 1 32.5492 13.4894 30.3860 0.0000 -6.0201 0.0000
# 2 13.4894 42.2340 36.2884 0.0000 -6.7183 0.0000
# 3 30.3860 36.2884 150.9680 0.0000 -26.4127 0.0000
# 4 0.0000 0.0000 0.0000 26.8961 0.0000 -3.3208
# 5 -6.0201 -6.7183 -26.4127 0.0000 20.2604 0.0000
# 6 0.0000 0.0000 0.0000 -3.3208 0.0000 18.7424
#
#
#
# Elastic Compliance Matrix: (Units=1/GPa)
#
#
# Indices 1 2 3 4 5 6 
#
# 1 0.039579 -0.007288 -0.005933 0.000000 0.001609 0.000000
# 2 -0.007288 0.031190 -0.005959 0.000000 0.000409 0.000000
# 3 -0.005933 -0.005959 0.011136 0.000000 0.010779 0.000000
# 4 0.000000 0.000000 0.000000 0.038012 0.000000 0.006735
# 5 0.001609 0.000409 0.010779 0.000000 0.064023 0.000000
# 6 0.000000 0.000000 0.000000 0.006735 0.000000 0.054548
#
#
# Mechanical properties :
#
#
# Convention : Reuss Voigt Hill
#
# Bulk Modulus (GPa) = 22.96391 42.89766 32.93078
# Shear Modulus (GPa) = 17.16066 22.88561 20.02314
#
# Velocity S-wave (km/s) = 3.25210 3.75559 3.51287
# Velocity P-wave (km/s) = 5.31547 6.72635 6.06210
#
# Compressibility (1/GPa) = 0.04354660
#
# Stress axis : x y z
#
# Youngs Moduli (GPa) = 25.26576 32.06124 89.79639
#
# Poissons Ratio (x) = 0.23365 0.53276
# Poissons Ratio (y) = 0.18413 0.53509
# Poissons Ratio (z) = 0.14990 0.19105
#
# Static dielectric constant tensor:
#      x y z
#    x 1.519940 0.000000 -0.022100 
#    y 0.000000 1.546980 0.000000 
#    z -0.022100 0.000000 1.596100 
# 
# From -- ./inp_files/323722.got.cif
#   From: 2010.05.17/outbox.cif.g08.bks.cpg/sg12_162_cif.got.tgz:323722.got - 2010.06.03 13:09:07.
