data_PCOD9172093
_publ_section_title
;
Structure prediction by ZEFSAII (Michael W. Deem and Ramdas Pophale) SiO2 
 PCOD9172093
Probable space group: C 2/M
;
_chemical_formula_sum "Si O2"
_cell_formula_units_Z 48
_cell_length_a 24.481559
_cell_length_b 9.151306
_cell_length_c 15.402461
_cell_angle_alpha 90.000000
_cell_angle_beta 120.825805
_cell_angle_gamma 90.000000
_cell_volume 2963.251370
_symmetry_space_group_name_H-M "C 2/M"
_symmetry_group_IT_number 12
_symmetry_cell_setting 'monoclinic'
loop_
_space_group_symop_operation_xyz
x,y,z
-x,y,-z
-x,-y,-z
x,-y,z
1/2+x,1/2+y,z
1/2-x,1/2+y,-z
1/2-x,1/2-y,-z
1/2+x,1/2-y,z
loop_
_atom_site_type_symbol
_atom_site_label
_atom_site_fract_x
_atom_site_fract_y
_atom_site_fract_z
Si Si1 0.442504 0.327603 0.649634
Si Si2 0.431676 0.825490 0.268065
Si Si3 0.695221 0.325825 0.397939
Si Si4 0.899908 0.171189 0.418491
Si Si5 0.769422 0.673126 0.289633
Si Si6 0.288224 0.174392 0.107575
O O1 0.450042 0.500000 0.674540
O O2 0.506391 0.242728 0.726136
O O3 0.376070 0.275681 0.637457
O O4 0.432824 0.311837 0.538048
O O5 0.428777 0.764798 0.364008
O O6 0.363042 0.783594 0.171888
O O7 0.435665 0.000000 0.272509
O O8 0.697540 0.500000 0.418437
O O9 0.750000 0.250000 0.500000
O O10 0.712597 0.304733 0.310940
O O11 0.827999 0.228662 0.369019
O O12 0.901776 0.000000 0.396551
O O13 0.787357 0.500000 0.308320
O O14 0.759910 0.707737 0.180430
O O15 0.285343 0.000000 0.094029
O O16 0.250000 0.250000 0.000000
#
# Coordination Sequence:
#
# PCOD9172093 Si02
#       6
#     8   8   8   8   8   8
#     4  10  20  31  45  70 102 135 168 200 236 283
#     4  10  21  34  48  70  98 128 165 203 248 301
#     4  10  19  32  49  71 103 139 171 202 234 282
#     4  10  18  29  46  70 101 132 166 204 239 284
#     4   9  18  32  50  73 102 132 166 204 243 290
#     4   9  19  35  54  76  95 119 159 208 258 301
#
# _framework density 16.198423999999999
#
# number of rings (size 3 to 8) (size 9 to 14) (size 15 to 20)
#    0.000    2.333    1.667    2.500    0.000    7.333 
#    0.000    0.000    0.000    1.000    0.000    7.000 
#    0.000    0.000    0.000    0.000    0.000    0.000 
#
# Total GULP energy -133782.697465 kJ/mol
# GULP energy per Si atom -5574.279061 kJ/mol
# Density = 1.616156 g / cm^3
# Si number density = 16.198424 Si / 1000 Ang^3
#
#
#
# Elastic Constant Matrix: (Units=GPa)
#
#
# Indices 1 2 3 4 5 6 
#
# 1 129.7321 40.5550 61.2463 0.0000 25.5830 0.0000
# 2 40.5550 38.2288 44.0766 0.0000 8.4364 0.0000
# 3 61.2463 44.0766 86.0218 0.0000 4.1673 0.0000
# 4 0.0000 0.0000 0.0000 25.2833 0.0000 4.2588
# 5 25.5830 8.4364 4.1673 0.0000 14.5681 0.0000
# 6 0.0000 0.0000 0.0000 4.2588 0.0000 25.8014
#
#
#
# Elastic Compliance Matrix: (Units=1/GPa)
#
#
# Indices 1 2 3 4 5 6 
#
# 1 0.019810 0.001148 -0.013158 0.000000 -0.031689 0.000000
# 2 0.001148 0.077702 -0.038892 0.000000 -0.035888 0.000000
# 3 -0.013158 -0.038892 0.039254 0.000000 0.034399 0.000000
# 4 0.000000 0.000000 0.000000 0.040683 0.000000 -0.006715
# 5 -0.031689 -0.035888 0.034399 0.000000 0.135235 0.000000
# 6 0.000000 0.000000 0.000000 -0.006715 0.000000 0.039866
#
#
# Mechanical properties :
#
#
# Convention : Reuss Voigt Hill
#
# Bulk Modulus (GPa) = 28.60200 60.63760 44.61980
# Shear Modulus (GPa) = 10.72944 20.33756 15.53350
#
# Velocity S-wave (km/s) = 2.57646 3.54719 3.10005
# Velocity P-wave (km/s) = 5.15233 7.36833 6.35762
#
# Compressibility (1/GPa) = 0.03496259
#
# Stress axis : x y z
#
# Youngs Moduli (GPa) = 50.47949 12.86972 25.47483
#
# Poissons Ratio (x) = -0.01477 0.33519
# Poissons Ratio (y) = -0.05795 0.99077
# Poissons Ratio (z) = 0.66418 0.50053
#
# Static dielectric constant tensor:
#      x y z
#    x 1.583090 0.000000 0.006840 
#    y 0.000000 1.543540 0.000000 
#    z 0.006840 0.000000 1.515590 
# 
# From -- ./inp_files/236844.got.cif
#   From: 2010.05.17/outbox.cif.g08.bks.cpg/sg12_119_cif.got.tgz:236844.got - 2010.06.03 13:09:07.
