data_PCOD9172554
_publ_section_title
;
Structure prediction by ZEFSAII (Michael W. Deem and Ramdas Pophale) SiO2 
 PCOD9172554
Probable space group: C 2/M
;
_chemical_formula_sum "Si O2"
_cell_formula_units_Z 64
_cell_length_a 23.868665
_cell_length_b 9.203840
_cell_length_c 27.925057
_cell_angle_alpha 90.000000
_cell_angle_beta 145.789691
_cell_angle_gamma 90.000000
_cell_volume 3449.109312
_symmetry_space_group_name_H-M "C 2/M"
_symmetry_group_IT_number 12
_symmetry_cell_setting 'monoclinic'
loop_
_space_group_symop_operation_xyz
x,y,z
-x,y,-z
-x,-y,-z
x,-y,z
1/2+x,1/2+y,z
1/2-x,1/2+y,-z
1/2-x,1/2-y,-z
1/2+x,1/2-y,z
loop_
_atom_site_type_symbol
_atom_site_label
_atom_site_fract_x
_atom_site_fract_y
_atom_site_fract_z
Si Si1 0.326297 0.171466 0.145388
Si Si2 0.178548 0.170509 0.384722
Si Si3 0.623527 0.670309 0.458142
Si Si4 0.458477 0.329974 0.877070
Si Si5 0.863902 0.331328 0.952709
Si Si6 0.479892 0.670726 0.188114
Si Si7 0.916020 0.327833 0.315312
Si Si8 0.774380 0.669005 0.782212
O O1 0.222770 0.256406 0.077451
O O2 0.393295 0.235221 0.150475
O O3 0.384961 0.193340 0.237363
O O4 0.308286 0.000000 0.126988
O O5 0.278004 0.263356 0.448067
O O6 0.143221 0.185735 0.414893
O O7 0.085588 0.213391 0.286306
O O8 0.200535 0.000000 0.392130
O O9 0.612163 0.500000 0.460573
O O10 0.523424 0.756859 0.399338
O O11 0.446216 0.500000 0.879609
O O12 0.508376 0.315705 0.860237
O O13 0.351861 0.251629 0.803118
O O14 0.534116 0.253507 0.966922
O O15 0.877088 0.500000 0.974856
O O16 0.825543 0.324283 0.871070
O O17 0.463153 0.500000 0.188206
O O18 0.917296 0.500000 0.325151
O O19 0.830809 0.249446 0.286125
O O20 0.762133 0.500000 0.760900
#
# Coordination Sequence:
#
# PCOD9172554 Si02
#       8
#     8   8   8   8   8   8   8   8
#     4  10  20  33  53  80 107 137 175 218 263 309
#     4   9  18  32  50  74 108 143 174 210 253 308
#     4  10  18  29  51  80 109 139 173 212 258 308
#     4  11  23  37  55  78 104 138 180 220 262 311
#     4  10  21  37  57  78 104 137 174 219 269 316
#     4  10  21  37  54  74 107 147 178 210 258 317
#     4  10  19  32  53  81 110 137 171 217 266 311
#     4  10  21  37  57  79 104 136 176 220 267 313
#
# _framework density 18.555515
#
# number of rings (size 3 to 8) (size 9 to 14) (size 15 to 20)
#    0.000    2.000    1.250    2.625    0.000    6.500 
#    0.000    0.000    0.000    0.750    0.000    5.250 
#    0.000    0.000    0.000    0.000    0.000    0.000 
#
# Total GULP energy -178733.625493 kJ/mol
# GULP energy per Si atom -5585.425797 kJ/mol
# Density = 1.851328 g / cm^3
# Si number density = 18.555515 Si / 1000 Ang^3
#
#
#
# Elastic Constant Matrix: (Units=GPa)
#
#
# Indices 1 2 3 4 5 6 
#
# 1 57.2974 48.3887 14.1223 0.0000 29.2705 0.0000
# 2 48.3887 106.4734 28.6831 0.0000 27.6877 0.0001
# 3 14.1223 28.6831 46.9393 0.0000 24.1812 0.0000
# 4 0.0000 0.0000 0.0000 29.5770 0.0000 10.9596
# 5 29.2705 27.6877 24.1812 0.0000 31.6240 0.0000
# 6 0.0000 0.0001 0.0000 10.9596 0.0000 27.8403
#
#
#
# Elastic Compliance Matrix: (Units=1/GPa)
#
#
# Indices 1 2 3 4 5 6 
#
# 1 0.049863 -0.015498 0.018568 0.000000 -0.046781 0.000000
# 2 -0.015498 0.017278 -0.009062 0.000000 0.006146 0.000000
# 3 0.018568 -0.009062 0.042934 0.000000 -0.042082 0.000000
# 4 0.000000 0.000000 0.000000 0.039584 0.000000 -0.015583
# 5 -0.046781 0.006146 -0.042082 0.000000 0.101718 0.000000
# 6 0.000000 0.000000 0.000000 -0.015583 0.000000 0.042053
#
#
# Mechanical properties :
#
#
# Convention : Reuss Voigt Hill
#
# Bulk Modulus (GPa) = 10.19451 43.67758 26.93605
# Shear Modulus (GPa) = 14.78806 25.77599 20.28202
#
# Velocity S-wave (km/s) = 2.82612 3.73114 3.30971
# Velocity P-wave (km/s) = 4.01936 6.49245 5.39940
#
# Compressibility (1/GPa) = 0.09809205
#
# Stress axis : x y z
#
# Youngs Moduli (GPa) = 20.05499 57.87617 23.29175
#
# Poissons Ratio (x) = 0.89697 -0.43249
# Poissons Ratio (y) = 0.31081 0.21106
# Poissons Ratio (z) = -0.37239 0.52445
#
# Static dielectric constant tensor:
#      x y z
#    x 1.630590 0.000000 -0.010130 
#    y 0.000000 1.620080 0.000000 
#    z -0.010130 0.000000 1.625210 
# 
# From -- ./inp_files/238666.got.cif
#   From: 2010.05.17/outbox.cif.g08.bks.cpg/sg12_120_cif.got.tgz:238666.got - 2010.06.03 13:09:07.
