data_PCOD9172383
_publ_section_title
;
Structure prediction by ZEFSAII (Michael W. Deem and Ramdas Pophale) SiO2 
 PCOD9172383
Probable space group: C 2/M
;
_chemical_formula_sum "Si O2"
_cell_formula_units_Z 56
_cell_length_a 19.475397
_cell_length_b 13.128335
_cell_length_c 12.565823
_cell_angle_alpha 90.000000
_cell_angle_beta 98.876915
_cell_angle_gamma 90.000000
_cell_volume 3174.340977
_symmetry_space_group_name_H-M "C 2/M"
_symmetry_group_IT_number 12
_symmetry_cell_setting 'monoclinic'
loop_
_space_group_symop_operation_xyz
x,y,z
-x,y,-z
-x,-y,-z
x,-y,z
1/2+x,1/2+y,z
1/2-x,1/2+y,-z
1/2-x,1/2-y,-z
1/2+x,1/2-y,z
loop_
_atom_site_type_symbol
_atom_site_label
_atom_site_fract_x
_atom_site_fract_y
_atom_site_fract_z
Si Si1 0.741597 0.190353 0.320383
Si Si2 0.576660 0.123480 0.550253
Si Si3 0.230016 0.381628 0.542901
Si Si4 0.782271 0.120788 0.100633
Si Si5 0.595931 0.880173 0.193591
Si Si6 0.636441 0.785313 0.994379
Si Si7 0.557910 0.119949 0.779022
O O1 0.740930 0.307891 0.358198
O O2 0.764916 0.135727 0.435800
O O3 0.783088 0.168201 0.220842
O O4 0.665397 0.147091 0.273440
O O5 0.500000 0.161506 0.500000
O O6 0.648277 0.148737 0.508572
O O7 0.588183 0.155662 0.674705
O O8 0.572156 0.000000 0.544976
O O9 0.233346 0.500000 0.573133
O O10 0.837521 0.174535 0.036015
O O11 0.789698 0.000000 0.109598
O O12 0.707003 0.150149 0.033315
O O13 0.525388 0.868223 0.242415
O O14 0.599378 0.000000 0.161031
O O15 0.594265 0.805064 0.092196
O O16 0.591892 0.827569 0.887154
O O17 0.571834 0.000000 0.791941
#
# Coordination Sequence:
#
# PCOD9172383 Si02
#       7
#     8   8   8   8   8   8   8
#     4  10  19  32  50  71  98 134 167 196 239 294
#     4   9  17  28  43  68  99 126 152 188 241 293
#     4  10  19  31  49  74 102 129 163 204 241 283
#     4  10  20  34  50  69  98 132 164 199 242 292
#     4  10  19  32  50  72 100 130 160 199 248 298
#     4  10  19  31  49  73  95 120 163 205 240 284
#     4  10  18  29  49  73  98 126 156 198 247 293
#
# _framework density 17.641458
#
# number of rings (size 3 to 8) (size 9 to 14) (size 15 to 20)
#    0.000    2.143    0.000    5.571    0.000    3.429 
#    0.000    8.571    0.000    2.571    0.000    0.000 
#    0.000   13.143    0.000    0.000    0.000    0.000 
#
# Total GULP energy -155961.606492 kJ/mol
# GULP energy per Si atom -5570.057375 kJ/mol
# Density = 1.760130 g / cm^3
# Si number density = 17.641458 Si / 1000 Ang^3
#
#
#
# Elastic Constant Matrix: (Units=GPa)
#
#
# Indices 1 2 3 4 5 6 
#
# 1 25.5243 10.8408 1.8091 0.0000 -5.3999 0.0000
# 2 10.8408 91.1937 25.3265 0.0000 -5.9162 0.0000
# 3 1.8091 25.3265 63.4651 0.0000 -11.0405 0.0000
# 4 0.0000 0.0000 0.0000 23.8458 0.0000 0.8094
# 5 -5.3999 -5.9162 -11.0405 0.0000 25.2637 0.0000
# 6 0.0000 0.0000 0.0000 0.8094 0.0000 20.8178
#
#
#
# Elastic Compliance Matrix: (Units=1/GPa)
#
#
# Indices 1 2 3 4 5 6 
#
# 1 0.043138 -0.005214 0.002427 0.000000 0.009060 0.000000
# 2 -0.005214 0.012978 -0.005082 0.000000 -0.000296 0.000000
# 3 0.002427 -0.005082 0.019047 0.000000 0.007652 0.000000
# 4 0.000000 0.000000 0.000000 0.041991 0.000000 -0.001633
# 5 0.009060 -0.000296 0.007652 0.000000 0.044794 0.000000
# 6 0.000000 0.000000 0.000000 -0.001633 0.000000 0.048099
#
#
# Mechanical properties :
#
#
# Convention : Reuss Voigt Hill
#
# Bulk Modulus (GPa) = 16.82817 28.45955 22.64386
# Shear Modulus (GPa) = 20.35895 23.46592 21.91244
#
# Velocity S-wave (km/s) = 3.40080 3.65109 3.52817
# Velocity P-wave (km/s) = 4.99803 5.82590 5.42777
#
# Compressibility (1/GPa) = 0.05942418
#
# Stress axis : x y z
#
# Youngs Moduli (GPa) = 23.18160 77.05566 52.50265
#
# Poissons Ratio (x) = 0.40180 -0.12744
# Poissons Ratio (y) = 0.12088 0.26681
# Poissons Ratio (z) = -0.05627 0.39158
#
# Static dielectric constant tensor:
#      x y z
#    x 1.614580 0.000000 -0.018320 
#    y 0.000000 1.588850 0.000000 
#    z -0.018320 0.000000 1.624000 
# 
# From -- ./inp_files/165054.got.cif
#   From: 2010.05.17/outbox.cif.g08.bks.cpg/sg12_83_cif.got.tgz:165054.got - 2010.06.03 13:09:07.
