data_PCOD9172534
_publ_section_title
;
Structure prediction by ZEFSAII (Michael W. Deem and Ramdas Pophale) SiO2 
 PCOD9172534
Probable space group: C 2/M
;
_chemical_formula_sum "Si O2"
_cell_formula_units_Z 64
_cell_length_a 8.427212
_cell_length_b 20.863341
_cell_length_c 25.891229
_cell_angle_alpha 90.000000
_cell_angle_beta 132.463538
_cell_angle_gamma 90.000000
_cell_volume 3358.183453
_symmetry_space_group_name_H-M "C 2/M"
_symmetry_group_IT_number 12
_symmetry_cell_setting 'monoclinic'
loop_
_space_group_symop_operation_xyz
x,y,z
-x,y,-z
-x,-y,-z
x,-y,z
1/2+x,1/2+y,z
1/2-x,1/2+y,-z
1/2-x,1/2-y,-z
1/2+x,1/2-y,z
loop_
_atom_site_type_symbol
_atom_site_label
_atom_site_fract_x
_atom_site_fract_y
_atom_site_fract_z
Si Si1 0.556274 0.573952 0.653004
Si Si2 0.998105 0.693857 0.624065
Si Si3 0.388620 0.831442 0.059679
Si Si4 0.933552 0.183290 0.425725
Si Si5 0.689341 0.312380 0.918465
Si Si6 0.860363 0.654858 0.790791
Si Si7 0.967264 0.788830 0.772117
Si Si8 0.430437 0.071679 0.425022
O O1 0.593637 0.500000 0.647882
O O2 0.525027 0.618635 0.596262
O O3 0.748782 0.603031 0.729584
O O4 0.328801 0.577400 0.633256
O O5 0.965056 0.756808 0.581892
O O6 0.237751 0.694674 0.698332
O O7 0.969251 0.629386 0.584809
O O8 0.822027 0.695534 0.629826
O O9 0.322189 0.762137 0.067509
O O10 0.599256 0.822744 0.070011
O O11 0.472446 0.869266 0.128448
O O12 0.210068 0.850186 0.977408
O O13 0.000000 0.181298 0.500000
O O14 0.499838 0.321948 0.835640
O O15 0.970522 0.712534 0.783309
O O16 0.660292 0.688473 0.777490
O O17 0.500000 0.077003 0.500000
O O18 0.491325 0.000000 0.420547
#
# Coordination Sequence:
#
# PCOD9172534 Si02
#       8
#     8   8   8   8   8   8   8   8
#     4  11  23  39  55  75 104 139 182 224 269 320
#     4  12  21  36  57  80 107 135 173 215 265 322
#     4   8  14  24  42  65 102 134 163 198 245 306
#     4  12  25  38  56  79 106 138 175 223 272 321
#     4   8  14  24  39  69 100 136 160 197 248 300
#     4  10  18  32  50  77 104 139 169 212 264 306
#     4  10  18  29  51  76 108 135 167 209 259 309
#     4  10  21  38  58  77 102 136 175 218 264 316
#
# _framework density 19.057922000000001
#
# number of rings (size 3 to 8) (size 9 to 14) (size 15 to 20)
#    0.000    1.875    2.500    3.000    0.000    0.750 
#    0.000    0.000    0.000    0.000    0.000    7.875 
#    0.000    1.000    0.000    0.000    0.000    0.000 
#
# Total GULP energy -178428.701090 kJ/mol
# GULP energy per Si atom -5575.896909 kJ/mol
# Density = 1.901455 g / cm^3
# Si number density = 19.057922 Si / 1000 Ang^3
#
#
#
# Elastic Constant Matrix: (Units=GPa)
#
#
# Indices 1 2 3 4 5 6 
#
# 1 33.7102 22.7285 -8.2289 0.0000 -4.8730 0.0001
# 2 22.7285 96.0009 27.8116 -0.0001 -8.6809 0.0000
# 3 -8.2289 27.8116 117.9861 -0.0001 -6.5967 -0.0001
# 4 0.0000 -0.0001 -0.0001 11.9327 0.0000 -6.1624
# 5 -4.8730 -8.6809 -6.5967 0.0000 18.5497 0.0000
# 6 0.0001 0.0000 -0.0001 -6.1624 0.0000 15.0034
#
#
#
# Elastic Compliance Matrix: (Units=1/GPa)
#
#
# Indices 1 2 3 4 5 6 
#
# 1 0.038927 -0.010143 0.005522 0.000000 0.007443 0.000000
# 2 -0.010143 0.014183 -0.003906 0.000000 0.002584 0.000000
# 3 0.005522 -0.003906 0.009958 0.000000 0.003164 0.000000
# 4 0.000000 0.000000 0.000000 0.106365 0.000000 0.043688
# 5 0.007443 0.002584 0.003164 0.000000 0.058199 0.000000
# 6 0.000000 0.000000 0.000000 0.043688 0.000000 0.084595
#
#
# Mechanical properties :
#
#
# Convention : Reuss Voigt Hill
#
# Bulk Modulus (GPa) = 21.73221 36.92440 29.32831
# Shear Modulus (GPa) = 14.50871 22.78955 18.64913
#
# Velocity S-wave (km/s) = 2.76215 3.46179 3.13157
# Velocity P-wave (km/s) = 4.64765 5.94942 5.33836
#
# Compressibility (1/GPa) = 0.04601464
#
# Stress axis : x y z
#
# Youngs Moduli (GPa) = 25.68906 70.50601 100.41803
#
# Poissons Ratio (x) = 0.71513 -0.55451
# Poissons Ratio (y) = 0.26056 0.39225
# Poissons Ratio (z) = -0.14185 0.27541
#
# Static dielectric constant tensor:
#      x y z
#    x 1.680890 0.000000 0.022130 
#    y 0.000000 1.622890 0.000000 
#    z 0.022130 0.000000 1.773080 
# 
# From -- ./inp_files/333749.got.cif
#   From: 2010.05.17/outbox.cif.g08.bks.cpg/sg12_167_cif.got.tgz:333749.got - 2010.06.03 13:09:07.
