data_PCOD9172873
_publ_section_title
;
Structure prediction by ZEFSAII (Michael W. Deem and Ramdas Pophale) SiO2 
 PCOD9172873
Probable space group: C 2/M
;
_chemical_formula_sum "Si O2"
_cell_formula_units_Z 42
_cell_length_a 22.385378
_cell_length_b 10.627639
_cell_length_c 7.087919
_cell_angle_alpha 90.000000
_cell_angle_beta 98.786928
_cell_angle_gamma 90.000000
_cell_volume 1666.451282
_symmetry_space_group_name_H-M "C 2/M"
_symmetry_group_IT_number 12
_symmetry_cell_setting 'monoclinic'
loop_
_space_group_symop_operation_xyz
x,y,z
-x,y,-z
-x,-y,-z
x,-y,z
1/2+x,1/2+y,z
1/2-x,1/2+y,-z
1/2-x,1/2-y,-z
1/2+x,1/2-y,z
loop_
_atom_site_type_symbol
_atom_site_label
_atom_site_fract_x
_atom_site_fract_y
_atom_site_fract_z
Si Si1 0.193265 0.633734 0.661127
Si Si2 0.000000 0.500000 0.000000
Si Si3 0.570908 0.223100 0.501796
Si Si4 0.572305 0.500000 0.052321
Si Si5 0.903830 0.714160 0.936022
Si Si6 0.571622 0.500000 0.493838
Si Si7 0.773069 0.638399 0.770665
O O1 0.215931 0.500000 0.744475
O O2 0.120814 0.639480 0.626456
O O3 0.209925 0.639335 0.445282
O O4 0.226111 0.749992 0.772090
O O5 0.951099 0.612577 0.036371
O O6 0.500000 0.199314 0.500000
O O7 0.579644 0.214829 0.280810
O O8 0.590395 0.364076 0.572372
O O9 0.591795 0.359939 0.994317
O O10 0.587515 0.500000 0.281306
O O11 0.500000 0.500000 0.000000
O O12 0.835655 0.663975 0.908294
O O13 0.500000 0.500000 0.500000
O O14 0.748549 0.500000 0.801189
#
# Coordination Sequence:
#
# PCOD9172873 Si02
#       7
#     8   2   8   4   8   4   8
#     4   9  18  28  43  69  98 127 160 198 244 301
#     4  12  20  34  48  72 106 126 170 214 248 286
#     4   9  18  32  50  73 105 133 161 202 253 305
#     4  10  18  30  48  73  99 130 163 201 251 300
#     4  10  20  32  50  73 103 131 164 208 249 300
#     4   8  16  30  47  69 100 132 162 196 243 302
#     4   9  17  30  45  65  95 131 161 195 248 298
#
# _framework density 25.203257000000001
#
# number of rings (size 3 to 8) (size 9 to 14) (size 15 to 20)
#    0.000    2.667    1.905    0.000    4.000    0.381 
#    0.000    0.000    0.000    0.000    0.000    1.333 
#   17.143    0.000    0.000    0.000    0.000    0.000 
#
# Total GULP energy -117127.417967 kJ/mol
# GULP energy per Si atom -5577.496094 kJ/mol
# Density = 2.514589 g / cm^3
# Si number density = 25.203257 Si / 1000 Ang^3
#
#
#
# Elastic Constant Matrix: (Units=GPa)
#
#
# Indices 1 2 3 4 5 6 
#
# 1 102.1963 61.5335 37.1558 0.0000 6.5696 0.0000
# 2 61.5335 257.0779 31.4786 0.0000 38.3265 0.0000
# 3 37.1558 31.4786 81.4497 0.0000 -2.5635 0.0000
# 4 0.0000 0.0000 0.0000 8.0109 0.0000 22.5212
# 5 6.5696 38.3265 -2.5635 0.0000 49.4351 0.0000
# 6 0.0000 0.0000 0.0000 22.5212 0.0000 28.3816
#
#
#
# Elastic Compliance Matrix: (Units=1/GPa)
#
#
# Indices 1 2 3 4 5 6 
#
# 1 0.013130 -0.002521 -0.005017 0.000000 -0.000051 0.000000
# 2 -0.002521 0.005166 -0.000964 0.000000 -0.003720 0.000000
# 3 -0.005017 -0.000964 0.015008 0.000000 0.002192 0.000000
# 4 0.000000 0.000000 0.000000 -0.101419 0.000000 0.080478
# 5 -0.000051 -0.003720 0.002192 0.000000 0.023233 0.000000
# 6 0.000000 0.000000 0.000000 0.080478 0.000000 -0.028626
#
#
# Mechanical properties :
#
#
# Convention : Reuss Voigt Hill
#
# Bulk Modulus (GPa) = 61.34763 77.89552 69.62157
# Shear Modulus (GPa) = -97.90110 37.86925 -30.01592
#
# Velocity S-wave (km/s) = -6.23931 3.88048 -3.45476
# Velocity P-wave (km/s) = 5.24512 7.14504 3.43076
#
# Compressibility (1/GPa) = 0.01630055
#
# Stress axis : x y z
#
# Youngs Moduli (GPa) = 76.15961 193.57852 66.63294
#
# Poissons Ratio (x) = 0.48800 0.33430
# Poissons Ratio (y) = 0.19200 0.06421
# Poissons Ratio (z) = 0.38210 0.18653
#
# Static dielectric constant tensor:
#      x y z
#    x 1.968460 0.000000 -0.082830 
#    y 0.000000 1.988940 0.000000 
#    z -0.082830 0.000000 2.014690 
# 
# From -- ./inp_files/164395.got.cif
#   From: 2010.05.17/outbox.cif.g08.bks.cpg/sg12_83_cif.got.tgz:164395.got - 2010.06.03 13:09:07.
