data_PCOD9172375
_publ_section_title
;
Structure prediction by ZEFSAII (Michael W. Deem and Ramdas Pophale) SiO2 
 PCOD9172375
Probable space group: C 2/M
;
_chemical_formula_sum "Si O2"
_cell_formula_units_Z 64
_cell_length_a 26.185335
_cell_length_b 15.383500
_cell_length_c 8.133310
_cell_angle_alpha 90.000000
_cell_angle_beta 69.435547
_cell_angle_gamma 90.000000
_cell_volume 3067.504926
_symmetry_space_group_name_H-M "C 2/M"
_symmetry_group_IT_number 12
_symmetry_cell_setting 'monoclinic'
loop_
_space_group_symop_operation_xyz
x,y,z
-x,y,-z
-x,-y,-z
x,-y,z
1/2+x,1/2+y,z
1/2-x,1/2+y,-z
1/2-x,1/2-y,-z
1/2+x,1/2-y,z
loop_
_atom_site_type_symbol
_atom_site_label
_atom_site_fract_x
_atom_site_fract_y
_atom_site_fract_z
Si Si1 0.334754 0.269234 0.619020
Si Si2 0.252498 0.404101 0.576220
Si Si3 0.897143 0.771182 0.199133
Si Si4 0.185767 0.093587 0.838906
Si Si5 0.279849 0.158811 0.927095
Si Si6 0.521344 0.401199 0.746913
Si Si7 0.414166 0.401693 0.675683
Si Si8 0.142974 0.598781 0.863392
O O1 0.281054 0.325139 0.636732
O O2 0.368389 0.262193 0.411717
O O3 0.317339 0.181257 0.727013
O O4 0.369391 0.327897 0.706762
O O5 0.267569 0.500000 0.627815
O O6 0.277150 0.401454 0.367046
O O7 0.187814 0.397209 0.665741
O O8 0.856439 0.828199 0.131926
O O9 0.950476 0.828847 0.173054
O O10 0.900210 0.675261 0.118930
O O11 0.228902 0.099407 0.936174
O O12 0.157217 0.000000 0.868487
O O13 0.250000 0.250000 0.000000
O O14 0.318802 0.122010 0.023674
O O15 0.527108 0.500000 0.803976
O O16 0.458928 0.385251 0.765613
O O17 0.554007 0.400933 0.535648
O O18 0.392545 0.500000 0.719710
O O19 0.122396 0.500000 0.899322
#
# Coordination Sequence:
#
# PCOD9172375 Si02
#       8
#     8   8   8   8   8   8   8   8
#     4  10  18  29  49  72  99 130 162 198 237 287
#     4   9  17  29  46  69  96 126 160 197 237 283
#     4  10  18  31  51  76  97 126 164 201 243 291
#     4  10  19  31  48  70  98 129 162 200 241 287
#     4  12  21  33  45  65  96 133 169 202 241 281
#     4   8  14  26  48  78 109 129 151 191 241 295
#     4   8  14  26  46  77 108 131 154 188 240 299
#     4  11  22  35  48  66  94 130 168 207 246 288
#
# _framework density 20.863862999999998
#
# number of rings (size 3 to 8) (size 9 to 14) (size 15 to 20)
#    0.000    2.250    2.500    2.625    0.000    5.000 
#    0.000    0.625    0.000    0.750    0.000   11.375 
#    0.000    0.000    0.000    0.000    0.000    0.000 
#
# Total GULP energy -178729.091090 kJ/mol
# GULP energy per Si atom -5585.284097 kJ/mol
# Density = 2.081638 g / cm^3
# Si number density = 20.863863 Si / 1000 Ang^3
#
#
#
# Elastic Constant Matrix: (Units=GPa)
#
#
# Indices 1 2 3 4 5 6 
#
# 1 73.5763 56.2168 12.8635 0.0000 23.6132 0.0000
# 2 56.2168 143.6615 16.6120 0.0000 27.4680 0.0000
# 3 12.8635 16.6120 68.7914 0.0000 2.5145 0.0000
# 4 0.0000 0.0000 0.0000 -20.2517 0.0000 9.1968
# 5 23.6132 27.4680 2.5145 0.0000 27.7287 0.0000
# 6 0.0000 0.0000 0.0000 9.1968 0.0000 30.2828
#
#
#
# Elastic Compliance Matrix: (Units=1/GPa)
#
#
# Indices 1 2 3 4 5 6 
#
# 1 0.022970 -0.006194 -0.002316 0.000000 -0.013215 0.000000
# 2 -0.006194 0.010477 -0.001189 0.000000 -0.004996 0.000000
# 3 -0.002316 -0.001189 0.015192 0.000000 0.001773 0.000000
# 4 0.000000 0.000000 0.000000 -0.043394 0.000000 0.013179
# 5 -0.013215 -0.004996 0.001773 0.000000 0.052106 0.000000
# 6 0.000000 0.000000 0.000000 0.013179 0.000000 0.029020
#
#
# Mechanical properties :
#
#
# Convention : Reuss Voigt Hill
#
# Bulk Modulus (GPa) = 34.19929 50.82377 42.51153
# Shear Modulus (GPa) = 43.28339 20.90775 32.09557
#
# Velocity S-wave (km/s) = 4.55968 3.16904 3.92641
# Velocity P-wave (km/s) = 6.64440 6.14841 6.40121
#
# Compressibility (1/GPa) = 0.02924038
#
# Stress axis : x y z
#
# Youngs Moduli (GPa) = 43.53498 95.44339 65.82308
#
# Poissons Ratio (x) = 0.59117 0.15248
# Poissons Ratio (y) = 0.26965 0.07828
# Poissons Ratio (z) = 0.10085 0.11351
#
# Static dielectric constant tensor:
#      x y z
#    x 1.718520 0.000000 -0.005640 
#    y 0.000000 1.757600 0.000000 
#    z -0.005640 0.000000 1.843100 
# 
# From -- ./inp_files/111156.got.cif
#   From: 2010.05.17/outbox.cif.g08.bks.cpg/sg12_56_cif.got.tgz:111156.got - 2010.06.03 13:09:07.
