data_PCOD9172930
_publ_section_title
;
Structure prediction by ZEFSAII (Michael W. Deem and Ramdas Pophale) SiO2 
 PCOD9172930
Probable space group: C 2/M
;
_chemical_formula_sum "Si O2"
_cell_formula_units_Z 64
_cell_length_a 19.310492
_cell_length_b 10.671228
_cell_length_c 26.523076
_cell_angle_alpha 90.000000
_cell_angle_beta 141.754797
_cell_angle_gamma 90.000000
_cell_volume 3383.312086
_symmetry_space_group_name_H-M "C 2/M"
_symmetry_group_IT_number 12
_symmetry_cell_setting 'monoclinic'
loop_
_space_group_symop_operation_xyz
x,y,z
-x,y,-z
-x,-y,-z
x,-y,z
1/2+x,1/2+y,z
1/2-x,1/2+y,-z
1/2-x,1/2-y,-z
1/2+x,1/2-y,z
loop_
_atom_site_type_symbol
_atom_site_label
_atom_site_fract_x
_atom_site_fract_y
_atom_site_fract_z
Si Si1 0.873348 0.150594 0.931385
Si Si2 0.735580 0.647227 0.572972
Si Si3 0.174089 0.145176 0.209215
Si Si4 0.945888 0.137770 0.136061
Si Si5 0.677465 0.355052 0.653759
Si Si6 0.485249 0.250328 0.723674
Si Si7 0.679686 0.143828 0.894642
Si Si8 0.468404 0.648630 0.605427
O O1 0.817028 0.172826 0.844998
O O2 0.791798 0.188926 0.930096
O O3 0.882278 0.000000 0.942260
O O4 0.000000 0.200961 0.000000
O O5 0.752717 0.500000 0.572332
O O6 0.673751 0.656736 0.591511
O O7 0.650850 0.699503 0.482457
O O8 0.857293 0.706242 0.648858
O O9 0.239229 0.250136 0.277412
O O10 0.044139 0.150811 0.151631
O O11 0.209941 0.000000 0.238919
O O12 0.001354 0.148070 0.223752
O O13 0.895133 0.000000 0.101272
O O14 0.862246 0.254741 0.088715
O O15 0.713339 0.500000 0.685032
O O16 0.559999 0.334820 0.614261
O O17 0.577722 0.150611 0.795223
O O18 0.509938 0.295235 0.681579
O O19 0.689404 0.000000 0.916717
O O20 0.455119 0.500000 0.605530
#
# Coordination Sequence:
#
# PCOD9172930 Si02
#       8
#     8   8   8   8   8   8   8   8
#     4   9  18  34  56  81 107 135 166 203 247 299
#     4  10  19  32  49  72 101 133 172 219 261 298
#     4  10  19  34  55  78 102 133 172 208 249 303
#     4   9  19  32  51  75 103 134 165 206 253 301
#     4  10  19  34  54  76  99 131 175 218 255 298
#     4  10  18  30  49  71 103 129 170 208 252 298
#     4   9  18  32  54  79 101 129 170 214 248 289
#     4  10  20  31  47  71 100 136 174 213 261 308
#
# _framework density 18.916374999999999
#
# number of rings (size 3 to 8) (size 9 to 14) (size 15 to 20)
#    0.750    1.625    1.250    2.250    0.000    2.000 
#    0.000    1.250    0.000    5.250    0.000    0.000 
#    0.000    0.000    0.000    0.000    0.000    0.000 
#
# Total GULP energy -178235.291383 kJ/mol
# GULP energy per Si atom -5569.852856 kJ/mol
# Density = 1.887332 g / cm^3
# Si number density = 18.916375 Si / 1000 Ang^3
#
#
#
# Elastic Constant Matrix: (Units=GPa)
#
#
# Indices 1 2 3 4 5 6 
#
# 1 63.7823 24.9984 8.8128 0.0000 4.8427 0.0000
# 2 24.9984 79.0135 26.6669 0.0000 7.8616 0.0000
# 3 8.8128 26.6669 78.8533 0.0000 6.4160 0.0000
# 4 0.0000 0.0000 0.0000 -225.2501 0.0000 111.2657
# 5 4.8427 7.8616 6.4160 0.0000 12.4003 0.0000
# 6 0.0000 0.0000 0.0000 111.2657 0.0000 -31.0596
#
#
#
# Elastic Compliance Matrix: (Units=1/GPa)
#
#
# Indices 1 2 3 4 5 6 
#
# 1 0.018053 -0.005378 0.000102 0.000000 -0.003693 0.000000
# 2 -0.005378 0.016468 -0.004478 0.000000 -0.006023 0.000000
# 3 0.000102 -0.004478 0.014570 0.000000 -0.004740 0.000000
# 4 0.000000 0.000000 0.000000 0.005769 0.000000 0.020666
# 5 -0.003693 -0.006023 -0.004740 0.000000 0.088356 0.000000
# 6 0.000000 0.000000 0.000000 0.020666 0.000000 0.041838
#
#
# Mechanical properties :
#
#
# Convention : Reuss Voigt Hill
#
# Bulk Modulus (GPa) = 33.80446 38.06727 35.93586
# Shear Modulus (GPa) = 23.31817 -38.03717 -7.35950
#
# Velocity S-wave (km/s) = 3.51479 -4.48907 -1.97459
# Velocity P-wave (km/s) = 5.86352 2.58869 3.72019
#
# Compressibility (1/GPa) = 0.02958189
#
# Stress axis : x y z
#
# Youngs Moduli (GPa) = 55.39352 60.72247 68.63195
#
# Poissons Ratio (x) = 0.32659 -0.00699
# Poissons Ratio (y) = 0.29793 0.30734
# Poissons Ratio (z) = -0.00564 0.27192
#
# Static dielectric constant tensor:
#      x y z
#    x 1.655360 0.000000 0.007370 
#    y 0.000000 1.632660 0.000000 
#    z 0.007370 0.000000 1.680450 
# 
# From -- ./inp_files/366052.got.cif
#   From: 2010.05.17/outbox.cif.g08.bks.cpg/sg12_184_cif.got.tgz:366052.got - 2010.06.03 13:09:07.
