data_PCOD9172044
_publ_section_title
;
Structure prediction by ZEFSAII (Michael W. Deem and Ramdas Pophale) SiO2 
 PCOD9172044
Probable space group: C 2/M
;
_chemical_formula_sum "Si O2"
_cell_formula_units_Z 64
_cell_length_a 28.430820
_cell_length_b 9.125331
_cell_length_c 15.129591
_cell_angle_alpha 90.000000
_cell_angle_beta 87.491209
_cell_angle_gamma 90.000000
_cell_volume 3921.468553
_symmetry_space_group_name_H-M "C 2/M"
_symmetry_group_IT_number 12
_symmetry_cell_setting 'monoclinic'
loop_
_space_group_symop_operation_xyz
x,y,z
-x,y,-z
-x,-y,-z
x,-y,z
1/2+x,1/2+y,z
1/2-x,1/2+y,-z
1/2-x,1/2-y,-z
1/2+x,1/2-y,z
loop_
_atom_site_type_symbol
_atom_site_label
_atom_site_fract_x
_atom_site_fract_y
_atom_site_fract_z
Si Si1 0.442807 0.324958 0.261716
Si Si2 0.590247 0.166785 0.201984
Si Si3 0.486522 0.675950 0.902367
Si Si4 0.591962 0.330017 0.480241
Si Si5 0.336582 0.330908 0.692257
Si Si6 0.138044 0.325212 0.644866
Si Si7 0.517606 0.168456 0.374044
Si Si8 0.245337 0.676089 0.596421
O O1 0.438626 0.500000 0.268310
O O2 0.471744 0.288167 0.170496
O O3 0.392505 0.247513 0.274942
O O4 0.474611 0.263169 0.339781
O O5 0.561338 0.253138 0.129985
O O6 0.637796 0.241655 0.232845
O O7 0.555055 0.165952 0.289660
O O8 0.598490 0.000000 0.174542
O O9 0.481135 0.500000 0.901470
O O10 0.500000 0.722177 0.000000
O O11 0.581707 0.500000 0.502566
O O12 0.628100 0.329729 0.394660
O O13 0.617569 0.247834 0.557648
O O14 0.545987 0.243699 0.451053
O O15 0.331006 0.500000 0.720448
O O16 0.286997 0.274544 0.658479
O O17 0.130833 0.500000 0.643869
O O18 0.193737 0.295714 0.640336
O O19 0.503975 0.000000 0.392990
O O20 0.250624 0.500000 0.584411
O O21 0.250000 0.750000 0.500000
#
# Coordination Sequence:
#
# PCOD9172044 Si02
#       8
#     8   8   8   8   8   8   8   8
#     4  10  20  34  50  69  95 125 158 194 235 288
#     4   9  17  28  46  74 102 127 155 192 239 288
#     4   9  18  34  56  79 101 126 155 189 234 292
#     4  10  18  29  46  66  90 124 167 206 241 281
#     4   9  17  30  47  67  94 128 165 206 245 282
#     4  11  22  33  46  66  95 128 164 204 246 286
#     4   9  17  30  46  65  93 125 160 198 238 282
#     4  10  20  33  49  69  93 127 171 214 251 285
#
# _framework density 16.320416000000002
#
# number of rings (size 3 to 8) (size 9 to 14) (size 15 to 20)
#    0.000    2.375    1.250    1.875    0.000    5.750 
#    0.000    2.500    0.000    0.000    0.000    0.875 
#    0.000    0.000    0.000    0.000    0.000    0.000 
#
# Total GULP energy -178537.812720 kJ/mol
# GULP energy per Si atom -5579.306647 kJ/mol
# Density = 1.628327 g / cm^3
# Si number density = 16.320416 Si / 1000 Ang^3
#
#
#
# Elastic Constant Matrix: (Units=GPa)
#
#
# Indices 1 2 3 4 5 6 
#
# 1 118.9472 56.1655 49.9124 0.0000 21.9079 0.0000
# 2 56.1655 78.2373 39.0384 0.0000 10.5435 0.0000
# 3 49.9124 39.0384 91.5702 0.0000 21.2118 0.0000
# 4 0.0000 0.0000 0.0000 17.8729 0.0000 2.4615
# 5 21.9079 10.5435 21.2118 0.0000 21.0506 0.0000
# 6 0.0000 0.0000 0.0000 2.4615 0.0000 23.5010
#
#
#
# Elastic Compliance Matrix: (Units=1/GPa)
#
#
# Indices 1 2 3 4 5 6 
#
# 1 0.015065 -0.008316 -0.002608 0.000000 -0.008885 0.000000
# 2 -0.008316 0.020863 -0.005147 0.000000 0.003392 0.000000
# 3 -0.002608 -0.005147 0.017363 0.000000 -0.012204 0.000000
# 4 0.000000 0.000000 0.000000 0.056770 0.000000 -0.005946
# 5 -0.008885 0.003392 -0.012204 0.000000 0.067351 0.000000
# 6 0.000000 0.000000 0.000000 -0.005946 0.000000 0.043174
#
#
# Mechanical properties :
#
#
# Convention : Reuss Voigt Hill
#
# Bulk Modulus (GPa) = 47.28376 64.33194 55.80785
# Shear Modulus (GPa) = 19.24731 22.06080 20.65406
#
# Velocity S-wave (km/s) = 3.43788 3.68058 3.56130
# Velocity P-wave (km/s) = 6.69281 7.58722 7.15400
#
# Compressibility (1/GPa) = 0.02114891
#
# Stress axis : x y z
#
# Youngs Moduli (GPa) = 66.38090 47.93226 57.59231
#
# Poissons Ratio (x) = 0.39861 0.15019
# Poissons Ratio (y) = 0.55203 0.29643
# Poissons Ratio (z) = 0.17311 0.24671
#
# Static dielectric constant tensor:
#      x y z
#    x 1.564030 0.000000 -0.016810 
#    y 0.000000 1.551680 0.000000 
#    z -0.016810 0.000000 1.536240 
# 
# From -- ./inp_files/244096.got.cif
#   From: 2010.05.17/outbox.cif.g08.bks.cpg/sg12_123_cif.got.tgz:244096.got - 2010.06.03 13:09:07.
