data_PCOD9172422
_publ_section_title
;
Structure prediction by ZEFSAII (Michael W. Deem and Ramdas Pophale) SiO2 
 PCOD9172422
Probable space group: C 2/M
;
_chemical_formula_sum "Si O2"
_cell_formula_units_Z 44
_cell_length_a 10.315959
_cell_length_b 26.292534
_cell_length_c 9.793065
_cell_angle_alpha 90.000000
_cell_angle_beta 106.814770
_cell_angle_gamma 90.000000
_cell_volume 2542.633566
_symmetry_space_group_name_H-M "C 2/M"
_symmetry_group_IT_number 12
_symmetry_cell_setting 'monoclinic'
loop_
_space_group_symop_operation_xyz
x,y,z
-x,y,-z
-x,-y,-z
x,-y,z
1/2+x,1/2+y,z
1/2-x,1/2+y,-z
1/2-x,1/2-y,-z
1/2+x,1/2-y,z
loop_
_atom_site_type_symbol
_atom_site_label
_atom_site_fract_x
_atom_site_fract_y
_atom_site_fract_z
Si Si1 0.436903 0.397912 0.329328
Si Si2 0.667782 0.500000 0.051874
Si Si3 0.232313 0.000000 0.762179
Si Si4 0.782708 0.915320 0.716210
Si Si5 0.848707 0.202360 0.391282
Si Si6 0.848686 0.500000 0.512111
Si Si7 0.655588 0.185632 0.592437
O O1 0.500000 0.397839 0.500000
O O2 0.351797 0.448759 0.290277
O O3 0.437316 0.400332 0.733691
O O4 0.354415 0.345377 0.291611
O O5 0.715919 0.450787 0.151239
O O6 0.500000 0.500000 0.000000
O O7 0.742496 0.500000 0.928975
O O8 0.344217 0.000000 0.675615
O O9 0.697973 0.863528 0.691126
O O10 0.728042 0.950945 0.575193
O O11 0.747400 0.188034 0.483322
O O12 0.818760 0.259257 0.330471
O O13 0.000000 0.206869 0.500000
O O14 0.000000 0.500000 0.500000
O O15 0.500000 0.180955 0.500000
#
# Coordination Sequence:
#
# PCOD9172422 Si02
#       7
#     8   4   4   8   8   4   8
#     4  11  17  29  54  82 107 136 180 235 280 315
#     4  11  23  35  54  88 108 145 190 230 281 333
#     4  12  20  34  56  83 109 140 186 233 270 325
#     4  11  20  34  53  79 117 141 180 235 281 324
#     4   9  17  29  47  80 107 140 182 229 280 328
#     4  11  22  34  54  82 111 147 183 218 277 348
#     4  10  18  29  49  76 115 143 174 228 288 331
#
# _framework density 17.304891999999999
#
# number of rings (size 3 to 8) (size 9 to 14) (size 15 to 20)
#    0.000    1.455    7.273    1.364    0.000    0.000 
#    0.000    1.818    0.000    1.091    0.000    0.000 
#    0.000    0.000    0.000    0.000    0.000    0.000 
#
# Total GULP energy -122545.932002 kJ/mol
# GULP energy per Si atom -5570.269636 kJ/mol
# Density = 1.726550 g / cm^3
# Si number density = 17.304892 Si / 1000 Ang^3
#
#
#
# Elastic Constant Matrix: (Units=GPa)
#
#
# Indices 1 2 3 4 5 6 
#
# 1 108.6545 35.4469 23.8921 0.0000 -13.7413 0.0000
# 2 35.4469 190.1932 42.6487 0.0000 -2.5705 0.0000
# 3 23.8921 42.6487 76.8452 0.0000 -22.9931 0.0000
# 4 0.0000 0.0000 0.0000 161.7619 0.0000 1.0215
# 5 -13.7413 -2.5705 -22.9931 0.0000 18.1873 0.0000
# 6 0.0000 0.0000 0.0000 1.0215 0.0000 30.3212
#
#
#
# Elastic Compliance Matrix: (Units=1/GPa)
#
#
# Indices 1 2 3 4 5 6 
#
# 1 0.010828 -0.001936 0.000119 0.000000 0.008057 0.000000
# 2 -0.001936 0.006702 -0.005262 0.000000 -0.007168 0.000000
# 3 0.000119 -0.005262 0.025254 0.000000 0.031274 0.000000
# 4 0.000000 0.000000 0.000000 0.006183 0.000000 -0.000208
# 5 0.008057 -0.007168 0.031274 0.000000 0.099595 0.000000
# 6 0.000000 0.000000 0.000000 -0.000208 0.000000 0.032987
#
#
# Mechanical properties :
#
#
# Convention : Reuss Voigt Hill
#
# Bulk Modulus (GPa) = 34.93447 64.40759 49.67103
# Shear Modulus (GPa) = 24.36047 60.30109 42.33078
#
# Velocity S-wave (km/s) = 3.75603 5.90948 4.95125
# Velocity P-wave (km/s) = 6.24835 9.15766 7.83915
#
# Compressibility (1/GPa) = 0.02862502
#
# Stress axis : x y z
#
# Youngs Moduli (GPa) = 92.35398 149.21468 39.59711
#
# Poissons Ratio (x) = 0.28884 -0.00470
# Poissons Ratio (y) = 0.17877 0.20838
# Poissons Ratio (z) = -0.01096 0.78524
#
# Static dielectric constant tensor:
#      x y z
#    x 1.604820 0.000000 -0.010410 
#    y 0.000000 1.650960 0.000000 
#    z -0.010410 0.000000 1.580810 
# 
# From -- ./inp_files/52073.got.cif
#   From: 2010.05.17/outbox.cif.g08.bks.cpg/sg12_27_cif.got.tgz:52073.got - 2010.06.03 13:09:07.
