data_PCOD9172071
_publ_section_title
;
Structure prediction by ZEFSAII (Michael W. Deem and Ramdas Pophale) SiO2 
 PCOD9172071
Probable space group: C 2/M
;
_chemical_formula_sum "Si O2"
_cell_formula_units_Z 56
_cell_length_a 23.395318
_cell_length_b 8.579943
_cell_length_c 19.184965
_cell_angle_alpha 90.000000
_cell_angle_beta 117.880746
_cell_angle_gamma 90.000000
_cell_volume 3403.993449
_symmetry_space_group_name_H-M "C 2/M"
_symmetry_group_IT_number 12
_symmetry_cell_setting 'monoclinic'
loop_
_space_group_symop_operation_xyz
x,y,z
-x,y,-z
-x,-y,-z
x,-y,z
1/2+x,1/2+y,z
1/2-x,1/2+y,-z
1/2-x,1/2-y,-z
1/2+x,1/2-y,z
loop_
_atom_site_type_symbol
_atom_site_label
_atom_site_fract_x
_atom_site_fract_y
_atom_site_fract_z
Si Si1 0.730106 0.186375 0.380917
Si Si2 0.200985 0.684611 0.073187
Si Si3 0.253770 0.314102 0.762428
Si Si4 0.990422 0.688597 0.574535
Si Si5 0.388461 0.188950 0.265594
Si Si6 0.163056 0.688697 0.906386
Si Si7 0.647445 0.686361 0.457405
O O1 0.726708 0.242008 0.299848
O O2 0.675051 0.256314 0.399247
O O3 0.798766 0.235966 0.454533
O O4 0.726591 0.000000 0.382094
O O5 0.196588 0.500000 0.081515
O O6 0.199710 0.767220 0.146997
O O7 0.271392 0.729186 0.082303
O O8 0.153296 0.729345 0.982036
O O9 0.252383 0.500000 0.755879
O O10 0.180556 0.260859 0.741207
O O11 0.990683 0.500000 0.575688
O O12 0.922021 0.745433 0.564052
O O13 0.000000 0.738766 0.500000
O O14 0.050311 0.745238 0.655924
O O15 0.388236 0.228616 0.183101
O O16 0.388673 0.000000 0.269604
O O17 0.173178 0.500000 0.909616
O O18 0.644393 0.500000 0.455997
#
# Coordination Sequence:
#
# PCOD9172071 Si02
#       7
#     8   8   8   8   8   8   8
#     4  10  20  34  51  69  90 118 153 190 227 271
#     4   9  15  23  38  61  89 119 152 190 230 272
#     4  10  18  29  46  68  95 123 152 188 230 274
#     4  10  19  31  48  69  94 125 159 190 221 264
#     4   8  15  27  43  64  91 125 160 189 221 265
#     4   8  14  25  39  57  86 123 158 190 225 268
#     4  10  21  35  50  69  93 120 151 189 231 270
#
# _framework density 16.451264999999999
#
# number of rings (size 3 to 8) (size 9 to 14) (size 15 to 20)
#    0.000    2.714    0.000    3.429    0.000    3.714 
#    0.000    3.571    0.000    0.000    0.000    1.000 
#    0.000    8.000    0.000    0.000    0.000    0.000 
#
# Total GULP energy -155941.015010 kJ/mol
# GULP energy per Si atom -5569.321965 kJ/mol
# Density = 1.641382 g / cm^3
# Si number density = 16.451265 Si / 1000 Ang^3
#
#
#
# Elastic Constant Matrix: (Units=GPa)
#
#
# Indices 1 2 3 4 5 6 
#
# 1 68.3227 9.4805 60.1467 0.0000 -5.1337 0.0000
# 2 9.4805 12.7867 15.9517 0.0000 0.5890 0.0000
# 3 60.1467 15.9517 150.6918 0.0000 -12.2418 0.0000
# 4 0.0000 0.0000 0.0000 19.5150 0.0000 -3.4380
# 5 -5.1337 0.5890 -12.2418 0.0000 20.2339 0.0000
# 6 0.0000 0.0000 0.0000 -3.4380 0.0000 21.9570
#
#
#
# Elastic Compliance Matrix: (Units=1/GPa)
#
#
# Indices 1 2 3 4 5 6 
#
# 1 0.023036 -0.006623 -0.008417 0.000000 0.000945 0.000000
# 2 -0.006623 0.093535 -0.008009 0.000000 -0.009249 0.000000
# 3 -0.008417 -0.008009 0.011241 0.000000 0.004899 0.000000
# 4 0.000000 0.000000 0.000000 0.052696 0.000000 0.008251
# 5 0.000945 -0.009249 0.004899 0.000000 0.052895 0.000000
# 6 0.000000 0.000000 0.000000 0.008251 0.000000 0.046836
#
#
# Mechanical properties :
#
#
# Convention : Reuss Voigt Hill
#
# Bulk Modulus (GPa) = 12.23781 44.77322 28.50552
# Shear Modulus (GPa) = 14.14131 22.08933 18.11532
#
# Velocity S-wave (km/s) = 2.93505 3.66828 3.32196
# Velocity P-wave (km/s) = 4.35213 6.72432 5.66381
#
# Compressibility (1/GPa) = 0.08171397
#
# Stress axis : x y z
#
# Youngs Moduli (GPa) = 43.41055 10.69123 88.95870
#
# Poissons Ratio (x) = 0.07081 0.74873
# Poissons Ratio (y) = 0.28752 0.71246
# Poissons Ratio (z) = 0.36537 0.08563
#
# Static dielectric constant tensor:
#      x y z
#    x 1.513950 0.000000 -0.000170 
#    y 0.000000 1.554070 0.000000 
#    z -0.000170 0.000000 1.604270 
# 
# From -- ./inp_files/287868.got.cif
#   From: 2010.05.17/outbox.cif.g08.bks.cpg/sg12_144_cif.got.tgz:287868.got - 2010.06.03 13:09:07.
