data_PCOD9172411
_publ_section_title
;
Structure prediction by ZEFSAII (Michael W. Deem and Ramdas Pophale) SiO2 
 PCOD9172411
Probable space group: C 2/M
;
_chemical_formula_sum "Si O2"
_cell_formula_units_Z 56
_cell_length_a 19.624395
_cell_length_b 8.916956
_cell_length_c 24.826063
_cell_angle_alpha 90.000000
_cell_angle_beta 132.749072
_cell_angle_gamma 90.000000
_cell_volume 3190.171984
_symmetry_space_group_name_H-M "C 2/M"
_symmetry_group_IT_number 12
_symmetry_cell_setting 'monoclinic'
loop_
_space_group_symop_operation_xyz
x,y,z
-x,y,-z
-x,-y,-z
x,-y,z
1/2+x,1/2+y,z
1/2-x,1/2+y,-z
1/2-x,1/2-y,-z
1/2+x,1/2-y,z
loop_
_atom_site_type_symbol
_atom_site_label
_atom_site_fract_x
_atom_site_fract_y
_atom_site_fract_z
Si Si1 0.301610 0.178132 0.445146
Si Si2 0.553022 0.321484 0.194386
Si Si3 0.243676 0.820849 0.685796
Si Si4 0.439289 0.820550 0.915360
Si Si5 0.120054 0.679067 0.401110
Si Si6 0.054236 0.321812 0.766474
Si Si7 0.722050 0.321327 0.796767
O O1 0.315013 0.259175 0.395543
O O2 0.202510 0.232962 0.415574
O O3 0.373336 0.213699 0.531798
O O4 0.299904 0.000000 0.436030
O O5 0.559330 0.500000 0.200110
O O6 0.653488 0.250401 0.262462
O O7 0.530728 0.265748 0.122230
O O8 0.479541 0.260428 0.197884
O O9 0.205948 0.783587 0.725014
O O10 0.253121 0.000000 0.687306
O O11 0.330260 0.788498 0.865967
O O12 0.446793 0.000000 0.909419
O O13 0.500000 0.783138 0.000000
O O14 0.138238 0.500000 0.404910
O O15 0.023050 0.712631 0.320768
O O16 0.054005 0.500000 0.775188
O O17 0.152460 0.266121 0.797551
O O18 0.708225 0.500000 0.795758
#
# Coordination Sequence:
#
# PCOD9172411 Si02
#       7
#     8   8   8   8   8   8   8
#     4  10  18  29  49  76 101 134 182 232 276 316
#     4  11  21  33  55  84 110 139 179 222 261 311
#     4  10  19  34  53  75 105 142 182 226 272 320
#     4   9  19  39  64  86 110 141 174 212 263 318
#     4   9  19  32  47  71 105 141 178 225 276 320
#     4  11  21  35  54  77 109 146 181 219 268 322
#     4   9  20  36  55  79 108 139 175 219 265 317
#
# _framework density 17.553912
#
# number of rings (size 3 to 8) (size 9 to 14) (size 15 to 20)
#    0.000    2.143    1.429    3.429    0.000    4.286 
#    0.000    1.429    0.000    4.286    0.000    0.000 
#    0.000    0.000    0.000    0.000    0.000    0.000 
#
# Total GULP energy -156273.727818 kJ/mol
# GULP energy per Si atom -5581.204565 kJ/mol
# Density = 1.751396 g / cm^3
# Si number density = 17.553912 Si / 1000 Ang^3
#
#
#
# Elastic Constant Matrix: (Units=GPa)
#
#
# Indices 1 2 3 4 5 6 
#
# 1 102.4410 52.7622 43.8673 0.0000 -15.3084 0.0000
# 2 52.7622 65.9425 45.3700 0.0000 -12.8372 0.0000
# 3 43.8673 45.3700 100.2257 0.0000 -21.6476 0.0000
# 4 0.0000 0.0000 0.0000 24.1722 0.0000 -5.5168
# 5 -15.3084 -12.8372 -21.6476 0.0000 17.8146 0.0000
# 6 0.0000 0.0000 0.0000 -5.5168 0.0000 30.2013
#
#
#
# Elastic Compliance Matrix: (Units=1/GPa)
#
#
# Indices 1 2 3 4 5 6 
#
# 1 0.017130 -0.012093 -0.000985 0.000000 0.004810 0.000000
# 2 -0.012093 0.030907 -0.008314 0.000000 0.001777 0.000000
# 3 -0.000985 -0.008314 0.017213 0.000000 0.014079 0.000000
# 4 0.000000 0.000000 0.000000 0.043170 0.000000 0.007886
# 5 0.004810 0.001777 0.014079 0.000000 0.078656 0.000000
# 6 0.000000 0.000000 0.000000 0.007886 0.000000 0.034552
#
#
# Mechanical properties :
#
#
# Convention : Reuss Voigt Hill
#
# Bulk Modulus (GPa) = 44.50987 61.40090 52.95539
# Shear Modulus (GPa) = 18.38915 22.87827 20.63371
#
# Velocity S-wave (km/s) = 3.24015 3.61406 3.43220
# Velocity P-wave (km/s) = 6.27768 7.24359 6.77786
#
# Compressibility (1/GPa) = 0.02246693
#
# Stress axis : x y z
#
# Youngs Moduli (GPa) = 58.37551 32.35563 58.09508
#
# Poissons Ratio (x) = 0.39126 0.05721
# Poissons Ratio (y) = 0.70591 0.48302
# Poissons Ratio (z) = 0.05749 0.26901
#
# Static dielectric constant tensor:
#      x y z
#    x 1.572240 0.000000 -0.019120 
#    y 0.000000 1.584570 0.000000 
#    z -0.019120 0.000000 1.608160 
# 
# From -- ./inp_files/342570.got.cif
#   From: 2010.05.17/outbox.cif.g08.bks.cpg/sg12_172_cif.got.tgz:342570.got - 2010.06.03 13:09:07.
