data_PCOD9172879
_publ_section_title
;
Structure prediction by ZEFSAII (Michael W. Deem and Ramdas Pophale) SiO2 
 PCOD9172879
Probable space group: C 2/M
;
_chemical_formula_sum "Si O2"
_cell_formula_units_Z 56
_cell_length_a 23.937351
_cell_length_b 18.623321
_cell_length_c 9.300334
_cell_angle_alpha 90.000000
_cell_angle_beta 43.304736
_cell_angle_gamma 90.000000
_cell_volume 2843.668431
_symmetry_space_group_name_H-M "C 2/M"
_symmetry_group_IT_number 12
_symmetry_cell_setting 'monoclinic'
loop_
_space_group_symop_operation_xyz
x,y,z
-x,y,-z
-x,-y,-z
x,-y,z
1/2+x,1/2+y,z
1/2-x,1/2+y,-z
1/2-x,1/2-y,-z
1/2+x,1/2-y,z
loop_
_atom_site_type_symbol
_atom_site_label
_atom_site_fract_x
_atom_site_fract_y
_atom_site_fract_z
Si Si1 0.415864 0.576447 0.570872
Si Si2 0.197031 0.681916 0.300266
Si Si3 0.871702 0.764420 0.306810
Si Si4 0.460190 0.915902 0.415046
Si Si5 0.540641 0.218679 0.127155
Si Si6 0.852464 0.793554 0.852103
Si Si7 0.412079 0.579936 0.238014
O O1 0.500000 0.578936 0.500000
O O2 0.375544 0.500000 0.680848
O O3 0.365431 0.642904 0.717386
O O4 0.427745 0.579561 0.379116
O O5 0.186729 0.725868 0.468918
O O6 0.131798 0.616827 0.421581
O O7 0.173397 0.728423 0.202981
O O8 0.291862 0.673863 0.086026
O O9 0.858697 0.849306 0.306512
O O10 0.960009 0.757046 0.218974
O O11 0.888660 0.723608 0.125281
O O12 0.500000 0.910480 0.500000
O O13 0.514299 0.862042 0.216248
O O14 0.461282 0.000000 0.372167
O O15 0.569696 0.263103 0.210371
O O16 0.379500 0.500000 0.259737
O O17 0.500000 0.587961 0.000000
#
# Coordination Sequence:
#
# PCOD9172879 Si02
#       7
#     8   8   8   8   8   8   8
#     4  10  21  33  52  81 109 142 180 223 272 321
#     4  10  22  36  55  83 109 146 187 225 285 335
#     4  10  19  35  54  83 112 144 193 228 271 330
#     4  10  20  37  61  86 109 142 192 240 283 331
#     4  10  20  34  58  84 109 145 183 237 280 324
#     4  11  21  35  56  80 115 147 181 231 276 338
#     4  10  18  30  48  74 107 139 174 220 267 313
#
# _framework density 19.692872999999999
#
# number of rings (size 3 to 8) (size 9 to 14) (size 15 to 20)
#    0.000    1.857    4.286    0.857    2.000    1.143 
#    0.000    5.714    0.000    0.857    0.000    0.000 
#    0.000    0.000    0.000    0.000    0.000    0.000 
#
# Total GULP energy -156048.522172 kJ/mol
# GULP energy per Si atom -5573.161506 kJ/mol
# Density = 1.964805 g / cm^3
# Si number density = 19.692873 Si / 1000 Ang^3
#
#
#
# Elastic Constant Matrix: (Units=GPa)
#
#
# Indices 1 2 3 4 5 6 
#
# 1 20.1380 17.3909 -0.1412 0.0000 6.4450 0.0000
# 2 17.3909 151.6200 43.4593 0.0000 2.6463 0.0000
# 3 -0.1412 43.4593 98.0328 0.0000 10.6342 0.0000
# 4 0.0000 0.0000 0.0000 -447.7513 0.0000 234.8236
# 5 6.4450 2.6463 10.6342 0.0000 21.0363 0.0000
# 6 0.0000 0.0000 0.0000 234.8236 0.0000 -94.1976
#
#
#
# Elastic Compliance Matrix: (Units=1/GPa)
#
#
# Indices 1 2 3 4 5 6 
#
# 1 0.064299 -0.008820 0.006368 0.000000 -0.021809 0.000000
# 2 -0.008820 0.008778 -0.004314 0.000000 0.003779 0.000000
# 3 0.006368 -0.004314 0.012987 0.000000 -0.007974 0.000000
# 4 0.000000 0.000000 0.000000 0.007266 0.000000 0.018112
# 5 -0.021809 0.003779 -0.007974 0.000000 0.057774 0.000000
# 6 0.000000 0.000000 0.000000 0.018112 0.000000 0.034535
#
#
# Mechanical properties :
#
#
# Convention : Reuss Voigt Hill
#
# Bulk Modulus (GPa) = 13.78686 43.46762 28.62724
# Shear Modulus (GPa) = 22.38672 -90.24374 -33.92851
#
# Velocity S-wave (km/s) = 3.37529 -6.77680 -4.15527
# Velocity P-wave (km/s) = 4.71235 6.25402 2.90744
#
# Compressibility (1/GPa) = 0.07253283
#
# Stress axis : x y z
#
# Youngs Moduli (GPa) = 15.55243 113.92618 76.99898
#
# Poissons Ratio (x) = 1.00481 -0.49036
# Poissons Ratio (y) = 0.13717 0.33216
# Poissons Ratio (z) = -0.09904 0.49146
#
# Static dielectric constant tensor:
#      x y z
#    x 1.747490 0.000000 0.009270 
#    y 0.000000 1.719520 0.000000 
#    z 0.009270 0.000000 1.569050 
# 
# From -- ./inp_files/105923.got.cif
#   From: 2010.05.17/outbox.cif.g08.bks.cpg/sg12_53_cif.got.tgz:105923.got - 2010.06.03 13:09:07.
