data_PCOD9172385
_publ_section_title
;
Structure prediction by ZEFSAII (Michael W. Deem and Ramdas Pophale) SiO2 
 PCOD9172385
Probable space group: C 2/M
;
_chemical_formula_sum "Si O2"
_cell_formula_units_Z 56
_cell_length_a 28.019818
_cell_length_b 8.582236
_cell_length_c 14.894182
_cell_angle_alpha 90.000000
_cell_angle_beta 103.451706
_cell_angle_gamma 90.000000
_cell_volume 3483.386431
_symmetry_space_group_name_H-M "C 2/M"
_symmetry_group_IT_number 12
_symmetry_cell_setting 'monoclinic'
loop_
_space_group_symop_operation_xyz
x,y,z
-x,y,-z
-x,-y,-z
x,-y,z
1/2+x,1/2+y,z
1/2-x,1/2+y,-z
1/2-x,1/2-y,-z
1/2+x,1/2-y,z
loop_
_atom_site_type_symbol
_atom_site_label
_atom_site_fract_x
_atom_site_fract_y
_atom_site_fract_z
Si Si1 0.055373 0.311030 0.031856
Si Si2 0.213254 0.184500 0.108039
Si Si3 0.683758 0.315419 0.781036
Si Si4 0.818450 0.813757 0.603114
Si Si5 0.866135 0.313834 0.790498
Si Si6 0.639702 0.186963 0.931530
Si Si7 0.206014 0.686631 0.597703
O O1 0.053427 0.500000 0.026992
O O2 0.091521 0.262648 0.966512
O O3 0.083121 0.272831 0.137118
O O4 0.000000 0.251559 0.000000
O O5 0.263900 0.267628 0.153345
O O6 0.175763 0.224423 0.172006
O O7 0.221329 0.000000 0.104969
O O8 0.185998 0.248063 0.008039
O O9 0.679745 0.500000 0.774582
O O10 0.643700 0.247673 0.832267
O O11 0.683971 0.245134 0.681404
O O12 0.858529 0.735311 0.684808
O O13 0.819747 0.758050 0.501075
O O14 0.763844 0.768212 0.615333
O O15 0.822372 0.000000 0.609764
O O16 0.858766 0.500000 0.797309
O O17 0.642049 0.000000 0.933651
O O18 0.203902 0.500000 0.592784
#
# Coordination Sequence:
#
# PCOD9172385 Si02
#       7
#     8   8   8   8   8   8   8
#     4   8  16  32  53  76  98 122 157 201 244 286
#     4  11  20  31  45  65  95 129 165 200 235 280
#     4  12  22  32  46  66  96 131 165 198 236 283
#     4  10  19  31  47  68  97 131 165 203 239 280
#     4  10  18  29  49  73  98 129 163 200 241 287
#     4  10  20  33  49  69  94 125 161 199 240 288
#     4  10  20  32  47  67  95 131 168 204 236 277
#
# _framework density 16.076308999999998
#
# number of rings (size 3 to 8) (size 9 to 14) (size 15 to 20)
#    0.000    1.857    1.429    5.571    0.000    1.143 
#    0.000    0.000    0.000   15.429    0.000    1.000 
#    0.000    8.000    0.000    0.000    0.000    0.000 
#
# Total GULP energy -156259.758185 kJ/mol
# GULP energy per Si atom -5580.705649 kJ/mol
# Density = 1.603972 g / cm^3
# Si number density = 16.076309 Si / 1000 Ang^3
#
#
#
# Elastic Constant Matrix: (Units=GPa)
#
#
# Indices 1 2 3 4 5 6 
#
# 1 60.7860 5.0491 57.3642 0.0000 1.9219 0.0000
# 2 5.0491 39.7590 15.5726 0.0000 -2.7563 0.0000
# 3 57.3642 15.5726 123.7479 0.0000 -15.6233 0.0000
# 4 0.0000 0.0000 0.0000 28.2405 0.0000 -6.6287
# 5 1.9219 -2.7563 -15.6233 0.0000 23.0093 0.0000
# 6 0.0000 0.0000 0.0000 -6.6287 0.0000 14.0684
#
#
#
# Elastic Compliance Matrix: (Units=1/GPa)
#
#
# Indices 1 2 3 4 5 6 
#
# 1 0.033207 0.001605 -0.017414 0.000000 -0.014406 0.000000
# 2 0.001605 0.026554 -0.004048 0.000000 0.000298 0.000000
# 3 -0.017414 -0.004048 0.018359 0.000000 0.013435 0.000000
# 4 0.000000 0.000000 0.000000 0.039813 0.000000 0.018759
# 5 -0.014406 0.000298 0.013435 0.000000 0.053822 0.000000
# 6 0.000000 0.000000 0.000000 0.018759 0.000000 0.079920
#
#
# Mechanical properties :
#
#
# Convention : Reuss Voigt Hill
#
# Bulk Modulus (GPa) = 26.03767 42.25165 34.14466
# Shear Modulus (GPa) = 16.43699 22.81743 19.62721
#
# Velocity S-wave (km/s) = 3.20102 3.77147 3.49790
# Velocity P-wave (km/s) = 5.46750 6.73085 6.13180
#
# Compressibility (1/GPa) = 0.03840590
#
# Stress axis : x y z
#
# Youngs Moduli (GPa) = 30.11400 37.65927 54.46911
#
# Poissons Ratio (x) = -0.06044 0.94853
# Poissons Ratio (y) = -0.04833 0.22049
# Poissons Ratio (z) = 0.52441 0.15244
#
# Static dielectric constant tensor:
#      x y z
#    x 1.537090 0.000000 -0.015300 
#    y 0.000000 1.537860 0.000000 
#    z -0.015300 0.000000 1.557510 
# 
# From -- ./inp_files/243006.got.cif
#   From: 2010.05.17/outbox.cif.g08.bks.cpg/sg12_122_cif.got.tgz:243006.got - 2010.06.03 13:09:07.
