data_PCOD9172683
_publ_section_title
;
Structure prediction by ZEFSAII (Michael W. Deem and Ramdas Pophale) SiO2 
 PCOD9172683
Probable space group: C 2/M
;
_chemical_formula_sum "Si O2"
_cell_formula_units_Z 48
_cell_length_a 29.236514
_cell_length_b 7.773087
_cell_length_c 12.722122
_cell_angle_alpha 90.000000
_cell_angle_beta 94.996961
_cell_angle_gamma 90.000000
_cell_volume 2880.215039
_symmetry_space_group_name_H-M "C 2/M"
_symmetry_group_IT_number 12
_symmetry_cell_setting 'monoclinic'
loop_
_space_group_symop_operation_xyz
x,y,z
-x,y,-z
-x,-y,-z
x,-y,z
1/2+x,1/2+y,z
1/2-x,1/2+y,-z
1/2-x,1/2-y,-z
1/2+x,1/2-y,z
loop_
_atom_site_type_symbol
_atom_site_label
_atom_site_fract_x
_atom_site_fract_y
_atom_site_fract_z
Si Si1 0.816571 0.799015 0.294823
Si Si2 0.369239 0.203438 0.908147
Si Si3 0.605705 0.193040 0.845840
Si Si4 0.288290 0.791133 0.744876
Si Si5 0.196170 0.295022 0.479006
Si Si6 0.539964 0.500000 0.858319
Si Si7 0.062183 0.000000 0.112753
O O1 0.854633 0.708605 0.232503
O O2 0.764572 0.730614 0.264544
O O3 0.826215 0.782649 0.421419
O O4 0.817236 0.000000 0.266199
O O5 0.319838 0.251752 0.850033
O O6 0.407152 0.329543 0.866174
O O7 0.377259 0.000000 0.887566
O O8 0.372259 0.226111 0.034427
O O9 0.566143 0.332784 0.820656
O O10 0.586774 0.000000 0.843650
O O11 0.313777 0.735693 0.641958
O O12 0.285231 0.000000 0.738285
O O13 0.189981 0.500000 0.483375
O O14 0.250000 0.250000 0.500000
O O15 0.485348 0.500000 0.833560
O O16 0.548939 0.500000 0.986073
#
# Coordination Sequence:
#
# PCOD9172683 Si02
#       7
#     8   8   8   8   8   4   4
#     4  10  18  30  46  66  99 133 162 201 237 274
#     4   9  18  33  48  70 101 125 158 197 235 293
#     4  10  19  31  49  71  97 129 160 194 240 291
#     4   8  16  30  46  65  97 133 159 197 239 275
#     4   9  16  28  44  64  91 124 166 204 235 273
#     4   9  18  34  50  69 101 121 159 210 240 284
#     4   9  18  32  52  73  91 129 161 198 250 282
#
# _framework density 16.665420999999998
#
# number of rings (size 3 to 8) (size 9 to 14) (size 15 to 20)
#    0.000    2.833    0.833    2.000    0.000    1.333 
#    9.000    3.333    0.000    0.000    0.000    2.333 
#    0.000    5.333    0.000    0.000    0.000    0.000 
#
# Total GULP energy -133610.010268 kJ/mol
# GULP energy per Si atom -5567.083761 kJ/mol
# Density = 1.662749 g / cm^3
# Si number density = 16.665421 Si / 1000 Ang^3
#
#
#
# Elastic Constant Matrix: (Units=GPa)
#
#
# Indices 1 2 3 4 5 6 
#
# 1 68.4134 22.1655 22.2822 0.0000 -27.0880 0.0000
# 2 22.1655 58.0986 15.5491 0.0000 -12.6512 0.0000
# 3 22.2822 15.5491 44.6279 0.0000 -21.2704 0.0000
# 4 0.0000 0.0000 0.0000 16.4483 0.0000 -1.9567
# 5 -27.0880 -12.6512 -21.2704 0.0000 13.2013 0.0000
# 6 0.0000 0.0000 0.0000 -1.9567 0.0000 16.9153
#
#
#
# Elastic Compliance Matrix: (Units=1/GPa)
#
#
# Indices 1 2 3 4 5 6 
#
# 1 -0.028113 -0.008853 -0.062124 0.000000 -0.166266 0.000000
# 2 -0.008853 0.020086 -0.008884 0.000000 -0.013231 0.000000
# 3 -0.062124 -0.008884 -0.035736 0.000000 -0.193567 0.000000
# 4 0.000000 0.000000 0.000000 0.061645 0.000000 0.007131
# 5 -0.166266 -0.013231 -0.193567 0.000000 -0.589976 0.000000
# 6 0.000000 0.000000 0.000000 0.007131 0.000000 0.059943
#
#
# Mechanical properties :
#
#
# Convention : Reuss Voigt Hill
#
# Bulk Modulus (GPa) = -4.91433 32.34818 13.71692
# Shear Modulus (GPa) = -11.89748 16.72254 2.41253
#
# Velocity S-wave (km/s) = -2.67479 3.17113 1.20448
# Velocity P-wave (km/s) = 3.53477 5.73241 3.19108
#
# Compressibility (1/GPa) = -0.20348662
#
# Stress axis : x y z
#
# Youngs Moduli (GPa) = -35.57044 49.78523 -27.98268
#
# Poissons Ratio (x) = 0.44075 -1.73840
# Poissons Ratio (y) = -0.31491 -0.24861
# Poissons Ratio (z) = -2.20978 0.44231
#
# Static dielectric constant tensor:
#      x y z
#    x 1.533240 0.000000 0.000290 
#    y 0.000000 1.597150 0.000000 
#    z 0.000290 0.000000 1.575470 
# 
# From -- ./inp_files/179290.got.cif
#   From: 2010.05.17/outbox.cif.g08.bks.cpg/sg12_90_cif.got.tgz:179290.got - 2010.06.03 13:09:07.
