data_PCOD9172619
_publ_section_title
;
Structure prediction by ZEFSAII (Michael W. Deem and Ramdas Pophale) SiO2 
 PCOD9172619
Probable space group: C 2/M
;
_chemical_formula_sum "Si O2"
_cell_formula_units_Z 52
_cell_length_a 5.538113
_cell_length_b 19.018622
_cell_length_c 24.918015
_cell_angle_alpha 90.000000
_cell_angle_beta 70.009816
_cell_angle_gamma 90.000000
_cell_volume 2466.420905
_symmetry_space_group_name_H-M "C 2/M"
_symmetry_group_IT_number 12
_symmetry_cell_setting 'monoclinic'
loop_
_space_group_symop_operation_xyz
x,y,z
-x,y,-z
-x,-y,-z
x,-y,z
1/2+x,1/2+y,z
1/2-x,1/2+y,-z
1/2-x,1/2-y,-z
1/2+x,1/2-y,z
loop_
_atom_site_type_symbol
_atom_site_label
_atom_site_fract_x
_atom_site_fract_y
_atom_site_fract_z
Si Si1 0.876310 0.581410 0.213862
Si Si2 0.295110 0.414531 0.970480
Si Si3 0.617552 0.744543 0.704118
Si Si4 0.000000 0.294085 0.500000
Si Si5 0.783078 0.618338 0.615478
Si Si6 0.727053 0.104598 0.653727
Si Si7 0.044933 0.085776 0.837425
O O1 0.893990 0.500000 0.194930
O O2 0.824668 0.582946 0.281183
O O3 0.634994 0.610128 0.198295
O O4 0.161258 0.612307 0.184231
O O5 0.288519 0.500000 0.974365
O O6 0.402857 0.397005 0.903573
O O7 0.500000 0.390784 0.000000
O O8 0.000000 0.390415 0.000000
O O9 0.317077 0.750095 0.736982
O O10 0.677906 0.673878 0.667697
O O11 0.694202 0.809647 0.658633
O O12 0.250000 0.250000 0.500000
O O13 0.090670 0.341320 0.443423
O O14 0.516548 0.583670 0.617147
O O15 0.007350 0.578687 0.630253
O O16 0.063978 0.000000 0.831888
#
# Coordination Sequence:
#
# PCOD9172619 Si02
#       7
#     8   8   8   4   8   8   8
#     4  10  19  30  44  61  82 114 154 193 220 236
#     4   9  15  23  37  56  78 107 140 173 214 263
#     4   8  14  25  39  57  81 104 128 155 192 251
#     4  12  20  30  48  72  99 120 133 164 210 264
#     4  10  19  30  45  67  90 112 136 164 208 268
#     4  10  18  30  44  61  85 114 147 175 209 256
#     4   9  17  28  40  58  84 109 144 190 222 248
#
# _framework density 21.083181
#
# number of rings (size 3 to 8) (size 9 to 14) (size 15 to 20)
#    0.000    2.462    0.000    5.538    0.000    3.692 
#    0.000    0.000    0.000    0.000    0.000    3.231 
#    0.000    0.000    0.000    0.000    0.000  484.615 
#
# Total GULP energy -144936.380452 kJ/mol
# GULP energy per Si atom -5574.476171 kJ/mol
# Density = 2.103520 g / cm^3
# Si number density = 21.083181 Si / 1000 Ang^3
#
#
#
# Elastic Constant Matrix: (Units=GPa)
#
#
# Indices 1 2 3 4 5 6 
#
# 1 219.2334 2.0705 29.7116 0.0000 -0.6568 0.0000
# 2 2.0705 42.9450 -9.7226 0.0000 3.7290 0.0000
# 3 29.7116 -9.7226 60.5527 0.0000 2.0625 0.0000
# 4 0.0000 0.0000 0.0000 21.1380 0.0000 10.2176
# 5 -0.6568 3.7290 2.0625 0.0000 38.0534 0.0000
# 6 0.0000 0.0000 0.0000 10.2176 0.0000 -4.9353
#
#
#
# Elastic Compliance Matrix: (Units=1/GPa)
#
#
# Indices 1 2 3 4 5 6 
#
# 1 0.004917 -0.000843 -0.002558 0.000000 0.000306 0.000000
# 2 -0.000843 0.024565 0.004448 0.000000 -0.002663 0.000000
# 3 -0.002558 0.004448 0.018535 0.000000 -0.001485 0.000000
# 4 0.000000 0.000000 0.000000 0.023645 0.000000 0.048953
# 5 0.000306 -0.002663 -0.001485 0.000000 0.026626 0.000000
# 6 0.000000 0.000000 0.000000 0.048953 0.000000 -0.101274
#
#
# Mechanical properties :
#
#
# Convention : Reuss Voigt Hill
#
# Bulk Modulus (GPa) = 19.95582 40.76113 30.35847
# Shear Modulus (GPa) = 430.19552 30.89599 230.54576
#
# Velocity S-wave (km/s) = 14.29999 3.83225 10.46843
# Velocity P-wave (km/s) = 16.79699 6.24155 12.67075
#
# Compressibility (1/GPa) = 0.05011070
#
# Stress axis : x y z
#
# Youngs Moduli (GPa) = 203.37813 40.70902 53.95287
#
# Poissons Ratio (x) = 0.03431 0.13803
# Poissons Ratio (y) = 0.17142 -0.24001
# Poissons Ratio (z) = 0.52032 -0.18109
#
# Static dielectric constant tensor:
#      x y z
#    x 1.874980 0.000000 0.004800 
#    y 0.000000 1.798250 0.000000 
#    z 0.004800 0.000000 1.691890 
# 
# From -- ./inp_files/331171.got.cif
#   From: 2010.05.17/outbox.cif.g08.bks.cpg/sg12_166_cif.got.tgz:331171.got - 2010.06.03 13:09:07.
