data_PCOD9172247
_publ_section_title
;
Structure prediction by ZEFSAII (Michael W. Deem and Ramdas Pophale) SiO2 
 PCOD9172247
Probable space group: C 2/M
;
_chemical_formula_sum "Si O2"
_cell_formula_units_Z 64
_cell_length_a 30.335723
_cell_length_b 24.598012
_cell_length_c 5.228552
_cell_angle_alpha 90.000000
_cell_angle_beta 98.588548
_cell_angle_gamma 90.000000
_cell_volume 3857.786679
_symmetry_space_group_name_H-M "C 2/M"
_symmetry_group_IT_number 12
_symmetry_cell_setting 'monoclinic'
loop_
_space_group_symop_operation_xyz
x,y,z
-x,y,-z
-x,-y,-z
x,-y,z
1/2+x,1/2+y,z
1/2-x,1/2+y,-z
1/2-x,1/2-y,-z
1/2+x,1/2-y,z
loop_
_atom_site_type_symbol
_atom_site_label
_atom_site_fract_x
_atom_site_fract_y
_atom_site_fract_z
Si Si1 0.799973 0.273882 0.260531
Si Si2 0.614959 0.439092 0.773990
Si Si3 0.787321 0.938425 0.399029
Si Si4 0.735004 0.662717 0.887375
Si Si5 0.660071 0.369140 0.168470
Si Si6 0.450206 0.722595 0.984728
Si Si7 0.049932 0.148296 0.511565
Si Si8 0.644640 0.247749 0.212437
O O1 0.766284 0.321836 0.152254
O O2 0.831529 0.282128 0.530962
O O3 0.769830 0.219041 0.274094
O O4 0.829076 0.265362 0.026607
O O5 0.597090 0.500000 0.780179
O O6 0.665489 0.443659 0.711584
O O7 0.585776 0.398854 0.579069
O O8 0.620281 0.407906 0.047607
O O9 0.803982 0.907336 0.665275
O O10 0.770586 0.000000 0.420639
O O11 0.754764 0.894388 0.238429
O O12 0.684621 0.653220 0.938037
O O13 0.648422 0.312381 0.291344
O O14 0.449207 0.677273 0.760908
O O15 0.407725 0.760411 0.887943
O O16 0.500000 0.747117 0.000000
O O17 0.443882 0.693317 0.255275
O O18 0.000000 0.125685 0.500000
#
# Coordination Sequence:
#
# PCOD9172247 Si02
#       8
#     8   8   8   8   8   8   8   8
#     4  10  21  31  49  72  93 118 151 187 239 278
#     4  10  20  31  43  62  84 113 153 202 244 283
#     4  10  19  31  47  65  87 122 161 195 234 277
#     4   9  20  31  44  66  95 117 149 196 233 270
#     4  10  18  29  48  61  88 115 154 193 236 273
#     4  10  20  33  50  68  89 114 149 188 229 280
#     4  10  20  33  48  64  84 114 149 192 243 290
#     4  11  19  31  51  69  89 118 149 186 233 276
#
# _framework density 16.589822000000002
#
# number of rings (size 3 to 8) (size 9 to 14) (size 15 to 20)
#    0.000    2.000    2.500    1.875    3.500    2.250 
#    0.000    0.000    0.000    2.250    0.000    0.000 
#    0.000    0.000    0.000    0.000    0.000    3.750 
#
# Total GULP energy -178167.004462 kJ/mol
# GULP energy per Si atom -5567.718889 kJ/mol
# Density = 1.655206 g / cm^3
# Si number density = 16.589822 Si / 1000 Ang^3
#
#
#
# Elastic Constant Matrix: (Units=GPa)
#
#
# Indices 1 2 3 4 5 6 
#
# 1 51.0707 9.6402 9.8857 0.0000 11.7587 0.0000
# 2 9.6402 47.3780 13.7035 0.0000 7.3656 0.0000
# 3 9.8857 13.7035 78.0824 0.0000 9.2683 0.0000
# 4 0.0000 0.0000 0.0000 -13.1847 0.0000 -4.4664
# 5 11.7587 7.3656 9.2683 0.0000 26.6859 0.0000
# 6 0.0000 0.0000 0.0000 -4.4664 0.0000 12.1559
#
#
#
# Elastic Compliance Matrix: (Units=1/GPa)
#
#
# Indices 1 2 3 4 5 6 
#
# 1 0.022352 -0.002830 -0.001311 0.000000 -0.008612 0.000000
# 2 -0.002830 0.023249 -0.003242 0.000000 -0.004044 0.000000
# 3 -0.001311 -0.003242 0.013942 0.000000 -0.003370 0.000000
# 4 0.000000 0.000000 0.000000 -0.067450 0.000000 -0.024783
# 5 -0.008612 -0.004044 -0.003370 0.000000 0.043555 0.000000
# 6 0.000000 0.000000 0.000000 -0.024783 0.000000 0.073159
#
#
# Mechanical properties :
#
#
# Convention : Reuss Voigt Hill
#
# Bulk Modulus (GPa) = 22.33283 26.99888 24.66585
# Shear Modulus (GPa) = 36.10190 14.68486 25.39338
#
# Velocity S-wave (km/s) = 4.66998 2.97841 3.91661
# Velocity P-wave (km/s) = 6.52451 5.30449 5.94588
#
# Compressibility (1/GPa) = 0.04477713
#
# Stress axis : x y z
#
# Youngs Moduli (GPa) = 44.73956 43.01256 71.72632
#
# Poissons Ratio (x) = 0.12172 0.09403
# Poissons Ratio (y) = 0.12661 0.23253
# Poissons Ratio (z) = 0.05865 0.13944
#
# Static dielectric constant tensor:
#      x y z
#    x 1.635110 0.000000 -0.028700 
#    y 0.000000 1.575850 0.000000 
#    z -0.028700 0.000000 1.656530 
# 
# From -- ./inp_files/29708.got.cif
#   From: 2010.05.17/outbox.cif.g08.bks.cpg/sg12_15_cif.got.tgz:29708.got - 2010.06.03 13:09:07.
