data_PCOD9172977
_publ_section_title
;
Structure prediction by ZEFSAII (Michael W. Deem and Ramdas Pophale) SiO2 
 PCOD9172977
Probable space group: C 2/M
;
_chemical_formula_sum "Si O2"
_cell_formula_units_Z 56
_cell_length_a 29.130043
_cell_length_b 7.693148
_cell_length_c 14.867933
_cell_angle_alpha 90.000000
_cell_angle_beta 118.262859
_cell_angle_gamma 90.000000
_cell_volume 2934.711851
_symmetry_space_group_name_H-M "C 2/M"
_symmetry_group_IT_number 12
_symmetry_cell_setting 'monoclinic'
loop_
_space_group_symop_operation_xyz
x,y,z
-x,y,-z
-x,-y,-z
x,-y,z
1/2+x,1/2+y,z
1/2-x,1/2+y,-z
1/2-x,1/2-y,-z
1/2+x,1/2-y,z
loop_
_atom_site_type_symbol
_atom_site_label
_atom_site_fract_x
_atom_site_fract_y
_atom_site_fract_z
Si Si1 0.662803 0.789783 0.175675
Si Si2 0.781445 0.210986 0.266125
Si Si3 0.693377 0.292418 0.904406
Si Si4 0.698826 0.710412 0.512921
Si Si5 0.488876 0.298022 0.889154
Si Si6 0.098691 0.704488 0.946792
Si Si7 0.610830 0.300934 0.305103
O O1 0.720539 0.748529 0.197031
O O2 0.650570 0.703253 0.258394
O O3 0.659591 0.000000 0.183007
O O4 0.621929 0.731462 0.063163
O O5 0.809163 0.273256 0.201058
O O6 0.796463 0.272513 0.379726
O O7 0.786108 0.000000 0.272209
O O8 0.690346 0.500000 0.899634
O O9 0.644532 0.229496 0.917456
O O10 0.750000 0.250000 0.000000
O O11 0.696035 0.500000 0.512160
O O12 0.750000 0.750000 0.500000
O O13 0.645623 0.777205 0.417170
O O14 0.474352 0.500000 0.890761
O O15 0.542445 0.289026 0.883202
O O16 0.441448 0.219946 0.786780
O O17 0.500000 0.223250 0.000000
O O18 0.089158 0.500000 0.946164
O O19 0.598136 0.500000 0.319097
#
# Coordination Sequence:
#
# PCOD9172977 Si02
#       7
#     8   8   8   8   8   8   8
#     4  10  18  30  49  73 105 137 167 202 245 303
#     4   9  18  33  50  72 104 138 167 202 249 302
#     4  11  21  35  54  76 104 138 172 210 258 304
#     4  10  19  32  51  75 103 134 168 206 248 300
#     4  10  20  34  51  74 105 137 170 211 259 304
#     4  11  22  35  51  76 105 136 175 211 252 306
#     4  10  20  32  49  76 105 134 171 209 249 299
#
# _framework density 19.081941
#
# number of rings (size 3 to 8) (size 9 to 14) (size 15 to 20)
#    0.000    1.857    4.286    0.857    0.000    1.429 
#    0.000    1.429    0.000    0.857    0.000    6.000 
#    0.000    0.000    0.000    0.000    0.000    0.000 
#
# Total GULP energy -156150.362389 kJ/mol
# GULP energy per Si atom -5576.798657 kJ/mol
# Density = 1.903851 g / cm^3
# Si number density = 19.081941 Si / 1000 Ang^3
#
#
#
# Elastic Constant Matrix: (Units=GPa)
#
#
# Indices 1 2 3 4 5 6 
#
# 1 82.7827 -4.6488 38.4599 0.0000 3.8890 0.0000
# 2 -4.6488 38.1511 2.2735 0.0000 3.8571 0.0000
# 3 38.4599 2.2735 129.2060 0.0000 8.6277 0.0000
# 4 0.0000 0.0000 0.0000 7.1183 0.0000 -0.5364
# 5 3.8890 3.8571 8.6277 0.0000 34.6980 0.0000
# 6 0.0000 0.0000 0.0000 -0.5364 0.0000 21.0366
#
#
#
# Elastic Compliance Matrix: (Units=1/GPa)
#
#
# Indices 1 2 3 4 5 6 
#
# 1 0.014186 0.002057 -0.004207 0.000000 -0.000773 0.000000
# 2 0.002057 0.026817 -0.000885 0.000000 -0.002992 0.000000
# 3 -0.004207 -0.000885 0.009121 0.000000 -0.001698 0.000000
# 4 0.000000 0.000000 0.000000 0.140753 0.000000 0.003589
# 5 -0.000773 -0.002992 -0.001698 0.000000 0.029661 0.000000
# 6 0.000000 0.000000 0.000000 0.003589 0.000000 0.047628
#
#
# Mechanical properties :
#
#
# Convention : Reuss Voigt Hill
#
# Bulk Modulus (GPa) = 22.69847 35.81212 29.25529
# Shear Modulus (GPa) = 17.30576 26.84093 22.07335
#
# Velocity S-wave (km/s) = 3.01478 3.75455 3.40482
# Velocity P-wave (km/s) = 4.90302 6.13220 5.55173
#
# Compressibility (1/GPa) = 0.04405583
#
# Stress axis : x y z
#
# Youngs Moduli (GPa) = 70.49027 37.28912 109.63815
#
# Poissons Ratio (x) = -0.07672 0.46129
# Poissons Ratio (y) = -0.14503 0.09698
# Poissons Ratio (z) = 0.29658 0.03298
#
# Static dielectric constant tensor:
#      x y z
#    x 1.672700 0.000000 0.008800 
#    y 0.000000 1.715320 0.000000 
#    z 0.008800 0.000000 1.701530 
# 
# From -- ./inp_files/244295.got.cif
#   From: 2010.05.17/outbox.cif.g08.bks.cpg/sg12_123_cif.got.tgz:244295.got - 2010.06.03 13:09:07.
