data_PCOD9172757
_publ_section_title
;
Structure prediction by ZEFSAII (Michael W. Deem and Ramdas Pophale) SiO2 
 PCOD9172757
Probable space group: C 2/M
;
_chemical_formula_sum "Si O2"
_cell_formula_units_Z 48
_cell_length_a 15.619080
_cell_length_b 24.027218
_cell_length_c 21.071730
_cell_angle_alpha 90.000000
_cell_angle_beta 17.105677
_cell_angle_gamma 90.000000
_cell_volume 2325.979458
_symmetry_space_group_name_H-M "C 2/M"
_symmetry_group_IT_number 12
_symmetry_cell_setting 'monoclinic'
loop_
_space_group_symop_operation_xyz
x,y,z
-x,y,-z
-x,-y,-z
x,-y,z
1/2+x,1/2+y,z
1/2-x,1/2+y,-z
1/2-x,1/2-y,-z
1/2+x,1/2-y,z
loop_
_atom_site_type_symbol
_atom_site_label
_atom_site_fract_x
_atom_site_fract_y
_atom_site_fract_z
Si Si1 0.637681 0.171859 0.132856
Si Si2 0.534247 0.061650 0.812572
Si Si3 0.150966 0.294868 0.259411
Si Si4 0.892162 0.061714 0.681104
Si Si5 0.673327 0.672798 0.203767
Si Si6 0.118686 0.787730 0.716270
O O1 0.621880 0.113248 0.109041
O O2 0.552159 0.170237 0.267346
O O3 0.434568 0.220838 0.247345
O O4 0.969229 0.193031 0.887288
O O5 0.624069 0.072100 0.822171
O O6 0.831056 0.059259 0.561407
O O7 0.397801 0.000000 0.905372
O O8 0.061891 0.230167 0.313565
O O9 0.939946 0.307904 0.468505
O O10 0.500000 0.297354 0.000000
O O11 0.938120 0.112739 0.695483
O O12 0.856945 0.000000 0.734786
O O13 0.597140 0.686131 0.184856
O O14 0.000000 0.671832 0.000000
#
# Coordination Sequence:
#
# PCOD9172757 Si02
#       6
#     8   8   8   8   8   8
#     4  10  19  34  54  74 103 135 169 220 264 306
#     4   9  17  30  49  74 104 140 176 208 252 309
#     4  10  21  35  52  75 102 134 175 224 268 306
#     4   9  17  28  45  72 108 146 176 202 241 306
#     4  10  18  30  47  71 106 140 169 207 254 306
#     4  10  20  33  52  78 103 136 178 211 260 318
#
# _framework density 20.636467
#
# number of rings (size 3 to 8) (size 9 to 14) (size 15 to 20)
#    0.000    2.333    0.000    6.000    0.000    2.333 
#    0.000    0.833    0.000    1.500    0.000    1.167 
#    0.000    0.000    0.000    0.000    0.000    0.000 
#
# Total GULP energy -133613.260191 kJ/mol
# GULP energy per Si atom -5567.219175 kJ/mol
# Density = 2.058950 g / cm^3
# Si number density = 20.636467 Si / 1000 Ang^3
#
#
#
# Elastic Constant Matrix: (Units=GPa)
#
#
# Indices 1 2 3 4 5 6 
#
# 1 52.4212 41.9026 20.4259 -0.1072 11.5701 -0.0913
# 2 41.9026 132.5631 0.9559 0.5614 -3.5968 -0.5230
# 3 20.4259 0.9559 114.8098 0.9826 4.9000 -0.1276
# 4 -0.1072 0.5614 0.9826 20.0777 0.1943 6.7436
# 5 11.5701 -3.5968 4.9000 0.1943 30.3349 -0.1228
# 6 -0.0913 -0.5230 -0.1276 6.7436 -0.1228 18.9494
#
#
#
# Elastic Compliance Matrix: (Units=1/GPa)
#
#
# Indices 1 2 3 4 5 6 
#
# 1 0.032303 -0.010527 -0.005125 0.001051 -0.012750 -0.000626
# 2 -0.010527 0.011002 0.001571 -0.000669 0.005072 0.000535
# 3 -0.005125 0.001571 0.009589 -0.000654 0.000598 0.000320
# 4 0.001051 -0.000669 -0.000654 0.056650 -0.000819 -0.020184
# 5 -0.012750 0.005072 0.000598 -0.000819 0.038341 0.000623
# 6 -0.000626 0.000535 0.000320 -0.020184 0.000623 0.059973
#
#
# Mechanical properties :
#
#
# Convention : Reuss Voigt Hill
#
# Bulk Modulus (GPa) = 40.43145 47.37365 43.90255
# Shear Modulus (GPa) = 20.46967 29.63970 25.05469
#
# Velocity S-wave (km/s) = 3.15289 3.79394 3.48817
# Velocity P-wave (km/s) = 5.73490 6.49600 6.12728
#
# Compressibility (1/GPa) = 0.02473322
#
# Stress axis : x y z
#
# Youngs Moduli (GPa) = 30.95700 90.89045 104.28399
#
# Poissons Ratio (x) = 0.95678 0.53444
# Poissons Ratio (y) = 0.32588 -0.16384
# Poissons Ratio (z) = 0.15865 -0.14279
#
# Static dielectric constant tensor:
#      x y z
#    x 1.818220 0.000050 0.016760 
#    y 0.000050 1.732970 0.000560 
#    z 0.016760 0.000560 1.870360 
# 
# From -- ./inp_files/312455.got.cif
#   From: 2010.05.17/outbox.cif.g08.bks.cpg/sg12_157_cif.got.tgz:312455.got - 2010.06.03 13:09:07.
