data_PCOD9172072
_publ_section_title
;
Structure prediction by ZEFSAII (Michael W. Deem and Ramdas Pophale) SiO2 
 PCOD9172072
Probable space group: C 2/M
;
_chemical_formula_sum "Si O2"
_cell_formula_units_Z 64
_cell_length_a 26.052466
_cell_length_b 13.605094
_cell_length_c 11.426245
_cell_angle_alpha 90.000000
_cell_angle_beta 111.121464
_cell_angle_gamma 90.000000
_cell_volume 3777.905736
_symmetry_space_group_name_H-M "C 2/M"
_symmetry_group_IT_number 12
_symmetry_cell_setting 'monoclinic'
loop_
_space_group_symop_operation_xyz
x,y,z
-x,y,-z
-x,-y,-z
x,-y,z
1/2+x,1/2+y,z
1/2-x,1/2+y,-z
1/2-x,1/2-y,-z
1/2+x,1/2-y,z
loop_
_atom_site_type_symbol
_atom_site_label
_atom_site_fract_x
_atom_site_fract_y
_atom_site_fract_z
Si Si1 0.446142 0.112758 0.375567
Si Si2 0.766725 0.886334 0.285201
Si Si3 0.486275 0.112101 0.149276
Si Si4 0.280593 0.115785 0.130792
Si Si5 0.589565 0.170918 0.116541
Si Si6 0.185762 0.262317 0.051777
Si Si7 0.172139 0.390668 0.386053
Si Si8 0.341236 0.212217 0.386224
O O1 0.500000 0.114731 0.500000
O O2 0.463428 0.135448 0.257547
O O3 0.401050 0.185434 0.388822
O O4 0.424259 0.000000 0.359139
O O5 0.727457 0.833045 0.158649
O O6 0.732127 0.881314 0.377499
O O7 0.821113 0.821959 0.343345
O O8 0.775127 0.000000 0.262038
O O9 0.534041 0.187028 0.147108
O O10 0.509283 0.000000 0.171924
O O11 0.437496 0.112501 0.014077
O O12 0.219646 0.161794 0.062801
O O13 0.299898 0.142391 0.277653
O O14 0.283618 0.000000 0.110561
O O15 0.319420 0.179512 0.075067
O O16 0.629983 0.246405 0.081408
O O17 0.630021 0.120457 0.243104
O O18 0.165071 0.500000 0.430271
O O19 0.162448 0.313472 0.480245
#
# Coordination Sequence:
#
# PCOD9172072 Si02
#       8
#     8   8   8   8   8   8   8   8
#     4  10  20  32  46  68  98 127 154 189 236 286
#     4   9  19  33  49  69  93 123 158 195 230 271
#     4  10  19  29  44  68  93 122 162 197 230 274
#     4  10  19  31  48  72 100 125 154 192 233 281
#     4  10  18  30  46  65  93 125 157 193 227 270
#     4   9  19  32  48  71  96 126 159 191 232 279
#     4  10  18  29  46  68  95 124 153 188 234 282
#     4  11  20  31  48  70  96 126 156 187 233 285
#
# _framework density 16.940601999999998
#
# number of rings (size 3 to 8) (size 9 to 14) (size 15 to 20)
#    0.000    2.125    0.000    4.875    0.000    4.500 
#    0.000    0.000    0.000    0.375    0.000    2.625 
#    0.000    0.000    0.000    0.000    0.000    0.000 
#
# Total GULP energy -178234.103793 kJ/mol
# GULP energy per Si atom -5569.815744 kJ/mol
# Density = 1.690204 g / cm^3
# Si number density = 16.940602 Si / 1000 Ang^3
#
#
#
# Elastic Constant Matrix: (Units=GPa)
#
#
# Indices 1 2 3 4 5 6 
#
# 1 81.5473 22.5359 21.9419 0.0000 1.2736 0.0000
# 2 22.5359 52.5358 18.5673 0.0000 5.3216 0.0000
# 3 21.9419 18.5673 70.1038 0.0000 -9.8339 0.0000
# 4 0.0000 0.0000 0.0000 13.2553 0.0000 -0.9687
# 5 1.2736 5.3216 -9.8339 0.0000 21.2967 0.0000
# 6 0.0000 0.0000 0.0000 -0.9687 0.0000 17.7950
#
#
#
# Elastic Compliance Matrix: (Units=1/GPa)
#
#
# Indices 1 2 3 4 5 6 
#
# 1 0.014562 -0.004910 -0.003429 0.000000 -0.001227 0.000000
# 2 -0.004910 0.024146 -0.006056 0.000000 -0.008536 0.000000
# 3 -0.003429 -0.006056 0.018373 0.000000 0.010202 0.000000
# 4 0.000000 0.000000 0.000000 0.075743 0.000000 0.004123
# 5 -0.001227 -0.008536 0.010202 0.000000 0.053873 0.000000
# 6 0.000000 0.000000 0.000000 0.004123 0.000000 0.056420
#
#
# Mechanical properties :
#
#
# Convention : Reuss Voigt Hill
#
# Bulk Modulus (GPa) = 35.34818 36.69744 36.02281
# Shear Modulus (GPa) = 17.77230 19.87885 18.82558
#
# Velocity S-wave (km/s) = 3.24249 3.42927 3.33719
# Velocity P-wave (km/s) = 5.91012 6.11468 6.01327
#
# Compressibility (1/GPa) = 0.02829000
#
# Stress axis : x y z
#
# Youngs Moduli (GPa) = 68.67355 41.41514 54.42791
#
# Poissons Ratio (x) = 0.20335 0.18666
# Poissons Ratio (y) = 0.33719 0.32960
# Poissons Ratio (z) = 0.23551 0.25080
#
# Static dielectric constant tensor:
#      x y z
#    x 1.608560 0.000000 -0.006180 
#    y 0.000000 1.549200 0.000000 
#    z -0.006180 0.000000 1.598910 
# 
# From -- ./inp_files/175305.got.cif
#   From: 2010.05.17/outbox.cif.g08.bks.cpg/sg12_88_cif.got.tgz:175305.got - 2010.06.03 13:09:07.
