data_PCOD9172258
_publ_section_title
;
Structure prediction by ZEFSAII (Michael W. Deem and Ramdas Pophale) SiO2 
 PCOD9172258
Probable space group: C 2/M
;
_chemical_formula_sum "Si O2"
_cell_formula_units_Z 64
_cell_length_a 19.910753
_cell_length_b 13.916105
_cell_length_c 14.850903
_cell_angle_alpha 90.000000
_cell_angle_beta 72.431825
_cell_angle_gamma 90.000000
_cell_volume 3922.965363
_symmetry_space_group_name_H-M "C 2/M"
_symmetry_group_IT_number 12
_symmetry_cell_setting 'monoclinic'
loop_
_space_group_symop_operation_xyz
x,y,z
-x,y,-z
-x,-y,-z
x,-y,z
1/2+x,1/2+y,z
1/2-x,1/2+y,-z
1/2-x,1/2-y,-z
1/2+x,1/2-y,z
loop_
_atom_site_type_symbol
_atom_site_label
_atom_site_fract_x
_atom_site_fract_y
_atom_site_fract_z
Si Si1 0.450149 0.386482 0.778144
Si Si2 0.041681 0.116312 0.571084
Si Si3 0.960579 0.728971 0.919938
Si Si4 0.839251 0.609035 0.044462
Si Si5 0.787607 0.704742 0.347782
Si Si6 0.917106 0.390575 0.207785
Si Si7 0.288736 0.613633 0.789021
Si Si8 0.703228 0.613622 0.543145
O O1 0.461058 0.500000 0.788891
O O2 0.503908 0.352925 0.678596
O O3 0.458465 0.326853 0.865530
O O4 0.370793 0.373288 0.773804
O O5 0.124564 0.137494 0.538476
O O6 0.000000 0.152298 0.500000
O O7 0.035911 0.000000 0.572014
O O8 0.007477 0.655281 0.842416
O O9 0.883781 0.683457 0.968131
O O10 0.000000 0.740167 0.000000
O O11 0.842680 0.500000 0.006579
O O12 0.878439 0.607228 0.125859
O O13 0.759143 0.633362 0.103494
O O14 0.866609 0.672382 0.291068
O O15 0.739940 0.676794 0.281434
O O16 0.758212 0.643724 0.443808
O O17 0.784605 0.815957 0.377455
O O18 0.921552 0.500000 0.238439
O O19 0.276776 0.500000 0.771425
O O20 0.706455 0.500000 0.561158
#
# Coordination Sequence:
#
# PCOD9172258 Si02
#       8
#     8   8   8   8   8   8   8   8
#     4  10  20  32  47  68  94 126 161 196 236 284
#     4   9  17  30  48  68  92 122 156 196 236 270
#     4  10  19  30  46  69  97 126 154 188 237 291
#     4   8  15  28  47  68  88 113 147 192 239 275
#     4  10  18  29  48  70  93 124 158 195 242 285
#     4   9  16  28  47  69  91 115 150 194 235 274
#     4   9  17  31  50  69  90 117 157 206 244 275
#     4  10  19  29  44  70 100 126 156 195 240 289
#
# _framework density 16.314188999999999
#
# number of rings (size 3 to 8) (size 9 to 14) (size 15 to 20)
#    0.000    2.625    0.000    3.750    0.000    4.250 
#    0.000    0.000    0.000    6.000    0.000    0.000 
#    0.000   13.000    0.000    0.000    0.000    0.000 
#
# Total GULP energy -178289.515683 kJ/mol
# GULP energy per Si atom -5571.547365 kJ/mol
# Density = 1.627706 g / cm^3
# Si number density = 16.314189 Si / 1000 Ang^3
#
#
#
# Elastic Constant Matrix: (Units=GPa)
#
#
# Indices 1 2 3 4 5 6 
#
# 1 33.2513 17.2884 19.5610 0.0000 -9.0581 0.0000
# 2 17.2884 75.5807 41.1897 0.0000 -0.7158 0.0000
# 3 19.5610 41.1897 86.2741 0.0000 -14.7171 0.0000
# 4 0.0000 0.0000 0.0000 27.6778 0.0000 -1.3379
# 5 -9.0581 -0.7158 -14.7171 0.0000 21.7638 0.0000
# 6 0.0000 0.0000 0.0000 -1.3379 0.0000 13.8492
#
#
#
# Elastic Compliance Matrix: (Units=1/GPa)
#
#
# Indices 1 2 3 4 5 6 
#
# 1 0.039489 -0.007205 -0.003109 0.000000 0.014096 0.000000
# 2 -0.007205 0.019886 -0.009337 0.000000 -0.008659 0.000000
# 3 -0.003109 -0.009337 0.018630 0.000000 0.010997 0.000000
# 4 0.000000 0.000000 0.000000 0.036300 0.000000 0.003507
# 5 0.014096 -0.008659 0.010997 0.000000 0.058966 0.000000
# 6 0.000000 0.000000 0.000000 0.003507 0.000000 0.072545
#
#
# Mechanical properties :
#
#
# Convention : Reuss Voigt Hill
#
# Bulk Modulus (GPa) = 25.83871 39.02051 32.42961
# Shear Modulus (GPa) = 16.77748 20.46262 18.62005
#
# Velocity S-wave (km/s) = 3.21034 3.54543 3.38204
# Velocity P-wave (km/s) = 5.44190 6.38202 5.93062
#
# Compressibility (1/GPa) = 0.03870162
#
# Stress axis : x y z
#
# Youngs Moduli (GPa) = 25.32349 50.28744 53.67759
#
# Poissons Ratio (x) = 0.36232 0.16688
# Poissons Ratio (y) = 0.18246 0.50121
# Poissons Ratio (z) = 0.07873 0.46956
#
# Static dielectric constant tensor:
#      x y z
#    x 1.549460 0.000000 -0.020840 
#    y 0.000000 1.542330 0.000000 
#    z -0.020840 0.000000 1.549740 
# 
# From -- ./inp_files/232444.got.cif
#   From: 2010.05.17/outbox.cif.g08.bks.cpg/sg12_117_cif.got.tgz:232444.got - 2010.06.03 13:09:07.
