data_PCOD9172754
_publ_section_title
;
Structure prediction by ZEFSAII (Michael W. Deem and Ramdas Pophale) SiO2 
 PCOD9172754
Probable space group: C 2/M
;
_chemical_formula_sum "Si O2"
_cell_formula_units_Z 48
_cell_length_a 15.460815
_cell_length_b 15.679079
_cell_length_c 12.334101
_cell_angle_alpha 90.000000
_cell_angle_beta 119.115250
_cell_angle_gamma 90.000000
_cell_volume 2612.127121
_symmetry_space_group_name_H-M "C 2/M"
_symmetry_group_IT_number 12
_symmetry_cell_setting 'monoclinic'
loop_
_space_group_symop_operation_xyz
x,y,z
-x,y,-z
-x,-y,-z
x,-y,z
1/2+x,1/2+y,z
1/2-x,1/2+y,-z
1/2-x,1/2-y,-z
1/2+x,1/2-y,z
loop_
_atom_site_type_symbol
_atom_site_label
_atom_site_fract_x
_atom_site_fract_y
_atom_site_fract_z
Si Si1 0.110234 0.854831 0.089166
Si Si2 0.245082 0.397472 0.637082
Si Si3 0.860426 0.397082 0.630808
Si Si4 0.890952 0.650106 0.897386
Si Si5 0.421404 0.103018 0.295404
Si Si6 0.225079 0.349844 0.975424
O O1 0.157798 0.874727 0.235170
O O2 0.106917 0.751985 0.082232
O O3 0.185850 0.887676 0.042342
O O4 0.000000 0.887110 0.000000
O O5 0.240873 0.500000 0.631855
O O6 0.227417 0.367793 0.503047
O O7 0.151068 0.368031 0.652554
O O8 0.857471 0.500000 0.635462
O O9 0.865924 0.365374 0.756996
O O10 0.963862 0.373461 0.634738
O O11 0.805296 0.615793 0.925425
O O12 0.000000 0.617044 0.000000
O O13 0.417297 0.000000 0.291352
O O14 0.372717 0.138076 0.156393
O O15 0.250000 0.250000 0.000000
#
# Coordination Sequence:
#
# PCOD9172754 Si02
#       6
#     8   8   8   8   8   8
#     4   9  19  33  51  70  90 125 167 206 235 269
#     4   9  18  32  48  70  97 126 163 201 238 280
#     4  10  19  29  47  73 103 130 151 189 246 299
#     4  10  18  30  47  71 101 128 153 189 239 296
#     4   9  16  28  47  71  98 126 156 194 240 288
#     4   9  17  30  47  68  97 128 157 194 236 279
#
# _framework density 18.375827999999998
#
# number of rings (size 3 to 8) (size 9 to 14) (size 15 to 20)
#    0.000    2.667    1.667    0.500    0.000    4.000 
#    0.000    0.000    0.000    1.000    0.000    2.333 
#    0.000    0.000    0.000    0.000    0.000    0.000 
#
# Total GULP energy -133616.499739 kJ/mol
# GULP energy per Si atom -5567.354156 kJ/mol
# Density = 1.833400 g / cm^3
# Si number density = 18.375828 Si / 1000 Ang^3
#
#
#
# Elastic Constant Matrix: (Units=GPa)
#
#
# Indices 1 2 3 4 5 6 
#
# 1 80.9966 8.1589 68.8469 0.0000 13.2864 0.0000
# 2 8.1589 9.2350 2.1560 0.0000 1.2806 0.0000
# 3 68.8469 2.1560 162.0832 0.0000 7.4791 0.0000
# 4 0.0000 0.0000 0.0000 24.5017 0.0000 2.6305
# 5 13.2864 1.2806 7.4791 0.0000 18.4080 0.0000
# 6 0.0000 0.0000 0.0000 2.6305 0.0000 8.2123
#
#
#
# Elastic Compliance Matrix: (Units=1/GPa)
#
#
# Indices 1 2 3 4 5 6 
#
# 1 0.024184 -0.017437 -0.009469 0.000000 -0.012396 0.000000
# 2 -0.017437 0.122113 0.005700 0.000000 0.001775 0.000000
# 3 -0.009469 0.005700 0.010006 0.000000 0.002372 0.000000
# 4 0.000000 0.000000 0.000000 0.042267 0.000000 -0.013539
# 5 -0.012396 0.001775 0.002372 0.000000 0.062184 0.000000
# 6 0.000000 0.000000 0.000000 -0.013539 0.000000 0.126106
#
#
# Mechanical properties :
#
#
# Convention : Reuss Voigt Hill
#
# Bulk Modulus (GPa) = 8.78021 45.62650 27.20336
# Shear Modulus (GPa) = 10.70126 21.76792 16.23459
#
# Velocity S-wave (km/s) = 2.41582 3.44553 2.97556
# Velocity P-wave (km/s) = 3.54543 6.38063 5.16152
#
# Compressibility (1/GPa) = 0.11389252
#
# Stress axis : x y z
#
# Youngs Moduli (GPa) = 41.34901 8.18917 99.93665
#
# Poissons Ratio (x) = 0.14280 0.94627
# Poissons Ratio (y) = 0.72101 -0.56968
# Poissons Ratio (z) = 0.39152 -0.04668
#
# Static dielectric constant tensor:
#      x y z
#    x 1.669800 0.000000 -0.019010 
#    y 0.000000 1.639470 0.000000 
#    z -0.019010 0.000000 1.656300 
# 
# From -- ./inp_files/63634.got.cif
#   From: 2010.05.17/outbox.cif.g08.bks.cpg/sg12_32_cif.got.tgz:63634.got - 2010.06.03 13:09:07.
