data_PCOD9172749
_publ_section_title
;
Structure prediction by ZEFSAII (Michael W. Deem and Ramdas Pophale) SiO2 
 PCOD9172749
Probable space group: C 2/M
;
_chemical_formula_sum "Si O2"
_cell_formula_units_Z 44
_cell_length_a 7.577535
_cell_length_b 26.620253
_cell_length_c 14.330079
_cell_angle_alpha 90.000000
_cell_angle_beta 39.745051
_cell_angle_gamma 90.000000
_cell_volume 1848.173455
_symmetry_space_group_name_H-M "C 2/M"
_symmetry_group_IT_number 12
_symmetry_cell_setting 'monoclinic'
loop_
_space_group_symop_operation_xyz
x,y,z
-x,y,-z
-x,-y,-z
x,-y,z
1/2+x,1/2+y,z
1/2-x,1/2+y,-z
1/2-x,1/2-y,-z
1/2+x,1/2-y,z
loop_
_atom_site_type_symbol
_atom_site_label
_atom_site_fract_x
_atom_site_fract_y
_atom_site_fract_z
Si Si1 0.736575 0.212615 0.177508
Si Si2 0.403089 0.500000 0.754673
Si Si3 0.509912 0.322285 0.251225
Si Si4 0.074580 0.392363 0.218453
Si Si5 0.319573 0.410518 0.934583
Si Si6 0.241685 0.089194 0.533450
O O1 0.636021 0.269186 0.226624
O O2 0.791493 0.193495 0.259921
O O3 0.549291 0.167707 0.212890
O O4 0.000000 0.212712 0.000000
O O5 0.325863 0.456714 0.863945
O O6 0.530670 0.544512 0.635487
O O7 0.708134 0.359437 0.112680
O O8 0.381965 0.357113 0.383601
O O9 0.374545 0.404271 0.143389
O O10 0.853523 0.409298 0.383186
O O11 0.101590 0.416988 0.106368
O O12 0.500000 0.079676 0.500000
#
# Coordination Sequence:
#
# PCOD9172749 Si02
#       6
#     8   4   8   8   8   8
#     4  11  19  34  55  79 103 150 173 226 256 315
#     4  10  19  29  50  69 108 139 179 205 287 313
#     4  10  21  34  54  75 112 138 185 212 269 305
#     4  10  18  30  47  70 110 131 176 212 270 299
#     4   9  18  31  45  75  98 139 171 227 248 321
#     4  11  19  33  46  76 107 143 168 227 261 328
#
# _framework density 23.807289000000001
#
# number of rings (size 3 to 8) (size 9 to 14) (size 15 to 20)
#    0.000    1.818    9.091    0.818    0.000    2.909 
#    0.000    0.000    0.000    0.000    0.000   10.182 
#    0.000    5.818    0.000    0.000    0.000    0.000 
#
# Total GULP energy -122502.875103 kJ/mol
# GULP energy per Si atom -5568.312505 kJ/mol
# Density = 2.375310 g / cm^3
# Si number density = 23.807289 Si / 1000 Ang^3
#
#
#
# Elastic Constant Matrix: (Units=GPa)
#
#
# Indices 1 2 3 4 5 6 
#
# 1 43.2784 24.3887 35.9429 0.0000 1.0805 0.0000
# 2 24.3887 168.8353 90.9824 0.0000 27.6874 0.0000
# 3 35.9429 90.9824 239.3949 0.0000 52.4001 0.0000
# 4 0.0000 0.0000 0.0000 -12.7136 0.0000 11.2148
# 5 1.0805 27.6874 52.4001 0.0000 28.7415 0.0000
# 6 0.0000 0.0000 0.0000 11.2148 0.0000 -48.3601
#
#
#
# Elastic Compliance Matrix: (Units=1/GPa)
#
#
# Indices 1 2 3 4 5 6 
#
# 1 0.029619 -0.003122 -0.006116 0.000000 0.013043 0.000000
# 2 -0.003122 0.007977 -0.001509 0.000000 -0.004816 0.000000
# 3 -0.006116 -0.001509 0.008820 0.000000 -0.014397 0.000000
# 4 0.000000 0.000000 0.000000 -0.098884 0.000000 -0.022931
# 5 0.013043 -0.004816 -0.014397 0.000000 0.065190 0.000000
# 6 0.000000 0.000000 0.000000 -0.022931 0.000000 -0.025996
#
#
# Mechanical properties :
#
#
# Convention : Reuss Voigt Hill
#
# Bulk Modulus (GPa) = 40.12285 83.79295 61.95790
# Shear Modulus (GPa) = 302.55392 13.54653 158.05022
#
# Velocity S-wave (km/s) = 11.28541 2.38798 8.15668
# Velocity P-wave (km/s) = 13.66396 6.54798 10.71400
#
# Compressibility (1/GPa) = 0.02492346
#
# Stress axis : x y z
#
# Youngs Moduli (GPa) = 33.76229 125.36503 113.37801
#
# Poissons Ratio (x) = 0.39139 0.69337
# Poissons Ratio (y) = 0.10541 0.17104
# Poissons Ratio (z) = 0.20647 0.18912
#
# Static dielectric constant tensor:
#      x y z
#    x 2.066320 0.000000 -0.053720 
#    y 0.000000 1.861390 0.000000 
#    z -0.053720 0.000000 1.895210 
# 
# From -- ./inp_files/199577.got.cif
#   From: 2010.05.17/outbox.cif.g08.bks.cpg/sg12_100_cif.got.tgz:199577.got - 2010.06.03 13:09:07.
