data_PCOD9172175
_publ_section_title
;
Structure prediction by ZEFSAII (Michael W. Deem and Ramdas Pophale) SiO2 
 PCOD9172175
Probable space group: C 2/M
;
_chemical_formula_sum "Si O2"
_cell_formula_units_Z 64
_cell_length_a 14.112184
_cell_length_b 14.417472
_cell_length_c 27.174645
_cell_angle_alpha 90.000000
_cell_angle_beta 32.024546
_cell_angle_gamma 90.000000
_cell_volume 2931.936386
_symmetry_space_group_name_H-M "C 2/M"
_symmetry_group_IT_number 12
_symmetry_cell_setting 'monoclinic'
loop_
_space_group_symop_operation_xyz
x,y,z
-x,y,-z
-x,-y,-z
x,-y,z
1/2+x,1/2+y,z
1/2-x,1/2+y,-z
1/2-x,1/2-y,-z
1/2+x,1/2-y,z
loop_
_atom_site_type_symbol
_atom_site_label
_atom_site_fract_x
_atom_site_fract_y
_atom_site_fract_z
Si Si1 0.834255 0.893464 0.533612
Si Si2 0.368052 0.896161 0.510239
Si Si3 0.286071 0.598685 0.101597
Si Si4 0.146770 0.759782 0.669042
Si Si5 0.440734 0.744362 0.626513
Si Si6 0.678483 0.695869 0.818616
Si Si7 0.449016 0.609273 0.828696
Si Si8 0.166212 0.270254 0.984663
O O1 0.667769 0.838912 0.631859
O O2 0.000000 0.892691 0.500000
O O3 0.918288 0.834771 0.451079
O O4 0.794252 0.000000 0.540195
O O5 0.500000 0.899194 0.500000
O O6 0.215997 0.829408 0.596835
O O7 0.467159 0.844347 0.422367
O O8 0.313861 0.000000 0.523106
O O9 0.205336 0.500000 0.121832
O O10 0.249228 0.621145 0.174435
O O11 0.247813 0.687946 0.085902
O O12 0.500000 0.590670 0.000000
O O13 0.289826 0.744343 0.650239
O O14 0.999011 0.821385 0.762052
O O15 0.333302 0.744550 0.724748
O O16 0.567405 0.643738 0.824003
O O17 0.543470 0.756313 0.912518
O O18 0.481141 0.500000 0.805455
O O19 0.243236 0.632811 0.932180
O O20 0.250000 0.250000 0.000000
#
# Coordination Sequence:
#
# PCOD9172175 Si02
#       8
#     8   8   8   8   8   8   8   8
#     4   8  13  23  38  57  87 126 161 192 231 279
#     4   8  12  18  30  53  86 116 141 178 231 285
#     4   9  17  31  52  73  93 122 160 202 247 288
#     4   8  14  23  36  59  89 121 156 193 233 276
#     4   8  14  22  36  61  91 120 150 189 238 285
#     4   9  17  30  48  71  99 125 156 201 244 284
#     4  10  18  29  47  70  97 130 163 195 239 289
#     4   9  19  32  46  68  98 128 159 196 237 282
#
# _framework density 21.828578
#
# number of rings (size 3 to 8) (size 9 to 14) (size 15 to 20)
#    0.000    3.375    0.000    2.250    0.000    6.500 
#    0.000    1.250    0.000   11.625    0.000    3.500 
#    0.000    2.000    0.000    0.250    0.000    0.000 
#
# Total GULP energy -178214.581629 kJ/mol
# GULP energy per Si atom -5569.205676 kJ/mol
# Density = 2.177890 g / cm^3
# Si number density = 21.828578 Si / 1000 Ang^3
#
#
#
# Elastic Constant Matrix: (Units=GPa)
#
#
# Indices 1 2 3 4 5 6 
#
# 1 61.6800 17.9963 19.7613 -0.0002 17.8092 0.0001
# 2 17.9963 164.2360 72.6966 -0.0003 9.3870 0.0001
# 3 19.7613 72.6966 132.2787 -0.0006 15.5007 0.0012
# 4 -0.0002 -0.0003 -0.0006 -0.8601 0.0009 -10.8668
# 5 17.8092 9.3870 15.5007 0.0009 32.9766 -0.0002
# 6 0.0001 0.0001 0.0012 -10.8668 -0.0002 7.5060
#
#
#
# Elastic Compliance Matrix: (Units=1/GPa)
#
#
# Indices 1 2 3 4 5 6 
#
# 1 0.019739 -0.001065 -0.001217 0.000000 -0.009785 -0.000001
# 2 -0.001065 0.008105 -0.004331 0.000000 0.000304 0.000000
# 3 -0.001217 -0.004331 0.010477 0.000001 -0.003035 -0.000001
# 4 0.000000 0.000000 0.000001 -0.060268 0.000001 -0.087253
# 5 -0.009785 0.000304 -0.003035 0.000001 0.036949 0.000003
# 6 -0.000001 0.000000 -0.000001 -0.087253 0.000003 0.006906
#
#
# Mechanical properties :
#
#
# Convention : Reuss Voigt Hill
#
# Bulk Modulus (GPa) = 39.84768 64.34476 52.09622
# Shear Modulus (GPa) = 114.94731 24.44054 69.69393
#
# Velocity S-wave (km/s) = 7.26453 3.34976 5.65660
# Velocity P-wave (km/s) = 9.41589 6.67102 8.15970
#
# Compressibility (1/GPa) = 0.02509556
#
# Stress axis : x y z
#
# Youngs Moduli (GPa) = 50.66239 123.37892 95.44421
#
# Poissons Ratio (x) = 0.13140 0.11614
# Poissons Ratio (y) = 0.05395 0.41335
# Poissons Ratio (z) = 0.06165 0.53433
#
# Static dielectric constant tensor:
#      x y z
#    x 1.870280 0.000000 -0.041020 
#    y 0.000000 1.780460 0.000000 
#    z -0.041020 0.000000 1.846510 
# 
# From -- ./inp_files/379346.got.cif
#   From: 2010.05.17/outbox.cif.g08.bks.cpg/sg12_190_cif.got.tgz:379346.got - 2010.06.03 13:09:07.
