data_PCOD9172414
_publ_section_title
;
Structure prediction by ZEFSAII (Michael W. Deem and Ramdas Pophale) SiO2 
 PCOD9172414
Probable space group: C 2/M
;
_chemical_formula_sum "Si O2"
_cell_formula_units_Z 56
_cell_length_a 19.597469
_cell_length_b 8.862571
_cell_length_c 32.358923
_cell_angle_alpha 90.000000
_cell_angle_beta 34.170510
_cell_angle_gamma 90.000000
_cell_volume 3156.642631
_symmetry_space_group_name_H-M "C 2/M"
_symmetry_group_IT_number 12
_symmetry_cell_setting 'monoclinic'
loop_
_space_group_symop_operation_xyz
x,y,z
-x,y,-z
-x,-y,-z
x,-y,z
1/2+x,1/2+y,z
1/2-x,1/2+y,-z
1/2-x,1/2-y,-z
1/2+x,1/2-y,z
loop_
_atom_site_type_symbol
_atom_site_label
_atom_site_fract_x
_atom_site_fract_y
_atom_site_fract_z
Si Si1 0.604377 0.679972 0.691405
Si Si2 0.153900 0.680280 0.579559
Si Si3 0.775053 0.320809 0.054440
Si Si4 0.189432 0.679067 0.732468
Si Si5 0.838688 0.319684 0.813227
Si Si6 0.569456 0.819623 0.099220
Si Si7 0.128028 0.320590 0.297027
O O1 0.599155 0.500000 0.692545
O O2 0.662444 0.745426 0.620454
O O3 0.674790 0.736258 0.696476
O O4 0.467401 0.746304 0.761684
O O5 0.168719 0.500000 0.575474
O O6 0.250000 0.750000 0.500000
O O7 0.015996 0.709189 0.633264
O O8 0.770095 0.500000 0.063150
O O9 0.762130 0.238770 0.104606
O O10 0.660290 0.267796 0.084203
O O11 0.890693 0.284050 0.967630
O O12 0.191626 0.500000 0.724092
O O13 0.304337 0.731609 0.701156
O O14 0.068289 0.714392 0.819904
O O15 0.851429 0.500000 0.809876
O O16 0.819651 0.280881 0.774670
O O17 0.589428 0.000000 0.095190
O O18 0.145048 0.500000 0.294566
#
# Coordination Sequence:
#
# PCOD9172414 Si02
#       7
#     8   8   8   8   8   8   8
#     4  11  21  34  57  85 111 144 185 224 266 324
#     4  10  21  40  64  89 116 144 177 220 267 318
#     4  10  18  29  49  76 102 139 187 233 281 330
#     4  11  21  35  55  80 112 147 183 228 277 325
#     4  10  19  34  53  76 107 143 185 235 280 322
#     4   9  19  32  47  72 108 143 180 231 284 325
#     4   9  21  38  56  79 111 146 179 220 272 326
#
# _framework density 17.740368
#
# number of rings (size 3 to 8) (size 9 to 14) (size 15 to 20)
#    0.000    2.000    1.429    3.857    0.000    4.571 
#    0.000    1.429    0.000    8.571    0.000    0.000 
#    0.000    0.000    0.000    0.000    0.000    0.000 
#
# Total GULP energy -156314.976197 kJ/mol
# GULP energy per Si atom -5582.677721 kJ/mol
# Density = 1.769999 g / cm^3
# Si number density = 17.740368 Si / 1000 Ang^3
#
#
#
# Elastic Constant Matrix: (Units=GPa)
#
#
# Indices 1 2 3 4 5 6 
#
# 1 96.4166 55.7495 45.0469 -0.0006 19.3094 0.0072
# 2 55.7495 83.3172 53.9503 -0.0011 12.9688 0.0012
# 3 45.0469 53.9503 115.3342 -0.0021 28.7775 -0.0001
# 4 -0.0006 -0.0011 -0.0021 30.3422 -0.0002 5.5127
# 5 19.3094 12.9688 28.7775 -0.0002 19.4929 0.0003
# 6 0.0072 0.0012 -0.0001 5.5127 0.0003 29.5325
#
#
#
# Elastic Compliance Matrix: (Units=1/GPa)
#
#
# Indices 1 2 3 4 5 6 
#
# 1 0.019072 -0.011497 0.001163 0.000001 -0.012959 -0.000004
# 2 -0.011497 0.024154 -0.008929 0.000000 0.008501 0.000002
# 3 0.001163 -0.008929 0.017729 0.000001 -0.021384 0.000000
# 4 0.000001 0.000000 0.000001 0.034114 -0.000001 -0.006368
# 5 -0.012959 0.008501 -0.021384 -0.000001 0.090052 0.000002
# 6 -0.000004 0.000002 0.000000 -0.006368 0.000002 0.035050
#
#
# Mechanical properties :
#
#
# Convention : Reuss Voigt Hill
#
# Bulk Modulus (GPa) = 44.58871 67.17347 55.88109
# Shear Modulus (GPa) = 18.78473 25.22826 22.00650
#
# Velocity S-wave (km/s) = 3.25756 3.77514 3.52586
# Velocity P-wave (km/s) = 6.27196 7.54647 6.93854
#
# Compressibility (1/GPa) = 0.02242720
#
# Stress axis : x y z
#
# Youngs Moduli (GPa) = 52.43421 41.40126 56.40471
#
# Poissons Ratio (x) = 0.47598 -0.06558
# Poissons Ratio (y) = 0.60283 0.50366
# Poissons Ratio (z) = -0.06096 0.36969
#
# Static dielectric constant tensor:
#      x y z
#    x 1.579960 0.000000 0.018070 
#    y 0.000000 1.589490 0.000000 
#    z 0.018070 0.000000 1.612810 
# 
# From -- ./inp_files/377642.got.cif
#   From: 2010.05.17/outbox.cif.g08.bks.cpg/sg12_189_cif.got.tgz:377642.got - 2010.06.03 13:09:07.
