data_PCOD9172544
_publ_section_title
;
Structure prediction by ZEFSAII (Michael W. Deem and Ramdas Pophale) SiO2 
 PCOD9172544
Probable space group: C 2/M
;
_chemical_formula_sum "Si O2"
_cell_formula_units_Z 64
_cell_length_a 35.028257
_cell_length_b 7.749407
_cell_length_c 11.681530
_cell_angle_alpha 90.000000
_cell_angle_beta 74.883057
_cell_angle_gamma 90.000000
_cell_volume 3061.202233
_symmetry_space_group_name_H-M "C 2/M"
_symmetry_group_IT_number 12
_symmetry_cell_setting 'monoclinic'
loop_
_space_group_symop_operation_xyz
x,y,z
-x,y,-z
-x,-y,-z
x,-y,z
1/2+x,1/2+y,z
1/2-x,1/2+y,-z
1/2-x,1/2-y,-z
1/2+x,1/2-y,z
loop_
_atom_site_type_symbol
_atom_site_label
_atom_site_fract_x
_atom_site_fract_y
_atom_site_fract_z
Si Si1 0.688465 0.701020 0.108281
Si Si2 0.381519 0.792423 0.436308
Si Si3 0.047766 0.705449 0.204433
Si Si4 0.115810 0.795328 0.304878
Si Si5 0.040913 0.710580 0.753942
Si Si6 0.267104 0.296249 0.149842
Si Si7 0.412164 0.210111 0.057437
Si Si8 0.164895 0.708488 0.747346
O O1 0.680646 0.500000 0.090280
O O2 0.648994 0.779578 0.192749
O O3 0.724046 0.713950 0.172113
O O4 0.706409 0.775718 0.976899
O O5 0.374275 0.745345 0.572277
O O6 0.424728 0.731484 0.359578
O O7 0.349752 0.733187 0.366334
O O8 0.381963 0.000000 0.429081
O O9 0.044546 0.500000 0.189768
O O10 0.072765 0.734414 0.299052
O O11 0.003069 0.773513 0.238209
O O12 0.073228 0.773897 0.076767
O O13 0.116404 0.000000 0.292440
O O14 0.040474 0.500000 0.750059
O O15 0.056095 0.756234 0.869160
O O16 0.261314 0.500000 0.136755
O O17 0.292593 0.267967 0.243008
O O18 0.369249 0.267678 0.136312
O O19 0.410500 0.000000 0.055484
O O20 0.164861 0.500000 0.748246
#
# Coordination Sequence:
#
# PCOD9172544 Si02
#       8
#     8   8   8   8   8   8   8   8
#     4   9  20  37  53  73 104 136 161 195 245 293
#     4   9  19  36  54  71  96 133 175 212 244 284
#     4  10  18  29  51  78 101 129 166 207 250 299
#     4  11  23  37  51  69  99 135 169 207 249 291
#     4   8  15  29  50  76 102 128 164 211 253 286
#     4  10  19  32  55  83 105 126 157 197 242 299
#     4   8  14  26  48  78 105 129 162 203 246 295
#     4   9  17  31  52  76 103 133 163 201 249 296
#
# _framework density 20.906817
#
# number of rings (size 3 to 8) (size 9 to 14) (size 15 to 20)
#    0.000    2.750    0.000    3.375    0.000    4.000 
#    0.000    3.750    0.000    3.000    0.000    0.000 
#    0.000    0.000    0.000    0.000    0.000    0.000 
#
# Total GULP energy -178553.335589 kJ/mol
# GULP energy per Si atom -5579.791737 kJ/mol
# Density = 2.085923 g / cm^3
# Si number density = 20.906817 Si / 1000 Ang^3
#
#
#
# Elastic Constant Matrix: (Units=GPa)
#
#
# Indices 1 2 3 4 5 6 
#
# 1 86.8675 -10.7029 14.2717 0.0000 24.3452 0.0000
# 2 -10.7029 30.1905 -4.6310 0.0000 -4.4509 0.0000
# 3 14.2717 -4.6310 29.8630 0.0000 3.1305 0.0000
# 4 0.0000 0.0000 0.0000 10.6320 0.0000 0.7760
# 5 24.3452 -4.4509 3.1305 0.0000 17.9520 0.0000
# 6 0.0000 0.0000 0.0000 0.7760 0.0000 7.1007
#
#
#
# Elastic Compliance Matrix: (Units=1/GPa)
#
#
# Indices 1 2 3 4 5 6 
#
# 1 0.019988 0.002342 -0.006528 0.000000 -0.025387 0.000000
# 2 0.002342 0.035264 0.003836 0.000000 0.004898 0.000000
# 3 -0.006528 0.003836 0.036847 0.000000 0.003378 0.000000
# 4 0.000000 0.000000 0.000000 0.094812 0.000000 -0.010361
# 5 -0.025387 0.004898 0.003378 0.000000 0.090757 0.000000
# 6 0.000000 0.000000 0.000000 -0.010361 0.000000 0.141963
#
#
# Mechanical properties :
#
#
# Convention : Reuss Voigt Hill
#
# Bulk Modulus (GPa) = 10.94117 16.08851 13.51484
# Shear Modulus (GPa) = 11.09151 17.00251 14.04701
#
# Velocity S-wave (km/s) = 2.30580 2.85485 2.59489
# Velocity P-wave (km/s) = 3.51193 4.31033 3.93145
#
# Compressibility (1/GPa) = 0.09139793
#
# Stress axis : x y z
#
# Youngs Moduli (GPa) = 50.03097 28.35774 27.13955
#
# Poissons Ratio (x) = -0.06641 0.17716
# Poissons Ratio (y) = -0.11716 -0.10410
# Poissons Ratio (z) = 0.32659 -0.10878
#
# Static dielectric constant tensor:
#      x y z
#    x 1.764400 0.000000 -0.003700 
#    y 0.000000 1.784040 0.000000 
#    z -0.003700 0.000000 1.744320 
# 
# From -- ./inp_files/187448.got.cif
#   From: 2010.05.17/outbox.cif.g08.bks.cpg/sg12_94_cif.got.tgz:187448.got - 2010.06.03 13:09:07.
