data_PCOD9172473
_publ_section_title
;
Structure prediction by ZEFSAII (Michael W. Deem and Ramdas Pophale) SiO2 
 PCOD9172473
Probable space group: C 2/M
;
_chemical_formula_sum "Si O2"
_cell_formula_units_Z 58
_cell_length_a 14.334729
_cell_length_b 17.720717
_cell_length_c 22.066054
_cell_angle_alpha 90.000000
_cell_angle_beta 141.961155
_cell_angle_gamma 90.000000
_cell_volume 3453.934005
_symmetry_space_group_name_H-M "C 2/M"
_symmetry_group_IT_number 12
_symmetry_cell_setting 'monoclinic'
loop_
_space_group_symop_operation_xyz
x,y,z
-x,y,-z
-x,-y,-z
x,-y,z
1/2+x,1/2+y,z
1/2-x,1/2+y,-z
1/2-x,1/2-y,-z
1/2+x,1/2-y,z
loop_
_atom_site_type_symbol
_atom_site_label
_atom_site_fract_x
_atom_site_fract_y
_atom_site_fract_z
Si Si1 0.714597 0.409362 0.279998
Si Si2 0.210763 0.852210 0.621582
Si Si3 0.044738 0.377990 0.413736
Si Si4 0.979586 0.585882 0.244056
Si Si5 0.847974 0.092147 0.888223
Si Si6 0.868817 0.912180 0.632775
Si Si7 0.500000 0.500000 0.500000
Si Si8 0.532289 0.703697 0.415953
O O1 0.701640 0.500000 0.273756
O O2 0.658781 0.382514 0.185463
O O3 0.628461 0.384186 0.296419
O O4 0.892638 0.391054 0.374095
O O5 0.389319 0.864022 0.718450
O O6 0.159144 0.814668 0.531790
O O7 0.128143 0.805921 0.632151
O O8 0.128176 0.933567 0.577016
O O9 0.193638 0.407876 0.522429
O O10 0.056238 0.288765 0.408213
O O11 0.023330 0.416554 0.337777
O O12 0.982607 0.500000 0.221840
O O13 0.807031 0.614992 0.157073
O O14 0.844320 0.000000 0.885426
O O15 0.000000 0.115715 0.000000
O O16 0.954334 0.857362 0.630351
O O17 0.917928 0.000000 0.652708
#
# Coordination Sequence:
#
# PCOD9172473 Si02
#       8
#     8   8   8   8   8   8   2   8
#     4   9  19  31  46  70  92 123 155 189 236 292
#     4  10  20  30  44  62  92 128 168 199 220 262
#     4  11  20  30  44  64  98 129 158 196 222 280
#     4  10  18  29  50  73  92 122 158 193 236 282
#     4   8  15  30  50  74  98 114 144 198 251 290
#     4  11  21  30  45  63  94 131 164 190 229 277
#     4   8  16  28  44  56  86 126 156 200 218 248
#     4  10  23  30  42  64  93 135 169 191 224 256
#
# _framework density 16.792446000000002
#
# number of rings (size 3 to 8) (size 9 to 14) (size 15 to 20)
#    0.000    2.345    2.069    2.897    7.724    1.103 
#    0.000    0.000    0.000    0.000    0.000   16.414 
#    0.000    5.517    0.000    0.000    0.000    0.000 
#
# Total GULP energy -161435.477541 kJ/mol
# GULP energy per Si atom -5566.740605 kJ/mol
# Density = 1.675423 g / cm^3
# Si number density = 16.792446 Si / 1000 Ang^3
#
#
#
# Elastic Constant Matrix: (Units=GPa)
#
#
# Indices 1 2 3 4 5 6 
#
# 1 104.3887 14.9112 31.7305 0.0000 5.6685 0.0000
# 2 14.9112 47.0189 -1.5293 0.0000 -1.9735 0.0000
# 3 31.7305 -1.5293 66.0746 -0.0001 18.5856 0.0000
# 4 0.0000 0.0000 -0.0001 1.0107 0.0000 1.5265
# 5 5.6685 -1.9735 18.5856 0.0000 20.6758 0.0000
# 6 0.0000 0.0000 0.0000 1.5265 0.0000 13.4455
#
#
#
# Elastic Compliance Matrix: (Units=1/GPa)
#
#
# Indices 1 2 3 4 5 6 
#
# 1 0.011983 -0.003920 -0.006446 0.000000 0.002135 0.000000
# 2 -0.003920 0.022637 0.002003 0.000001 0.001435 0.000000
# 3 -0.006446 0.002003 0.023724 0.000001 -0.019367 0.000000
# 4 0.000000 0.000001 0.000001 1.194151 0.000001 -0.135572
# 5 0.002135 0.001435 -0.019367 0.000001 0.065326 0.000000
# 6 0.000000 0.000000 0.000000 -0.135572 0.000000 0.089766
#
#
# Mechanical properties :
#
#
# Convention : Reuss Voigt Hill
#
# Bulk Modulus (GPa) = 24.02848 34.18968 29.10908
# Shear Modulus (GPa) = 3.47660 18.51773 10.99716
#
# Velocity S-wave (km/s) = 1.44043 3.32436 2.56185
# Velocity P-wave (km/s) = 4.13601 5.92786 5.11107
#
# Compressibility (1/GPa) = 0.04161729
#
# Stress axis : x y z
#
# Youngs Moduli (GPa) = 83.45236 44.17611 42.15200
#
# Poissons Ratio (x) = 0.17318 0.27170
# Poissons Ratio (y) = 0.32715 -0.08442
# Poissons Ratio (z) = 0.53790 -0.08848
#
# Static dielectric constant tensor:
#      x y z
#    x 1.625510 0.000000 0.003980 
#    y 0.000000 1.570140 0.000000 
#    z 0.003980 0.000000 1.545970 
# 
# From -- ./inp_files/311369.got.cif
#   From: 2010.05.17/outbox.cif.g08.bks.cpg/sg12_156_cif.got.tgz:311369.got - 2010.06.03 13:09:07.
