data_PCOD9172342
_publ_section_title
;
Structure prediction by ZEFSAII (Michael W. Deem and Ramdas Pophale) SiO2 
 PCOD9172342
Probable space group: C 2/M
;
_chemical_formula_sum "Si O2"
_cell_formula_units_Z 48
_cell_length_a 23.773360
_cell_length_b 8.466273
_cell_length_c 27.271422
_cell_angle_alpha 90.000000
_cell_angle_beta 150.883682
_cell_angle_gamma 90.000000
_cell_volume 2670.844686
_symmetry_space_group_name_H-M "C 2/M"
_symmetry_group_IT_number 12
_symmetry_cell_setting 'monoclinic'
loop_
_space_group_symop_operation_xyz
x,y,z
-x,y,-z
-x,-y,-z
x,-y,z
1/2+x,1/2+y,z
1/2-x,1/2+y,-z
1/2-x,1/2-y,-z
1/2+x,1/2-y,z
loop_
_atom_site_type_symbol
_atom_site_label
_atom_site_fract_x
_atom_site_fract_y
_atom_site_fract_z
Si Si1 0.822877 0.190755 0.884830
Si Si2 0.690873 0.189015 0.504208
Si Si3 0.571283 0.818091 0.686103
Si Si4 0.043664 0.309430 0.109007
Si Si5 0.317580 0.815452 0.696465
Si Si6 0.613357 0.325194 0.619030
O O1 0.693058 0.247318 0.799447
O O2 0.866091 0.250290 0.864134
O O3 0.823201 0.000000 0.883740
O O4 0.919613 0.250517 0.996136
O O5 0.750000 0.250000 0.500000
O O6 0.557438 0.251477 0.405026
O O7 0.768610 0.236639 0.610261
O O8 0.684744 0.000000 0.499079
O O9 0.597425 0.804588 0.648144
O O10 0.564622 0.000000 0.696996
O O11 0.047957 0.500000 0.111634
O O12 0.075907 0.255740 0.188854
O O13 0.216382 0.804324 0.659743
O O14 0.337401 0.000000 0.699824
O O15 0.500000 0.326763 0.500000
O O16 0.625616 0.500000 0.652053
#
# Coordination Sequence:
#
# PCOD9172342 Si02
#       6
#     8   8   8   8   8   8
#     4  10  19  31  48  74 110 145 175 209 252 306
#     4  11  24  40  57  77 102 136 178 223 269 315
#     4  10  21  34  51  76 107 140 173 213 261 311
#     4  10  19  31  49  76 110 144 176 209 250 305
#     4  10  20  34  53  78 109 141 173 213 260 311
#     4  10  18  29  48  76 107 139 171 205 254 313
#
# _framework density 17.971841999999999
#
# number of rings (size 3 to 8) (size 9 to 14) (size 15 to 20)
#    0.000    1.833    3.333    2.500    0.000    3.667 
#    0.000    0.000    0.000    1.000    0.000    0.000 
#    0.000    0.000    0.000    0.000    0.000    0.000 
#
# Total GULP energy -133660.411043 kJ/mol
# GULP energy per Si atom -5569.183793 kJ/mol
# Density = 1.793094 g / cm^3
# Si number density = 17.971842 Si / 1000 Ang^3
#
#
#
# Elastic Constant Matrix: (Units=GPa)
#
#
# Indices 1 2 3 4 5 6 
#
# 1 56.9185 18.3060 62.2284 0.0000 -0.5797 0.0000
# 2 18.3060 40.0161 33.4972 0.0000 -2.2637 0.0000
# 3 62.2284 33.4972 169.6391 0.0000 -6.6904 0.0000
# 4 0.0000 0.0000 0.0000 10.8109 0.0000 -6.5466
# 5 -0.5797 -2.2637 -6.6904 0.0000 10.3903 0.0000
# 6 0.0000 0.0000 0.0000 -6.5466 0.0000 18.5279
#
#
#
# Elastic Compliance Matrix: (Units=1/GPa)
#
#
# Indices 1 2 3 4 5 6 
#
# 1 0.030681 -0.005703 -0.010373 0.000000 -0.006210 0.000000
# 2 -0.005703 0.031078 -0.003889 0.000000 0.003949 0.000000
# 3 -0.010373 -0.003889 0.010683 0.000000 0.005453 0.000000
# 4 0.000000 0.000000 0.000000 0.117678 0.000000 0.041580
# 5 -0.006210 0.003949 0.005453 0.000000 0.100268 0.000000
# 6 0.000000 0.000000 0.000000 0.041580 0.000000 0.068664
#
#
# Mechanical properties :
#
#
# Convention : Reuss Voigt Hill
#
# Bulk Modulus (GPa) = 30.75901 54.95965 42.85933
# Shear Modulus (GPa) = 12.20047 18.11531 15.15789
#
# Velocity S-wave (km/s) = 2.60833 3.17832 2.90733
# Velocity P-wave (km/s) = 5.12088 6.64201 5.93042
#
# Compressibility (1/GPa) = 0.03251080
#
# Stress axis : x y z
#
# Youngs Moduli (GPa) = 32.59316 32.17742 93.60577
#
# Poissons Ratio (x) = 0.18352 0.97102
# Poissons Ratio (y) = 0.18589 0.36401
# Poissons Ratio (z) = 0.33810 0.12513
#
# Static dielectric constant tensor:
#      x y z
#    x 1.579180 0.000000 0.023240 
#    y 0.000000 1.661160 0.000000 
#    z 0.023240 0.000000 1.719810 
# 
# From -- ./inp_files/367212.got.cif
#   From: 2010.05.17/outbox.cif.g08.bks.cpg/sg12_184_cif.got.tgz:367212.got - 2010.06.03 13:09:07.
