data_PCOD9172771
_publ_section_title
;
Structure prediction by ZEFSAII (Michael W. Deem and Ramdas Pophale) SiO2 
 PCOD9172771
Probable space group: C 2/M
;
_chemical_formula_sum "Si O2"
_cell_formula_units_Z 48
_cell_length_a 23.684493
_cell_length_b 13.899608
_cell_length_c 8.092173
_cell_angle_alpha 90.000000
_cell_angle_beta 128.994681
_cell_angle_gamma 90.000000
_cell_volume 2070.460948
_symmetry_space_group_name_H-M "C 2/M"
_symmetry_group_IT_number 12
_symmetry_cell_setting 'monoclinic'
loop_
_space_group_symop_operation_xyz
x,y,z
-x,y,-z
-x,-y,-z
x,-y,z
1/2+x,1/2+y,z
1/2-x,1/2+y,-z
1/2-x,1/2-y,-z
1/2+x,1/2-y,z
loop_
_atom_site_type_symbol
_atom_site_label
_atom_site_fract_x
_atom_site_fract_y
_atom_site_fract_z
Si Si1 0.169594 0.108982 0.474731
Si Si2 0.840501 0.608985 0.739826
Si Si3 0.090329 0.711338 0.820976
Si Si4 0.697641 0.787879 0.755222
Si Si5 0.343302 0.386814 0.917258
Si Si6 0.963108 0.611674 0.748019
O O1 0.254780 0.107669 0.583848
O O2 0.167859 0.194259 0.602949
O O3 0.132284 0.129463 0.229198
O O4 0.150467 0.000000 0.495453
O O5 0.865937 0.500000 0.817725
O O6 0.879983 0.637229 0.641754
O O7 0.865428 0.671669 0.938918
O O8 0.129721 0.668371 0.732479
O O9 0.008987 0.678205 0.710589
O O10 0.105690 0.824845 0.867146
O O11 0.758989 0.853165 0.780050
O O12 0.750000 0.750000 0.000000
O O13 0.346664 0.500000 0.956053
O O14 0.967595 0.500000 0.704149
O O15 0.000000 0.620059 0.000000
#
# Coordination Sequence:
#
# PCOD9172771 Si02
#       6
#     8   8   8   8   8   8
#     4  10  19  33  51  73  99 131 162 194 244 301
#     4   9  16  28  51  77  98 125 160 198 243 293
#     4  10  18  30  47  75  99 129 160 200 245 285
#     4  10  19  30  46  73 100 131 159 197 248 289
#     4  10  21  32  45  69 103 135 163 196 236 288
#     4   8  15  28  48  76  99 123 159 201 241 286
#
# _framework density 23.183244999999999
#
# number of rings (size 3 to 8) (size 9 to 14) (size 15 to 20)
#    0.000    2.500    3.333    2.000    0.000    4.000 
#    0.000    0.000    0.000    5.500    0.000    4.667 
#    0.000   24.000    0.000    0.000    0.000    0.000 
#
# Total GULP energy -133932.176805 kJ/mol
# GULP energy per Si atom -5580.507367 kJ/mol
# Density = 2.313048 g / cm^3
# Si number density = 23.183245 Si / 1000 Ang^3
#
#
#
# Elastic Constant Matrix: (Units=GPa)
#
#
# Indices 1 2 3 4 5 6 
#
# 1 109.8900 34.0842 2.2096 0.0000 -20.5078 0.0000
# 2 34.0842 130.3409 25.4109 0.0000 -24.7478 0.0000
# 3 2.2096 25.4109 26.1376 0.0000 -10.7170 0.0000
# 4 0.0000 0.0000 0.0000 3.9036 0.0000 2.5614
# 5 -20.5078 -24.7478 -10.7170 0.0000 41.4526 0.0000
# 6 0.0000 0.0000 0.0000 2.5614 0.0000 28.7927
#
#
#
# Elastic Compliance Matrix: (Units=1/GPa)
#
#
# Indices 1 2 3 4 5 6 
#
# 1 0.010706 -0.002605 0.003536 0.000000 0.004655 0.000000
# 2 -0.002605 0.010624 -0.008989 0.000000 0.002730 0.000000
# 3 0.003536 -0.008989 0.050578 0.000000 0.009459 0.000000
# 4 0.000000 0.000000 0.000000 0.272051 0.000000 -0.024201
# 5 0.004655 0.002730 0.009459 0.000000 0.030503 0.000000
# 6 0.000000 0.000000 0.000000 -0.024201 0.000000 0.036884
#
#
# Mechanical properties :
#
#
# Convention : Reuss Voigt Hill
#
# Bulk Modulus (GPa) = 17.92368 43.30864 30.61616
# Shear Modulus (GPa) = 11.20928 28.47403 19.84166
#
# Velocity S-wave (km/s) = 2.20127 3.50839 2.92869
# Velocity P-wave (km/s) = 3.76946 5.92734 4.96700
#
# Compressibility (1/GPa) = 0.05579212
#
# Stress axis : x y z
#
# Youngs Moduli (GPa) = 93.40810 94.12393 19.77146
#
# Poissons Ratio (x) = 0.24520 -0.06992
# Poissons Ratio (y) = 0.24334 0.17773
# Poissons Ratio (z) = -0.33033 0.84611
#
# Static dielectric constant tensor:
#      x y z
#    x 1.943380 0.000000 0.024690 
#    y 0.000000 1.907660 0.000000 
#    z 0.024690 0.000000 2.001870 
# 
# From -- ./inp_files/95858.got.cif
#   From: 2010.05.17/outbox.cif.g08.bks.cpg/sg12_48_cif.got.tgz:95858.got - 2010.06.03 13:09:07.
