data_PCOD9172507
_publ_section_title
;
Structure prediction by ZEFSAII (Michael W. Deem and Ramdas Pophale) SiO2 
 PCOD9172507
Probable space group: C 2/M
;
_chemical_formula_sum "Si O2"
_cell_formula_units_Z 40
_cell_length_a 7.886794
_cell_length_b 14.177147
_cell_length_c 15.637364
_cell_angle_alpha 90.000000
_cell_angle_beta 120.731486
_cell_angle_gamma 90.000000
_cell_volume 1502.916782
_symmetry_space_group_name_H-M "C 2/M"
_symmetry_group_IT_number 12
_symmetry_cell_setting 'monoclinic'
loop_
_space_group_symop_operation_xyz
x,y,z
-x,y,-z
-x,-y,-z
x,-y,z
1/2+x,1/2+y,z
1/2-x,1/2+y,-z
1/2-x,1/2-y,-z
1/2+x,1/2-y,z
loop_
_atom_site_type_symbol
_atom_site_label
_atom_site_fract_x
_atom_site_fract_y
_atom_site_fract_z
Si Si1 0.518662 0.895552 0.877320
Si Si2 0.763005 0.386414 0.241850
Si Si3 0.367683 0.219622 0.614216
Si Si4 0.136584 0.886111 0.705979
Si Si5 0.369753 0.653310 0.049923
O O1 0.635462 0.859770 0.824107
O O2 0.302572 0.850639 0.818957
O O3 0.463524 0.000000 0.836632
O O4 0.670166 0.905688 0.993996
O O5 0.764266 0.500000 0.253290
O O6 0.534294 0.359016 0.163895
O O7 0.925177 0.337470 0.345062
O O8 0.250000 0.250000 0.500000
O O9 0.237335 0.152002 0.642992
O O10 0.444116 0.321922 0.666858
O O11 0.093931 0.000000 0.694670
O O12 0.500000 0.628846 0.000000
O O13 0.250000 0.750000 0.000000
#
# Coordination Sequence:
#
# PCOD9172507 Si02
#       5
#     8   8   8   8   8
#     4   8  15  30  53  79 106 140 182 225 275 340
#     4   9  18  33  54  81 113 150 194 242 291 348
#     4  11  22  37  60  86 114 154 202 248 298 356
#     4  10  22  41  63  88 120 155 195 248 306 362
#     4  10  18  29  50  78 108 142 183 228 278 342
#
# _framework density 26.614913000000001
#
# number of rings (size 3 to 8) (size 9 to 14) (size 15 to 20)
#    0.000    2.400    0.000    4.200    0.000    4.800 
#    0.000    2.000    0.000   10.800    0.000    0.000 
#    0.000    0.000    0.000    0.000    0.000    0.000 
#
# Total GULP energy -111354.736142 kJ/mol
# GULP energy per Si atom -5567.736807 kJ/mol
# Density = 2.655434 g / cm^3
# Si number density = 26.614913 Si / 1000 Ang^3
#
#
#
# Elastic Constant Matrix: (Units=GPa)
#
#
# Indices 1 2 3 4 5 6 
#
# 1 136.8781 11.4616 55.1022 0.0000 32.2763 0.0000
# 2 11.4616 199.0763 56.5710 0.0000 12.5024 0.0000
# 3 55.1022 56.5710 277.3850 0.0000 21.2315 0.0000
# 4 0.0000 0.0000 0.0000 27.5315 0.0000 -12.0503
# 5 32.2763 12.5024 21.2315 0.0000 40.0900 0.0000
# 6 0.0000 0.0000 0.0000 -12.0503 0.0000 8.7511
#
#
#
# Elastic Compliance Matrix: (Units=1/GPa)
#
#
# Indices 1 2 3 4 5 6 
#
# 1 0.009498 0.000293 -0.001411 0.000000 -0.006991 0.000000
# 2 0.000293 0.005391 -0.001054 0.000000 -0.001359 0.000000
# 3 -0.001411 -0.001054 0.004157 0.000000 -0.000736 0.000000
# 4 0.000000 0.000000 0.000000 0.091422 0.000000 0.125887
# 5 -0.006991 -0.001359 -0.000736 0.000000 0.031386 0.000000
# 6 0.000000 0.000000 0.000000 0.125887 0.000000 0.287617
#
#
# Mechanical properties :
#
#
# Convention : Reuss Voigt Hill
#
# Bulk Modulus (GPa) = 68.01827 95.51211 81.76519
# Shear Modulus (GPa) = 11.39691 47.95483 29.67587
#
# Velocity S-wave (km/s) = 2.07158 4.24937 3.34280
# Velocity P-wave (km/s) = 5.59767 7.74860 6.75924
#
# Compressibility (1/GPa) = 0.01470193
#
# Stress axis : x y z
#
# Youngs Moduli (GPa) = 105.28717 185.49049 240.57274
#
# Poissons Ratio (x) = -0.05440 0.33956
# Poissons Ratio (y) = -0.03088 0.25349
# Poissons Ratio (z) = 0.14861 0.19545
#
# Static dielectric constant tensor:
#      x y z
#    x 2.258140 0.000000 -0.001660 
#    y 0.000000 2.261310 0.000000 
#    z -0.001660 0.000000 2.180830 
# 
# From -- ./inp_files/335404.got.cif
#   From: 2010.05.17/outbox.cif.g08.bks.cpg/sg12_168_cif.got.tgz:335404.got - 2010.06.03 13:09:07.
