data_PCOD9172906
_publ_section_title
;
Structure prediction by ZEFSAII (Michael W. Deem and Ramdas Pophale) SiO2 
 PCOD9172906
Probable space group: C 2/M
;
_chemical_formula_sum "Si O2"
_cell_formula_units_Z 56
_cell_length_a 26.480230
_cell_length_b 7.441942
_cell_length_c 14.087148
_cell_angle_alpha 90.000000
_cell_angle_beta 76.053793
_cell_angle_gamma 90.000000
_cell_volume 2694.242536
_symmetry_space_group_name_H-M "C 2/M"
_symmetry_group_IT_number 12
_symmetry_cell_setting 'monoclinic'
loop_
_space_group_symop_operation_xyz
x,y,z
-x,y,-z
-x,-y,-z
x,-y,z
1/2+x,1/2+y,z
1/2-x,1/2+y,-z
1/2-x,1/2-y,-z
1/2+x,1/2-y,z
loop_
_atom_site_type_symbol
_atom_site_label
_atom_site_fract_x
_atom_site_fract_y
_atom_site_fract_z
Si Si1 0.557471 0.780835 0.948819
Si Si2 0.779468 0.279994 0.202625
Si Si3 0.553861 0.285719 0.586655
Si Si4 0.119462 0.286111 0.738341
Si Si5 0.938499 0.780307 0.634286
Si Si6 0.340540 0.783313 0.987253
Si Si7 0.833022 0.207950 0.772891
O O1 0.578791 0.720256 0.836701
O O2 0.556109 0.000000 0.948596
O O3 0.500000 0.717523 0.000000
O O4 0.601716 0.729470 0.004474
O O5 0.778060 0.500000 0.203488
O O6 0.823053 0.220975 0.258611
O O7 0.720801 0.214463 0.243116
O O8 0.801296 0.227287 0.088772
O O9 0.550110 0.500000 0.581715
O O10 0.597330 0.246959 0.644572
O O11 0.495951 0.220345 0.641812
O O12 0.565850 0.224997 0.474196
O O13 0.121701 0.500000 0.749615
O O14 0.888335 0.715072 0.714618
O O15 0.938911 0.000000 0.638708
O O16 0.328673 0.714421 0.888500
O O17 0.339058 0.000000 0.984102
O O18 0.834021 0.000000 0.742150
#
# Coordination Sequence:
#
# PCOD9172906 Si02
#       7
#     8   8   8   8   8   8   8
#     4   8  15  27  42  62  91 123 149 172 212 273
#     4   8  16  31  47  66  94 125 152 179 219 276
#     4   9  17  33  51  66  89 119 151 188 231 274
#     4   9  17  30  49  69  89 118 153 185 223 268
#     4   8  17  32  49  67  89 120 153 184 226 280
#     4   9  17  29  45  67  94 122 151 184 223 263
#     4  10  18  30  49  68  89 121 158 188 220 266
#
# _framework density 20.785063000000001
#
# number of rings (size 3 to 8) (size 9 to 14) (size 15 to 20)
#    0.000    3.286    0.000    3.000    2.000    0.000 
#    0.000    6.429    0.000    0.857    0.000    0.000 
#    0.000    0.000    0.000    0.000    0.000    0.000 
#
# Total GULP energy -156139.566237 kJ/mol
# GULP energy per Si atom -5576.413080 kJ/mol
# Density = 2.073776 g / cm^3
# Si number density = 20.785063 Si / 1000 Ang^3
#
#
#
# Elastic Constant Matrix: (Units=GPa)
#
#
# Indices 1 2 3 4 5 6 
#
# 1 126.3019 1.3132 54.1335 0.0000 -3.0591 0.0000
# 2 1.3132 59.9231 -4.6403 0.0000 -6.2165 0.0000
# 3 54.1335 -4.6403 54.0685 0.0000 13.3534 0.0000
# 4 0.0000 0.0000 0.0000 14.9112 0.0000 9.2044
# 5 -3.0591 -6.2165 13.3534 0.0000 28.1427 0.0000
# 6 0.0000 0.0000 0.0000 9.2044 0.0000 5.2233
#
#
#
# Elastic Compliance Matrix: (Units=1/GPa)
#
#
# Indices 1 2 3 4 5 6 
#
# 1 0.016360 -0.000729 -0.019078 0.000000 0.010669 0.000000
# 2 -0.000729 0.017129 0.001456 0.000000 0.003014 0.000000
# 3 -0.019078 0.001456 0.043218 0.000000 -0.022259 0.000000
# 4 0.000000 0.000000 0.000000 -0.764099 0.000000 1.346485
# 5 0.010669 0.003014 -0.022259 0.000000 0.047920 0.000000
# 6 0.000000 0.000000 0.000000 1.346485 0.000000 -2.181308
#
#
# Mechanical properties :
#
#
# Convention : Reuss Voigt Hill
#
# Bulk Modulus (GPa) = 24.99649 37.98959 31.49304
# Shear Modulus (GPa) = -1.80457 22.28791 10.24167
#
# Velocity S-wave (km/s) = -0.93279 3.27816 2.22219
# Velocity P-wave (km/s) = 3.30033 5.71362 4.66571
#
# Compressibility (1/GPa) = 0.04000562
#
# Stress axis : x y z
#
# Youngs Moduli (GPa) = 61.12380 58.37915 23.13864
#
# Poissons Ratio (x) = 0.04256 0.44143
# Poissons Ratio (y) = 0.04456 -0.03368
# Poissons Ratio (z) = 1.16609 -0.08498
#
# Static dielectric constant tensor:
#      x y z
#    x 1.770030 0.000000 0.000750 
#    y 0.000000 1.798980 0.000000 
#    z 0.000750 0.000000 1.713660 
# 
# From -- ./inp_files/173845.got.cif
#   From: 2010.05.17/outbox.cif.g08.bks.cpg/sg12_87_cif.got.tgz:173845.got - 2010.06.03 13:09:07.
