data_PCOD9172446
_publ_section_title
;
Structure prediction by ZEFSAII (Michael W. Deem and Ramdas Pophale) SiO2 
 PCOD9172446
Probable space group: C 2/M
;
_chemical_formula_sum "Si O2"
_cell_formula_units_Z 44
_cell_length_a 20.413767
_cell_length_b 8.872198
_cell_length_c 13.323173
_cell_angle_alpha 90.000000
_cell_angle_beta 50.242887
_cell_angle_gamma 90.000000
_cell_volume 1855.043953
_symmetry_space_group_name_H-M "C 2/M"
_symmetry_group_IT_number 12
_symmetry_cell_setting 'monoclinic'
loop_
_space_group_symop_operation_xyz
x,y,z
-x,y,-z
-x,-y,-z
x,-y,z
1/2+x,1/2+y,z
1/2-x,1/2+y,-z
1/2-x,1/2-y,-z
1/2+x,1/2-y,z
loop_
_atom_site_type_symbol
_atom_site_label
_atom_site_fract_x
_atom_site_fract_y
_atom_site_fract_z
Si Si1 0.400653 0.818453 0.318132
Si Si2 0.248123 0.679992 0.150148
Si Si3 0.901792 0.319638 0.091104
Si Si4 0.581174 0.169814 0.215253
Si Si5 0.327448 0.668389 0.580414
Si Si6 0.000000 0.249544 0.500000
O O1 0.371133 0.785547 0.234613
O O2 0.499618 0.765518 0.235603
O O3 0.340563 0.743768 0.459703
O O4 0.402214 0.000000 0.330980
O O5 0.251185 0.500000 0.137079
O O6 0.343147 0.747832 0.062418
O O7 0.174780 0.740213 0.145322
O O8 0.214718 0.728490 0.293234
O O9 0.900387 0.500000 0.079737
O O10 0.000000 0.271304 0.000000
O O11 0.541418 0.160936 0.367167
O O12 0.595164 0.000000 0.163396
O O13 0.289979 0.500000 0.612728
O O14 0.424117 0.656994 0.526061
#
# Coordination Sequence:
#
# PCOD9172446 Si02
#       6
#     8   8   8   8   8   4
#     4   9  18  34  55  77 104 138 174 210 251 304
#     4  10  20  34  54  79 107 138 171 208 253 307
#     4  10  22  40  58  74  97 134 177 219 263 307
#     4   8  14  27  49  76 103 133 169 206 247 299
#     4  10  18  29  49  79 112 139 167 206 253 304
#     4   8  14  24  42  72 109 142 165 196 247 302
#
# _framework density 23.719113
#
# number of rings (size 3 to 8) (size 9 to 14) (size 15 to 20)
#    0.000    2.727    0.000    1.636    0.000    6.182 
#    0.000    1.818    0.000    0.000    0.000    0.000 
#    0.000    0.000    0.000    0.000    0.000    0.000 
#
# Total GULP energy -122734.349104 kJ/mol
# GULP energy per Si atom -5578.834050 kJ/mol
# Density = 2.366513 g / cm^3
# Si number density = 23.719113 Si / 1000 Ang^3
#
#
#
# Elastic Constant Matrix: (Units=GPa)
#
#
# Indices 1 2 3 4 5 6 
#
# 1 203.8158 19.7982 26.2408 0.0000 -18.5907 0.0000
# 2 19.7982 44.9478 -8.0783 0.0001 -2.5611 0.0000
# 3 26.2408 -8.0783 44.9072 0.0000 -1.9241 0.0000
# 4 0.0000 0.0001 0.0000 13.4475 0.0000 -12.3115
# 5 -18.5907 -2.5611 -1.9241 0.0000 54.3462 0.0000
# 6 0.0000 0.0000 0.0000 -12.3115 0.0000 21.4644
#
#
#
# Elastic Compliance Matrix: (Units=1/GPa)
#
#
# Indices 1 2 3 4 5 6 
#
# 1 0.005881 -0.003200 -0.003939 0.000000 0.001722 0.000000
# 2 -0.003200 0.024815 0.006347 0.000000 0.000299 0.000000
# 3 -0.003939 0.006347 0.025705 0.000000 -0.000138 0.000000
# 4 0.000000 0.000000 0.000000 0.156596 0.000000 0.089820
# 5 0.001722 0.000299 -0.000138 0.000000 0.018999 0.000000
# 6 0.000000 0.000000 0.000000 0.089820 0.000000 0.098108
#
#
# Mechanical properties :
#
#
# Convention : Reuss Voigt Hill
#
# Bulk Modulus (GPa) = 18.24211 41.06578 29.65395
# Shear Modulus (GPa) = 14.28726 34.89896 24.59311
#
# Velocity S-wave (km/s) = 2.45695 3.83997 3.22351
# Velocity P-wave (km/s) = 3.96943 6.08370 5.13653
#
# Compressibility (1/GPa) = 0.05481821
#
# Stress axis : x y z
#
# Youngs Moduli (GPa) = 170.02778 40.29741 38.90229
#
# Poissons Ratio (x) = 0.12897 0.15322
# Poissons Ratio (y) = 0.54415 -0.24691
# Poissons Ratio (z) = 0.66968 -0.25577
#
# Static dielectric constant tensor:
#      x y z
#    x 1.938120 0.000000 -0.062590 
#    y 0.000000 1.825500 0.000000 
#    z -0.062590 0.000000 2.019570 
# 
# From -- ./inp_files/280766.got.cif
#   From: 2010.05.17/outbox.cif.g08.bks.cpg/sg12_141_cif.got.tgz:280766.got - 2010.06.03 13:09:07.
