data_PCOD9172227
_publ_section_title
;
Structure prediction by ZEFSAII (Michael W. Deem and Ramdas Pophale) SiO2 
 PCOD9172227
Probable space group: C 2/M
;
_chemical_formula_sum "Si O2"
_cell_formula_units_Z 40
_cell_length_a 21.031518
_cell_length_b 8.637271
_cell_length_c 14.730127
_cell_angle_alpha 90.000000
_cell_angle_beta 120.353068
_cell_angle_gamma 90.000000
_cell_volume 2309.022467
_symmetry_space_group_name_H-M "C 2/M"
_symmetry_group_IT_number 12
_symmetry_cell_setting 'monoclinic'
loop_
_space_group_symop_operation_xyz
x,y,z
-x,y,-z
-x,-y,-z
x,-y,z
1/2+x,1/2+y,z
1/2-x,1/2+y,-z
1/2-x,1/2-y,-z
1/2+x,1/2-y,z
loop_
_atom_site_type_symbol
_atom_site_label
_atom_site_fract_x
_atom_site_fract_y
_atom_site_fract_z
Si Si1 0.968389 0.313168 0.076863
Si Si2 0.320127 0.184814 0.494352
Si Si3 0.735746 0.813766 0.275749
Si Si4 0.903614 0.815722 0.712239
Si Si5 0.202382 0.686525 0.047962
O O1 0.973322 0.500000 0.089511
O O2 0.019455 0.235687 0.189214
O O3 0.883185 0.266094 0.020885
O O4 0.000000 0.273666 0.000000
O O5 0.250000 0.250000 0.500000
O O6 0.304110 0.245944 0.381949
O O7 0.388802 0.249177 0.600850
O O8 0.319481 0.000000 0.495812
O O9 0.660680 0.754226 0.269482
O O10 0.733218 0.766416 0.168908
O O11 0.736276 0.000000 0.282575
O O12 0.895990 0.000000 0.705179
O O13 0.203646 0.500000 0.046765
O O14 0.250000 0.750000 0.000000
#
# Coordination Sequence:
#
# PCOD9172227 Si02
#       5
#     8   8   8   8   8
#     4  10  19  36  56  76 106 143 179 216 267 318
#     4  10  18  29  47  74 105 139 173 217 266 315
#     4  10  18  33  52  74 105 143 178 216 264 315
#     4  11  20  30  49  80 109 137 173 222 268 311
#     4  10  22  37  56  78 107 145 178 217 264 317
#
# _framework density 17.323349
#
# number of rings (size 3 to 8) (size 9 to 14) (size 15 to 20)
#    0.000    1.800    2.000    6.600    0.000    2.800 
#    0.000    0.000    0.000    1.200    0.000    8.400 
#    0.000    0.000    0.000    0.000    0.000    0.000 
#
# Total GULP energy -111608.032766 kJ/mol
# GULP energy per Si atom -5580.401638 kJ/mol
# Density = 1.728392 g / cm^3
# Si number density = 17.323349 Si / 1000 Ang^3
#
#
#
# Elastic Constant Matrix: (Units=GPa)
#
#
# Indices 1 2 3 4 5 6 
#
# 1 82.7813 26.1870 66.2011 0.0000 -3.5792 0.0000
# 2 26.1870 92.2038 66.0921 0.0000 2.1945 0.0000
# 3 66.2011 66.0921 210.2516 0.0000 3.9744 0.0000
# 4 0.0000 0.0000 0.0000 33.9390 0.0000 1.3063
# 5 -3.5792 2.1945 3.9744 0.0000 18.1105 0.0000
# 6 0.0000 0.0000 0.0000 1.3063 0.0000 21.7591
#
#
#
# Elastic Compliance Matrix: (Units=1/GPa)
#
#
# Indices 1 2 3 4 5 6 
#
# 1 0.016612 -0.001310 -0.004904 0.000000 0.004518 0.000000
# 2 -0.001310 0.014113 -0.004003 0.000000 -0.001091 0.000000
# 3 -0.004904 -0.004003 0.007599 0.000000 -0.002152 0.000000
# 4 0.000000 0.000000 0.000000 0.029533 0.000000 -0.001773
# 5 0.004518 -0.001091 -0.002152 0.000000 0.056714 0.000000
# 6 0.000000 0.000000 0.000000 -0.001773 0.000000 0.046064
#
#
# Mechanical properties :
#
#
# Convention : Reuss Voigt Hill
#
# Bulk Modulus (GPa) = 55.89958 78.02190 66.96074
# Shear Modulus (GPa) = 25.37645 29.87882 27.62763
#
# Velocity S-wave (km/s) = 3.83151 4.15754 3.99785
# Velocity P-wave (km/s) = 7.20503 8.25731 7.74905
#
# Compressibility (1/GPa) = 0.01788922
#
# Stress axis : x y z
#
# Youngs Moduli (GPa) = 60.19888 70.85572 131.58940
#
# Poissons Ratio (x) = 0.09284 0.64531
# Poissons Ratio (y) = 0.07887 0.52679
# Poissons Ratio (z) = 0.29521 0.28366
#
# Static dielectric constant tensor:
#      x y z
#    x 1.558410 0.000000 0.005880 
#    y 0.000000 1.580180 0.000000 
#    z 0.005880 0.000000 1.633020 
# 
# From -- ./inp_files/221227.got.cif
#   From: 2010.05.17/outbox.cif.g08.bks.cpg/sg12_111_cif.got.tgz:221227.got - 2010.06.03 13:09:07.
