data_PCOD9172332
_publ_section_title
;
Structure prediction by ZEFSAII (Michael W. Deem and Ramdas Pophale) SiO2 
 PCOD9172332
Probable space group: C 2/M
;
_chemical_formula_sum "Si O2"
_cell_formula_units_Z 40
_cell_length_a 20.561851
_cell_length_b 7.890339
_cell_length_c 22.402026
_cell_angle_alpha 90.000000
_cell_angle_beta 35.132839
_cell_angle_gamma 90.000000
_cell_volume 2091.562920
_symmetry_space_group_name_H-M "C 2/M"
_symmetry_group_IT_number 12
_symmetry_cell_setting 'monoclinic'
loop_
_space_group_symop_operation_xyz
x,y,z
-x,y,-z
-x,-y,-z
x,-y,z
1/2+x,1/2+y,z
1/2-x,1/2+y,-z
1/2-x,1/2-y,-z
1/2+x,1/2-y,z
loop_
_atom_site_type_symbol
_atom_site_label
_atom_site_fract_x
_atom_site_fract_y
_atom_site_fract_z
Si Si1 0.374730 0.706366 0.275294
Si Si2 0.827679 0.296330 0.498371
Si Si3 0.228431 0.695135 0.948219
Si Si4 0.999417 0.196165 0.066214
Si Si5 0.030633 0.297604 0.271833
O O1 0.377039 0.500000 0.273369
O O2 0.248253 0.762423 0.388957
O O3 0.419296 0.769410 0.178183
O O4 0.461080 0.760649 0.262979
O O5 0.835167 0.500000 0.496744
O O6 0.750000 0.250000 0.500000
O O7 0.951854 0.235400 0.385864
O O8 0.193674 0.500000 0.973879
O O9 0.346307 0.718094 0.825431
O O10 0.250000 0.750000 0.000000
O O11 0.125989 0.798207 0.996868
O O12 0.963170 0.000000 0.086371
O O13 0.000000 0.275522 0.000000
O O14 0.044006 0.500000 0.266207
#
# Coordination Sequence:
#
# PCOD9172332 Si02
#       5
#     8   8   8   8   8
#     4   9  16  29  49  72 102 136 169 207 253 304
#     4   8  15  26  43  70 100 130 164 205 252 302
#     4  12  23  35  53  76 104 136 173 215 260 307
#     4  10  21  36  54  77 106 139 173 210 256 309
#     4  10  18  29  48  75 104 131 166 211 258 305
#
# _framework density 19.124455999999999
#
# number of rings (size 3 to 8) (size 9 to 14) (size 15 to 20)
#    0.000    2.200    2.000    2.400    0.000    1.200 
#    0.000    0.000    0.000    1.200    0.000    8.400 
#    0.000    0.000    0.000    0.000    0.000    0.000 
#
# Total GULP energy -111466.359826 kJ/mol
# GULP energy per Si atom -5573.317991 kJ/mol
# Density = 1.908093 g / cm^3
# Si number density = 19.124456 Si / 1000 Ang^3
#
#
#
# Elastic Constant Matrix: (Units=GPa)
#
#
# Indices 1 2 3 4 5 6 
#
# 1 54.8381 -9.5935 40.7311 -0.0001 18.4839 0.0002
# 2 -9.5935 35.8732 -4.9965 -0.0002 4.7780 0.0004
# 3 40.7311 -4.9965 192.1954 -0.0001 19.4278 0.0001
# 4 -0.0001 -0.0002 -0.0001 17.2394 0.0000 -2.9643
# 5 18.4839 4.7780 19.4278 0.0000 21.9763 0.0000
# 6 0.0002 0.0004 0.0001 -2.9643 0.0000 11.0215
#
#
#
# Elastic Compliance Matrix: (Units=1/GPa)
#
#
# Indices 1 2 3 4 5 6 
#
# 1 0.031778 0.011405 -0.003828 0.000000 -0.025824 -0.000001
# 2 0.011405 0.033206 0.000160 0.000000 -0.016953 -0.000001
# 3 -0.003828 0.000160 0.006255 0.000000 -0.002345 0.000000
# 4 0.000000 0.000000 0.000000 0.060819 0.000000 0.016358
# 5 -0.025824 -0.016953 -0.002345 0.000000 0.072983 0.000001
# 6 -0.000001 -0.000001 0.000000 0.016358 0.000001 0.095131
#
#
# Mechanical properties :
#
#
# Convention : Reuss Voigt Hill
#
# Bulk Modulus (GPa) = 11.53219 37.24318 24.38769
# Shear Modulus (GPa) = 15.94370 27.16514 21.55442
#
# Velocity S-wave (km/s) = 2.89049 3.77296 3.36081
# Velocity P-wave (km/s) = 4.14524 6.20457 5.27635
#
# Compressibility (1/GPa) = 0.08671378
#
# Stress axis : x y z
#
# Youngs Moduli (GPa) = 31.46846 30.11474 159.86000
#
# Poissons Ratio (x) = -0.34345 0.61190
# Poissons Ratio (y) = -0.35889 -0.02558
# Poissons Ratio (z) = 0.12045 -0.00482
#
# Static dielectric constant tensor:
#      x y z
#    x 1.648230 0.000000 0.009650 
#    y 0.000000 1.698030 0.000000 
#    z 0.009650 0.000000 1.754510 
# 
# From -- ./inp_files/162391.got.cif
#   From: 2010.05.17/outbox.cif.g08.bks.cpg/sg12_82_cif.got.tgz:162391.got - 2010.06.03 13:09:07.
