data_PCOD9172133
_publ_section_title
;
Structure prediction by ZEFSAII (Michael W. Deem and Ramdas Pophale) SiO2 
 PCOD9172133
Probable space group: C 2/M
;
_chemical_formula_sum "Si O2"
_cell_formula_units_Z 64
_cell_length_a 22.992077
_cell_length_b 25.559062
_cell_length_c 17.000331
_cell_angle_alpha 90.000000
_cell_angle_beta 22.330471
_cell_angle_gamma 90.000000
_cell_volume 3795.813171
_symmetry_space_group_name_H-M "C 2/M"
_symmetry_group_IT_number 12
_symmetry_cell_setting 'monoclinic'
loop_
_space_group_symop_operation_xyz
x,y,z
-x,y,-z
-x,-y,-z
x,-y,z
1/2+x,1/2+y,z
1/2-x,1/2+y,-z
1/2-x,1/2-y,-z
1/2+x,1/2-y,z
loop_
_atom_site_type_symbol
_atom_site_label
_atom_site_fract_x
_atom_site_fract_y
_atom_site_fract_z
Si Si1 0.459522 0.297115 0.838210
Si Si2 0.680997 0.057848 0.754734
Si Si3 0.734147 0.633844 0.227604
Si Si4 0.383069 0.203042 0.715805
Si Si5 0.593014 0.152045 0.760361
Si Si6 0.050762 0.687439 0.649160
Si Si7 0.632811 0.268477 0.768668
Si Si8 0.956254 0.822970 0.667634
O O1 0.477798 0.236987 0.786407
O O2 0.580666 0.300882 0.756521
O O3 0.470437 0.329267 0.743498
O O4 0.292866 0.305556 0.083109
O O5 0.765613 0.078465 0.727425
O O6 0.682614 0.104639 0.689212
O O7 0.733358 0.000000 0.664952
O O8 0.500000 0.054139 0.000000
O O9 0.661400 0.638959 0.231734
O O10 0.620986 0.669972 0.420537
O O11 0.911174 0.650907 0.009194
O O12 0.500000 0.192554 0.500000
O O13 0.431695 0.170657 0.732251
O O14 0.399992 0.264102 0.719716
O O15 0.594822 0.148697 0.663753
O O16 0.652333 0.208176 0.716648
O O17 0.201929 0.709037 0.416056
O O18 0.500000 0.270896 0.000000
#
# Coordination Sequence:
#
# PCOD9172133 Si02
#       8
#     8   8   8   8   8   8   8   8
#     4  10  20  30  43  60  93 125 165 201 222 267
#     4   9  19  32  48  68  90 119 157 202 241 277
#     4  10  18  29  47  67  84 124 159 194 217 287
#     4  11  19  29  44  61  94 130 163 193 227 272
#     4  10  19  30  48  63  93 120 163 191 238 274
#     4  10  21  29  43  67  93 122 162 199 225 273
#     4  11  21  30  44  67  95 128 161 195 233 271
#     4  10  19  28  44  63  88 121 168 185 225 264
#
# _framework density 16.860683000000002
#
# number of rings (size 3 to 8) (size 9 to 14) (size 15 to 20)
#    0.000    1.875    1.250    7.125    8.750    0.000 
#    0.000    1.250    0.000    0.000    0.000    0.000 
#    0.000    1.000    0.000    0.000    0.000    1.250 
#
# Total GULP energy -178405.951507 kJ/mol
# GULP energy per Si atom -5575.185985 kJ/mol
# Density = 1.682231 g / cm^3
# Si number density = 16.860683 Si / 1000 Ang^3
#
#
#
# Elastic Constant Matrix: (Units=GPa)
#
#
# Indices 1 2 3 4 5 6 
#
# 1 93.5095 30.0089 2.6116 -0.0004 -4.3606 0.0001
# 2 30.0089 51.8363 6.1704 -0.0001 -6.3778 -0.0031
# 3 2.6116 6.1704 64.3471 -0.0105 0.0041 -0.0016
# 4 -0.0004 -0.0001 -0.0105 5.6919 0.0021 1.3573
# 5 -4.3606 -6.3778 0.0041 0.0021 24.9431 0.0001
# 6 0.0001 -0.0031 -0.0016 1.3573 0.0001 11.0945
#
#
#
# Elastic Compliance Matrix: (Units=1/GPa)
#
#
# Indices 1 2 3 4 5 6 
#
# 1 0.013140 -0.007586 0.000194 0.000002 0.000357 -0.000002
# 2 -0.007586 0.024535 -0.002045 -0.000008 0.004948 0.000008
# 3 0.000194 -0.002045 0.015729 0.000030 -0.000492 -0.000002
# 4 0.000002 -0.000008 0.000030 0.180968 -0.000017 -0.022140
# 5 0.000357 0.004948 -0.000492 -0.000017 0.041419 0.000003
# 6 -0.000002 0.000008 -0.000002 -0.022140 0.000003 0.092843
#
#
# Mechanical properties :
#
#
# Convention : Reuss Voigt Hill
#
# Bulk Modulus (GPa) = 28.96029 31.91943 30.43986
# Shear Modulus (GPa) = 12.53075 19.73938 16.13507
#
# Velocity S-wave (km/s) = 2.72912 3.42531 3.09684
# Velocity P-wave (km/s) = 5.21002 5.88354 5.55699
#
# Compressibility (1/GPa) = 0.03453005
#
# Stress axis : x y z
#
# Youngs Moduli (GPa) = 76.10457 40.75752 63.57691
#
# Poissons Ratio (x) = 0.30919 -0.01234
# Poissons Ratio (y) = 0.57733 0.13003
# Poissons Ratio (z) = -0.01477 0.08336
#
# Static dielectric constant tensor:
#      x y z
#    x 1.644190 0.000000 0.006970 
#    y 0.000000 1.554940 0.000010 
#    z 0.006970 0.000010 1.608320 
# 
# From -- ./inp_files/291186.got.cif
#   From: 2010.05.17/outbox.cif.g08.bks.cpg/sg12_146_cif.got.tgz:291186.got - 2010.06.03 13:09:07.
