data_PCOD9172896
_publ_section_title
;
Structure prediction by ZEFSAII (Michael W. Deem and Ramdas Pophale) SiO2 
 PCOD9172896
Probable space group: C 2/M
;
_chemical_formula_sum "Si O2"
_cell_formula_units_Z 32
_cell_length_a 10.561312
_cell_length_b 30.394418
_cell_length_c 5.206520
_cell_angle_alpha 90.000000
_cell_angle_beta 88.462875
_cell_angle_gamma 90.000000
_cell_volume 1670.717178
_symmetry_space_group_name_H-M "C 2/M"
_symmetry_group_IT_number 12
_symmetry_cell_setting 'monoclinic'
loop_
_space_group_symop_operation_xyz
x,y,z
-x,y,-z
-x,-y,-z
x,-y,z
1/2+x,1/2+y,z
1/2-x,1/2+y,-z
1/2-x,1/2-y,-z
1/2+x,1/2-y,z
loop_
_atom_site_type_symbol
_atom_site_label
_atom_site_fract_x
_atom_site_fract_y
_atom_site_fract_z
Si Si1 0.000000 0.345306 0.000000
Si Si2 0.362288 0.094996 0.364671
Si Si3 0.303938 0.181137 0.600124
Si Si4 0.913494 0.756491 0.258097
Si Si5 0.908565 0.500000 0.258587
O O1 0.928842 0.320374 0.773502
O O2 0.107411 0.377940 0.891667
O O3 0.500000 0.092976 0.500000
O O4 0.279176 0.130298 0.525970
O O5 0.329591 0.045212 0.292126
O O6 0.192767 0.205765 0.753674
O O7 0.336504 0.212086 0.350340
O O8 0.000000 0.767049 0.500000
O O9 0.000000 0.756344 0.000000
O O10 0.000000 0.500000 0.500000
O O11 0.000000 0.500000 0.000000
#
# Coordination Sequence:
#
# PCOD9172896 Si02
#       5
#     4   8   8   8   4
#     4  10  18  35  58  82 114 150 180 223 286 334
#     4   9  18  31  52  80 114 150 178 220 277 340
#     4  10  24  38  60  82 115 151 190 230 284 336
#     4  11  26  42  57  81 113 149 196 239 273 325
#     4  10  18  30  48  80 116 147 176 217 272 343
#
# _framework density 19.153452000000001
#
# number of rings (size 3 to 8) (size 9 to 14) (size 15 to 20)
#    0.000    2.000    1.250    2.250   10.500    2.000 
#    0.000    0.000    0.000    0.000    0.000    1.750 
#    0.000    0.000    0.000    0.000    0.000    0.000 
#
# Total GULP energy -89102.721103 kJ/mol
# GULP energy per Si atom -5568.920069 kJ/mol
# Density = 1.910986 g / cm^3
# Si number density = 19.153452 Si / 1000 Ang^3
#
#
#
# Elastic Constant Matrix: (Units=GPa)
#
#
# Indices 1 2 3 4 5 6 
#
# 1 34.2442 40.3966 24.0858 0.0000 -8.0647 0.0000
# 2 40.3966 198.4266 50.9048 0.0000 -17.1727 0.0000
# 3 24.0858 50.9048 135.2613 0.0000 -10.2531 0.0000
# 4 0.0000 0.0000 0.0000 13.4968 0.0000 -4.4573
# 5 -8.0647 -17.1727 -10.2531 0.0000 27.7074 0.0000
# 6 0.0000 0.0000 0.0000 -4.4573 0.0000 19.6261
#
#
#
# Elastic Compliance Matrix: (Units=1/GPa)
#
#
# Indices 1 2 3 4 5 6 
#
# 1 0.041860 -0.006847 -0.004398 0.000000 0.006312 0.000000
# 2 -0.006847 0.006911 -0.001243 0.000000 0.001830 0.000000
# 3 -0.004398 -0.001243 0.008734 0.000000 0.001181 0.000000
# 4 0.000000 0.000000 0.000000 0.080100 0.000000 0.018192
# 5 0.006312 0.001830 0.001181 0.000000 0.039500 0.000000
# 6 0.000000 0.000000 0.000000 0.018192 0.000000 0.055084
#
#
# Mechanical properties :
#
#
# Convention : Reuss Voigt Hill
#
# Bulk Modulus (GPa) = 30.74360 66.52293 48.63326
# Shear Modulus (GPa) = 18.65614 29.00237 23.82926
#
# Velocity S-wave (km/s) = 3.12434 3.89551 3.53104
# Velocity P-wave (km/s) = 5.39457 7.41891 6.48620
#
# Compressibility (1/GPa) = 0.03252709
#
# Stress axis : x y z
#
# Youngs Moduli (GPa) = 23.88923 144.69885 114.50014
#
# Poissons Ratio (x) = 0.99080 0.50363
# Poissons Ratio (y) = 0.16358 0.14231
# Poissons Ratio (z) = 0.10508 0.17984
#
# Static dielectric constant tensor:
#      x y z
#    x 1.679700 0.000000 -0.016330 
#    y 0.000000 1.792420 0.000000 
#    z -0.016330 0.000000 1.770890 
# 
# From -- ./inp_files/7248.got.cif
#   From: 2010.05.17/outbox.cif.g08.bks.cpg/sg12_4_cif.got.tgz:7248.got - 2010.06.03 13:09:07.
