data_PCOD9172701
_publ_section_title
;
Structure prediction by ZEFSAII (Michael W. Deem and Ramdas Pophale) SiO2 
 PCOD9172701
Probable space group: C 2/M
;
_chemical_formula_sum "Si O2"
_cell_formula_units_Z 60
_cell_length_a 14.431057
_cell_length_b 14.097770
_cell_length_c 16.055068
_cell_angle_alpha 90.000000
_cell_angle_beta 76.531678
_cell_angle_gamma 90.000000
_cell_volume 3176.506910
_symmetry_space_group_name_H-M "C 2/M"
_symmetry_group_IT_number 12
_symmetry_cell_setting 'monoclinic'
loop_
_space_group_symop_operation_xyz
x,y,z
-x,y,-z
-x,-y,-z
x,-y,z
1/2+x,1/2+y,z
1/2-x,1/2+y,-z
1/2-x,1/2-y,-z
1/2+x,1/2-y,z
loop_
_atom_site_type_symbol
_atom_site_label
_atom_site_fract_x
_atom_site_fract_y
_atom_site_fract_z
Si Si1 0.715608 0.108438 0.554469
Si Si2 0.034440 0.110644 0.897727
Si Si3 0.745382 0.887054 0.184305
Si Si4 0.979679 0.684182 0.379971
Si Si5 0.500000 0.341604 0.500000
Si Si6 0.078620 0.241813 0.206948
Si Si7 0.810716 0.386473 0.617961
Si Si8 0.653867 0.393563 0.336754
O O1 0.602407 0.109480 0.588812
O O2 0.735706 0.147525 0.458341
O O3 0.760981 0.152672 0.627580
O O4 0.751093 0.000000 0.548263
O O5 0.147650 0.132500 0.869197
O O6 0.971354 0.181751 0.855085
O O7 0.023341 0.000000 0.871676
O O8 0.000000 0.116033 0.000000
O O9 0.661442 0.818305 0.167316
O O10 0.744018 0.870734 0.284557
O O11 0.724518 0.000000 0.174727
O O12 0.997868 0.706356 0.279660
O O13 0.083232 0.654477 0.392599
O O14 0.949512 0.774061 0.442302
O O15 0.571743 0.395688 0.424855
O O16 0.123853 0.169219 0.265062
O O17 0.820873 0.500000 0.606886
O O18 0.675380 0.500000 0.303579
#
# Coordination Sequence:
#
# PCOD9172701 Si02
#       8
#     8   8   8   8   4   8   8   8
#     4  10  19  30  48  72 107 150 195 240 275 320
#     4  10  22  42  68  92 113 146 192 239 291 359
#     4   9  20  38  61  90 119 151 195 239 290 349
#     4  10  18  30  46  76 104 144 193 235 274 326
#     4  10  19  32  43  64  96 148 187 228 274 312
#     4  10  22  37  60  85 116 151 185 238 296 343
#     4   9  16  29  49  74 109 151 193 237 279 319
#     4  10  22  35  47  72 109 150 192 235 288 337
#
# _framework density 18.888674000000002
#
# number of rings (size 3 to 8) (size 9 to 14) (size 15 to 20)
#    0.000    2.267    1.333    1.000    1.867    4.800 
#    0.000    4.000    0.000    0.400    0.000    0.000 
#    0.000    0.000    0.000    0.000    0.000    0.000 
#
# Total GULP energy -167185.843795 kJ/mol
# GULP energy per Si atom -5572.861460 kJ/mol
# Density = 1.884568 g / cm^3
# Si number density = 18.888674 Si / 1000 Ang^3
#
#
#
# Elastic Constant Matrix: (Units=GPa)
#
#
# Indices 1 2 3 4 5 6 
#
# 1 85.1579 38.5364 42.1846 0.0000 -9.9935 0.0000
# 2 38.5364 90.3164 29.8956 0.0000 1.6004 0.0000
# 3 42.1846 29.8956 67.2941 0.0000 -4.1623 0.0000
# 4 0.0000 0.0000 0.0000 26.9771 0.0000 2.1356
# 5 -9.9935 1.6004 -4.1623 0.0000 22.9334 0.0000
# 6 0.0000 0.0000 0.0000 2.1356 0.0000 36.7951
#
#
#
# Elastic Compliance Matrix: (Units=1/GPa)
#
#
# Indices 1 2 3 4 5 6 
#
# 1 0.019767 -0.005405 -0.009541 0.000000 0.007259 0.000000
# 2 -0.005405 0.014548 -0.003321 0.000000 -0.003973 0.000000
# 3 -0.009541 -0.003321 0.022324 0.000000 0.000126 0.000000
# 4 0.000000 0.000000 0.000000 0.037240 0.000000 -0.002161
# 5 0.007259 -0.003973 0.000126 0.000000 0.047068 0.000000
# 6 0.000000 0.000000 0.000000 -0.002161 0.000000 0.027303
#
#
# Mechanical properties :
#
#
# Convention : Reuss Voigt Hill
#
# Bulk Modulus (GPa) = 49.73657 51.55575 50.64616
# Shear Modulus (GPa) = 23.64238 26.15124 24.89681
#
# Velocity S-wave (km/s) = 3.54173 3.72491 3.63448
# Velocity P-wave (km/s) = 6.56611 6.77154 6.66961
#
# Compressibility (1/GPa) = 0.02010593
#
# Stress axis : x y z
#
# Youngs Moduli (GPa) = 50.58943 68.73890 44.79431
#
# Poissons Ratio (x) = 0.37151 0.42740
# Poissons Ratio (y) = 0.27342 0.14875
# Poissons Ratio (z) = 0.48269 0.22826
#
# Static dielectric constant tensor:
#      x y z
#    x 1.679170 0.000000 0.014710 
#    y 0.000000 1.710150 0.000000 
#    z 0.014710 0.000000 1.639580 
# 
# From -- ./inp_files/214841.got.cif
#   From: 2010.05.17/outbox.cif.g08.bks.cpg/sg12_108_cif.got.tgz:214841.got - 2010.06.03 13:09:07.
