data_PCOD9172656
_publ_section_title
;
Structure prediction by ZEFSAII (Michael W. Deem and Ramdas Pophale) SiO2 
 PCOD9172656
Probable space group: C 2/M
;
_chemical_formula_sum "Si O2"
_cell_formula_units_Z 64
_cell_length_a 28.679206
_cell_length_b 9.238072
_cell_length_c 21.099173
_cell_angle_alpha 90.000000
_cell_angle_beta 44.824390
_cell_angle_gamma 90.000000
_cell_volume 3940.612336
_symmetry_space_group_name_H-M "C 2/M"
_symmetry_group_IT_number 12
_symmetry_cell_setting 'monoclinic'
loop_
_space_group_symop_operation_xyz
x,y,z
-x,y,-z
-x,-y,-z
x,-y,z
1/2+x,1/2+y,z
1/2-x,1/2+y,-z
1/2-x,1/2-y,-z
1/2+x,1/2-y,z
loop_
_atom_site_type_symbol
_atom_site_label
_atom_site_fract_x
_atom_site_fract_y
_atom_site_fract_z
Si Si1 0.854877 0.333479 0.482036
Si Si2 0.987538 0.333525 0.696122
Si Si3 0.438557 0.174886 0.605577
Si Si4 0.034109 0.326676 0.901802
Si Si5 0.010311 0.165241 0.797375
Si Si6 0.169073 0.833692 0.618452
Si Si7 0.174988 0.828398 0.359526
Si Si8 0.186205 0.328516 0.729804
O O1 0.835109 0.500000 0.512910
O O2 0.821139 0.266600 0.452246
O O3 0.843396 0.233551 0.553626
O O4 0.933662 0.334234 0.393218
O O5 0.967898 0.500000 0.726808
O O6 0.954355 0.283038 0.662685
O O7 0.976541 0.239849 0.769417
O O8 0.500000 0.215122 0.500000
O O9 0.371962 0.246744 0.644198
O O10 0.433552 0.000000 0.607669
O O11 0.026599 0.500000 0.902796
O O12 0.003589 0.251653 0.869328
O O13 0.112944 0.296057 0.826076
O O14 0.000000 0.280507 0.000000
O O15 0.089300 0.165387 0.706532
O O16 0.988997 0.000000 0.825058
O O17 0.196876 0.764855 0.656059
O O18 0.189447 0.000000 0.588372
O O19 0.253896 0.802314 0.279463
O O20 0.163200 0.000000 0.367967
O O21 0.187867 0.500000 0.711306
#
# Coordination Sequence:
#
# PCOD9172656 Si02
#       8
#     8   8   8   8   8   8   8   8
#     4  10  18  30  46  63  87 124 164 200 237 273
#     4   9  17  30  48  66  90 124 162 202 236 272
#     4  10  19  34  50  67  90 123 168 209 243 276
#     4   9  17  32  55  77  96 123 157 188 225 283
#     4   9  17  28  45  72 102 124 148 189 238 284
#     4   9  17  29  45  66  90 120 160 197 231 275
#     4  11  22  32  44  65  93 124 159 199 241 281
#     4   9  19  34  47  65  95 125 153 189 234 284
#
# _framework density 16.241130999999999
#
# number of rings (size 3 to 8) (size 9 to 14) (size 15 to 20)
#    0.000    2.500    1.250    1.500    0.000    6.000 
#    0.000    0.000    0.000    0.000    0.000    0.875 
#    0.000    0.000    0.000    0.000    0.000    0.000 
#
# Total GULP energy -178477.643295 kJ/mol
# GULP energy per Si atom -5577.426353 kJ/mol
# Density = 1.620417 g / cm^3
# Si number density = 16.241131 Si / 1000 Ang^3
#
#
#
# Elastic Constant Matrix: (Units=GPa)
#
#
# Indices 1 2 3 4 5 6 
#
# 1 145.3933 54.2739 43.0665 0.0018 19.4278 -0.0018
# 2 54.2739 54.4778 34.2909 0.0039 10.7031 -0.0030
# 3 43.0665 34.2909 67.9094 0.0024 19.5272 -0.0030
# 4 0.0018 0.0039 0.0024 15.2280 -0.0012 3.8896
# 5 19.4278 10.7031 19.5272 -0.0012 20.3884 0.0021
# 6 -0.0018 -0.0030 -0.0030 3.8896 0.0021 25.3511
#
#
#
# Elastic Compliance Matrix: (Units=1/GPa)
#
#
# Indices 1 2 3 4 5 6 
#
# 1 0.011505 -0.009959 -0.000854 0.000001 -0.004918 0.000000
# 2 -0.009959 0.035564 -0.012424 -0.000006 0.002720 0.000003
# 3 -0.000854 -0.012424 0.026816 -0.000003 -0.018348 0.000004
# 4 0.000001 -0.000006 -0.000003 0.068347 0.000011 -0.010487
# 5 -0.004918 0.002720 -0.018348 0.000011 0.069879 -0.000010
# 6 0.000000 0.000003 0.000004 -0.010487 -0.000010 0.041055
#
#
# Mechanical properties :
#
#
# Convention : Reuss Voigt Hill
#
# Bulk Modulus (GPa) = 36.48027 59.00478 47.74252
# Shear Modulus (GPa) = 16.19288 21.27011 18.73149
#
# Velocity S-wave (km/s) = 3.16100 3.62283 3.39977
# Velocity P-wave (km/s) = 5.98607 7.34229 6.69859
#
# Compressibility (1/GPa) = 0.02741208
#
# Stress axis : x y z
#
# Youngs Moduli (GPa) = 86.91566 28.11847 37.29055
#
# Poissons Ratio (x) = 0.28003 0.03183
# Poissons Ratio (y) = 0.86558 0.46331
# Poissons Ratio (z) = 0.07420 0.34935
#
# Static dielectric constant tensor:
#      x y z
#    x 1.555190 0.000000 -0.021600 
#    y 0.000000 1.545120 0.000000 
#    z -0.021600 0.000000 1.533590 
# 
# From -- ./inp_files/326847.got.cif
#   From: 2010.05.17/outbox.cif.g08.bks.cpg/sg12_164_cif.got.tgz:326847.got - 2010.06.03 13:09:07.
