data_PCOD9172664
_publ_section_title
;
Structure prediction by ZEFSAII (Michael W. Deem and Ramdas Pophale) SiO2 
 PCOD9172664
Probable space group: C 2/M
;
_chemical_formula_sum "Si O2"
_cell_formula_units_Z 64
_cell_length_a 28.721462
_cell_length_b 9.167983
_cell_length_c 14.755349
_cell_angle_alpha 90.000000
_cell_angle_beta 92.072065
_cell_angle_gamma 90.000000
_cell_volume 3882.806679
_symmetry_space_group_name_H-M "C 2/M"
_symmetry_group_IT_number 12
_symmetry_cell_setting 'monoclinic'
loop_
_space_group_symop_operation_xyz
x,y,z
-x,y,-z
-x,-y,-z
x,-y,z
1/2+x,1/2+y,z
1/2-x,1/2+y,-z
1/2-x,1/2-y,-z
1/2+x,1/2-y,z
loop_
_atom_site_type_symbol
_atom_site_label
_atom_site_fract_x
_atom_site_fract_y
_atom_site_fract_z
Si Si1 0.301942 0.172643 0.268036
Si Si2 0.153898 0.167464 0.482717
Si Si3 0.508015 0.676222 0.606182
Si Si4 0.913713 0.831909 0.697369
Si Si5 0.763185 0.826253 0.907458
Si Si6 0.839357 0.666568 0.799424
Si Si7 0.271201 0.832993 0.618459
Si Si8 0.104295 0.327236 0.643358
O O1 0.276744 0.202985 0.171135
O O2 0.275537 0.265677 0.342846
O O3 0.357016 0.201455 0.276444
O O4 0.294946 0.000000 0.287442
O O5 0.119898 0.167262 0.393042
O O6 0.202953 0.231629 0.452489
O O7 0.129722 0.269191 0.554769
O O8 0.157427 0.000000 0.514584
O O9 0.500000 0.719130 0.500000
O O10 0.511110 0.500000 0.607128
O O11 0.463735 0.718965 0.664146
O O12 0.555578 0.744618 0.645822
O O13 0.887924 0.736145 0.770800
O O14 0.917572 0.000000 0.728368
O O15 0.810920 0.761350 0.869866
O O16 0.766893 0.000000 0.918541
O O17 0.750000 0.750000 0.000000
O O18 0.844639 0.500000 0.830378
O O19 0.806575 0.665433 0.707349
O O20 0.266140 0.000000 0.587263
O O21 0.096404 0.500000 0.637171
#
# Coordination Sequence:
#
# PCOD9172664 Si02
#       8
#     8   8   8   8   8   8   8   8
#     4   9  20  36  49  66  97 132 159 192 242 298
#     4  10  18  30  46  64  90 129 168 204 248 290
#     4  10  19  34  50  68  94 130 174 214 254 295
#     4   9  17  30  48  67  94 130 168 207 247 290
#     4  10  19  34  56  79 103 129 157 191 238 295
#     4   9  17  29  47  74 103 126 157 199 242 288
#     4   9  17  29  46  68  92 122 164 207 239 279
#     4  11  22  33  46  67  94 126 169 211 246 285
#
# _framework density 16.482921999999999
#
# number of rings (size 3 to 8) (size 9 to 14) (size 15 to 20)
#    0.000    2.375    1.250    1.875    0.000    6.250 
#    0.000    0.000    0.000    0.000    0.000    0.875 
#    0.000    7.000    0.000    0.000    0.000    0.000 
#
# Total GULP energy -178535.179710 kJ/mol
# GULP energy per Si atom -5579.224366 kJ/mol
# Density = 1.644541 g / cm^3
# Si number density = 16.482922 Si / 1000 Ang^3
#
#
#
# Elastic Constant Matrix: (Units=GPa)
#
#
# Indices 1 2 3 4 5 6 
#
# 1 149.9998 55.8681 41.2166 0.0000 -10.3815 0.0000
# 2 55.8681 66.8474 39.3493 0.0000 -8.6321 0.0000
# 3 41.2166 39.3493 59.1900 0.0000 -15.6667 0.0000
# 4 0.0000 0.0000 0.0000 21.1704 0.0000 -5.6850
# 5 -10.3815 -8.6321 -15.6667 0.0000 19.1177 0.0000
# 6 0.0000 0.0000 0.0000 -5.6850 0.0000 29.5228
#
#
#
# Elastic Compliance Matrix: (Units=1/GPa)
#
#
# Indices 1 2 3 4 5 6 
#
# 1 0.009867 -0.006924 -0.002141 0.000000 0.000477 0.000000
# 2 -0.006924 0.029565 -0.015701 0.000000 -0.003277 0.000000
# 3 -0.002141 -0.015701 0.034018 0.000000 0.019625 0.000000
# 4 0.000000 0.000000 0.000000 0.049812 0.000000 0.009592
# 5 0.000477 -0.003277 0.019625 0.000000 0.067169 0.000000
# 6 0.000000 0.000000 0.000000 0.009592 0.000000 0.035719
#
#
# Mechanical properties :
#
#
# Convention : Reuss Voigt Hill
#
# Bulk Modulus (GPa) = 41.80977 60.98947 51.39962
# Shear Modulus (GPa) = 17.62696 23.26905 20.44800
#
# Velocity S-wave (km/s) = 3.27373 3.76134 3.52598
# Velocity P-wave (km/s) = 6.30161 7.47968 6.91577
#
# Compressibility (1/GPa) = 0.02391786
#
# Stress axis : x y z
#
# Youngs Moduli (GPa) = 101.34689 33.82327 29.39604
#
# Poissons Ratio (x) = 0.23421 0.06295
# Poissons Ratio (y) = 0.70177 0.46154
# Poissons Ratio (z) = 0.21702 0.53105
#
# Static dielectric constant tensor:
#      x y z
#    x 1.562150 0.000000 0.025220 
#    y 0.000000 1.554200 0.000000 
#    z 0.025220 0.000000 1.544200 
# 
# From -- ./inp_files/244020.got.cif
#   From: 2010.05.17/outbox.cif.g08.bks.cpg/sg12_123_cif.got.tgz:244020.got - 2010.06.03 13:09:07.
