data_PCOD9172121
_publ_section_title
;
Structure prediction by ZEFSAII (Michael W. Deem and Ramdas Pophale) SiO2 
 PCOD9172121
Probable space group: C 2/M
;
_chemical_formula_sum "Si O2"
_cell_formula_units_Z 56
_cell_length_a 24.616854
_cell_length_b 8.456035
_cell_length_c 14.473406
_cell_angle_alpha 90.000000
_cell_angle_beta 109.596797
_cell_angle_gamma 90.000000
_cell_volume 2838.285645
_symmetry_space_group_name_H-M "C 2/M"
_symmetry_group_IT_number 12
_symmetry_cell_setting 'monoclinic'
loop_
_space_group_symop_operation_xyz
x,y,z
-x,y,-z
-x,-y,-z
x,-y,z
1/2+x,1/2+y,z
1/2-x,1/2+y,-z
1/2-x,1/2-y,-z
1/2+x,1/2-y,z
loop_
_atom_site_type_symbol
_atom_site_label
_atom_site_fract_x
_atom_site_fract_y
_atom_site_fract_z
Si Si1 0.519003 0.806877 0.115071
Si Si2 0.770845 0.688655 0.793772
Si Si3 0.583395 0.806394 0.806736
Si Si4 0.686590 0.313243 0.494340
Si Si5 0.687685 0.811947 0.990602
Si Si6 0.132896 0.309408 0.287889
Si Si7 0.152601 0.686195 0.675839
O O1 0.473512 0.760661 0.169362
O O2 0.580919 0.756356 0.191531
O O3 0.519700 0.000000 0.110877
O O4 0.500000 0.755352 0.000000
O O5 0.757982 0.500000 0.785953
O O6 0.815015 0.719044 0.902214
O O7 0.805871 0.732356 0.723097
O O8 0.711472 0.782047 0.766971
O O9 0.599985 0.756951 0.711626
O O10 0.583374 0.000000 0.805031
O O11 0.635776 0.747630 0.901099
O O12 0.691376 0.500000 0.494780
O O13 0.750000 0.250000 0.500000
O O14 0.638265 0.256396 0.393705
O O15 0.666013 0.263392 0.584916
O O16 0.687110 0.000000 0.977716
O O17 0.750000 0.750000 0.000000
O O18 0.129622 0.500000 0.290303
O O19 0.145446 0.500000 0.656985
#
# Coordination Sequence:
#
# PCOD9172121 Si02
#       7
#     8   8   8   8   8   8   8
#     4   9  17  33  59  88 118 153 194 239 282 331
#     4  10  19  30  49  78 113 146 183 232 283 341
#     4   9  18  32  51  79 115 151 192 239 285 334
#     4  12  24  39  59  84 115 150 190 239 293 347
#     4  10  18  29  46  74 110 145 182 226 280 338
#     4  10  20  35  58  87 114 148 193 239 287 338
#     4  11  21  34  54  81 114 150 186 232 287 342
#
# _framework density 19.730219000000002
#
# number of rings (size 3 to 8) (size 9 to 14) (size 15 to 20)
#    0.000    1.857    2.857    2.571    0.000    3.429 
#    0.000    0.714    0.000    7.286    0.000    0.000 
#    0.000    0.000    0.000    0.000    0.000    0.000 
#
# Total GULP energy -156053.389395 kJ/mol
# GULP energy per Si atom -5573.335336 kJ/mol
# Density = 1.968531 g / cm^3
# Si number density = 19.730219 Si / 1000 Ang^3
#
#
#
# Elastic Constant Matrix: (Units=GPa)
#
#
# Indices 1 2 3 4 5 6 
#
# 1 102.8608 16.2605 45.4543 0.0000 -17.4008 0.0000
# 2 16.2605 7.7594 14.9122 0.0000 -1.3418 0.0000
# 3 45.4543 14.9122 106.4076 0.0000 -9.7741 0.0000
# 4 0.0000 0.0000 0.0000 21.5341 0.0000 0.1469
# 5 -17.4008 -1.3418 -9.7741 0.0000 29.0780 0.0000
# 6 0.0000 0.0000 0.0000 0.1469 0.0000 14.1246
#
#
#
# Elastic Compliance Matrix: (Units=1/GPa)
#
#
# Indices 1 2 3 4 5 6 
#
# 1 0.016684 -0.029144 -0.002321 0.000000 0.007859 0.000000
# 2 -0.029144 0.227289 -0.020681 0.000000 -0.013904 0.000000
# 3 -0.002321 -0.020681 0.013489 0.000000 0.002191 0.000000
# 4 0.000000 0.000000 0.000000 0.046441 0.000000 -0.000483
# 5 0.007859 -0.013904 0.002191 0.000000 0.039188 0.000000
# 6 0.000000 0.000000 0.000000 -0.000483 0.000000 0.070803
#
#
# Mechanical properties :
#
#
# Convention : Reuss Voigt Hill
#
# Bulk Modulus (GPa) = 6.52862 41.14241 23.83552
# Shear Modulus (GPa) = 8.78362 22.30739 15.54550
#
# Velocity S-wave (km/s) = 2.11223 3.36612 2.81001
# Velocity P-wave (km/s) = 3.04382 6.00045 4.75764
#
# Compressibility (1/GPa) = 0.15317163
#
# Stress axis : x y z
#
# Youngs Moduli (GPa) = 59.93746 4.39969 74.13629
#
# Poissons Ratio (x) = 0.12822 0.17206
# Poissons Ratio (y) = 1.74679 1.53318
# Poissons Ratio (z) = 0.13910 0.09099
#
# Static dielectric constant tensor:
#      x y z
#    x 1.705870 0.000000 -0.032230 
#    y 0.000000 1.683600 0.000000 
#    z -0.032230 0.000000 1.756310 
# 
# From -- ./inp_files/237861.got.cif
#   From: 2010.05.17/outbox.cif.g08.bks.cpg/sg12_119_cif.got.tgz:237861.got - 2010.06.03 13:09:07.
