data_PCOD9172116
_publ_section_title
;
Structure prediction by ZEFSAII (Michael W. Deem and Ramdas Pophale) SiO2 
 PCOD9172116
Probable space group: C 2/M
;
_chemical_formula_sum "Si O2"
_cell_formula_units_Z 32
_cell_length_a 20.312464
_cell_length_b 17.670378
_cell_length_c 5.165165
_cell_angle_alpha 90.000000
_cell_angle_beta 85.544526
_cell_angle_gamma 90.000000
_cell_volume 1848.324522
_symmetry_space_group_name_H-M "C 2/M"
_symmetry_group_IT_number 12
_symmetry_cell_setting 'monoclinic'
loop_
_space_group_symop_operation_xyz
x,y,z
-x,y,-z
-x,-y,-z
x,-y,z
1/2+x,1/2+y,z
1/2-x,1/2+y,-z
1/2-x,1/2-y,-z
1/2+x,1/2-y,z
loop_
_atom_site_type_symbol
_atom_site_label
_atom_site_fract_x
_atom_site_fract_y
_atom_site_fract_z
Si Si1 0.955757 0.087865 0.755783
Si Si2 0.306609 0.822599 0.237581
Si Si3 0.671671 0.671527 0.016222
Si Si4 0.211773 0.411614 0.245745
O O1 0.000000 0.113003 0.500000
O O2 0.936565 0.000000 0.714390
O O3 0.891180 0.137048 0.827191
O O4 0.000000 0.090289 0.000000
O O5 0.342373 0.744733 0.155354
O O6 0.313728 0.860125 0.512361
O O7 0.228245 0.805530 0.208817
O O8 0.322034 0.884237 0.010073
O O9 0.711131 0.609806 0.830993
O O10 0.204480 0.500000 0.298662
#
# Coordination Sequence:
#
# PCOD9172116 Si02
#       4
#     8   8   8   8
#     4  10  22  34  47  70  98 133 169 194 223 277
#     4   9  20  30  49  71  93 130 160 200 246 289
#     4   9  20  33  50  66 100 130 162 201 242 277
#     4  10  18  29  46  72  98 124 153 190 246 296
#
# _framework density 17.312977
#
# number of rings (size 3 to 8) (size 9 to 14) (size 15 to 20)
#    1.500    1.000    0.000    2.250    3.500    0.000 
#    0.000    0.000    0.000    0.000    0.000    0.000 
#    0.000   20.000    0.000    0.000    0.000    0.000 
#
# Total GULP energy -89088.635071 kJ/mol
# GULP energy per Si atom -5568.039692 kJ/mol
# Density = 1.727357 g / cm^3
# Si number density = 17.312977 Si / 1000 Ang^3
#
#
#
# Elastic Constant Matrix: (Units=GPa)
#
#
# Indices 1 2 3 4 5 6 
#
# 1 48.4735 21.9902 17.0223 0.0000 -22.6941 0.0000
# 2 21.9902 81.0887 15.7139 0.0000 -19.3553 0.0000
# 3 17.0223 15.7139 100.6131 0.0000 -22.9810 0.0000
# 4 0.0000 0.0000 0.0000 18.2801 0.0000 -33.9020
# 5 -22.6941 -19.3553 -22.9810 0.0000 20.2250 0.0000
# 6 0.0000 0.0000 0.0000 -33.9020 0.0000 -28.3366
#
#
#
# Elastic Compliance Matrix: (Units=1/GPa)
#
#
# Indices 1 2 3 4 5 6 
#
# 1 0.045507 0.000342 0.005382 0.000000 0.057506 0.000000
# 2 0.000342 0.016122 0.001399 0.000000 0.017403 0.000000
# 3 0.005382 0.001399 0.014174 0.000000 0.023483 0.000000
# 4 0.000000 0.000000 0.000000 0.016995 0.000000 -0.020333
# 5 0.057506 0.017403 0.023483 0.000000 0.157308 0.000000
# 6 0.000000 0.000000 0.000000 -0.020333 0.000000 -0.010964
#
#
# Mechanical properties :
#
#
# Convention : Reuss Voigt Hill
#
# Bulk Modulus (GPa) = 11.10486 37.73643 24.42065
# Shear Modulus (GPa) = 19.61458 13.73030 16.67244
#
# Velocity S-wave (km/s) = 3.36957 2.81919 3.10659
# Velocity P-wave (km/s) = 4.64400 5.69571 5.19653
#
# Compressibility (1/GPa) = 0.09005068
#
# Stress axis : x y z
#
# Youngs Moduli (GPa) = 21.97445 62.02657 70.55277
#
# Poissons Ratio (x) = -0.02123 -0.37974
# Poissons Ratio (y) = -0.00752 -0.09871
# Poissons Ratio (z) = -0.11827 -0.08678
#
# Static dielectric constant tensor:
#      x y z
#    x 1.558660 0.000000 0.023720 
#    y 0.000000 1.597790 0.000000 
#    z 0.023720 0.000000 1.615820 
# 
# From -- ./inp_files/14314.got.cif
#   From: 2010.05.17/outbox.cif.g08.bks.cpg/sg12_8_cif.got.tgz:14314.got - 2010.06.03 13:09:07.
