data_PCOD9172823
_publ_section_title
;
Structure prediction by ZEFSAII (Michael W. Deem and Ramdas Pophale) SiO2 
 PCOD9172823
Probable space group: C 2/M
;
_chemical_formula_sum "Si O2"
_cell_formula_units_Z 64
_cell_length_a 22.602273
_cell_length_b 13.881697
_cell_length_c 9.640428
_cell_angle_alpha 90.000000
_cell_angle_beta 87.878414
_cell_angle_gamma 90.000000
_cell_volume 3022.687075
_symmetry_space_group_name_H-M "C 2/M"
_symmetry_group_IT_number 12
_symmetry_cell_setting 'monoclinic'
loop_
_space_group_symop_operation_xyz
x,y,z
-x,y,-z
-x,-y,-z
x,-y,z
1/2+x,1/2+y,z
1/2-x,1/2+y,-z
1/2-x,1/2-y,-z
1/2+x,1/2-y,z
loop_
_atom_site_type_symbol
_atom_site_label
_atom_site_fract_x
_atom_site_fract_y
_atom_site_fract_z
Si Si1 0.486959 0.192764 0.668580
Si Si2 0.804947 0.382616 0.005230
Si Si3 0.533337 0.603517 0.643024
Si Si4 0.212075 0.111709 0.226923
Si Si5 0.309302 0.815482 0.430616
Si Si6 0.098720 0.387652 0.776192
Si Si7 0.144443 0.385183 0.287453
Si Si8 0.662625 0.612093 0.501829
O O1 0.500000 0.181063 0.500000
O O2 0.505471 0.301243 0.710166
O O3 0.529148 0.127710 0.762321
O O4 0.419156 0.165572 0.698569
O O5 0.801714 0.500000 0.004606
O O6 0.744172 0.348571 0.085718
O O7 0.863745 0.358215 0.090977
O O8 0.817704 0.351113 0.848177
O O9 0.500000 0.596338 0.500000
O O10 0.526547 0.500000 0.717489
O O11 0.601407 0.615205 0.590537
O O12 0.264999 0.128089 0.333896
O O13 0.157980 0.138082 0.336335
O O14 0.201255 0.000000 0.197045
O O15 0.372554 0.827775 0.350424
O O16 0.319386 0.862662 0.577757
O O17 0.299094 0.700592 0.441390
O O18 0.111766 0.500000 0.753505
O O19 0.134731 0.500000 0.277150
O O20 0.683117 0.500000 0.509813
#
# Coordination Sequence:
#
# PCOD9172823 Si02
#       8
#     8   8   8   8   8   8   8   8
#     4  11  19  29  46  76 104 132 170 209 255 296
#     4   8  18  34  48  69 103 143 171 198 247 304
#     4   9  17  31  48  72 104 133 163 212 260 295
#     4   9  18  33  54  77 105 136 166 204 252 306
#     4  11  18  31  50  78 104 132 169 208 256 296
#     4  10  18  30  48  70 105 140 168 201 248 304
#     4  11  21  32  50  75 107 138 169 207 250 305
#     4  10  19  32  52  78 102 132 172 212 253 301
#
# _framework density 21.173213000000001
#
# number of rings (size 3 to 8) (size 9 to 14) (size 15 to 20)
#    0.000    2.125    2.500    3.375    0.000    1.000 
#    0.000    2.500    0.000    0.000    0.000    9.625 
#    0.000    0.000    0.000    0.000    0.000    0.000 
#
# Total GULP energy -178201.189062 kJ/mol
# GULP energy per Si atom -5568.787158 kJ/mol
# Density = 2.112502 g / cm^3
# Si number density = 21.173213 Si / 1000 Ang^3
#
#
#
# Elastic Constant Matrix: (Units=GPa)
#
#
# Indices 1 2 3 4 5 6 
#
# 1 40.8529 19.6437 -6.7185 0.0000 -14.1174 0.0000
# 2 19.6437 100.9654 11.4022 0.0000 -19.5489 0.0000
# 3 -6.7185 11.4022 84.2161 0.0000 -14.1344 0.0000
# 4 0.0000 0.0000 0.0000 7.7544 0.0000 -13.1685
# 5 -14.1174 -19.5489 -14.1344 0.0000 19.1988 0.0000
# 6 0.0000 0.0000 0.0000 -13.1685 0.0000 32.9973
#
#
#
# Elastic Compliance Matrix: (Units=1/GPa)
#
#
# Indices 1 2 3 4 5 6 
#
# 1 0.038101 -0.002154 0.008746 0.000000 0.032262 0.000000
# 2 -0.002154 0.012477 0.000006 0.000000 0.011125 0.000000
# 3 0.008746 0.000006 0.015576 0.000000 0.017905 0.000000
# 4 0.000000 0.000000 0.000000 0.400128 0.000000 0.159682
# 5 0.032262 0.011125 0.017905 0.000000 0.100320 0.000000
# 6 0.000000 0.000000 0.000000 0.159682 0.000000 0.094031
#
#
# Mechanical properties :
#
#
# Convention : Reuss Voigt Hill
#
# Bulk Modulus (GPa) = 12.60239 30.52103 21.56171
# Shear Modulus (GPa) = 7.41965 25.43723 16.42844
#
# Velocity S-wave (km/s) = 1.87400 3.46986 2.78853
# Velocity P-wave (km/s) = 3.26304 5.52263 4.53580
#
# Compressibility (1/GPa) = 0.07935005
#
# Stress axis : x y z
#
# Youngs Moduli (GPa) = 26.24611 80.14902 64.20064
#
# Poissons Ratio (x) = 0.17263 -0.56150
# Poissons Ratio (y) = 0.05653 -0.00039
# Poissons Ratio (z) = -0.22955 -0.00049
#
# Static dielectric constant tensor:
#      x y z
#    x 1.610560 0.000000 -0.005740 
#    y 0.000000 1.842760 0.000000 
#    z -0.005740 0.000000 1.753070 
# 
# From -- ./inp_files/104565.got.cif
#   From: 2010.05.17/outbox.cif.g08.bks.cpg/sg12_53_cif.got.tgz:104565.got - 2010.06.03 13:09:07.
