data_PCOD9172537
_publ_section_title
;
Structure prediction by ZEFSAII (Michael W. Deem and Ramdas Pophale) SiO2 
 PCOD9172537
Probable space group: C 2/M
;
_chemical_formula_sum "Si O2"
_cell_formula_units_Z 64
_cell_length_a 14.476575
_cell_length_b 19.506149
_cell_length_c 21.544686
_cell_angle_alpha 90.000000
_cell_angle_beta 26.299514
_cell_angle_gamma 90.000000
_cell_volume 2695.526400
_symmetry_space_group_name_H-M "C 2/M"
_symmetry_group_IT_number 12
_symmetry_cell_setting 'monoclinic'
loop_
_space_group_symop_operation_xyz
x,y,z
-x,y,-z
-x,-y,-z
x,-y,z
1/2+x,1/2+y,z
1/2-x,1/2+y,-z
1/2-x,1/2-y,-z
1/2+x,1/2-y,z
loop_
_atom_site_type_symbol
_atom_site_label
_atom_site_fract_x
_atom_site_fract_y
_atom_site_fract_z
Si Si1 0.696092 0.185382 0.115738
Si Si2 0.104903 0.076477 0.654376
Si Si3 0.969440 0.418839 0.944576
Si Si4 0.926966 0.704097 0.681117
Si Si5 0.345120 0.081396 0.295247
Si Si6 0.117948 0.162423 0.533843
Si Si7 0.928682 0.571513 0.613750
Si Si8 0.074269 0.170738 0.139797
O O1 0.725894 0.207649 0.168414
O O2 0.558448 0.116444 0.192453
O O3 0.568126 0.250405 0.164848
O O4 0.894639 0.173943 0.952573
O O5 0.013868 0.118080 0.651810
O O6 0.344819 0.067712 0.490436
O O7 0.089310 0.123195 0.725229
O O8 0.018973 0.000000 0.715413
O O9 0.916030 0.500000 0.967732
O O10 0.144982 0.406900 0.785291
O O11 0.786567 0.366358 0.035974
O O12 0.000000 0.410111 0.000000
O O13 0.973226 0.771325 0.613480
O O14 0.154445 0.688050 0.576519
O O15 0.848013 0.642772 0.686051
O O16 0.170739 0.118623 0.441632
O O17 0.337220 0.000000 0.311064
O O18 0.810380 0.500000 0.696672
O O19 0.000000 0.571792 0.500000
#
# Coordination Sequence:
#
# PCOD9172537 Si02
#       8
#     8   8   8   8   8   8   8   8
#     4   9  18  30  49  70 103 129 161 209 257 297
#     4  10  18  29  51  77 100 132 167 209 255 301
#     4   9  18  33  51  70  97 134 173 211 251 304
#     4   9  16  29  49  70  95 131 164 201 255 299
#     4   9  17  29  48  74  98 129 170 208 251 305
#     4   9  16  27  47  73 101 122 159 210 257 296
#     4   9  19  34  51  73 102 135 170 206 250 308
#     4  10  18  31  50  74 101 130 167 208 256 299
#
# _framework density 23.743044000000001
#
# number of rings (size 3 to 8) (size 9 to 14) (size 15 to 20)
#    0.000    2.750    1.250    0.750    1.750    3.500 
#    0.000    1.250    0.000    0.000    0.000    6.125 
#    0.000    0.000    0.000    0.000    0.000    0.000 
#
# Total GULP energy -178429.501395 kJ/mol
# GULP energy per Si atom -5575.921919 kJ/mol
# Density = 2.368900 g / cm^3
# Si number density = 23.743044 Si / 1000 Ang^3
#
#
#
# Elastic Constant Matrix: (Units=GPa)
#
#
# Indices 1 2 3 4 5 6 
#
# 1 37.4441 34.5216 27.9742 0.4626 7.7626 -0.0662
# 2 34.5216 158.1879 71.5932 -0.4403 15.0263 0.0241
# 3 27.9742 71.5932 135.0976 -0.3001 38.0459 0.0806
# 4 0.4626 -0.4403 -0.3001 55.0683 -0.3647 8.4204
# 5 7.7626 15.0263 38.0459 -0.3647 28.9358 -0.0021
# 6 -0.0662 0.0241 0.0806 8.4204 -0.0021 4.1067
#
#
#
# Elastic Compliance Matrix: (Units=1/GPa)
#
#
# Indices 1 2 3 4 5 6 
#
# 1 0.035236 -0.005834 -0.003805 -0.000694 -0.001429 0.002099
# 2 -0.005834 0.009384 -0.004499 0.000183 0.002610 -0.000436
# 3 -0.003805 -0.004499 0.015291 0.000031 -0.016748 -0.000406
# 4 -0.000694 0.000183 0.000031 0.026470 0.000380 -0.054288
# 5 -0.001429 0.002610 -0.016748 0.000380 0.055612 -0.000461
# 6 0.002099 -0.000436 -0.000406 -0.054288 -0.000461 0.354862
#
#
# Mechanical properties :
#
#
# Convention : Reuss Voigt Hill
#
# Bulk Modulus (GPa) = 31.61089 66.54530 49.07810
# Shear Modulus (GPa) = 9.33399 30.73155 20.03277
#
# Velocity S-wave (km/s) = 1.98489 3.60160 2.90786
# Velocity P-wave (km/s) = 4.31227 6.73672 5.65593
#
# Compressibility (1/GPa) = 0.03163466
#
# Stress axis : x y z
#
# Youngs Moduli (GPa) = 28.37974 106.56851 65.39869
#
# Poissons Ratio (x) = 0.62174 0.24883
# Poissons Ratio (y) = 0.16557 0.29423
# Poissons Ratio (z) = 0.10798 0.47945
#
# Static dielectric constant tensor:
#      x y z
#    x 1.970590 -0.000020 -0.049810 
#    y -0.000020 1.925860 0.000020 
#    z -0.049810 0.000020 1.948750 
# 
# From -- ./inp_files/317347.got.cif
#   From: 2010.05.17/outbox.cif.g08.bks.cpg/sg12_159_cif.got.tgz:317347.got - 2010.06.03 13:09:07.
