data_PCOD9172330
_publ_section_title
;
Structure prediction by ZEFSAII (Michael W. Deem and Ramdas Pophale) SiO2 
 PCOD9172330
Probable space group: C 2/M
;
_chemical_formula_sum "Si O2"
_cell_formula_units_Z 56
_cell_length_a 17.271485
_cell_length_b 15.771294
_cell_length_c 16.167422
_cell_angle_alpha 90.000000
_cell_angle_beta 44.989438
_cell_angle_gamma 90.000000
_cell_volume 3113.455843
_symmetry_space_group_name_H-M "C 2/M"
_symmetry_group_IT_number 12
_symmetry_cell_setting 'monoclinic'
loop_
_space_group_symop_operation_xyz
x,y,z
-x,y,-z
-x,-y,-z
x,-y,z
1/2+x,1/2+y,z
1/2-x,1/2+y,-z
1/2-x,1/2-y,-z
1/2+x,1/2-y,z
loop_
_atom_site_type_symbol
_atom_site_label
_atom_site_fract_x
_atom_site_fract_y
_atom_site_fract_z
Si Si1 0.424111 0.300554 0.427812
Si Si2 0.428751 0.141079 0.624958
Si Si3 0.742608 0.267040 0.309579
Si Si4 0.358668 0.402544 0.924106
Si Si5 0.472450 0.742648 0.205282
Si Si6 0.891022 0.595030 0.838304
Si Si7 0.872234 0.904643 0.715646
O O1 0.496672 0.222471 0.407052
O O2 0.311186 0.295920 0.562247
O O3 0.421015 0.289993 0.331670
O O4 0.499774 0.380828 0.393124
O O5 0.500000 0.096709 0.500000
O O6 0.316563 0.179642 0.673117
O O7 0.410227 0.095430 0.725230
O O8 0.702733 0.337477 0.274812
O O9 0.871572 0.258093 0.220871
O O10 0.390816 0.500000 0.920332
O O11 0.443861 0.330461 0.886750
O O12 0.353104 0.396842 0.828422
O O13 0.237057 0.387134 0.049673
O O14 0.537696 0.829519 0.175802
O O15 0.915447 0.500000 0.852208
O O16 0.849464 0.000000 0.706232
#
# Coordination Sequence:
#
# PCOD9172330 Si02
#       7
#     8   8   8   8   8   8   8
#     4   8  16  30  48  69  97 137 172 194 235 296
#     4   8  16  32  51  71  96 129 166 198 235 290
#     4  10  18  29  48  75 104 130 159 206 258 293
#     4   9  19  37  56  70  91 130 177 212 241 293
#     4  10  19  32  52  75 102 131 163 207 255 298
#     4  10  20  35  54  73  96 132 171 202 241 302
#     4   9  17  30  49  73 100 132 171 209 245 294
#
# _framework density 17.986445
#
# number of rings (size 3 to 8) (size 9 to 14) (size 15 to 20)
#    0.000    2.857    0.000    3.000    0.000    2.000 
#    0.000    3.571    0.000   16.286    0.000    0.000 
#    0.000    0.000    0.000    0.000    0.000    0.000 
#
# Total GULP energy -156025.924890 kJ/mol
# GULP energy per Si atom -5572.354460 kJ/mol
# Density = 1.794551 g / cm^3
# Si number density = 17.986445 Si / 1000 Ang^3
#
#
#
# Elastic Constant Matrix: (Units=GPa)
#
#
# Indices 1 2 3 4 5 6 
#
# 1 65.1566 48.4831 14.6877 0.0000 -32.6620 0.0000
# 2 48.4831 103.3662 37.7007 0.0000 -27.5503 0.0000
# 3 14.6877 37.7007 68.1534 0.0000 -21.4323 0.0000
# 4 0.0000 0.0000 0.0000 6.9192 0.0000 2.2641
# 5 -32.6620 -27.5503 -21.4323 0.0000 21.8839 0.0000
# 6 0.0000 0.0000 0.0000 2.2641 0.0000 9.4530
#
#
#
# Elastic Compliance Matrix: (Units=1/GPa)
#
#
# Indices 1 2 3 4 5 6 
#
# 1 0.122913 -0.020958 0.049850 0.000000 0.205886 0.000000
# 2 -0.020958 0.018669 -0.011931 0.000000 -0.019462 0.000000
# 3 0.049850 -0.011931 0.042200 0.000000 0.100711 0.000000
# 4 0.000000 0.000000 0.000000 0.156816 0.000000 -0.037559
# 5 0.205886 -0.019462 0.100711 0.000000 0.427115 0.000000
# 6 0.000000 0.000000 0.000000 -0.037559 0.000000 0.114782
#
#
# Mechanical properties :
#
#
# Convention : Reuss Voigt Hill
#
# Bulk Modulus (GPa) = 4.59340 48.71325 26.65332
# Shear Modulus (GPa) = 5.42806 16.70485 11.06645
#
# Velocity S-wave (km/s) = 1.73908 3.05084 2.48315
# Velocity P-wave (km/s) = 2.56747 6.28906 4.80334
#
# Compressibility (1/GPa) = 0.21770369
#
# Stress axis : x y z
#
# Youngs Moduli (GPa) = 8.13586 53.56534 23.69658
#
# Poissons Ratio (x) = 1.12262 -1.18127
# Poissons Ratio (y) = 0.17051 0.28272
# Poissons Ratio (z) = -0.40557 0.63907
#
# Static dielectric constant tensor:
#      x y z
#    x 1.596600 0.000000 0.029070 
#    y 0.000000 1.629770 0.000000 
#    z 0.029070 0.000000 1.645600 
# 
# From -- ./inp_files/183551.got.cif
#   From: 2010.05.17/outbox.cif.g08.bks.cpg/sg12_92_cif.got.tgz:183551.got - 2010.06.03 13:09:07.
