data_PCOD9172892
_publ_section_title
;
Structure prediction by ZEFSAII (Michael W. Deem and Ramdas Pophale) SiO2 
 PCOD9172892
Probable space group: C 2/M
;
_chemical_formula_sum "Si O2"
_cell_formula_units_Z 44
_cell_length_a 17.794101
_cell_length_b 18.915709
_cell_length_c 9.438036
_cell_angle_alpha 90.000000
_cell_angle_beta 135.809041
_cell_angle_gamma 90.000000
_cell_volume 2214.345905
_symmetry_space_group_name_H-M "C 2/M"
_symmetry_group_IT_number 12
_symmetry_cell_setting 'monoclinic'
loop_
_space_group_symop_operation_xyz
x,y,z
-x,y,-z
-x,-y,-z
x,-y,z
1/2+x,1/2+y,z
1/2-x,1/2+y,-z
1/2-x,1/2-y,-z
1/2+x,1/2-y,z
loop_
_atom_site_type_symbol
_atom_site_label
_atom_site_fract_x
_atom_site_fract_y
_atom_site_fract_z
Si Si1 0.694710 0.303536 0.085025
Si Si2 0.849683 0.848183 0.561577
Si Si3 0.238903 0.141162 0.855021
Si Si4 0.533343 0.079911 0.880930
Si Si5 0.500000 0.356779 0.000000
Si Si6 0.360838 0.818213 0.545405
O O1 0.709395 0.220211 0.081825
O O2 0.802165 0.325232 0.315303
O O3 0.682137 0.352514 0.930291
O O4 0.593339 0.313238 0.049248
O O5 0.839135 0.870350 0.384204
O O6 0.930907 0.889788 0.775837
O O7 0.728658 0.846390 0.463311
O O8 0.881616 0.764708 0.602379
O O9 0.339978 0.089581 0.975123
O O10 0.467374 0.136562 0.702016
O O11 0.500392 0.000000 0.801767
O O12 0.500000 0.092548 0.000000
#
# Coordination Sequence:
#
# PCOD9172892 Si02
#       6
#     8   8   8   8   4   8
#     4   9  20  32  53  79 110 142 180 234 286 310
#     4   9  17  28  53  75 107 145 175 233 278 301
#     4  10  19  34  50  80 112 142 185 229 267 334
#     4  11  22  34  55  83 115 156 182 212 270 344
#     4  10  18  30  48  78 100 132 174 214 288 330
#     4   9  17  31  49  77 107 145 185 218 267 331
#
# _framework density 19.870428
#
# number of rings (size 3 to 8) (size 9 to 14) (size 15 to 20)
#    0.000    2.364    1.818    2.182    2.545    1.455 
#    0.000    7.273    0.000    0.000    0.000   24.182 
#    0.000    0.000    0.000    0.000    0.000    0.000 
#
# Total GULP energy -122597.951763 kJ/mol
# GULP energy per Si atom -5572.634171 kJ/mol
# Density = 1.982520 g / cm^3
# Si number density = 19.870428 Si / 1000 Ang^3
#
#
#
# Elastic Constant Matrix: (Units=GPa)
#
#
# Indices 1 2 3 4 5 6 
#
# 1 55.1088 10.1455 23.3445 0.0000 -9.8247 0.0000
# 2 10.1455 21.5080 18.4716 0.0000 5.4835 0.0000
# 3 23.3445 18.4716 129.8805 0.0000 -3.7039 0.0000
# 4 0.0000 0.0000 0.0000 4.5095 0.0000 3.9940
# 5 -9.8247 5.4835 -3.7039 0.0000 32.6678 0.0000
# 6 0.0000 0.0000 0.0000 3.9940 0.0000 8.2206
#
#
#
# Elastic Compliance Matrix: (Units=1/GPa)
#
#
# Indices 1 2 3 4 5 6 
#
# 1 0.022596 -0.010828 -0.002283 0.000000 0.008354 0.000000
# 2 -0.010828 0.061458 -0.007205 0.000000 -0.014389 0.000000
# 3 -0.002283 -0.007205 0.009179 0.000000 0.001563 0.000000
# 4 0.000000 0.000000 0.000000 0.389248 0.000000 -0.189117
# 5 0.008354 -0.014389 0.001563 0.000000 0.035716 0.000000
# 6 0.000000 0.000000 0.000000 -0.189117 0.000000 0.213528
#
#
# Mechanical properties :
#
#
# Convention : Reuss Voigt Hill
#
# Bulk Modulus (GPa) = 19.01086 34.49118 26.75102
# Shear Modulus (GPa) = 6.32999 19.38198 12.85598
#
# Velocity S-wave (km/s) = 1.78677 3.12656 2.54636
# Velocity P-wave (km/s) = 3.72088 5.51630 4.70502
#
# Compressibility (1/GPa) = 0.05260151
#
# Stress axis : x y z
#
# Youngs Moduli (GPa) = 44.25589 16.27127 108.94433
#
# Poissons Ratio (x) = 0.17618 0.24874
# Poissons Ratio (y) = 0.47919 0.78491
# Poissons Ratio (z) = 0.10104 0.11723
#
# Static dielectric constant tensor:
#      x y z
#    x 1.716640 0.000000 -0.047140 
#    y 0.000000 1.672750 0.000000 
#    z -0.047140 0.000000 1.775170 
# 
# From -- ./inp_files/76102.got.cif
#   From: 2010.05.17/outbox.cif.g08.bks.cpg/sg12_39_cif.got.tgz:76102.got - 2010.06.03 13:09:07.
