data_PCOD9172456
_publ_section_title
;
Structure prediction by ZEFSAII (Michael W. Deem and Ramdas Pophale) SiO2 
 PCOD9172456
Probable space group: C 2/M
;
_chemical_formula_sum "Si O2"
_cell_formula_units_Z 36
_cell_length_a 10.523816
_cell_length_b 23.206119
_cell_length_c 7.396966
_cell_angle_alpha 90.000000
_cell_angle_beta 58.528098
_cell_angle_gamma 90.000000
_cell_volume 1540.726712
_symmetry_space_group_name_H-M "C 2/M"
_symmetry_group_IT_number 12
_symmetry_cell_setting 'monoclinic'
loop_
_space_group_symop_operation_xyz
x,y,z
-x,y,-z
-x,-y,-z
x,-y,z
1/2+x,1/2+y,z
1/2-x,1/2+y,-z
1/2-x,1/2-y,-z
1/2+x,1/2-y,z
loop_
_atom_site_type_symbol
_atom_site_label
_atom_site_fract_x
_atom_site_fract_y
_atom_site_fract_z
Si Si1 0.176885 0.000000 0.339681
Si Si2 0.537052 0.818738 0.774311
Si Si3 0.676322 0.500000 0.910155
Si Si4 0.000000 0.791771 0.000000
Si Si5 0.741636 0.874743 0.143019
Si Si6 0.677151 0.373119 0.345102
O O1 0.226044 0.062393 0.373409
O O2 0.000000 0.000000 0.500000
O O3 0.203170 0.000000 0.105616
O O4 0.485896 0.752753 0.842564
O O5 0.423844 0.850073 0.727293
O O6 0.713404 0.828475 0.635686
O O7 0.500000 0.845847 0.000000
O O8 0.742074 0.439402 0.797102
O O9 0.500000 0.500000 0.000000
O O10 0.859915 0.831707 0.141669
O O11 0.794392 0.872519 0.892335
O O12 0.500000 0.365198 0.500000
#
# Coordination Sequence:
#
# PCOD9172456 Si02
#       6
#     4   8   4   4   8   8
#     4   8  16  29  49  71  99 134 163 194 254 304
#     4   8  18  29  49  71  94 127 164 201 235 286
#     4  10  18  29  49  83 100 121 163 220 247 284
#     4  10  18  31  52  67 100 134 164 190 250 296
#     4  10  18  32  51  72 100 127 161 202 249 293
#     4   9  17  31  49  73  97 128 166 201 243 291
#
# _framework density 23.365597999999999
#
# number of rings (size 3 to 8) (size 9 to 14) (size 15 to 20)
#    0.667    2.222    1.111    0.667    0.000    0.889 
#    0.000    5.556    0.000    0.000    0.000    4.667 
#    0.000    0.000    0.000    0.000    0.000    0.000 
#
# Total GULP energy -100355.576169 kJ/mol
# GULP energy per Si atom -5575.309787 kJ/mol
# Density = 2.331242 g / cm^3
# Si number density = 23.365598 Si / 1000 Ang^3
#
#
#
# Elastic Constant Matrix: (Units=GPa)
#
#
# Indices 1 2 3 4 5 6 
#
# 1 103.9600 52.3250 25.2797 0.0000 -27.0743 0.0000
# 2 52.3250 155.9401 12.7547 0.0000 -15.8282 0.0000
# 3 25.2797 12.7547 100.4490 0.0000 -1.1442 0.0000
# 4 0.0000 0.0000 0.0000 -13.7340 0.0000 -4.1308
# 5 -27.0743 -15.8282 -1.1442 0.0000 23.7467 0.0000
# 6 0.0000 0.0000 0.0000 -4.1308 0.0000 35.8313
#
#
#
# Elastic Compliance Matrix: (Units=1/GPa)
#
#
# Indices 1 2 3 4 5 6 
#
# 1 0.016526 -0.003606 -0.003516 0.000000 0.016269 0.000000
# 2 -0.003606 0.007733 -0.000063 0.000000 0.001040 0.000000
# 3 -0.003516 -0.000063 0.010808 0.000000 -0.003529 0.000000
# 4 0.000000 0.000000 0.000000 -0.070372 0.000000 -0.008113
# 5 0.016269 0.001040 -0.003529 0.000000 0.061183 0.000000
# 6 0.000000 0.000000 0.000000 -0.008113 0.000000 0.026973
#
#
# Mechanical properties :
#
#
# Convention : Reuss Voigt Hill
#
# Bulk Modulus (GPa) = 48.31401 60.11866 54.21634
# Shear Modulus (GPa) = 67.45812 27.16811 47.31312
#
# Velocity S-wave (km/s) = 5.37898 3.41360 4.50478
# Velocity P-wave (km/s) = 7.70066 6.42824 7.09304
#
# Compressibility (1/GPa) = 0.02069793
#
# Stress axis : x y z
#
# Youngs Moduli (GPa) = 60.51069 129.30767 92.52531
#
# Poissons Ratio (x) = 0.46633 0.32530
# Poissons Ratio (y) = 0.21822 0.00579
# Poissons Ratio (z) = 0.21274 0.00809
#
# Static dielectric constant tensor:
#      x y z
#    x 1.897630 0.000000 0.048310 
#    y 0.000000 1.917020 0.000000 
#    z 0.048310 0.000000 1.926160 
# 
# From -- ./inp_files/49710.got.cif
#   From: 2010.05.17/outbox.cif.g08.bks.cpg/sg12_25_cif.got.tgz:49710.got - 2010.06.03 13:09:07.
