data_PCOD9172201
_publ_section_title
;
Structure prediction by ZEFSAII (Michael W. Deem and Ramdas Pophale) SiO2 
 PCOD9172201
Probable space group: C 2/M
;
_chemical_formula_sum "Si O2"
_cell_formula_units_Z 56
_cell_length_a 19.835637
_cell_length_b 8.878806
_cell_length_c 32.441195
_cell_angle_alpha 90.000000
_cell_angle_beta 145.629280
_cell_angle_gamma 90.000000
_cell_volume 3225.494719
_symmetry_space_group_name_H-M "C 2/M"
_symmetry_group_IT_number 12
_symmetry_cell_setting 'monoclinic'
loop_
_space_group_symop_operation_xyz
x,y,z
-x,y,-z
-x,-y,-z
x,-y,z
1/2+x,1/2+y,z
1/2-x,1/2+y,-z
1/2-x,1/2-y,-z
1/2+x,1/2-y,z
loop_
_atom_site_type_symbol
_atom_site_label
_atom_site_fract_x
_atom_site_fract_y
_atom_site_fract_z
Si Si1 0.147359 0.680245 0.420520
Si Si2 0.162771 0.820776 0.812920
Si Si3 0.271918 0.321487 0.943965
Si Si4 0.095769 0.319947 0.302062
Si Si5 0.683667 0.680169 0.264184
Si Si6 0.426754 0.679493 0.097441
Si Si7 0.374049 0.181904 0.292964
O O1 0.154058 0.500000 0.427242
O O2 0.250000 0.750000 0.500000
O O3 0.155588 0.719031 0.376143
O O4 0.013215 0.725927 0.366226
O O5 0.259445 0.762877 0.894518
O O6 0.177793 0.754373 0.774805
O O7 0.034187 0.758100 0.763503
O O8 0.159477 0.000000 0.810390
O O9 0.266097 0.500000 0.934024
O O10 0.160224 0.269849 0.915978
O O11 0.386519 0.287107 0.030394
O O12 0.078405 0.500000 0.291988
O O13 0.169835 0.263832 0.300441
O O14 0.687990 0.500000 0.273660
O O15 0.563195 0.711109 0.177298
O O16 0.796811 0.723646 0.293707
O O17 0.405659 0.500000 0.093443
O O18 0.369259 0.000000 0.285888
#
# Coordination Sequence:
#
# PCOD9172201 Si02
#       7
#     8   8   8   8   8   8   8
#     4   9  19  36  57  80 105 134 170 209 252 306
#     4  11  20  32  51  75 101 136 184 224 257 309
#     4  10  18  29  47  72 103 137 173 222 271 304
#     4  10  20  34  54  80 107 136 171 213 259 307
#     4  10  19  34  55  79 106 137 174 216 259 311
#     4   9  18  30  47  74 103 134 176 219 262 311
#     4   9  20  37  55  77 107 138 170 213 264 310
#
# _framework density 17.361678000000001
#
# number of rings (size 3 to 8) (size 9 to 14) (size 15 to 20)
#    0.000    2.286    1.429    3.000    0.000    4.000 
#    0.000    1.429    0.000    8.571    0.000    0.000 
#    0.000    0.000    0.000    0.000    0.000    0.000 
#
# Total GULP energy -156210.323633 kJ/mol
# GULP energy per Si atom -5578.940130 kJ/mol
# Density = 1.732216 g / cm^3
# Si number density = 17.361678 Si / 1000 Ang^3
#
#
#
# Elastic Constant Matrix: (Units=GPa)
#
#
# Indices 1 2 3 4 5 6 
#
# 1 121.2826 41.1855 55.7588 0.0000 -11.4278 0.0000
# 2 41.1855 46.5095 41.0702 0.0000 -8.7731 0.0000
# 3 55.7588 41.0702 118.8807 0.0000 -17.7609 0.0000
# 4 0.0000 0.0000 0.0000 28.2279 0.0000 -7.4138
# 5 -11.4278 -8.7731 -17.7609 0.0000 16.7784 0.0000
# 6 0.0000 0.0000 0.0000 -7.4138 0.0000 25.9696
#
#
#
# Elastic Compliance Matrix: (Units=1/GPa)
#
#
# Indices 1 2 3 4 5 6 
#
# 1 0.012479 -0.008368 -0.002786 0.000000 0.001174 0.000000
# 2 -0.008368 0.037030 -0.008109 0.000000 0.005079 0.000000
# 3 -0.002786 -0.008109 0.013783 0.000000 0.008452 0.000000
# 4 0.000000 0.000000 0.000000 0.038298 0.000000 0.010933
# 5 0.001174 0.005079 0.008452 0.000000 0.072002 0.000000
# 6 0.000000 0.000000 0.000000 0.010933 0.000000 0.041628
#
#
# Mechanical properties :
#
#
# Convention : Reuss Voigt Hill
#
# Bulk Modulus (GPa) = 40.38125 62.52240 51.45183
# Shear Modulus (GPa) = 19.08385 24.10573 21.59479
#
# Velocity S-wave (km/s) = 3.31901 3.73023 3.53061
# Velocity P-wave (km/s) = 6.16418 7.39207 6.80587
#
# Compressibility (1/GPa) = 0.02476397
#
# Stress axis : x y z
#
# Youngs Moduli (GPa) = 80.13759 27.00510 72.55295
#
# Poissons Ratio (x) = 0.22598 0.20217
# Poissons Ratio (y) = 0.67060 0.58835
# Poissons Ratio (z) = 0.22330 0.21899
#
# Static dielectric constant tensor:
#      x y z
#    x 1.577950 0.000000 -0.011720 
#    y 0.000000 1.583640 0.000000 
#    z -0.011720 0.000000 1.589420 
# 
# From -- ./inp_files/319633.got.cif
#   From: 2010.05.17/outbox.cif.g08.bks.cpg/sg12_160_cif.got.tgz:319633.got - 2010.06.03 13:09:07.
