data_PCOD9172066
_publ_section_title
;
Structure prediction by ZEFSAII (Michael W. Deem and Ramdas Pophale) SiO2 
 PCOD9172066
Probable space group: C 2/M
;
_chemical_formula_sum "Si O2"
_cell_formula_units_Z 64
_cell_length_a 21.147334
_cell_length_b 7.407041
_cell_length_c 21.007927
_cell_angle_alpha 90.000000
_cell_angle_beta 74.163701
_cell_angle_gamma 90.000000
_cell_volume 3165.768077
_symmetry_space_group_name_H-M "C 2/M"
_symmetry_group_IT_number 12
_symmetry_cell_setting 'monoclinic'
loop_
_space_group_symop_operation_xyz
x,y,z
-x,y,-z
-x,-y,-z
x,-y,z
1/2+x,1/2+y,z
1/2-x,1/2+y,-z
1/2-x,1/2-y,-z
1/2+x,1/2-y,z
loop_
_atom_site_type_symbol
_atom_site_label
_atom_site_fract_x
_atom_site_fract_y
_atom_site_fract_z
Si Si1 0.303130 0.711134 0.287084
Si Si2 0.104515 0.778178 0.849739
Si Si3 0.578366 0.289502 0.993832
Si Si4 0.926250 0.719987 0.500848
Si Si5 0.056079 0.713902 0.276595
Si Si6 0.544492 0.716674 0.136872
Si Si7 0.157553 0.721397 0.355707
Si Si8 0.913341 0.281584 0.359585
O O1 0.292847 0.500000 0.276036
O O2 0.340888 0.785250 0.214832
O O3 0.231674 0.785026 0.323877
O O4 0.353106 0.724774 0.332222
O O5 0.031691 0.721960 0.846167
O O6 0.104143 0.000000 0.850111
O O7 0.112125 0.716371 0.920806
O O8 0.597562 0.500000 0.991859
O O9 0.582938 0.213540 0.063903
O O10 0.500000 0.283384 0.000000
O O11 0.926859 0.500000 0.500453
O O12 0.874812 0.777612 0.568702
O O13 0.909389 0.777429 0.433982
O O14 0.000000 0.776006 0.500000
O O15 0.052558 0.500000 0.288572
O O16 0.072429 0.741781 0.198316
O O17 0.109853 0.781371 0.311602
O O18 0.982828 0.783973 0.311624
O O19 0.542459 0.500000 0.131153
O O20 0.158038 0.500000 0.356438
O O21 0.913868 0.500000 0.358820
#
# Coordination Sequence:
#
# PCOD9172066 Si02
#       8
#     8   8   8   8   8   8   8   8
#     4  10  19  31  48  70  96 120 146 187 234 273
#     4   8  13  23  41  65  90 116 146 183 224 262
#     4   7  11  20  37  62  88 113 146 185 216 254
#     4   9  15  28  49  69  89 118 157 191 216 257
#     4  10  18  29  46  68  92 118 152 190 224 264
#     4   9  15  25  44  68  90 114 149 190 226 262
#     4   9  18  31  47  68  91 120 157 189 220 265
#     4  10  19  30  49  71  90 118 155 190 223 265
#
# _framework density 20.216263999999999
#
# number of rings (size 3 to 8) (size 9 to 14) (size 15 to 20)
#    0.000    3.000    2.500    1.500    0.000    0.500 
#    0.000    0.625    0.000    6.000    0.000    0.000 
#    0.000    0.000    0.000    0.000    0.000    0.000 
#
# Total GULP energy -178448.100527 kJ/mol
# GULP energy per Si atom -5576.503141 kJ/mol
# Density = 2.017025 g / cm^3
# Si number density = 20.216264 Si / 1000 Ang^3
#
#
#
# Elastic Constant Matrix: (Units=GPa)
#
#
# Indices 1 2 3 4 5 6 
#
# 1 113.1374 -0.2558 79.3706 0.0000 -12.0505 0.0000
# 2 -0.2558 63.7744 -5.5819 0.0000 -5.1627 0.0000
# 3 79.3706 -5.5819 207.4840 0.0000 -13.7332 0.0000
# 4 0.0000 0.0000 0.0000 11.1179 0.0000 9.4288
# 5 -12.0505 -5.1627 -13.7332 0.0000 24.6811 0.0000
# 6 0.0000 0.0000 0.0000 9.4288 0.0000 2.9511
#
#
#
# Elastic Compliance Matrix: (Units=1/GPa)
#
#
# Indices 1 2 3 4 5 6 
#
# 1 0.012372 -0.000059 -0.004501 0.000000 0.003524 0.000000
# 2 -0.000059 0.016042 0.000700 0.000000 0.003716 0.000000
# 3 -0.004501 0.000700 0.006670 0.000000 0.001660 0.000000
# 4 0.000000 0.000000 0.000000 -0.052611 0.000000 0.168095
# 5 0.003524 0.003716 0.001660 0.000000 0.043938 0.000000
# 6 0.000000 0.000000 0.000000 0.168095 0.000000 -0.198209
#
#
# Mechanical properties :
#
#
# Convention : Reuss Voigt Hill
#
# Bulk Modulus (GPa) = 36.54416 59.05129 47.79772
# Shear Modulus (GPa) = -32.26705 28.47422 -1.89641
#
# Velocity S-wave (km/s) = -3.99945 3.75704 -0.96959
# Velocity P-wave (km/s) = 1.79209 6.93496 4.73720
#
# Compressibility (1/GPa) = 0.02736416
#
# Stress axis : x y z
#
# Youngs Moduli (GPa) = 80.83027 62.33567 149.92108
#
# Poissons Ratio (x) = 0.00368 0.67479
# Poissons Ratio (y) = 0.00478 -0.10497
# Poissons Ratio (z) = 0.36382 -0.04365
#
# Static dielectric constant tensor:
#      x y z
#    x 1.668500 0.000000 -0.016880 
#    y 0.000000 1.786800 0.000000 
#    z -0.016880 0.000000 1.740660 
# 
# From -- ./inp_files/282570.got.cif
#   From: 2010.05.17/outbox.cif.g08.bks.cpg/sg12_142_cif.got.tgz:282570.got - 2010.06.03 13:09:07.
