data_PCOD9172974
_publ_section_title
;
Structure prediction by ZEFSAII (Michael W. Deem and Ramdas Pophale) SiO2 
 PCOD9172974
Probable space group: C 2/M
;
_chemical_formula_sum "Si O2"
_cell_formula_units_Z 56
_cell_length_a 31.041875
_cell_length_b 7.435141
_cell_length_c 11.748983
_cell_angle_alpha 90.000000
_cell_angle_beta 125.262272
_cell_angle_gamma 90.000000
_cell_volume 2214.130173
_symmetry_space_group_name_H-M "C 2/M"
_symmetry_group_IT_number 12
_symmetry_cell_setting 'monoclinic'
loop_
_space_group_symop_operation_xyz
x,y,z
-x,y,-z
-x,-y,-z
x,-y,z
1/2+x,1/2+y,z
1/2-x,1/2+y,-z
1/2-x,1/2-y,-z
1/2+x,1/2-y,z
loop_
_atom_site_type_symbol
_atom_site_label
_atom_site_fract_x
_atom_site_fract_y
_atom_site_fract_z
Si Si1 0.847656 0.218201 0.075013
Si Si2 0.784372 0.290838 0.750782
Si Si3 0.452991 0.794075 0.016269
Si Si4 0.418268 0.713333 0.543658
Si Si5 0.466174 0.700547 0.283209
Si Si6 0.314175 0.279862 0.260643
Si Si7 0.632597 0.217754 0.287098
O O1 0.907024 0.278768 0.199958
O O2 0.810315 0.272770 0.122889
O O3 0.849709 0.000000 0.071462
O O4 0.825410 0.282115 0.920196
O O5 0.773375 0.500000 0.711662
O O6 0.731012 0.212223 0.723127
O O7 0.810463 0.219569 0.673575
O O8 0.470221 0.688893 0.152541
O O9 0.441030 0.000000 0.033373
O O10 0.500000 0.802824 0.000000
O O11 0.405511 0.716511 0.871504
O O12 0.423998 0.500000 0.537736
O O13 0.476738 0.786719 0.602349
O O14 0.371266 0.778213 0.392317
O O15 0.394316 0.737224 0.634219
O O16 0.463217 0.500000 0.330093
O O17 0.312936 0.500000 0.261219
O O18 0.632619 0.000000 0.283552
#
# Coordination Sequence:
#
# PCOD9172974 Si02
#       7
#     8   8   8   8   8   8   8
#     4  10  20  35  56  81 106 133 172 221 264 304
#     4  10  20  36  58  80 103 135 175 218 263 309
#     4  10  18  30  49  73 103 139 171 207 259 309
#     4  10  21  36  53  76 108 144 175 207 254 313
#     4  10  20  31  50  80 107 133 169 213 258 306
#     4   9  20  38  56  75 104 141 178 215 257 306
#     4  10  20  33  52  79 107 136 172 214 260 310
#
# _framework density 25.292096999999998
#
# number of rings (size 3 to 8) (size 9 to 14) (size 15 to 20)
#    0.000    2.143    2.857    0.429    0.000    2.571 
#    0.000    4.286    0.000    0.000    0.000    3.000 
#    0.000    0.000    0.000    0.000    0.000    0.000 
#
# Total GULP energy -156271.820543 kJ/mol
# GULP energy per Si atom -5581.136448 kJ/mol
# Density = 2.523453 g / cm^3
# Si number density = 25.292097 Si / 1000 Ang^3
#
#
#
# Elastic Constant Matrix: (Units=GPa)
#
#
# Indices 1 2 3 4 5 6 
#
# 1 94.2500 5.0671 12.4154 0.0000 21.4958 0.0000
# 2 5.0671 85.5777 -9.0225 0.0000 -3.7568 0.0000
# 3 12.4154 -9.0225 53.2656 0.0000 14.1394 0.0000
# 4 0.0000 0.0000 0.0000 8.4312 0.0000 -0.3458
# 5 21.4958 -3.7568 14.1394 0.0000 36.4968 0.0000
# 6 0.0000 0.0000 0.0000 -0.3458 0.0000 5.6026
#
#
#
# Elastic Compliance Matrix: (Units=1/GPa)
#
#
# Indices 1 2 3 4 5 6 
#
# 1 0.012424 -0.001173 -0.001248 0.000000 -0.006954 0.000000
# 2 -0.001173 0.012016 0.002003 0.000000 0.001152 0.000000
# 3 -0.001248 0.002003 0.021350 0.000000 -0.007330 0.000000
# 4 0.000000 0.000000 0.000000 0.118908 0.000000 0.007339
# 5 -0.006954 0.001152 -0.007330 0.000000 0.034454 0.000000
# 6 0.000000 0.000000 0.000000 0.007339 0.000000 0.178940
#
#
# Mechanical properties :
#
#
# Convention : Reuss Voigt Hill
#
# Bulk Modulus (GPa) = 22.24480 27.77927 25.01203
# Shear Modulus (GPa) = 12.69317 25.08166 18.88741
#
# Velocity S-wave (km/s) = 2.24266 3.15251 2.73568
# Velocity P-wave (km/s) = 3.93958 4.92527 4.45974
#
# Compressibility (1/GPa) = 0.04495433
#
# Stress axis : x y z
#
# Youngs Moduli (GPa) = 80.49161 83.21929 46.83877
#
# Poissons Ratio (x) = 0.09758 0.05847
# Poissons Ratio (y) = 0.09438 -0.09382
# Poissons Ratio (z) = 0.10048 -0.16669
#
# Static dielectric constant tensor:
#      x y z
#    x 2.061620 0.000000 0.045630 
#    y 0.000000 2.071690 0.000000 
#    z 0.045630 0.000000 1.965460 
# 
# From -- ./inp_files/187759.got.cif
#   From: 2010.05.17/outbox.cif.g08.bks.cpg/sg12_94_cif.got.tgz:187759.got - 2010.06.03 13:09:07.
