data_PCOD9172609
_publ_section_title
;
Structure prediction by ZEFSAII (Michael W. Deem and Ramdas Pophale) SiO2 
 PCOD9172609
Probable space group: C 2/M
;
_chemical_formula_sum "Si O2"
_cell_formula_units_Z 56
_cell_length_a 30.418064
_cell_length_b 7.537463
_cell_length_c 30.605930
_cell_angle_alpha 90.000000
_cell_angle_beta 153.679171
_cell_angle_gamma 90.000000
_cell_volume 3111.395059
_symmetry_space_group_name_H-M "C 2/M"
_symmetry_group_IT_number 12
_symmetry_cell_setting 'monoclinic'
loop_
_space_group_symop_operation_xyz
x,y,z
-x,y,-z
-x,-y,-z
x,-y,z
1/2+x,1/2+y,z
1/2-x,1/2+y,-z
1/2-x,1/2-y,-z
1/2+x,1/2-y,z
loop_
_atom_site_type_symbol
_atom_site_label
_atom_site_fract_x
_atom_site_fract_y
_atom_site_fract_z
Si Si1 0.165542 0.213724 0.365485
Si Si2 0.187142 0.285097 0.715434
Si Si3 0.613053 0.212284 0.414657
Si Si4 0.641332 0.291850 0.577684
Si Si5 0.408159 0.717440 0.888621
Si Si6 0.030072 0.703975 0.640619
Si Si7 0.633793 0.704810 0.243473
O O1 0.278791 0.280020 0.473287
O O2 0.107383 0.254437 0.358045
O O3 0.120530 0.282668 0.279991
O O4 0.171385 0.000000 0.367044
O O5 0.186258 0.500000 0.715741
O O6 0.132876 0.231794 0.622146
O O7 0.301335 0.227920 0.812693
O O8 0.126902 0.217364 0.703650
O O9 0.524133 0.283600 0.365317
O O10 0.615202 0.000000 0.423201
O O11 0.643211 0.500000 0.569263
O O12 0.554174 0.207045 0.472023
O O13 0.747600 0.211097 0.659233
O O14 0.407480 0.500000 0.886987
O O15 0.412696 0.780860 0.842316
O O16 0.500000 0.773324 0.000000
O O17 0.054778 0.500000 0.673450
O O18 0.601464 0.500000 0.216545
#
# Coordination Sequence:
#
# PCOD9172609 Si02
#       7
#     8   8   8   8   8   8   8
#     4   9  16  27  41  58  81 110 143 174 206 244
#     4   9  18  30  45  60  81 114 144 170 207 256
#     4   9  17  27  40  57  81 110 143 179 204 235
#     4  11  20  27  39  61  88 114 143 177 207 239
#     4   8  14  26  46  70  87 100 131 180 220 247
#     4  10  18  30  43  57  81 117 150 170 202 250
#     4   9  16  29  46  62  85 116 144 171 209 255
#
# _framework density 17.998358
#
# number of rings (size 3 to 8) (size 9 to 14) (size 15 to 20)
#    0.000    2.714    1.429    2.571    0.000    3.429 
#    0.000    0.000    0.000    6.857    0.000    1.000 
#    0.000    0.000    0.000    0.000    0.000    0.000 
#
# Total GULP energy -156065.667041 kJ/mol
# GULP energy per Si atom -5573.773823 kJ/mol
# Density = 1.795739 g / cm^3
# Si number density = 17.998358 Si / 1000 Ang^3
#
#
#
# Elastic Constant Matrix: (Units=GPa)
#
#
# Indices 1 2 3 4 5 6 
#
# 1 181.3434 -0.4473 60.2291 -0.0001 -17.9326 -0.0001
# 2 -0.4473 52.4620 -2.7108 -0.0006 -0.7715 0.0015
# 3 60.2291 -2.7108 81.2466 -0.0001 -17.2189 0.0000
# 4 -0.0001 -0.0006 -0.0001 -8.0592 -0.0001 -7.4372
# 5 -17.9326 -0.7715 -17.2189 -0.0001 17.1763 0.0000
# 6 -0.0001 0.0015 0.0000 -7.4372 0.0000 12.2558
#
#
#
# Elastic Compliance Matrix: (Units=1/GPa)
#
#
# Indices 1 2 3 4 5 6 
#
# 1 0.007424 -0.000149 -0.004910 0.000000 0.002822 0.000000
# 2 -0.000149 0.019146 0.001141 0.000000 0.001848 -0.000002
# 3 -0.004910 0.001141 0.018933 0.000000 0.013905 0.000000
# 4 0.000000 0.000000 0.000000 -0.079540 -0.000001 -0.048267
# 5 0.002822 0.001848 0.013905 -0.000001 0.075188 0.000000
# 6 0.000000 -0.000002 0.000000 -0.048267 0.000000 0.052304
#
#
# Mechanical properties :
#
#
# Convention : Reuss Voigt Hill
#
# Bulk Modulus (GPa) = 26.54870 47.68822 37.11846
# Shear Modulus (GPa) = 43.91816 21.47331 32.69574
#
# Velocity S-wave (km/s) = 4.94512 3.45783 4.26678
# Velocity P-wave (km/s) = 6.88391 6.51886 6.70387
#
# Compressibility (1/GPa) = 0.03766663
#
# Stress axis : x y z
#
# Youngs Moduli (GPa) = 134.69935 52.22952 52.81682
#
# Poissons Ratio (x) = 0.00778 0.25935
# Poissons Ratio (y) = 0.02006 -0.06026
# Poissons Ratio (z) = 0.66143 -0.05959
#
# Static dielectric constant tensor:
#      x y z
#    x 1.667590 0.000000 -0.009230 
#    y 0.000000 1.708580 0.000000 
#    z -0.009230 0.000000 1.581460 
# 
# From -- ./inp_files/247743.got.cif
#   From: 2010.05.17/outbox.cif.g08.bks.cpg/sg12_124_cif.got.tgz:247743.got - 2010.06.03 13:09:07.
