data_PCOD9172726
_publ_section_title
;
Structure prediction by ZEFSAII (Michael W. Deem and Ramdas Pophale) SiO2 
 PCOD9172726
Probable space group: C 2/M
;
_chemical_formula_sum "Si O2"
_cell_formula_units_Z 64
_cell_length_a 25.520652
_cell_length_b 7.476494
_cell_length_c 20.491769
_cell_angle_alpha 90.000000
_cell_angle_beta 127.847507
_cell_angle_gamma 90.000000
_cell_volume 3087.464314
_symmetry_space_group_name_H-M "C 2/M"
_symmetry_group_IT_number 12
_symmetry_cell_setting 'monoclinic'
loop_
_space_group_symop_operation_xyz
x,y,z
-x,y,-z
-x,-y,-z
x,-y,z
1/2+x,1/2+y,z
1/2-x,1/2+y,-z
1/2-x,1/2-y,-z
1/2+x,1/2-y,z
loop_
_atom_site_type_symbol
_atom_site_label
_atom_site_fract_x
_atom_site_fract_y
_atom_site_fract_z
Si Si1 0.056017 0.718782 0.693237
Si Si2 0.710983 0.782612 0.200181
Si Si3 0.164187 0.282350 0.883532
Si Si4 0.685749 0.205955 0.040682
Si Si5 0.858014 0.708516 0.358489
Si Si6 0.830349 0.280626 0.689689
Si Si7 0.420654 0.203307 0.648770
Si Si8 0.687139 0.703659 0.534715
O O1 0.055680 0.500000 0.688570
O O2 0.107550 0.768101 0.789553
O O3 0.085285 0.779945 0.646266
O O4 0.983544 0.782734 0.659350
O O5 0.679918 0.716067 0.108710
O O6 0.787514 0.724003 0.266961
O O7 0.673459 0.727962 0.237609
O O8 0.712380 0.000000 0.199502
O O9 0.168609 0.500000 0.887715
O O10 0.235415 0.212768 0.914314
O O11 0.153299 0.219566 0.949793
O O12 0.663906 0.000000 0.028350
O O13 0.870972 0.500000 0.381476
O O14 0.847392 0.795627 0.420567
O O15 0.829613 0.500000 0.687677
O O16 0.891920 0.217177 0.693643
O O17 0.760884 0.222954 0.603456
O O18 0.358917 0.199798 0.552108
O O19 0.440667 0.000000 0.680162
O O20 0.693480 0.500000 0.516768
#
# Coordination Sequence:
#
# PCOD9172726 Si02
#       8
#     8   8   8   8   8   8   8   8
#     4   9  18  30  46  66  93 122 153 187 218 262
#     4   9  16  28  45  70  96 118 146 187 231 267
#     4   9  16  28  43  65  95 123 150 182 217 261
#     4   9  16  25  44  69  94 121 148 181 224 265
#     4  10  18  30  47  68  91 121 151 182 222 271
#     4   8  16  30  49  67  88 115 149 190 228 265
#     4  10  19  33  50  66  84 120 160 187 221 268
#     4  10  20  34  49  69  92 113 143 194 239 269
#
# _framework density 20.728985999999999
#
# number of rings (size 3 to 8) (size 9 to 14) (size 15 to 20)
#    0.000    2.750    1.250    1.875    0.000    0.500 
#    0.000    6.875    0.000    0.750    0.000    5.250 
#    0.000    0.000    0.000   11.875    0.000   12.750 
#
# Total GULP energy -178483.421362 kJ/mol
# GULP energy per Si atom -5577.606918 kJ/mol
# Density = 2.068181 g / cm^3
# Si number density = 20.728986 Si / 1000 Ang^3
#
#
#
# Elastic Constant Matrix: (Units=GPa)
#
#
# Indices 1 2 3 4 5 6 
#
# 1 143.1489 -1.8393 16.1832 0.0000 -22.9636 0.0000
# 2 -1.8393 62.9853 -6.6726 0.0002 1.6206 -0.0005
# 3 16.1832 -6.6726 32.2250 0.0000 -20.3595 0.0000
# 4 0.0000 0.0002 0.0000 10.1727 0.0000 0.8602
# 5 -22.9636 1.6206 -20.3595 0.0000 21.0467 0.0000
# 6 0.0000 -0.0005 0.0000 0.8602 0.0000 7.0915
#
#
#
# Elastic Compliance Matrix: (Units=1/GPa)
#
#
# Indices 1 2 3 4 5 6 
#
# 1 0.008689 0.000361 0.004329 0.000000 0.013641 0.000000
# 2 0.000361 0.016468 0.006883 0.000000 0.005785 0.000001
# 3 0.004329 0.006883 0.084695 0.000000 0.086124 0.000001
# 4 0.000000 0.000000 0.000000 0.099321 0.000000 -0.012047
# 5 0.013641 0.005785 0.086124 0.000000 0.145263 0.000000
# 6 0.000000 0.000001 0.000001 -0.012047 0.000000 0.142476
#
#
# Mechanical properties :
#
#
# Convention : Reuss Voigt Hill
#
# Bulk Modulus (GPa) = 7.51882 28.18907 17.85395
# Shear Modulus (GPa) = 9.65069 23.04135 16.34602
#
# Velocity S-wave (km/s) = 2.16004 3.33761 2.81117
# Velocity P-wave (km/s) = 3.13944 5.33678 4.37820
#
# Compressibility (1/GPa) = 0.13299952
#
# Stress axis : x y z
#
# Youngs Moduli (GPa) = 115.08608 60.72519 11.80703
#
# Poissons Ratio (x) = -0.02195 -0.05112
# Poissons Ratio (y) = -0.04159 -0.08127
# Poissons Ratio (z) = -0.49824 -0.41797
#
# Static dielectric constant tensor:
#      x y z
#    x 1.755280 0.000000 -0.039810 
#    y 0.000000 1.774360 0.000000 
#    z -0.039810 0.000000 1.724580 
# 
# From -- ./inp_files/326971.got.cif
#   From: 2010.05.17/outbox.cif.g08.bks.cpg/sg12_164_cif.got.tgz:326971.got - 2010.06.03 13:09:07.
