data_PCOD9172675
_publ_section_title
;
Structure prediction by ZEFSAII (Michael W. Deem and Ramdas Pophale) SiO2 
 PCOD9172675
Probable space group: C 2/M
;
_chemical_formula_sum "Si O2"
_cell_formula_units_Z 56
_cell_length_a 20.029340
_cell_length_b 7.495720
_cell_length_c 29.411555
_cell_angle_alpha 90.000000
_cell_angle_beta 39.451157
_cell_angle_gamma 90.000000
_cell_volume 2805.814779
_symmetry_space_group_name_H-M "C 2/M"
_symmetry_group_IT_number 12
_symmetry_cell_setting 'monoclinic'
loop_
_space_group_symop_operation_xyz
x,y,z
-x,y,-z
-x,-y,-z
x,-y,z
1/2+x,1/2+y,z
1/2-x,1/2+y,-z
1/2-x,1/2-y,-z
1/2+x,1/2-y,z
loop_
_atom_site_type_symbol
_atom_site_label
_atom_site_fract_x
_atom_site_fract_y
_atom_site_fract_z
Si Si1 0.403632 0.785804 0.948912
Si Si2 0.968637 0.713864 0.741182
Si Si3 0.131792 0.716924 0.814990
Si Si4 0.687726 0.787260 0.099736
Si Si5 0.863655 0.787110 0.702995
Si Si6 0.099059 0.218256 0.418700
Si Si7 0.333147 0.216736 0.308564
O O1 0.522297 0.720810 0.894193
O O2 0.361631 0.718387 0.921838
O O3 0.408737 0.000000 0.943206
O O4 0.312128 0.745573 0.032843
O O5 0.971286 0.500000 0.744198
O O6 0.876751 0.781290 0.823233
O O7 0.939608 0.751405 0.704790
O O8 0.080391 0.780298 0.701153
O O9 0.131817 0.500000 0.817750
O O10 0.244363 0.779837 0.774500
O O11 0.131801 0.762967 0.761255
O O12 0.673616 0.000000 0.106206
O O13 0.902425 0.723462 0.633269
O O14 0.854849 0.000000 0.703230
O O15 0.212859 0.274188 0.378121
O O16 0.000000 0.279081 0.500000
O O17 0.097427 0.000000 0.419963
O O18 0.331985 0.000000 0.310414
#
# Coordination Sequence:
#
# PCOD9172675 Si02
#       7
#     8   8   8   8   8   8   8
#     4   9  15  26  45  65  83 108 150 196 228 255
#     4  10  18  30  46  65  92 124 152 178 217 273
#     4   8  13  26  46  65  83 112 155 193 220 254
#     4   9  17  27  41  63  89 115 145 185 228 265
#     4   9  18  30  47  69  93 117 145 186 227 261
#     4   8  14  27  49  74  93 112 146 189 223 253
#     4   8  13  24  45  67  86 116 155 184 210 258
#
# _framework density 19.958552999999998
#
# number of rings (size 3 to 8) (size 9 to 14) (size 15 to 20)
#    0.000    3.286    1.429    1.714    0.000    0.571 
#    0.000    2.143    0.000    8.143    0.000    0.000 
#    0.000    0.000    0.000    0.000    0.000    0.000 
#
# Total GULP energy -156046.521507 kJ/mol
# GULP energy per Si atom -5573.090054 kJ/mol
# Density = 1.991313 g / cm^3
# Si number density = 19.958553 Si / 1000 Ang^3
#
#
#
# Elastic Constant Matrix: (Units=GPa)
#
#
# Indices 1 2 3 4 5 6 
#
# 1 134.0631 -0.9058 76.3878 0.0013 -17.8366 0.0048
# 2 -0.9058 51.1468 4.3649 0.0051 0.0752 0.0217
# 3 76.3878 4.3649 166.1726 -0.0001 -22.5051 0.0008
# 4 0.0013 0.0051 -0.0001 5.0237 -0.0012 2.1871
# 5 -17.8366 0.0752 -22.5051 -0.0012 19.6308 0.0012
# 6 0.0048 0.0217 0.0008 2.1871 0.0012 15.1654
#
#
#
# Elastic Compliance Matrix: (Units=1/GPa)
#
#
# Indices 1 2 3 4 5 6 
#
# 1 0.010479 0.000536 -0.004193 0.000000 0.004712 -0.000004
# 2 0.000536 0.019633 -0.000836 -0.000009 -0.000547 -0.000027
# 3 -0.004193 -0.000836 0.008821 0.000003 0.006306 0.000001
# 4 0.000000 -0.000009 0.000003 0.212393 0.000019 -0.030630
# 5 0.004712 -0.000547 0.006306 0.000019 0.062454 -0.000009
# 6 -0.000004 -0.000027 0.000001 -0.030630 -0.000009 0.070357
#
#
# Mechanical properties :
#
#
# Convention : Reuss Voigt Hill
#
# Bulk Modulus (GPa) = 33.39139 56.78627 45.08883
# Shear Modulus (GPa) = 12.40368 26.06633 19.23501
#
# Velocity S-wave (km/s) = 2.49564 3.61781 3.10780
# Velocity P-wave (km/s) = 5.00709 6.77977 5.95971
#
# Compressibility (1/GPa) = 0.02994784
#
# Stress axis : x y z
#
# Youngs Moduli (GPa) = 95.43064 50.93396 113.36134
#
# Poissons Ratio (x) = -0.02733 0.47531
# Poissons Ratio (y) = -0.05120 0.09481
# Poissons Ratio (z) = 0.40013 0.04260
#
# Static dielectric constant tensor:
#      x y z
#    x 1.698100 0.000000 -0.026070 
#    y 0.000000 1.833560 0.000000 
#    z -0.026070 0.000000 1.707680 
# 
# From -- ./inp_files/342343.got.cif
#   From: 2010.05.17/outbox.cif.g08.bks.cpg/sg12_172_cif.got.tgz:342343.got - 2010.06.03 13:09:07.
