data_PCOD9172654
_publ_section_title
;
Structure prediction by ZEFSAII (Michael W. Deem and Ramdas Pophale) SiO2 
 PCOD9172654
Probable space group: C 2/M
;
_chemical_formula_sum "Si O2"
_cell_formula_units_Z 40
_cell_length_a 33.873659
_cell_length_b 15.558641
_cell_length_c 5.094859
_cell_angle_alpha 90.000000
_cell_angle_beta 118.653003
_cell_angle_gamma 90.000000
_cell_volume 2356.311756
_symmetry_space_group_name_H-M "C 2/M"
_symmetry_group_IT_number 12
_symmetry_cell_setting 'monoclinic'
loop_
_space_group_symop_operation_xyz
x,y,z
-x,y,-z
-x,-y,-z
x,-y,z
1/2+x,1/2+y,z
1/2-x,1/2+y,-z
1/2-x,1/2-y,-z
1/2+x,1/2-y,z
loop_
_atom_site_type_symbol
_atom_site_label
_atom_site_fract_x
_atom_site_fract_y
_atom_site_fract_z
Si Si1 0.892216 0.896857 0.601168
Si Si2 0.233961 0.500000 0.170741
Si Si3 0.224315 0.688347 0.127651
Si Si4 0.317380 0.328880 0.717473
Si Si5 0.949650 0.897383 0.298709
Si Si6 0.293951 0.500000 0.874343
O O1 0.850453 0.842466 0.580244
O O2 0.913883 0.865553 0.399302
O O3 0.881363 0.000000 0.557599
O O4 0.930576 0.886648 0.947135
O O5 0.210546 0.590344 0.018330
O O6 0.252225 0.500000 0.530642
O O7 0.277106 0.500000 0.116139
O O8 0.265642 0.670811 0.457443
O O9 0.183112 0.741492 0.119083
O O10 0.250000 0.750000 0.000000
O O11 0.322004 0.414590 0.905593
O O12 0.000000 0.863176 0.500000
O O13 0.951830 0.000000 0.356205
#
# Coordination Sequence:
#
# PCOD9172654 Si02
#       6
#     8   4   8   8   8   4
#     4  10  19  29  47  68  90 123 159 197 226 265
#     4  10  20  32  46  62  82 122 160 191 239 278
#     4  10  20  32  47  62  93 126 159 204 242 275
#     4  10  20  31  44  70  91 122 162 201 238 266
#     4   9  18  31  45  65  93 124 155 186 231 282
#     4  10  18  30  46  62  89 114 154 204 224 265
#
# _framework density 16.975684000000001
#
# number of rings (size 3 to 8) (size 9 to 14) (size 15 to 20)
#    0.000    2.200    3.000    0.600    2.800    2.400 
#    0.000    0.000    0.000    0.000    0.000    0.000 
#    0.000    0.000    0.000    5.400    0.000    0.700 
#
# Total GULP energy -111415.893349 kJ/mol
# GULP energy per Si atom -5570.794667 kJ/mol
# Density = 1.693705 g / cm^3
# Si number density = 16.975684 Si / 1000 Ang^3
#
#
#
# Elastic Constant Matrix: (Units=GPa)
#
#
# Indices 1 2 3 4 5 6 
#
# 1 53.7240 18.6351 8.0057 0.0000 3.2448 0.0000
# 2 18.6351 110.2923 7.6037 0.0000 -0.9492 0.0000
# 3 8.0057 7.6037 38.0807 0.0000 -1.8543 0.0000
# 4 0.0000 0.0000 0.0000 8.6006 0.0000 -6.5733
# 5 3.2448 -0.9492 -1.8543 0.0000 19.3735 0.0000
# 6 0.0000 0.0000 0.0000 -6.5733 0.0000 20.5685
#
#
#
# Elastic Compliance Matrix: (Units=1/GPa)
#
#
# Indices 1 2 3 4 5 6 
#
# 1 0.020554 -0.003240 -0.003867 0.000000 -0.003971 0.000000
# 2 -0.003240 0.009706 -0.001213 0.000000 0.000902 0.000000
# 3 -0.003867 -0.001213 0.027472 0.000000 0.003218 0.000000
# 4 0.000000 0.000000 0.000000 0.153849 0.000000 0.049167
# 5 -0.003971 0.000902 0.003218 0.000000 0.052634 0.000000
# 6 0.000000 0.000000 0.000000 0.049167 0.000000 0.064331
#
#
# Mechanical properties :
#
#
# Convention : Reuss Voigt Hill
#
# Bulk Modulus (GPa) = 24.33665 30.06510 27.20087
# Shear Modulus (GPa) = 13.93211 20.89869 17.41540
#
# Velocity S-wave (km/s) = 2.86791 3.51250 3.20645
# Velocity P-wave (km/s) = 5.03328 5.84802 5.45588
#
# Compressibility (1/GPa) = 0.04109029
#
# Stress axis : x y z
#
# Youngs Moduli (GPa) = 48.65284 103.03244 36.40084
#
# Poissons Ratio (x) = 0.33386 0.14078
# Poissons Ratio (y) = 0.15765 0.04415
# Poissons Ratio (z) = 0.18816 0.12496
#
# Static dielectric constant tensor:
#      x y z
#    x 1.594550 0.000000 -0.019070 
#    y 0.000000 1.672780 0.000000 
#    z -0.019070 0.000000 1.674900 
# 
# From -- ./inp_files/20216.got.cif
#   From: 2010.05.17/outbox.cif.g08.bks.cpg/sg12_11_cif.got.tgz:20216.got - 2010.06.03 13:09:07.
