data_PCOD9172917
_publ_section_title
;
Structure prediction by ZEFSAII (Michael W. Deem and Ramdas Pophale) SiO2 
 PCOD9172917
Probable space group: C 2/M
;
_chemical_formula_sum "Si O2"
_cell_formula_units_Z 32
_cell_length_a 30.517268
_cell_length_b 5.615649
_cell_length_c 6.959929
_cell_angle_alpha 90.000000
_cell_angle_beta 110.638942
_cell_angle_gamma 90.000000
_cell_volume 1116.202071
_symmetry_space_group_name_H-M "C 2/M"
_symmetry_group_IT_number 12
_symmetry_cell_setting 'monoclinic'
loop_
_space_group_symop_operation_xyz
x,y,z
-x,y,-z
-x,-y,-z
x,-y,z
1/2+x,1/2+y,z
1/2-x,1/2+y,-z
1/2-x,1/2-y,-z
1/2+x,1/2-y,z
loop_
_atom_site_type_symbol
_atom_site_label
_atom_site_fract_x
_atom_site_fract_y
_atom_site_fract_z
Si Si1 0.521543 0.000000 0.249949
Si Si2 0.090254 0.000000 0.730377
Si Si3 0.814545 0.000000 0.256534
Si Si4 0.084003 0.500000 0.893822
Si Si5 0.848934 0.500000 0.696457
Si Si6 0.298631 0.500000 0.665438
Si Si7 0.204499 0.500000 0.766770
Si Si8 0.013129 0.000000 0.250875
O O1 0.541330 0.742198 0.331429
O O2 0.500000 0.000000 0.000000
O O3 0.469314 0.000000 0.263440
O O4 0.129383 0.000000 0.622906
O O5 0.034342 0.000000 0.697429
O O6 0.103226 0.251076 0.849686
O O7 0.788696 0.000000 0.421032
O O8 0.799953 0.247201 0.135597
O O9 0.097564 0.500000 0.141985
O O10 0.826144 0.250814 0.732918
O O11 0.838785 0.500000 0.453886
O O12 0.251061 0.500000 0.710189
O O13 0.000000 0.000000 0.000000
#
# Coordination Sequence:
#
# PCOD9172917 Si02
#       8
#     4   4   4   4   4   4   4   4
#     4   8  14  25  41  61  88 117 148 176 206 261
#     4  10  19  30  45  68 100 125 144 184 232 279
#     4  10  18  30  49  70  90 116 155 196 233 267
#     4  10  19  30  45  68 100 125 144 184 232 279
#     4  10  18  30  49  70  90 116 155 196 233 267
#     4  10  19  33  53  67  83 116 161 206 231 264
#     4  10  19  33  53  67  83 116 161 206 231 264
#     4   8  14  25  41  61  88 117 148 176 206 261
#
# _framework density 28.668645999999999
#
# number of rings (size 3 to 8) (size 9 to 14) (size 15 to 20)
#    0.000    2.500    0.000    5.250    0.000    0.000 
#    0.000    0.000    0.000   25.500    0.000    0.000 
#    0.000  384.000    0.000    0.000    0.000    0.000 
#
# Total GULP energy -89286.959147 kJ/mol
# GULP energy per Si atom -5580.434947 kJ/mol
# Density = 2.860339 g / cm^3
# Si number density = 28.668646 Si / 1000 Ang^3
#
#
#
# Elastic Constant Matrix: (Units=GPa)
#
#
# Indices 1 2 3 4 5 6 
#
# 1 99.4294 42.1064 28.7797 0.0000 9.1145 0.0000
# 2 42.1064 363.1423 2.7945 0.0000 -9.7575 0.0000
# 3 28.7797 2.7945 86.2093 0.0000 3.3668 0.0000
# 4 0.0000 0.0000 0.0000 -0.6192 0.0000 3.7262
# 5 9.1145 -9.7575 3.3668 0.0000 49.1942 0.0000
# 6 0.0000 0.0000 0.0000 3.7262 0.0000 97.3298
#
#
#
# Elastic Compliance Matrix: (Units=1/GPa)
#
#
# Indices 1 2 3 4 5 6 
#
# 1 0.011983 -0.001420 -0.003867 0.000000 -0.002237 0.000000
# 2 -0.001420 0.002938 0.000347 0.000000 0.000822 0.000000
# 3 -0.003867 0.000347 0.012883 0.000000 -0.000096 0.000000
# 4 0.000000 0.000000 0.000000 -1.312514 0.000000 0.050249
# 5 -0.002237 0.000822 -0.000096 0.000000 0.020912 0.000000
# 6 0.000000 0.000000 0.000000 0.050249 0.000000 0.008351
#
#
# Mechanical properties :
#
#
# Convention : Reuss Voigt Hill
#
# Bulk Modulus (GPa) = 55.79199 77.34914 66.57056
# Shear Modulus (GPa) = -4.03358 60.85433 28.41037
#
# Velocity S-wave (km/s) = -1.18744 4.61225 3.15142
# Velocity P-wave (km/s) = 4.19800 7.44331 6.04260
#
# Compressibility (1/GPa) = 0.01792372
#
# Stress axis : x y z
#
# Youngs Moduli (GPa) = 83.45160 340.39242 77.62089
#
# Poissons Ratio (x) = 0.48328 0.30016
# Poissons Ratio (y) = 0.11848 -0.02691
# Poissons Ratio (z) = 0.32270 -0.11799
#
# Static dielectric constant tensor:
#      x y z
#    x 2.051710 0.000000 -0.089290 
#    y 0.000000 2.201460 0.000000 
#    z -0.089290 0.000000 2.230200 
# 
# From -- ./inp_files/107174.got.cif
#   From: 2010.05.17/outbox.cif.g08.bks.cpg/sg12_54_cif.got.tgz:107174.got - 2010.06.03 13:09:07.
