data_PCOD9172345
_publ_section_title
;
Structure prediction by ZEFSAII (Michael W. Deem and Ramdas Pophale) SiO2 
 PCOD9172345
Probable space group: C 2/M
;
_chemical_formula_sum "Si O2"
_cell_formula_units_Z 64
_cell_length_a 27.542604
_cell_length_b 19.182490
_cell_length_c 17.641268
_cell_angle_alpha 90.000000
_cell_angle_beta 159.005052
_cell_angle_gamma 90.000000
_cell_volume 3339.405567
_symmetry_space_group_name_H-M "C 2/M"
_symmetry_group_IT_number 12
_symmetry_cell_setting 'monoclinic'
loop_
_space_group_symop_operation_xyz
x,y,z
-x,y,-z
-x,-y,-z
x,-y,z
1/2+x,1/2+y,z
1/2-x,1/2+y,-z
1/2-x,1/2-y,-z
1/2+x,1/2-y,z
loop_
_atom_site_type_symbol
_atom_site_label
_atom_site_fract_x
_atom_site_fract_y
_atom_site_fract_z
Si Si1 0.849938 0.083222 0.246939
Si Si2 0.176928 0.080446 0.203006
Si Si3 0.478436 0.415479 0.782530
Si Si4 0.877125 0.826443 0.136020
Si Si5 0.424181 0.920271 0.090427
Si Si6 0.581277 0.218019 0.687726
Si Si7 0.711542 0.914957 0.474174
Si Si8 0.476944 0.074949 0.590366
O O1 0.838710 0.123706 0.151184
O O2 0.000000 0.090918 0.500000
O O3 0.828376 0.000000 0.203148
O O4 0.728321 0.108758 0.125173
O O5 0.220349 0.110989 0.347587
O O6 0.314881 0.079859 0.355671
O O7 0.140578 0.000000 0.166223
O O8 0.058435 0.106500 0.975996
O O9 0.496935 0.500000 0.799466
O O10 0.541622 0.371589 0.806109
O O11 0.319451 0.401747 0.565456
O O12 0.952136 0.762347 0.286245
O O13 0.741258 0.789593 0.906701
O O14 0.556225 0.889035 0.240878
O O15 0.474428 0.922495 0.251298
O O16 0.408850 0.000000 0.040058
O O17 0.500000 0.249859 0.500000
O O18 0.534998 0.139601 0.632143
O O19 0.700841 0.000000 0.465858
O O20 0.520024 0.000000 0.622315
#
# Coordination Sequence:
#
# PCOD9172345 Si02
#       8
#     8   8   8   8   8   8   8   8
#     4  10  19  33  55  79 105 140 183 227 264 303
#     4   8  14  25  46  79 109 137 172 209 261 322
#     4  10  18  29  48  76 111 145 176 219 267 309
#     4  11  23  36  50  74 108 139 182 222 266 320
#     4   8  14  27  48  75 103 132 170 212 257 308
#     4  11  23  37  52  72 103 146 178 214 274 324
#     4   8  14  25  46  76 111 143 171 212 266 322
#     4   9  16  29  51  77 103 129 164 212 262 315
#
# _framework density 19.165087
#
# number of rings (size 3 to 8) (size 9 to 14) (size 15 to 20)
#    0.000    2.625    1.250    3.375    0.000    2.250 
#    0.000    0.000    0.000    3.750    0.000    4.375 
#    0.000    0.000    0.000    0.000    0.000    1.000 
#
# Total GULP energy -178163.338987 kJ/mol
# GULP energy per Si atom -5567.604343 kJ/mol
# Density = 1.912147 g / cm^3
# Si number density = 19.165087 Si / 1000 Ang^3
#
#
#
# Elastic Constant Matrix: (Units=GPa)
#
#
# Indices 1 2 3 4 5 6 
#
# 1 68.0120 20.1959 41.9081 0.0000 20.8724 0.0000
# 2 20.1959 56.7651 9.7073 0.0000 4.5044 0.0000
# 3 41.9081 9.7073 125.0821 0.0000 22.9288 0.0000
# 4 0.0000 0.0000 0.0000 -18.4613 0.0000 -7.1228
# 5 20.8724 4.5044 22.9288 0.0000 22.1427 0.0000
# 6 0.0000 0.0000 0.0000 -7.1228 0.0000 14.5369
#
#
#
# Elastic Compliance Matrix: (Units=1/GPa)
#
#
# Indices 1 2 3 4 5 6 
#
# 1 0.024840 -0.006675 -0.004642 0.000000 -0.017250 0.000000
# 2 -0.006675 0.019780 0.000352 0.000000 0.001903 0.000000
# 3 -0.004642 0.000352 0.010780 0.000000 -0.006858 0.000000
# 4 0.000000 0.000000 0.000000 -0.045555 0.000000 -0.022321
# 5 -0.017250 0.001903 -0.006858 0.000000 0.068136 0.000000
# 6 0.000000 0.000000 0.000000 -0.022321 0.000000 0.057853
#
#
# Mechanical properties :
#
#
# Convention : Reuss Voigt Hill
#
# Bulk Modulus (GPa) = 29.87738 43.72019 36.79878
# Shear Modulus (GPa) = 29.59972 15.51352 22.55662
#
# Velocity S-wave (km/s) = 3.93423 2.84820 3.43441
# Velocity P-wave (km/s) = 6.02170 5.80330 5.91351
#
# Compressibility (1/GPa) = 0.03347014
#
# Stress axis : x y z
#
# Youngs Moduli (GPa) = 40.25806 50.55628 92.76445
#
# Poissons Ratio (x) = 0.33745 0.43065
# Poissons Ratio (y) = 0.26871 -0.03269
# Poissons Ratio (z) = 0.18689 -0.01782
#
# Static dielectric constant tensor:
#      x y z
#    x 1.671410 0.000000 0.016190 
#    y 0.000000 1.674400 0.000000 
#    z 0.016190 0.000000 1.740080 
# 
# From -- ./inp_files/294177.got.cif
#   From: 2010.05.17/outbox.cif.g08.bks.cpg/sg12_148_cif.got.tgz:294177.got - 2010.06.03 13:09:07.
