data_PCOD9172048
_publ_section_title
;
Structure prediction by ZEFSAII (Michael W. Deem and Ramdas Pophale) SiO2 
 PCOD9172048
Probable space group: C 2/M
;
_chemical_formula_sum "Si O2"
_cell_formula_units_Z 48
_cell_length_a 29.520386
_cell_length_b 8.765056
_cell_length_c 12.518393
_cell_angle_alpha 90.000000
_cell_angle_beta 70.014340
_cell_angle_gamma 90.000000
_cell_volume 3044.042219
_symmetry_space_group_name_H-M "C 2/M"
_symmetry_group_IT_number 12
_symmetry_cell_setting 'monoclinic'
loop_
_space_group_symop_operation_xyz
x,y,z
-x,y,-z
-x,-y,-z
x,-y,z
1/2+x,1/2+y,z
1/2-x,1/2+y,-z
1/2-x,1/2-y,-z
1/2+x,1/2-y,z
loop_
_atom_site_type_symbol
_atom_site_label
_atom_site_fract_x
_atom_site_fract_y
_atom_site_fract_z
Si Si1 0.495801 0.183375 0.340277
Si Si2 0.366101 0.316635 0.965841
Si Si3 0.236941 0.182475 0.894406
Si Si4 0.926049 0.183392 0.558362
Si Si5 0.168233 0.183205 0.245913
Si Si6 0.470233 0.816124 0.921192
O O1 0.538990 0.253490 0.376501
O O2 0.447103 0.246597 0.432881
O O3 0.504210 0.227447 0.210867
O O4 0.497064 0.000000 0.348759
O O5 0.370923 0.500000 0.962484
O O6 0.353465 0.271785 0.853182
O O7 0.415788 0.244008 0.962198
O O8 0.319209 0.275541 0.074819
O O9 0.278932 0.245115 0.784863
O O10 0.239710 0.000000 0.896598
O O11 0.250000 0.250000 0.000000
O O12 0.871557 0.224687 0.634077
O O13 0.930067 0.000000 0.552761
O O14 0.173207 0.000000 0.239883
O O15 0.468654 0.000000 0.925281
O O16 0.500000 0.762124 0.000000
#
# Coordination Sequence:
#
# PCOD9172048 Si02
#       6
#     8   8   8   8   8   8
#     4  10  19  30  44  65  90 118 155 189 224 272
#     4   9  17  30  44  63  90 119 152 186 223 267
#     4   9  17  27  41  63  91 119 149 182 221 271
#     4  10  18  29  46  66  93 122 148 183 227 273
#     4   9  17  28  43  66  93 120 149 179 221 276
#     4  10  21  34  47  65  90 122 158 193 227 265
#
# _framework density 15.768508000000001
#
# number of rings (size 3 to 8) (size 9 to 14) (size 15 to 20)
#    0.000    2.500    1.667    3.500    0.000    5.667 
#    0.000    0.000    0.000    0.000    0.000    1.167 
#    0.000    0.000    0.000    0.000    0.000    0.000 
#
# Total GULP energy -133694.097741 kJ/mol
# GULP energy per Si atom -5570.587406 kJ/mol
# Density = 1.573262 g / cm^3
# Si number density = 15.768508 Si / 1000 Ang^3
#
#
#
# Elastic Constant Matrix: (Units=GPa)
#
#
# Indices 1 2 3 4 5 6 
#
# 1 106.0292 30.1501 78.9029 0.0000 -30.0194 0.0000
# 2 30.1501 29.2149 33.8258 0.0000 -12.5656 0.0000
# 3 78.9029 33.8258 107.7401 0.0000 -30.0359 0.0000
# 4 0.0000 0.0000 0.0000 13.2868 0.0000 -11.2834
# 5 -30.0194 -12.5656 -30.0359 0.0000 35.2256 0.0000
# 6 0.0000 0.0000 0.0000 -11.2834 0.0000 24.4663
#
#
#
# Elastic Compliance Matrix: (Units=1/GPa)
#
#
# Indices 1 2 3 4 5 6 
#
# 1 0.022338 -0.005442 -0.012967 0.000000 0.006039 0.000000
# 2 -0.005442 0.056184 -0.012278 0.000000 0.004935 0.000000
# 3 -0.012967 -0.012278 0.024047 0.000000 0.005074 0.000000
# 4 0.000000 0.000000 0.000000 0.123716 0.000000 0.057056
# 5 0.006039 0.004935 0.005074 0.000000 0.039621 0.000000
# 6 0.000000 0.000000 0.000000 0.057056 0.000000 0.067186
#
#
# Mechanical properties :
#
#
# Convention : Reuss Voigt Hill
#
# Bulk Modulus (GPa) = 24.27504 58.74909 41.51206
# Shear Modulus (GPa) = 12.24892 21.26942 16.75917
#
# Velocity S-wave (km/s) = 2.79013 3.67666 3.26364
# Velocity P-wave (km/s) = 5.08014 7.44056 6.37062
#
# Compressibility (1/GPa) = 0.04119458
#
# Stress axis : x y z
#
# Youngs Moduli (GPa) = 44.76598 17.79869 41.58444
#
# Poissons Ratio (x) = 0.09687 0.53924
# Poissons Ratio (y) = 0.24363 0.51057
# Poissons Ratio (z) = 0.58049 0.21853
#
# Static dielectric constant tensor:
#      x y z
#    x 1.520270 0.000000 -0.040970 
#    y 0.000000 1.530380 0.000000 
#    z -0.040970 0.000000 1.544340 
# 
# From -- ./inp_files/179314.got.cif
#   From: 2010.05.17/outbox.cif.g08.bks.cpg/sg12_90_cif.got.tgz:179314.got - 2010.06.03 13:09:07.
