data_PCOD9172684
_publ_section_title
;
Structure prediction by ZEFSAII (Michael W. Deem and Ramdas Pophale) SiO2 
 PCOD9172684
Probable space group: C 2/M
;
_chemical_formula_sum "Si O2"
_cell_formula_units_Z 56
_cell_length_a 5.423826
_cell_length_b 25.743134
_cell_length_c 19.223911
_cell_angle_alpha 90.000000
_cell_angle_beta 101.909631
_cell_angle_gamma 90.000000
_cell_volume 2626.384706
_symmetry_space_group_name_H-M "C 2/M"
_symmetry_group_IT_number 12
_symmetry_cell_setting 'monoclinic'
loop_
_space_group_symop_operation_xyz
x,y,z
-x,y,-z
-x,-y,-z
x,-y,z
1/2+x,1/2+y,z
1/2-x,1/2+y,-z
1/2-x,1/2-y,-z
1/2+x,1/2-y,z
loop_
_atom_site_type_symbol
_atom_site_label
_atom_site_fract_x
_atom_site_fract_y
_atom_site_fract_z
Si Si1 0.697690 0.894782 0.108027
Si Si2 0.145299 0.716573 0.735308
Si Si3 0.671052 0.561884 0.731268
Si Si4 0.060951 0.721822 0.085905
Si Si5 0.984799 0.281863 0.571704
Si Si6 0.681927 0.898922 0.744960
Si Si7 0.811540 0.059866 0.902854
O O1 0.766978 0.921125 0.185649
O O2 0.657279 0.833965 0.115054
O O3 0.430628 0.918664 0.071742
O O4 0.934544 0.907498 0.073796
O O5 0.395844 0.752630 0.747111
O O6 0.080968 0.699087 0.651845
O O7 0.196503 0.660511 0.771707
O O8 0.663028 0.500000 0.724872
O O9 0.400500 0.587715 0.703373
O O10 0.903916 0.586377 0.703467
O O11 0.300035 0.760314 0.105999
O O12 0.000000 0.718072 0.000000
O O13 0.198187 0.237368 0.567833
O O14 0.000000 0.313496 0.500000
O O15 0.736579 0.934132 0.816528
O O16 0.857782 0.000000 0.920498
#
# Coordination Sequence:
#
# PCOD9172684 Si02
#       7
#     8   8   8   8   8   8   8
#     4  10  18  32  53  73  90 120 155 186 223 264
#     4  10  19  30  42  62  96 127 150 184 224 265
#     4  10  19  33  50  68  92 118 151 193 229 265
#     4  10  21  37  54  72  96 124 153 185 219 261
#     4   8  14  25  41  58  79 114 154 186 220 261
#     4  10  18  30  46  67  91 124 155 180 226 274
#     4  10  19  33  51  70  94 120 151 191 229 267
#
# _framework density 21.322085999999999
#
# number of rings (size 3 to 8) (size 9 to 14) (size 15 to 20)
#    0.000    2.286    0.000    6.000    0.000    0.000 
#    0.000   17.143    0.000    4.714    0.000    0.000 
#    0.000    6.286    0.000    0.000    0.000    0.000 
#
# Total GULP energy -156269.499514 kJ/mol
# GULP energy per Si atom -5581.053554 kJ/mol
# Density = 2.127356 g / cm^3
# Si number density = 21.322086 Si / 1000 Ang^3
#
#
#
# Elastic Constant Matrix: (Units=GPa)
#
#
# Indices 1 2 3 4 5 6 
#
# 1 204.1261 57.2387 -2.8702 0.0000 8.7025 0.0000
# 2 57.2387 145.2575 -13.1246 0.0000 -0.3153 0.0000
# 3 -2.8702 -13.1246 40.3636 0.0000 3.1929 0.0000
# 4 0.0000 0.0000 0.0000 7.1565 0.0000 3.1774
# 5 8.7025 -0.3153 3.1929 0.0000 16.4641 0.0000
# 6 0.0000 0.0000 0.0000 3.1774 0.0000 37.5182
#
#
#
# Elastic Compliance Matrix: (Units=1/GPa)
#
#
# Indices 1 2 3 4 5 6 
#
# 1 0.005655 -0.002243 -0.000089 0.000000 -0.003015 0.000000
# 2 -0.002243 0.007984 0.002367 0.000000 0.000879 0.000000
# 3 -0.000089 0.002367 0.025929 0.000000 -0.004936 0.000000
# 4 0.000000 0.000000 0.000000 0.145193 0.000000 -0.012297
# 5 -0.003015 0.000879 -0.004936 0.000000 0.063306 0.000000
# 6 0.000000 0.000000 0.000000 -0.012297 0.000000 0.027695
#
#
# Mechanical properties :
#
#
# Convention : Reuss Voigt Hill
#
# Bulk Modulus (GPa) = 25.22807 52.47055 38.84931
# Shear Modulus (GPa) = 17.30675 35.46128 26.38402
#
# Velocity S-wave (km/s) = 2.85209 4.08257 3.52149
# Velocity P-wave (km/s) = 4.76482 6.84727 5.89867
#
# Compressibility (1/GPa) = 0.03963838
#
# Stress axis : x y z
#
# Youngs Moduli (GPa) = 176.82923 125.25128 38.56741
#
# Poissons Ratio (x) = 0.28094 0.00342
# Poissons Ratio (y) = 0.39662 -0.09129
# Poissons Ratio (z) = 0.01568 -0.29647
#
# Static dielectric constant tensor:
#      x y z
#    x 1.922720 0.000000 0.052150 
#    y 0.000000 1.711890 0.000000 
#    z 0.052150 0.000000 1.967870 
# 
# From -- ./inp_files/298011.got.cif
#   From: 2010.05.17/outbox.cif.g08.bks.cpg/sg12_150_cif.got.tgz:298011.got - 2010.06.03 13:09:07.
