data_PCOD9172000
_publ_section_title
;
Structure prediction by ZEFSAII (Michael W. Deem and Ramdas Pophale) SiO2 
 PCOD9172000
Probable space group: C 2/M
;
_chemical_formula_sum "Si O2"
_cell_formula_units_Z 48
_cell_length_a 24.804337
_cell_length_b 8.679521
_cell_length_c 15.569775
_cell_angle_alpha 90.000000
_cell_angle_beta 61.047560
_cell_angle_gamma 90.000000
_cell_volume 2933.084730
_symmetry_space_group_name_H-M "C 2/M"
_symmetry_group_IT_number 12
_symmetry_cell_setting 'monoclinic'
loop_
_space_group_symop_operation_xyz
x,y,z
-x,y,-z
-x,-y,-z
x,-y,z
1/2+x,1/2+y,z
1/2-x,1/2+y,-z
1/2-x,1/2-y,-z
1/2+x,1/2-y,z
loop_
_atom_site_type_symbol
_atom_site_label
_atom_site_fract_x
_atom_site_fract_y
_atom_site_fract_z
Si Si1 0.709423 0.316221 0.336029
Si Si2 0.318143 0.184287 0.468768
Si Si3 0.072323 0.683730 0.939072
Si Si4 0.840331 0.815929 0.984937
Si Si5 0.345088 0.316205 0.274186
Si Si6 0.701962 0.816098 0.158202
O O1 0.711273 0.500000 0.341018
O O2 0.669750 0.247076 0.445235
O O3 0.779078 0.251294 0.294189
O O4 0.687143 0.261971 0.260128
O O5 0.250000 0.250000 0.500000
O O6 0.357961 0.248193 0.359016
O O7 0.317047 0.000000 0.468934
O O8 0.080357 0.500000 0.923946
O O9 0.107536 0.740656 0.996839
O O10 0.104441 0.765912 0.833639
O O11 0.000000 0.718326 0.000000
O O12 0.773749 0.782372 0.079959
O O13 0.847528 0.000000 0.977055
O O14 0.836583 0.748755 0.892028
O O15 0.339646 0.500000 0.282745
O O16 0.695401 0.000000 0.169408
#
# Coordination Sequence:
#
# PCOD9172000 Si02
#       6
#     8   8   8   8   8   8
#     4  11  19  29  47  72 102 133 165 201 247 301
#     4  10  18  29  45  67  97 130 164 201 246 299
#     4  11  23  37  53  73  99 134 173 211 251 295
#     4  10  20  33  50  72  99 132 168 207 250 298
#     4  11  20  32  48  69  98 131 167 207 251 296
#     4  10  19  31  49  73 102 134 165 203 250 302
#
# _framework density 16.365023000000001
#
# number of rings (size 3 to 8) (size 9 to 14) (size 15 to 20)
#    0.000    1.500    1.667    8.000    0.000    2.667 
#    0.000    0.000    0.000    0.000    0.000    1.167 
#    0.000    9.333    0.000    0.000    0.000    0.000 
#
# Total GULP energy -133988.948254 kJ/mol
# GULP energy per Si atom -5582.872844 kJ/mol
# Density = 1.632778 g / cm^3
# Si number density = 16.365023 Si / 1000 Ang^3
#
#
#
# Elastic Constant Matrix: (Units=GPa)
#
#
# Indices 1 2 3 4 5 6 
#
# 1 66.8613 47.2579 54.2390 0.0000 15.5220 0.0000
# 2 47.2579 128.0907 68.1471 0.0000 15.9084 0.0000
# 3 54.2390 68.1471 139.8174 0.0000 37.7285 0.0000
# 4 0.0000 0.0000 0.0000 32.1499 0.0000 6.9033
# 5 15.5220 15.9084 37.7285 0.0000 24.7478 0.0000
# 6 0.0000 0.0000 0.0000 6.9033 0.0000 19.1591
#
#
#
# Elastic Compliance Matrix: (Units=1/GPa)
#
#
# Indices 1 2 3 4 5 6 
#
# 1 0.024325 -0.005401 -0.006156 0.000000 -0.002399 0.000000
# 2 -0.005401 0.011787 -0.004280 0.000000 0.002336 0.000000
# 3 -0.006156 -0.004280 0.016720 0.000000 -0.018878 0.000000
# 4 0.000000 0.000000 0.000000 0.033712 0.000000 -0.012147
# 5 -0.002399 0.002336 -0.018878 0.000000 0.069192 0.000000
# 6 0.000000 0.000000 0.000000 -0.012147 0.000000 0.056571
#
#
# Mechanical properties :
#
#
# Convention : Reuss Voigt Hill
#
# Bulk Modulus (GPa) = 47.26441 74.89524 61.07982
# Shear Modulus (GPa) = 19.91756 26.21972 23.06864
#
# Velocity S-wave (km/s) = 3.49245 4.00707 3.75858
# Velocity P-wave (km/s) = 6.72362 8.20205 7.49935
#
# Compressibility (1/GPa) = 0.02115757
#
# Stress axis : x y z
#
# Youngs Moduli (GPa) = 41.10975 84.84260 59.80684
#
# Poissons Ratio (x) = 0.45825 0.36819
# Poissons Ratio (y) = 0.22204 0.25596
# Poissons Ratio (z) = 0.25309 0.36310
#
# Static dielectric constant tensor:
#      x y z
#    x 1.522920 0.000000 0.021970 
#    y 0.000000 1.543090 0.000000 
#    z 0.021970 0.000000 1.581370 
# 
# From -- ./inp_files/229975.got.cif
#   From: 2010.05.17/outbox.cif.g08.bks.cpg/sg12_115_cif.got.tgz:229975.got - 2010.06.03 13:09:07.
