data_PCOD9172040
_publ_section_title
;
Structure prediction by ZEFSAII (Michael W. Deem and Ramdas Pophale) SiO2 
 PCOD9172040
Probable space group: C 2/M
;
_chemical_formula_sum "Si O2"
_cell_formula_units_Z 64
_cell_length_a 25.876839
_cell_length_b 7.607936
_cell_length_c 20.122732
_cell_angle_alpha 90.000000
_cell_angle_beta 117.097178
_cell_angle_gamma 90.000000
_cell_volume 3526.710409
_symmetry_space_group_name_H-M "C 2/M"
_symmetry_group_IT_number 12
_symmetry_cell_setting 'monoclinic'
loop_
_space_group_symop_operation_xyz
x,y,z
-x,y,-z
-x,-y,-z
x,-y,z
1/2+x,1/2+y,z
1/2-x,1/2+y,-z
1/2-x,1/2-y,-z
1/2+x,1/2-y,z
loop_
_atom_site_type_symbol
_atom_site_label
_atom_site_fract_x
_atom_site_fract_y
_atom_site_fract_z
Si Si1 0.696270 0.788301 0.919800
Si Si2 0.247069 0.706557 0.665554
Si Si3 0.810759 0.208447 0.498592
Si Si4 0.418181 0.214983 0.071147
Si Si5 0.742555 0.205979 0.808669
Si Si6 0.137005 0.788655 0.340206
Si Si7 0.877372 0.286642 0.901651
Si Si8 0.546462 0.210412 0.178481
O O1 0.636354 0.724479 0.916985
O O2 0.710552 0.718435 0.854540
O O3 0.692367 0.000000 0.913600
O O4 0.750000 0.750000 0.000000
O O5 0.258392 0.500000 0.682665
O O6 0.197703 0.721035 0.580469
O O7 0.232016 0.782184 0.728867
O O8 0.307256 0.779790 0.669553
O O9 0.750000 0.250000 0.500000
O O10 0.857331 0.274235 0.580148
O O11 0.816846 0.000000 0.495328
O O12 0.480759 0.275617 0.133422
O O13 0.417917 0.000000 0.072348
O O14 0.407421 0.265382 0.988281
O O15 0.811533 0.221123 0.860989
O O16 0.726531 0.000000 0.797163
O O17 0.079166 0.748051 0.266233
O O18 0.143031 0.000000 0.346678
O O19 0.875074 0.500000 0.898752
O O20 0.913482 0.224322 0.858900
O O21 0.543941 0.000000 0.169619
#
# Coordination Sequence:
#
# PCOD9172040 Si02
#       8
#     8   8   8   8   8   8   8   8
#     4  10  19  32  50  67  88 119 154 193 235 272
#     4   9  17  29  43  63  93 121 147 184 225 269
#     4   9  17  28  43  64  91 122 150 179 220 270
#     4   9  18  32  46  64  91 120 154 196 231 262
#     4  10  19  30  46  68  93 121 151 187 233 274
#     4   9  17  29  43  62  92 122 143 178 227 269
#     4  10  18  29  46  66  89 121 156 190 225 266
#     4  10  19  29  45  67  90 121 158 188 221 270
#
# _framework density 18.147221999999999
#
# number of rings (size 3 to 8) (size 9 to 14) (size 15 to 20)
#    0.000    2.500    2.500    1.500    0.000    4.500 
#    0.000    1.250    0.000    1.500    0.000    0.875 
#    0.000    7.000    0.000    0.000    0.000    0.000 
#
# Total GULP energy -178392.952887 kJ/mol
# GULP energy per Si atom -5574.779778 kJ/mol
# Density = 1.810592 g / cm^3
# Si number density = 18.147222 Si / 1000 Ang^3
#
#
#
# Elastic Constant Matrix: (Units=GPa)
#
#
# Indices 1 2 3 4 5 6 
#
# 1 60.4037 -6.8664 52.2184 0.0000 4.0644 0.0000
# 2 -6.8664 33.5349 -10.2818 0.0000 -3.5531 0.0000
# 3 52.2184 -10.2818 163.7046 0.0000 -13.0372 0.0000
# 4 0.0000 0.0000 0.0000 19.2786 0.0000 3.7710
# 5 4.0644 -3.5531 -13.0372 0.0000 20.8342 0.0000
# 6 0.0000 0.0000 0.0000 3.7710 0.0000 8.3973
#
#
#
# Elastic Compliance Matrix: (Units=1/GPa)
#
#
# Indices 1 2 3 4 5 6 
#
# 1 0.024855 0.001379 -0.008640 0.000000 -0.010020 0.000000
# 2 0.001379 0.031401 0.002039 0.000000 0.006362 0.000000
# 3 -0.008640 0.002039 0.009635 0.000000 0.008062 0.000000
# 4 0.000000 0.000000 0.000000 0.056866 0.000000 -0.025537
# 5 -0.010020 0.006362 0.008062 0.000000 0.056083 0.000000
# 6 0.000000 0.000000 0.000000 -0.025537 0.000000 0.130553
#
#
# Mechanical properties :
#
#
# Convention : Reuss Voigt Hill
#
# Bulk Modulus (GPa) = 18.03522 36.42043 27.22783
# Shear Modulus (GPa) = 14.77893 24.54022 19.65958
#
# Velocity S-wave (km/s) = 2.85685 3.68133 3.29498
# Velocity P-wave (km/s) = 4.56530 6.17921 5.43252
#
# Compressibility (1/GPa) = 0.05544705
#
# Stress axis : x y z
#
# Youngs Moduli (GPa) = 40.23312 31.84591 103.79284
#
# Poissons Ratio (x) = -0.04390 0.89674
# Poissons Ratio (y) = -0.05547 -0.21165
# Poissons Ratio (z) = 0.34760 -0.06494
#
# Static dielectric constant tensor:
#      x y z
#    x 1.605470 0.000000 -0.026590 
#    y 0.000000 1.736170 0.000000 
#    z -0.026590 0.000000 1.650670 
# 
# From -- ./inp_files/326984.got.cif
#   From: 2010.05.17/outbox.cif.g08.bks.cpg/sg12_164_cif.got.tgz:326984.got - 2010.06.03 13:09:07.
