data_PCOD9172833
_publ_section_title
;
Structure prediction by ZEFSAII (Michael W. Deem and Ramdas Pophale) SiO2 
 PCOD9172833
Probable space group: C 2/M
;
_chemical_formula_sum "Si O2"
_cell_formula_units_Z 48
_cell_length_a 21.002150
_cell_length_b 8.512967
_cell_length_c 17.400516
_cell_angle_alpha 90.000000
_cell_angle_beta 64.117891
_cell_angle_gamma 90.000000
_cell_volume 2798.992403
_symmetry_space_group_name_H-M "C 2/M"
_symmetry_group_IT_number 12
_symmetry_cell_setting 'monoclinic'
loop_
_space_group_symop_operation_xyz
x,y,z
-x,y,-z
-x,-y,-z
x,-y,z
1/2+x,1/2+y,z
1/2-x,1/2+y,-z
1/2-x,1/2-y,-z
1/2+x,1/2-y,z
loop_
_atom_site_type_symbol
_atom_site_label
_atom_site_fract_x
_atom_site_fract_y
_atom_site_fract_z
Si Si1 0.861468 0.313700 0.406915
Si Si2 0.543251 0.187297 0.053136
Si Si3 0.783787 0.309413 0.591286
Si Si4 0.782491 0.190515 0.222244
Si Si5 0.930064 0.813020 0.226500
Si Si6 0.298735 0.687567 0.042156
O O1 0.872629 0.500000 0.396796
O O2 0.850348 0.267720 0.502277
O O3 0.785600 0.269370 0.409399
O O4 0.917668 0.230865 0.322009
O O5 0.496663 0.233604 0.151198
O O6 0.551203 0.000000 0.045203
O O7 0.500000 0.240003 0.000000
O O8 0.620151 0.263644 0.012910
O O9 0.775474 0.500000 0.589948
O O10 0.777986 0.266076 0.684041
O O11 0.858769 0.238082 0.217666
O O12 0.775579 0.247809 0.139021
O O13 0.783574 0.000000 0.219374
O O14 0.935679 0.000000 0.216024
O O15 0.294049 0.500000 0.045492
O O16 0.250000 0.750000 0.000000
#
# Coordination Sequence:
#
# PCOD9172833 Si02
#       6
#     8   8   8   8   8   8
#     4   9  15  23  38  64  97 126 158 203 249 291
#     4  11  22  35  53  78 104 130 169 216 260 304
#     4   8  14  25  40  61  91 129 165 197 244 303
#     4   8  15  28  47  68  93 130 170 204 243 298
#     4  10  18  30  48  70  98 133 170 201 247 306
#     4  11  22  37  54  74 103 138 176 213 255 301
#
# _framework density 17.149028000000001
#
# number of rings (size 3 to 8) (size 9 to 14) (size 15 to 20)
#    0.000    2.500    1.667    3.000    0.000    1.333 
#    0.000    0.833    0.000    0.000    0.000    1.167 
#    0.000    9.333    0.000    0.000    0.000    0.000 
#
# Total GULP energy -133656.486927 kJ/mol
# GULP energy per Si atom -5569.020289 kJ/mol
# Density = 1.711000 g / cm^3
# Si number density = 17.149028 Si / 1000 Ang^3
#
#
#
# Elastic Constant Matrix: (Units=GPa)
#
#
# Indices 1 2 3 4 5 6 
#
# 1 64.0483 16.6736 49.2334 0.0001 7.8010 0.0004
# 2 16.6736 26.8554 14.2666 0.0002 3.0132 0.0009
# 3 49.2334 14.2666 163.6338 0.0000 12.9226 0.0000
# 4 0.0001 0.0002 0.0000 23.9951 0.0000 -2.1945
# 5 7.8010 3.0132 12.9226 0.0000 12.4338 0.0001
# 6 0.0004 0.0009 0.0000 -2.1945 0.0001 18.3315
#
#
#
# Elastic Compliance Matrix: (Units=1/GPa)
#
#
# Indices 1 2 3 4 5 6 
#
# 1 0.023557 -0.010926 -0.005640 0.000000 -0.006270 0.000000
# 2 -0.010926 0.044594 -0.000314 0.000000 -0.003625 -0.000002
# 3 -0.005640 -0.000314 0.008225 0.000000 -0.004934 0.000000
# 4 0.000000 0.000000 0.000000 0.042136 0.000000 0.005044
# 5 -0.006270 -0.003625 -0.004934 0.000000 0.090367 0.000000
# 6 0.000000 -0.000002 0.000000 0.005044 0.000000 0.055155
#
#
# Mechanical properties :
#
#
# Convention : Reuss Voigt Hill
#
# Bulk Modulus (GPa) = 23.46576 46.09832 34.78204
# Shear Modulus (GPa) = 16.02573 22.57633 19.30103
#
# Velocity S-wave (km/s) = 3.06027 3.63227 3.35847
# Velocity P-wave (km/s) = 5.11861 6.67312 5.94688
#
# Compressibility (1/GPa) = 0.04261528
#
# Stress axis : x y z
#
# Youngs Moduli (GPa) = 42.45112 22.42474 121.57840
#
# Poissons Ratio (x) = 0.24501 0.68568
# Poissons Ratio (y) = 0.46381 0.03822
# Poissons Ratio (z) = 0.23942 0.00705
#
# Static dielectric constant tensor:
#      x y z
#    x 1.536110 0.000000 0.016510 
#    y 0.000000 1.578960 0.000000 
#    z 0.016510 0.000000 1.655840 
# 
# From -- ./inp_files/248771.got.cif
#   From: 2010.05.17/outbox.cif.g08.bks.cpg/sg12_125_cif.got.tgz:248771.got - 2010.06.03 13:09:07.
