data_PCOD9172910
_publ_section_title
;
Structure prediction by ZEFSAII (Michael W. Deem and Ramdas Pophale) SiO2 
 PCOD9172910
Probable space group: C 2/M
;
_chemical_formula_sum "Si O2"
_cell_formula_units_Z 64
_cell_length_a 30.086714
_cell_length_b 13.940115
_cell_length_c 10.274133
_cell_angle_alpha 90.000000
_cell_angle_beta 108.833803
_cell_angle_gamma 90.000000
_cell_volume 4078.383752
_symmetry_space_group_name_H-M "C 2/M"
_symmetry_group_IT_number 12
_symmetry_cell_setting 'monoclinic'
loop_
_space_group_symop_operation_xyz
x,y,z
-x,y,-z
-x,-y,-z
x,-y,z
1/2+x,1/2+y,z
1/2-x,1/2+y,-z
1/2-x,1/2-y,-z
1/2+x,1/2-y,z
loop_
_atom_site_type_symbol
_atom_site_label
_atom_site_fract_x
_atom_site_fract_y
_atom_site_fract_z
Si Si1 0.643756 0.797740 0.592379
Si Si2 0.276524 0.608595 0.071631
Si Si3 0.958476 0.615894 0.560642
Si Si4 0.638956 0.115789 0.142996
Si Si5 0.035927 0.383835 0.141709
Si Si6 0.324018 0.196398 0.081933
Si Si7 0.695546 0.389337 0.601116
Si Si8 0.709873 0.115663 0.436239
O O1 0.591640 0.835049 0.513675
O O2 0.654920 0.815788 0.754674
O O3 0.653139 0.685599 0.569417
O O4 0.682593 0.849602 0.538157
O O5 0.287950 0.500000 0.043326
O O6 0.310597 0.691710 0.052726
O O7 0.280078 0.613150 0.232543
O O8 0.224482 0.637097 0.977314
O O9 0.951224 0.500000 0.549645
O O10 0.974734 0.643558 0.720911
O O11 0.000000 0.639670 0.500000
O O12 0.589093 0.142034 0.157316
O O13 0.679550 0.147081 0.281544
O O14 0.641609 0.000000 0.133854
O O15 0.644380 0.160387 0.006185
O O16 0.033883 0.500000 0.135918
O O17 0.000000 0.346742 0.000000
O O18 0.682197 0.500000 0.563885
O O19 0.735730 0.357883 0.536401
O O20 0.709050 0.000000 0.435749
#
# Coordination Sequence:
#
# PCOD9172910 Si02
#       8
#     8   8   8   8   8   8   8   8
#     4  11  21  32  49  73 102 127 161 206 246 291
#     4   9  17  32  47  65  98 130 161 201 234 273
#     4  10  21  35  49  71 104 130 151 193 250 294
#     4  10  18  30  49  68  95 131 165 195 229 283
#     4   9  18  32  49  68  90 125 164 191 225 283
#     4  10  20  29  47  73  92 126 169 196 233 279
#     4   9  18  33  52  70  93 132 171 203 240 284
#     4  10  18  31  49  70 100 135 162 192 243 292
#
# _framework density 15.692491
#
# number of rings (size 3 to 8) (size 9 to 14) (size 15 to 20)
#    0.000    2.250    2.500    1.125    1.750    2.000 
#    0.000    0.000    0.000    0.375    0.000    0.000 
#    0.000    1.000    0.000    0.000    0.000    0.000 
#
# Total GULP energy -178335.047154 kJ/mol
# GULP energy per Si atom -5572.970224 kJ/mol
# Density = 1.565677 g / cm^3
# Si number density = 15.692491 Si / 1000 Ang^3
#
#
#
# Elastic Constant Matrix: (Units=GPa)
#
#
# Indices 1 2 3 4 5 6 
#
# 1 81.3778 26.9913 47.2432 0.0000 -12.0646 0.0000
# 2 26.9913 50.3123 24.1848 0.0000 -3.5063 0.0000
# 3 47.2432 24.1848 89.6125 0.0000 -15.8246 0.0000
# 4 0.0000 0.0000 0.0000 12.0706 0.0000 -1.2897
# 5 -12.0646 -3.5063 -15.8246 0.0000 28.6977 0.0000
# 6 0.0000 0.0000 0.0000 -1.2897 0.0000 19.9028
#
#
#
# Elastic Compliance Matrix: (Units=1/GPa)
#
#
# Indices 1 2 3 4 5 6 
#
# 1 0.019520 -0.006401 -0.008034 0.000000 0.002994 0.000000
# 2 -0.006401 0.024950 -0.003651 0.000000 -0.001656 0.000000
# 3 -0.008034 -0.003651 0.017399 0.000000 0.005771 0.000000
# 4 0.000000 0.000000 0.000000 0.083423 0.000000 0.005406
# 5 0.002994 -0.001656 0.005771 0.000000 0.039084 0.000000
# 6 0.000000 0.000000 0.000000 0.005406 0.000000 0.050594
#
#
# Mechanical properties :
#
#
# Convention : Reuss Voigt Hill
#
# Bulk Modulus (GPa) = 38.91819 46.46013 42.68916
# Shear Modulus (GPa) = 17.87572 20.32645 19.10108
#
# Velocity S-wave (km/s) = 3.37875 3.60293 3.49264
# Velocity P-wave (km/s) = 6.33053 6.85412 6.59753
#
# Compressibility (1/GPa) = 0.02569492
#
# Stress axis : x y z
#
# Youngs Moduli (GPa) = 51.23050 40.08075 57.47347
#
# Poissons Ratio (x) = 0.25656 0.46177
# Poissons Ratio (y) = 0.32793 0.20985
# Poissons Ratio (z) = 0.41161 0.14635
#
# Static dielectric constant tensor:
#      x y z
#    x 1.512650 0.000000 -0.005870 
#    y 0.000000 1.527530 0.000000 
#    z -0.005870 0.000000 1.532470 
# 
# From -- ./inp_files/111267.got.cif
#   From: 2010.05.17/outbox.cif.g08.bks.cpg/sg12_56_cif.got.tgz:111267.got - 2010.06.03 13:09:07.
