data_PCOD9172843
_publ_section_title
;
Structure prediction by ZEFSAII (Michael W. Deem and Ramdas Pophale) SiO2 
 PCOD9172843
Probable space group: C 2/M
;
_chemical_formula_sum "Si O2"
_cell_formula_units_Z 60
_cell_length_a 20.911622
_cell_length_b 9.744683
_cell_length_c 17.278429
_cell_angle_alpha 90.000000
_cell_angle_beta 68.582872
_cell_angle_gamma 90.000000
_cell_volume 3277.815499
_symmetry_space_group_name_H-M "C 2/M"
_symmetry_group_IT_number 12
_symmetry_cell_setting 'monoclinic'
loop_
_space_group_symop_operation_xyz
x,y,z
-x,y,-z
-x,-y,-z
x,-y,z
1/2+x,1/2+y,z
1/2-x,1/2+y,-z
1/2-x,1/2-y,-z
1/2+x,1/2-y,z
loop_
_atom_site_type_symbol
_atom_site_label
_atom_site_fract_x
_atom_site_fract_y
_atom_site_fract_z
Si Si1 0.255416 0.657852 0.298462
Si Si2 0.470487 0.843294 0.345605
Si Si3 0.424306 0.659053 0.994142
Si Si4 0.000000 0.244964 0.500000
Si Si5 0.152834 0.152220 0.413107
Si Si6 0.518975 0.838726 0.163987
Si Si7 0.657632 0.651141 0.585688
Si Si8 0.866582 0.663561 0.156281
O O1 0.251305 0.500000 0.272023
O O2 0.182695 0.732385 0.343650
O O3 0.287915 0.652362 0.370152
O O4 0.306423 0.754416 0.226914
O O5 0.496487 0.828063 0.421503
O O6 0.520621 0.800311 0.253898
O O7 0.400625 0.759801 0.371601
O O8 0.454307 0.000000 0.336099
O O9 0.401017 0.500000 0.997928
O O10 0.436010 0.737759 0.908260
O O11 0.500000 0.654555 0.000000
O O12 0.379492 0.755191 0.070355
O O13 0.071120 0.162917 0.461681
O O14 0.183206 0.169541 0.486677
O O15 0.171444 0.000000 0.377246
O O16 0.439189 0.825476 0.171035
O O17 0.537658 0.000000 0.144717
O O18 0.624348 0.500000 0.601321
O O19 0.853037 0.500000 0.153119
#
# Coordination Sequence:
#
# PCOD9172843 Si02
#       8
#     8   8   8   4   8   8   8   8
#     4  11  21  32  49  76 105 133 169 211 258 310
#     4  10  19  32  52  76 102 136 176 218 259 302
#     4   9  17  28  44  69 102 137 170 206 250 300
#     4  10  22  38  56  76 100 132 176 226 264 298
#     4  10  21  37  54  71  96 133 174 215 261 311
#     4   9  17  29  46  71 101 136 175 209 249 303
#     4   9  19  33  49  71 101 134 168 210 258 308
#     4  10  18  30  48  71 104 140 171 205 250 306
#
# _framework density 18.304874000000002
#
# number of rings (size 3 to 8) (size 9 to 14) (size 15 to 20)
#    0.000    2.267    1.333    2.000    0.000    6.400 
#    0.000    0.000    0.000    0.000    0.000    0.933 
#    0.000    0.000    0.000    0.000    0.000    0.000 
#
# Total GULP energy -167121.197248 kJ/mol
# GULP energy per Si atom -5570.706575 kJ/mol
# Density = 1.826321 g / cm^3
# Si number density = 18.304874 Si / 1000 Ang^3
#
#
#
# Elastic Constant Matrix: (Units=GPa)
#
#
# Indices 1 2 3 4 5 6 
#
# 1 26.4130 20.3722 21.9018 0.0000 -6.9528 0.0000
# 2 20.3722 138.9540 77.6579 0.0000 -12.5675 0.0000
# 3 21.9018 77.6579 109.4332 0.0000 -3.7307 0.0000
# 4 0.0000 0.0000 0.0000 24.2330 0.0000 -7.0417
# 5 -6.9528 -12.5675 -3.7307 0.0000 21.0735 0.0000
# 6 0.0000 0.0000 0.0000 -7.0417 0.0000 8.1290
#
#
#
# Elastic Compliance Matrix: (Units=1/GPa)
#
#
# Indices 1 2 3 4 5 6 
#
# 1 0.049638 -0.001186 -0.008611 0.000000 0.014146 0.000000
# 2 -0.001186 0.012663 -0.008556 0.000000 0.005646 0.000000
# 3 -0.008611 -0.008556 0.016764 0.000000 -0.004976 0.000000
# 4 0.000000 0.000000 0.000000 0.055148 0.000000 0.047772
# 5 0.014146 0.005646 -0.004976 0.000000 0.054606 0.000000
# 6 0.000000 0.000000 0.000000 0.047772 0.000000 0.164398
#
#
# Mechanical properties :
#
#
# Convention : Reuss Voigt Hill
#
# Bulk Modulus (GPa) = 23.60766 57.18488 40.39627
# Shear Modulus (GPa) = 12.37494 21.01167 16.69330
#
# Velocity S-wave (km/s) = 2.60291 3.39170 3.02314
# Velocity P-wave (km/s) = 4.68598 6.82981 5.85682
#
# Compressibility (1/GPa) = 0.04235913
#
# Stress axis : x y z
#
# Youngs Moduli (GPa) = 20.14568 78.96995 59.65294
#
# Poissons Ratio (x) = 0.09364 0.51366
# Poissons Ratio (y) = 0.02389 0.51041
# Poissons Ratio (z) = 0.17347 0.67570
#
# Static dielectric constant tensor:
#      x y z
#    x 1.622440 0.000000 0.017950 
#    y 0.000000 1.646550 0.000000 
#    z 0.017950 0.000000 1.646430 
# 
# From -- ./inp_files/288332.got.cif
#   From: 2010.05.17/outbox.cif.g08.bks.cpg/sg12_145_cif.got.tgz:288332.got - 2010.06.03 13:09:07.
