data_PCOD9172798
_publ_section_title
;
Structure prediction by ZEFSAII (Michael W. Deem and Ramdas Pophale) SiO2 
 PCOD9172798
Probable space group: C 2/M
;
_chemical_formula_sum "Si O2"
_cell_formula_units_Z 56
_cell_length_a 24.195130
_cell_length_b 8.490424
_cell_length_c 19.760373
_cell_angle_alpha 90.000000
_cell_angle_beta 50.949028
_cell_angle_gamma 90.000000
_cell_volume 3152.404347
_symmetry_space_group_name_H-M "C 2/M"
_symmetry_group_IT_number 12
_symmetry_cell_setting 'monoclinic'
loop_
_space_group_symop_operation_xyz
x,y,z
-x,y,-z
-x,-y,-z
x,-y,z
1/2+x,1/2+y,z
1/2-x,1/2+y,-z
1/2-x,1/2-y,-z
1/2+x,1/2-y,z
loop_
_atom_site_type_symbol
_atom_site_label
_atom_site_fract_x
_atom_site_fract_y
_atom_site_fract_z
Si Si1 0.498061 0.311870 0.285537
Si Si2 0.811802 0.189773 0.762875
Si Si3 0.347799 0.184928 0.875997
Si Si4 0.659615 0.190352 0.840355
Si Si5 0.603545 0.312972 0.026626
Si Si6 0.532447 0.691242 0.404898
Si Si7 0.051074 0.688972 0.808776
O O1 0.510690 0.500000 0.270675
O O2 0.570860 0.223703 0.209036
O O3 0.486170 0.273228 0.373426
O O4 0.442657 0.260685 0.271207
O O5 0.804652 0.248138 0.845671
O O6 0.742336 0.237697 0.774700
O O7 0.886761 0.244646 0.673327
O O8 0.814761 0.000000 0.763214
O O9 0.343594 0.262602 0.953117
O O10 0.336340 0.000000 0.891125
O O11 0.611960 0.241783 0.813827
O O12 0.656591 0.000000 0.844743
O O13 0.628385 0.252829 0.934849
O O14 0.597963 0.500000 0.031252
O O15 0.525630 0.241793 0.102890
O O16 0.500000 0.751011 0.500000
O O17 0.535316 0.500000 0.407240
O O18 0.051632 0.500000 0.803688
#
# Coordination Sequence:
#
# PCOD9172798 Si02
#       7
#     8   8   8   8   8   8   8
#     4   9  16  28  48  72  96 122 154 192 231 273
#     4   9  18  33  50  69  95 124 156 192 232 282
#     4  10  18  30  48  68  94 125 156 194 237 280
#     4  10  21  34  47  65  92 128 163 196 235 275
#     4  11  21  32  48  69  92 122 162 204 239 271
#     4   8  14  27  51  79  98 114 145 190 234 277
#     4  10  19  32  49  67  92 126 163 199 232 271
#
# _framework density 17.764219000000001
#
# number of rings (size 3 to 8) (size 9 to 14) (size 15 to 20)
#    0.000    2.429    0.000    6.429    0.000    4.000 
#    0.000    0.000    0.000   11.571    0.000    0.000 
#    0.000    0.000    0.000    0.000    0.000    3.571 
#
# Total GULP energy -156117.741379 kJ/mol
# GULP energy per Si atom -5575.633621 kJ/mol
# Density = 1.772379 g / cm^3
# Si number density = 17.764219 Si / 1000 Ang^3
#
#
#
# Elastic Constant Matrix: (Units=GPa)
#
#
# Indices 1 2 3 4 5 6 
#
# 1 118.4522 17.9585 75.9579 0.0140 14.0435 0.0521
# 2 17.9585 20.0192 14.8615 0.0095 0.2975 0.0378
# 3 75.9579 14.8615 112.6585 -0.0012 30.1454 -0.0045
# 4 0.0140 0.0095 -0.0012 9.5385 0.0037 -2.4350
# 5 14.0435 0.2975 30.1454 0.0037 18.2702 0.0131
# 6 0.0521 0.0378 -0.0045 -2.4350 0.0131 -4.8570
#
#
#
# Elastic Compliance Matrix: (Units=1/GPa)
#
#
# Indices 1 2 3 4 5 6 
#
# 1 0.016274 -0.005519 -0.012392 0.000017 0.008028 0.000156
# 2 -0.005519 0.061635 -0.009448 0.000054 0.018826 0.000453
# 3 -0.012392 -0.009448 0.028448 -0.000035 -0.037258 -0.000316
# 4 0.000017 0.000054 -0.000035 0.092943 0.000058 -0.046595
# 5 0.008028 0.018826 -0.037258 0.000058 0.109732 0.000533
# 6 0.000156 0.000453 -0.000316 -0.046595 0.000533 -0.182519
#
#
# Mechanical properties :
#
#
# Convention : Reuss Voigt Hill
#
# Bulk Modulus (GPa) = 19.36484 52.07619 35.72051
# Shear Modulus (GPa) = 25.19618 14.08046 19.63832
#
# Velocity S-wave (km/s) = 3.77021 2.81842 3.32851
# Velocity P-wave (km/s) = 5.46601 6.32220 5.90963
#
# Compressibility (1/GPa) = 0.05163999
#
# Stress axis : x y z
#
# Youngs Moduli (GPa) = 61.44890 16.22443 35.15225
#
# Poissons Ratio (x) = 0.08953 0.43562
# Poissons Ratio (y) = 0.33911 0.33210
# Poissons Ratio (z) = 0.76150 0.15328
#
# Static dielectric constant tensor:
#      x y z
#    x 1.651170 0.000000 0.010320 
#    y 0.000000 1.603670 0.000000 
#    z 0.010320 0.000000 1.603500 
# 
# From -- ./inp_files/287395.got.cif
#   From: 2010.05.17/outbox.cif.g08.bks.cpg/sg12_144_cif.got.tgz:287395.got - 2010.06.03 13:09:07.
