data_PCOD9172588
_publ_section_title
;
Structure prediction by ZEFSAII (Michael W. Deem and Ramdas Pophale) SiO2 
 PCOD9172588
Probable space group: C 2/M
;
_chemical_formula_sum "Si O2"
_cell_formula_units_Z 34
_cell_length_a 13.822242
_cell_length_b 8.001911
_cell_length_c 15.912311
_cell_angle_alpha 90.000000
_cell_angle_beta 133.292168
_cell_angle_gamma 90.000000
_cell_volume 1281.023798
_symmetry_space_group_name_H-M "C 2/M"
_symmetry_group_IT_number 12
_symmetry_cell_setting 'monoclinic'
loop_
_space_group_symop_operation_xyz
x,y,z
-x,y,-z
-x,-y,-z
x,-y,z
1/2+x,1/2+y,z
1/2-x,1/2+y,-z
1/2-x,1/2-y,-z
1/2+x,1/2-y,z
loop_
_atom_site_type_symbol
_atom_site_label
_atom_site_fract_x
_atom_site_fract_y
_atom_site_fract_z
Si Si1 0.685694 0.799350 0.569095
Si Si2 0.257478 0.186933 0.199501
Si Si3 0.000000 0.000000 0.500000
Si Si4 0.613469 0.809049 0.963857
Si Si5 0.981493 0.807520 0.732665
O O1 0.715101 0.782555 0.687195
O O2 0.579949 0.651061 0.495265
O O3 0.832319 0.758720 0.620119
O O4 0.653165 0.000000 0.535579
O O5 0.151098 0.294785 0.084187
O O6 0.402007 0.206290 0.242167
O O7 0.209992 0.000000 0.157889
O O8 0.586714 0.000000 0.928494
O O9 0.750000 0.750000 0.000000
O O10 0.503230 0.708303 0.846687
O O11 0.005619 0.000000 0.726701
#
# Coordination Sequence:
#
# PCOD9172588 Si02
#       5
#     8   8   2   8   8
#     4  10  25  44  66  91 120 161 199 263 316 368
#     4  10  20  37  61  89 128 162 202 242 299 364
#     4  12  26  44  76  80 124 146 222 260 336 344
#     4  10  18  29  52  89 128 163 201 236 285 359
#     4  10  20  37  61  89 128 162 202 242 299 364
#
# _framework density 26.541270000000001
#
# number of rings (size 3 to 8) (size 9 to 14) (size 15 to 20)
#    0.000    1.882    0.000    6.706    6.588    0.941 
#    0.000    5.882    0.000    0.000    0.000    0.000 
#    0.000    0.000    0.000    0.000    0.000    0.000 
#
# Total GULP energy -94872.360906 kJ/mol
# GULP energy per Si atom -5580.727112 kJ/mol
# Density = 2.648086 g / cm^3
# Si number density = 26.541270 Si / 1000 Ang^3
#
#
#
# Elastic Constant Matrix: (Units=GPa)
#
#
# Indices 1 2 3 4 5 6 
#
# 1 90.1985 18.8002 1.9168 0.0000 20.7069 0.0000
# 2 18.8002 118.8782 61.2733 0.0000 0.2361 0.0000
# 3 1.9168 61.2733 115.1059 0.0000 16.0543 0.0000
# 4 0.0000 0.0000 0.0000 36.2609 0.0000 3.8343
# 5 20.7069 0.2361 16.0543 0.0000 33.0164 0.0000
# 6 0.0000 0.0000 0.0000 3.8343 0.0000 32.1275
#
#
#
# Elastic Compliance Matrix: (Units=1/GPa)
#
#
# Indices 1 2 3 4 5 6 
#
# 1 0.014259 -0.003954 0.003337 0.000000 -0.010537 0.000000
# 2 -0.003954 0.012999 -0.007709 0.000000 0.006136 0.000000
# 3 0.003337 -0.007709 0.013967 0.000000 -0.008830 0.000000
# 4 0.000000 0.000000 0.000000 0.027930 0.000000 -0.003333
# 5 -0.010537 0.006136 -0.008830 0.000000 0.041146 0.000000
# 6 0.000000 0.000000 0.000000 -0.003333 0.000000 0.031524
#
#
# Mechanical properties :
#
#
# Convention : Reuss Voigt Hill
#
# Bulk Modulus (GPa) = 40.69635 54.24035 47.46835
# Shear Modulus (GPa) = 29.99952 36.42711 33.21332
#
# Velocity S-wave (km/s) = 3.36564 3.70871 3.54133
# Velocity P-wave (km/s) = 5.51995 6.23056 5.88599
#
# Compressibility (1/GPa) = 0.02457223
#
# Stress axis : x y z
#
# Youngs Moduli (GPa) = 70.13147 76.93020 71.59487
#
# Poissons Ratio (x) = 0.30419 -0.23892
# Poissons Ratio (y) = 0.27731 0.55196
# Poissons Ratio (z) = -0.23403 0.59309
#
# Static dielectric constant tensor:
#      x y z
#    x 2.075910 0.000000 -0.040340 
#    y 0.000000 1.914140 0.000000 
#    z -0.040340 0.000000 2.192240 
# 
# From -- ./inp_files/274725.got.cif
#   From: 2010.05.17/outbox.cif.g08.bks.cpg/sg12_138_cif.got.tgz:274725.got - 2010.06.03 13:09:07.
