data_PCOD9172010
_publ_section_title
;
Structure prediction by ZEFSAII (Michael W. Deem and Ramdas Pophale) SiO2 
 PCOD9172010
Probable space group: C 2/M
;
_chemical_formula_sum "Si O2"
_cell_formula_units_Z 64
_cell_length_a 10.798330
_cell_length_b 23.069547
_cell_length_c 13.477334
_cell_angle_alpha 90.000000
_cell_angle_beta 84.384677
_cell_angle_gamma 90.000000
_cell_volume 3341.262326
_symmetry_space_group_name_H-M "C 2/M"
_symmetry_group_IT_number 12
_symmetry_cell_setting 'monoclinic'
loop_
_space_group_symop_operation_xyz
x,y,z
-x,y,-z
-x,-y,-z
x,-y,z
1/2+x,1/2+y,z
1/2-x,1/2+y,-z
1/2-x,1/2-y,-z
1/2+x,1/2-y,z
loop_
_atom_site_type_symbol
_atom_site_label
_atom_site_fract_x
_atom_site_fract_y
_atom_site_fract_z
Si Si1 0.582526 0.649391 0.345619
Si Si2 0.684013 0.565031 0.203991
Si Si3 0.702096 0.151485 0.948689
Si Si4 0.444843 0.853450 0.846145
Si Si5 0.827865 0.213182 0.359367
Si Si6 0.565170 0.067914 0.678874
Si Si7 0.195388 0.245028 0.191484
Si Si8 0.188655 0.662009 0.538407
O O1 0.578698 0.590451 0.283966
O O2 0.450115 0.676981 0.371867
O O3 0.655824 0.693214 0.267014
O O4 0.673972 0.644723 0.431648
O O5 0.660544 0.500000 0.176800
O O6 0.708155 0.603672 0.105741
O O7 0.809441 0.567575 0.262499
O O8 0.572592 0.146725 0.898058
O O9 0.758694 0.213375 0.911290
O O10 0.666702 0.139406 0.065155
O O11 0.463090 0.900079 0.756948
O O12 0.418627 0.788909 0.809652
O O13 0.800195 0.220728 0.245278
O O14 0.845406 0.277190 0.405295
O O15 0.711248 0.181260 0.423010
O O16 0.599152 0.110514 0.583770
O O17 0.537624 0.000000 0.657593
#
# Coordination Sequence:
#
# PCOD9172010 Si02
#       8
#     8   8   8   8   8   8   8   8
#     4   9  16  28  46  67  92 119 146 183 227 269
#     4   8  15  28  46  68  91 114 145 188 234 270
#     4   9  18  29  46  71  95 117 147 191 231 274
#     4  10  18  30  47  68  93 122 153 183 230 283
#     4  10  18  29  47  69  93 121 153 185 225 277
#     4   9  17  31  49  68  93 122 154 196 237 270
#     4  10  18  29  45  68  97 122 147 184 229 275
#     4   9  18  30  46  70  94 118 151 192 230 267
#
# _framework density 19.154437000000001
#
# number of rings (size 3 to 8) (size 9 to 14) (size 15 to 20)
#    0.000    2.750    0.000    4.500    0.000    0.500 
#    0.000    5.000    0.000    5.250    0.000    0.875 
#    0.000    0.000    0.000    0.000    0.000    0.000 
#
# Total GULP energy -178174.443250 kJ/mol
# GULP energy per Si atom -5567.951352 kJ/mol
# Density = 1.911084 g / cm^3
# Si number density = 19.154437 Si / 1000 Ang^3
#
#
#
# Elastic Constant Matrix: (Units=GPa)
#
#
# Indices 1 2 3 4 5 6 
#
# 1 27.9314 16.7683 22.4088 0.0000 -11.3753 0.0000
# 2 16.7683 126.6883 66.8313 0.0000 -15.3186 0.0000
# 3 22.4088 66.8313 77.3187 0.0000 -22.0479 0.0000
# 4 0.0000 0.0000 0.0000 9.7563 0.0000 -1.8611
# 5 -11.3753 -15.3186 -22.0479 0.0000 19.3414 0.0000
# 6 0.0000 0.0000 0.0000 -1.8611 0.0000 17.0665
#
#
#
# Elastic Compliance Matrix: (Units=1/GPa)
#
#
# Indices 1 2 3 4 5 6 
#
# 1 0.051249 0.000886 -0.010110 0.000000 0.019318 0.000000
# 2 0.000886 0.014753 -0.014118 0.000000 -0.003887 0.000000
# 3 -0.010110 -0.014118 0.034347 0.000000 0.022026 0.000000
# 4 0.000000 0.000000 0.000000 0.104676 0.000000 0.011415
# 5 0.019318 -0.003887 0.022026 0.000000 0.085094 0.000000
# 6 0.000000 0.000000 0.000000 0.011415 0.000000 0.059839
#
#
# Mechanical properties :
#
#
# Convention : Reuss Voigt Hill
#
# Bulk Modulus (GPa) = 18.63385 49.32835 33.98110
# Shear Modulus (GPa) = 12.06183 17.62815 14.84499
#
# Velocity S-wave (km/s) = 2.51213 3.03696 2.78693
# Velocity P-wave (km/s) = 4.26190 6.17304 5.30425
#
# Compressibility (1/GPa) = 0.05366577
#
# Stress axis : x y z
#
# Youngs Moduli (GPa) = 19.51266 67.78054 29.11429
#
# Poissons Ratio (x) = -0.06006 0.29436
# Poissons Ratio (y) = -0.01729 0.41102
# Poissons Ratio (z) = 0.19728 0.95690
#
# Static dielectric constant tensor:
#      x y z
#    x 1.673940 0.000000 0.000280 
#    y 0.000000 1.677680 0.000000 
#    z 0.000280 0.000000 1.733920 
# 
# From -- ./inp_files/208406.got.cif
#   From: 2010.05.17/outbox.cif.g08.bks.cpg/sg12_105_cif.got.tgz:208406.got - 2010.06.03 13:09:07.
