data_PCOD9172815
_publ_section_title
;
Structure prediction by ZEFSAII (Michael W. Deem and Ramdas Pophale) SiO2 
 PCOD9172815
Probable space group: C 2/M
;
_chemical_formula_sum "Si O2"
_cell_formula_units_Z 56
_cell_length_a 15.507778
_cell_length_b 13.609781
_cell_length_c 20.055440
_cell_angle_alpha 90.000000
_cell_angle_beta 42.183539
_cell_angle_gamma 90.000000
_cell_volume 2842.391676
_symmetry_space_group_name_H-M "C 2/M"
_symmetry_group_IT_number 12
_symmetry_cell_setting 'monoclinic'
loop_
_space_group_symop_operation_xyz
x,y,z
-x,y,-z
-x,-y,-z
x,-y,z
1/2+x,1/2+y,z
1/2-x,1/2+y,-z
1/2-x,1/2-y,-z
1/2+x,1/2-y,z
loop_
_atom_site_type_symbol
_atom_site_label
_atom_site_fract_x
_atom_site_fract_y
_atom_site_fract_z
Si Si1 0.459260 0.735315 0.092531
Si Si2 0.115173 0.242419 0.725082
Si Si3 0.712711 0.615692 0.982411
Si Si4 0.130989 0.884070 0.172770
Si Si5 0.422069 0.114355 0.375836
Si Si6 0.689601 0.804187 0.202856
Si Si7 0.647115 0.114973 0.435875
O O1 0.428335 0.789308 0.179467
O O2 0.576878 0.663403 0.040945
O O3 0.329659 0.674528 0.150750
O O4 0.500000 0.788258 0.000000
O O5 0.120587 0.318415 0.661185
O O6 0.250525 0.187493 0.655090
O O7 0.008533 0.159552 0.767220
O O8 0.709957 0.500000 0.972941
O O9 0.724753 0.631903 0.054812
O O10 0.813391 0.661438 0.873170
O O11 0.176228 0.813802 0.206515
O O12 0.125244 0.000000 0.189440
O O13 0.570031 0.144728 0.305578
O O14 0.344625 0.128250 0.488604
O O15 0.417697 0.000000 0.360638
O O16 0.500000 0.134556 0.500000
O O17 0.673433 0.000000 0.405386
#
# Coordination Sequence:
#
# PCOD9172815 Si02
#       7
#     8   8   8   8   8   8   8
#     4   9  19  32  49  73 101 133 170 208 249 292
#     4  10  19  35  55  72 101 137 165 203 251 297
#     4   9  17  29  47  70  96 127 163 204 251 301
#     4   9  18  31  48  70  93 125 168 206 244 294
#     4  10  21  34  51  77 104 133 168 203 245 299
#     4  10  18  30  48  69  98 129 160 205 252 290
#     4  10  20  34  55  82 105 126 160 206 254 302
#
# _framework density 19.701718
#
# number of rings (size 3 to 8) (size 9 to 14) (size 15 to 20)
#    0.000    2.429    0.000    2.571    0.000    4.857 
#    0.000    0.714    0.000    4.714    0.000    0.000 
#    0.000    0.000    0.000    0.000    0.000    0.000 
#
# Total GULP energy -156112.490031 kJ/mol
# GULP energy per Si atom -5575.446073 kJ/mol
# Density = 1.965688 g / cm^3
# Si number density = 19.701718 Si / 1000 Ang^3
#
#
#
# Elastic Constant Matrix: (Units=GPa)
#
#
# Indices 1 2 3 4 5 6 
#
# 1 44.4448 2.7770 15.6450 0.0000 2.6697 0.0000
# 2 2.7770 63.3509 29.9964 0.0000 16.0780 0.0000
# 3 15.6450 29.9964 78.0937 0.0000 10.8098 0.0000
# 4 0.0000 0.0000 0.0000 22.1073 0.0000 1.6760
# 5 2.6697 16.0780 10.8098 0.0000 29.3704 0.0000
# 6 0.0000 0.0000 0.0000 1.6760 0.0000 10.6088
#
#
#
# Elastic Compliance Matrix: (Units=1/GPa)
#
#
# Indices 1 2 3 4 5 6 
#
# 1 0.024362 0.001798 -0.005404 0.000000 -0.001210 0.000000
# 2 0.001798 0.021534 -0.007352 0.000000 -0.009246 0.000000
# 3 -0.005404 -0.007352 0.016950 0.000000 -0.001723 0.000000
# 4 0.000000 0.000000 0.000000 0.045782 0.000000 -0.007233
# 5 -0.001210 -0.009246 -0.001723 0.000000 0.039853 0.000000
# 6 0.000000 0.000000 0.000000 -0.007233 0.000000 0.095404
#
#
# Mechanical properties :
#
#
# Convention : Reuss Voigt Hill
#
# Bulk Modulus (GPa) = 24.43147 31.41403 27.92275
# Shear Modulus (GPa) = 17.89267 21.58206 19.73736
#
# Velocity S-wave (km/s) = 3.01687 3.31333 3.16857
# Velocity P-wave (km/s) = 4.95610 5.53326 5.25262
#
# Compressibility (1/GPa) = 0.04093081
#
# Stress axis : x y z
#
# Youngs Moduli (GPa) = 41.04698 46.43870 58.99706
#
# Poissons Ratio (x) = -0.08349 0.31881
# Poissons Ratio (y) = -0.07379 0.43373
# Poissons Ratio (z) = 0.22181 0.34140
#
# Static dielectric constant tensor:
#      x y z
#    x 1.754680 0.000000 0.037290 
#    y 0.000000 1.652130 0.000000 
#    z 0.037290 0.000000 1.741250 
# 
# From -- ./inp_files/270201.got.cif
#   From: 2010.05.17/outbox.cif.g08.bks.cpg/sg12_136_cif.got.tgz:270201.got - 2010.06.03 13:09:07.
