data_PCOD9172274
_publ_section_title
;
Structure prediction by ZEFSAII (Michael W. Deem and Ramdas Pophale) SiO2 
 PCOD9172274
Probable space group: C 2/M
;
_chemical_formula_sum "Si O2"
_cell_formula_units_Z 56
_cell_length_a 35.000483
_cell_length_b 12.541518
_cell_length_c 8.281865
_cell_angle_alpha 90.000000
_cell_angle_beta 65.813073
_cell_angle_gamma 90.000000
_cell_volume 3316.262074
_symmetry_space_group_name_H-M "C 2/M"
_symmetry_group_IT_number 12
_symmetry_cell_setting 'monoclinic'
loop_
_space_group_symop_operation_xyz
x,y,z
-x,y,-z
-x,-y,-z
x,-y,z
1/2+x,1/2+y,z
1/2-x,1/2+y,-z
1/2-x,1/2-y,-z
1/2+x,1/2-y,z
loop_
_atom_site_type_symbol
_atom_site_label
_atom_site_fract_x
_atom_site_fract_y
_atom_site_fract_z
Si Si1 0.695596 0.215518 0.750786
Si Si2 0.132234 0.875576 0.714814
Si Si3 0.773020 0.619529 0.622970
Si Si4 0.954089 0.870402 0.640178
Si Si5 0.543302 0.628727 0.995860
Si Si6 0.363458 0.374495 0.669398
Si Si7 0.702309 0.207572 0.091877
O O1 0.657483 0.295344 0.782624
O O2 0.736200 0.293097 0.685581
O O3 0.701059 0.140514 0.585721
O O4 0.692895 0.160704 0.930700
O O5 0.083159 0.850276 0.816068
O O6 0.145838 0.864451 0.505335
O O7 0.138039 0.000000 0.751879
O O8 0.755652 0.500000 0.650211
O O9 0.798660 0.636455 0.744711
O O10 0.911639 0.840558 0.619408
O O11 0.000000 0.834435 0.500000
O O12 0.955183 0.000000 0.630698
O O13 0.949128 0.836292 0.834320
O O14 0.539464 0.500000 0.010219
O O15 0.500000 0.671036 0.000000
O O16 0.359884 0.500000 0.718561
O O17 0.330151 0.304024 0.822926
O O18 0.750000 0.250000 0.000000
#
# Coordination Sequence:
#
# PCOD9172274 Si02
#       7
#     8   8   8   8   8   8   8
#     4  10  20  35  53  75  97 129 168 208 249 300
#     4  10  18  29  48  71  99 136 172 208 249 296
#     4  10  21  37  53  72 100 129 163 209 258 300
#     4   9  16  26  41  64  96 133 168 201 242 295
#     4   9  16  25  38  61  94 133 170 200 239 292
#     4  10  19  31  48  71 101 138 173 208 253 302
#     4  10  21  35  50  72 100 132 172 215 252 298
#
# _framework density 16.886482999999998
#
# number of rings (size 3 to 8) (size 9 to 14) (size 15 to 20)
#    0.000    2.286    1.429    2.143    0.000    8.000 
#    0.000    0.000    0.000    0.000    0.000    0.000 
#    0.000    1.143    0.571    0.000    0.000    0.000 
#
# Total GULP energy -155953.680099 kJ/mol
# GULP energy per Si atom -5569.774289 kJ/mol
# Density = 1.684805 g / cm^3
# Si number density = 16.886483 Si / 1000 Ang^3
#
#
#
# Elastic Constant Matrix: (Units=GPa)
#
#
# Indices 1 2 3 4 5 6 
#
# 1 72.6701 3.9564 20.5046 0.0000 4.3249 0.0000
# 2 3.9564 21.6573 15.5742 0.0000 4.7587 0.0000
# 3 20.5046 15.5742 93.1768 0.0000 11.1573 0.0000
# 4 0.0000 0.0000 0.0000 8.4460 0.0000 -0.5429
# 5 4.3249 4.7587 11.1573 0.0000 35.0559 0.0000
# 6 0.0000 0.0000 0.0000 -0.5429 0.0000 10.8084
#
#
#
# Elastic Compliance Matrix: (Units=1/GPa)
#
#
# Indices 1 2 3 4 5 6 
#
# 1 0.014696 -0.000288 -0.003091 0.000000 -0.000790 0.000000
# 2 -0.000288 0.053181 -0.008281 0.000000 -0.004548 0.000000
# 3 -0.003091 -0.008281 0.013116 0.000000 -0.002669 0.000000
# 4 0.000000 0.000000 0.000000 0.118782 0.000000 0.005967
# 5 -0.000790 -0.004548 -0.002669 0.000000 0.030090 0.000000
# 6 0.000000 0.000000 0.000000 0.005967 0.000000 0.092821
#
#
# Mechanical properties :
#
#
# Convention : Reuss Voigt Hill
#
# Bulk Modulus (GPa) = 17.33940 29.73052 23.53496
# Shear Modulus (GPa) = 13.68998 20.69332 17.19165
#
# Velocity S-wave (km/s) = 2.85038 3.50442 3.19419
# Velocity P-wave (km/s) = 4.59602 5.83258 5.25083
#
# Compressibility (1/GPa) = 0.05767213
#
# Stress axis : x y z
#
# Youngs Moduli (GPa) = 68.04697 18.80382 76.24117
#
# Poissons Ratio (x) = 0.00542 0.23568
# Poissons Ratio (y) = 0.01961 0.63135
# Poissons Ratio (z) = 0.21035 0.15571
#
# Static dielectric constant tensor:
#      x y z
#    x 1.586120 0.000000 0.023470 
#    y 0.000000 1.535430 0.000000 
#    z 0.023470 0.000000 1.615580 
# 
# From -- ./inp_files/109892.got.cif
#   From: 2010.05.17/outbox.cif.g08.bks.cpg/sg12_55_cif.got.tgz:109892.got - 2010.06.03 13:09:07.
