data_PCOD9172187
_publ_section_title
;
Structure prediction by ZEFSAII (Michael W. Deem and Ramdas Pophale) SiO2 
 PCOD9172187
Probable space group: C 2/M
;
_chemical_formula_sum "Si O2"
_cell_formula_units_Z 48
_cell_length_a 24.064791
_cell_length_b 7.380842
_cell_length_c 13.992413
_cell_angle_alpha 90.000000
_cell_angle_beta 57.259436
_cell_angle_gamma 90.000000
_cell_volume 2090.464309
_symmetry_space_group_name_H-M "C 2/M"
_symmetry_group_IT_number 12
_symmetry_cell_setting 'monoclinic'
loop_
_space_group_symop_operation_xyz
x,y,z
-x,y,-z
-x,-y,-z
x,-y,z
1/2+x,1/2+y,z
1/2-x,1/2+y,-z
1/2-x,1/2-y,-z
1/2+x,1/2-y,z
loop_
_atom_site_type_symbol
_atom_site_label
_atom_site_fract_x
_atom_site_fract_y
_atom_site_fract_z
Si Si1 0.953794 0.279066 0.243216
Si Si2 0.180842 0.283915 0.116276
Si Si3 0.412122 0.221341 0.965413
Si Si4 0.450896 0.778660 0.461028
Si Si5 0.813610 0.715598 0.672870
Si Si6 0.336771 0.216963 0.225750
O O1 0.953835 0.500000 0.244847
O O2 0.968564 0.220331 0.337453
O O3 0.882724 0.219809 0.269971
O O4 0.011691 0.225452 0.116186
O O5 0.171550 0.500000 0.132033
O O6 0.124462 0.218118 0.097215
O O7 0.182721 0.211564 0.222058
O O8 0.250000 0.250000 0.000000
O O9 0.410759 0.000000 0.969407
O O10 0.370727 0.283249 0.095687
O O11 0.500000 0.720601 0.500000
O O12 0.376298 0.719616 0.554629
O O13 0.453228 0.000000 0.458393
O O14 0.822028 0.500000 0.671393
O O15 0.740682 0.743453 0.699199
O O16 0.341783 0.000000 0.219170
#
# Coordination Sequence:
#
# PCOD9172187 Si02
#       6
#     8   8   8   8   8   8
#     4   9  17  29  48  72  96 127 168 206 239 281
#     4  10  18  29  47  71  97 124 156 195 241 287
#     4   9  16  28  47  71  98 125 160 206 245 278
#     4   9  17  31  50  72  98 127 162 205 247 285
#     4  10  20  32  49  74 102 129 160 200 244 290
#     4  10  19  31  49  74 101 130 163 199 242 290
#
# _framework density 22.961406
#
# number of rings (size 3 to 8) (size 9 to 14) (size 15 to 20)
#    0.000    2.500    1.667    1.500    0.000    6.667 
#    0.000    0.000    0.000    3.500    0.000    0.000 
#    0.000    0.000    0.000    0.000    0.000    0.000 
#
# Total GULP energy -134078.882482 kJ/mol
# GULP energy per Si atom -5586.620103 kJ/mol
# Density = 2.290914 g / cm^3
# Si number density = 22.961406 Si / 1000 Ang^3
#
#
#
# Elastic Constant Matrix: (Units=GPa)
#
#
# Indices 1 2 3 4 5 6 
#
# 1 147.0112 -2.9286 51.8329 0.0000 -8.8925 0.0000
# 2 -2.9286 79.0402 -1.5044 0.0000 3.5865 0.0001
# 3 51.8329 -1.5044 100.9675 0.0000 -18.3199 0.0000
# 4 0.0000 0.0000 0.0000 2.5249 0.0000 -9.5092
# 5 -8.8925 3.5865 -18.3199 0.0000 35.0515 0.0000
# 6 0.0000 0.0001 0.0000 -9.5092 0.0000 13.1499
#
#
#
# Elastic Compliance Matrix: (Units=1/GPa)
#
#
# Indices 1 2 3 4 5 6 
#
# 1 0.008310 0.000233 -0.004292 0.000000 -0.000159 0.000000
# 2 0.000233 0.012718 -0.000172 0.000000 -0.001332 0.000000
# 3 -0.004292 -0.000172 0.013158 0.000000 0.005806 0.000000
# 4 0.000000 0.000000 0.000000 -0.229803 0.000000 -0.166179
# 5 -0.000159 -0.001332 0.005806 0.000000 0.031660 0.000000
# 6 0.000000 0.000000 0.000000 -0.166179 0.000000 -0.044124
#
#
# Mechanical properties :
#
#
# Convention : Reuss Voigt Hill
#
# Bulk Modulus (GPa) = 38.87126 46.86874 42.87000
# Shear Modulus (GPa) = -26.17177 28.78652 1.30738
#
# Velocity S-wave (km/s) = -3.37978 3.54459 0.75539
# Velocity P-wave (km/s) = 1.31726 6.09987 4.41269
#
# Compressibility (1/GPa) = 0.02572595
#
# Stress axis : x y z
#
# Youngs Moduli (GPa) = 120.33178 78.63117 75.99834
#
# Poissons Ratio (x) = -0.01835 0.32615
# Poissons Ratio (y) = -0.02809 0.01307
# Poissons Ratio (z) = 0.51641 0.01353
#
# Static dielectric constant tensor:
#      x y z
#    x 1.840290 0.000000 0.005360 
#    y 0.000000 1.919670 0.000000 
#    z 0.005360 0.000000 1.817080 
# 
# From -- ./inp_files/164702.got.cif
#   From: 2010.05.17/outbox.cif.g08.bks.cpg/sg12_83_cif.got.tgz:164702.got - 2010.06.03 13:09:07.
