data_PCOD9172372
_publ_section_title
;
Structure prediction by ZEFSAII (Michael W. Deem and Ramdas Pophale) SiO2 
 PCOD9172372
Probable space group: C 2/M
;
_chemical_formula_sum "Si O2"
_cell_formula_units_Z 64
_cell_length_a 32.685636
_cell_length_b 8.339450
_cell_length_c 16.398479
_cell_angle_alpha 90.000000
_cell_angle_beta 125.445097
_cell_angle_gamma 90.000000
_cell_volume 3641.501489
_symmetry_space_group_name_H-M "C 2/M"
_symmetry_group_IT_number 12
_symmetry_cell_setting 'monoclinic'
loop_
_space_group_symop_operation_xyz
x,y,z
-x,y,-z
-x,-y,-z
x,-y,z
1/2+x,1/2+y,z
1/2-x,1/2+y,-z
1/2-x,1/2-y,-z
1/2+x,1/2-y,z
loop_
_atom_site_type_symbol
_atom_site_label
_atom_site_fract_x
_atom_site_fract_y
_atom_site_fract_z
Si Si1 0.441412 0.691989 0.817219
Si Si2 0.320142 0.191262 0.412943
Si Si3 0.663420 0.308224 0.385204
Si Si4 0.712185 0.191187 0.278103
Si Si5 0.044267 0.307418 0.857285
Si Si6 0.025778 0.695774 0.654602
Si Si7 0.076876 0.304405 0.546947
Si Si8 0.390575 0.805765 0.920840
O O1 0.445563 0.500000 0.821384
O O2 0.393178 0.739377 0.706587
O O3 0.491834 0.766168 0.840104
O O4 0.427974 0.748653 0.892714
O O5 0.324076 0.246174 0.511128
O O6 0.266686 0.246582 0.316934
O O7 0.369176 0.252620 0.421482
O O8 0.321524 0.000000 0.412893
O O9 0.666526 0.500000 0.388120
O O10 0.699475 0.243149 0.355937
O O11 0.665194 0.249559 0.169142
O O12 0.712743 0.000000 0.275964
O O13 0.048489 0.500000 0.857692
O O14 0.042609 0.245969 0.762691
O O15 0.088598 0.249623 0.968065
O O16 0.026022 0.500000 0.655998
O O17 0.060872 0.745332 0.619547
O O18 0.968781 0.743944 0.565710
O O19 0.077502 0.500000 0.547464
O O20 0.390479 0.000000 0.919892
#
# Coordination Sequence:
#
# PCOD9172372 Si02
#       8
#     8   8   8   8   8   8   8   8
#     4  10  20  31  45  68  98 128 154 184 227 278
#     4  11  20  30  48  72  94 119 154 192 232 275
#     4  10  20  33  47  67  96 126 156 188 225 273
#     4  10  20  34  48  63  90 126 160 194 230 269
#     4  10  18  29  49  72  92 119 157 197 231 267
#     4   8  14  27  47  71  96 118 144 182 228 273
#     4   8  15  27  45  71  98 119 142 180 229 278
#     4   9  19  33  47  65  90 123 162 197 228 265
#
# _framework density 17.575168999999999
#
# number of rings (size 3 to 8) (size 9 to 14) (size 15 to 20)
#    0.000    2.500    0.000    3.750    0.000    5.000 
#    0.000    0.000    0.000    2.250    0.000    6.125 
#    0.000    0.000    0.000    0.000    0.000    0.500 
#
# Total GULP energy -178530.921084 kJ/mol
# GULP energy per Si atom -5579.091284 kJ/mol
# Density = 1.753517 g / cm^3
# Si number density = 17.575169 Si / 1000 Ang^3
#
#
#
# Elastic Constant Matrix: (Units=GPa)
#
#
# Indices 1 2 3 4 5 6 
#
# 1 129.5478 10.1711 80.8887 0.0000 13.0393 0.0000
# 2 10.1711 11.1749 11.7796 0.0000 2.0397 0.0000
# 3 80.8887 11.7796 142.9727 0.0000 -9.0054 0.0000
# 4 0.0000 0.0000 0.0000 11.4499 0.0000 9.9586
# 5 13.0393 2.0397 -9.0054 0.0000 15.2868 0.0000
# 6 0.0000 0.0000 0.0000 9.9586 0.0000 14.6972
#
#
#
# Elastic Compliance Matrix: (Units=1/GPa)
#
#
# Indices 1 2 3 4 5 6 
#
# 1 0.016275 -0.000134 -0.010458 0.000000 -0.020026 0.000000
# 2 -0.000134 0.103320 -0.009656 0.000000 -0.019360 0.000000
# 3 -0.010458 -0.009656 0.014903 0.000000 0.018988 0.000000
# 4 0.000000 0.000000 0.000000 0.212668 0.000000 -0.144100
# 5 -0.020026 -0.019360 0.018988 0.000000 0.096266 0.000000
# 6 0.000000 0.000000 0.000000 -0.144100 0.000000 0.165679
#
#
# Mechanical properties :
#
#
# Convention : Reuss Voigt Hill
#
# Bulk Modulus (GPa) = 10.63813 54.37491 32.50652
# Shear Modulus (GPa) = 7.34275 20.34386 13.84331
#
# Velocity S-wave (km/s) = 2.04621 3.40595 2.80958
# Velocity P-wave (km/s) = 3.41302 6.81711 5.39081
#
# Compressibility (1/GPa) = 0.09400145
#
# Stress axis : x y z
#
# Youngs Moduli (GPa) = 61.44229 9.67864 67.10112
#
# Poissons Ratio (x) = 0.00130 0.70177
# Poissons Ratio (y) = 0.00824 0.64794
# Poissons Ratio (z) = 0.64258 0.09346
#
# Static dielectric constant tensor:
#      x y z
#    x 1.585010 0.000000 0.017080 
#    y 0.000000 1.601160 0.000000 
#    z 0.017080 0.000000 1.619530 
# 
# From -- ./inp_files/248960.got.cif
#   From: 2010.05.17/outbox.cif.g08.bks.cpg/sg12_125_cif.got.tgz:248960.got - 2010.06.03 13:09:07.
