data_PCOD9172199
_publ_section_title
;
Structure prediction by ZEFSAII (Michael W. Deem and Ramdas Pophale) SiO2 
 PCOD9172199
Probable space group: C 2/M
;
_chemical_formula_sum "Si O2"
_cell_formula_units_Z 48
_cell_length_a 20.456429
_cell_length_b 9.057331
_cell_length_c 15.697686
_cell_angle_alpha 90.000000
_cell_angle_beta 79.956309
_cell_angle_gamma 90.000000
_cell_volume 2863.905174
_symmetry_space_group_name_H-M "C 2/M"
_symmetry_group_IT_number 12
_symmetry_cell_setting 'monoclinic'
loop_
_space_group_symop_operation_xyz
x,y,z
-x,y,-z
-x,-y,-z
x,-y,z
1/2+x,1/2+y,z
1/2-x,1/2+y,-z
1/2-x,1/2-y,-z
1/2+x,1/2-y,z
loop_
_atom_site_type_symbol
_atom_site_label
_atom_site_fract_x
_atom_site_fract_y
_atom_site_fract_z
Si Si1 0.408582 0.172824 0.595379
Si Si2 0.680632 0.677881 0.040831
Si Si3 0.610182 0.676156 0.229323
Si Si4 0.955540 0.823535 0.228051
Si Si5 0.426773 0.825702 0.057190
Si Si6 0.932836 0.674118 0.405056
O O1 0.375381 0.254090 0.682123
O O2 0.398016 0.225576 0.500657
O O3 0.487960 0.184689 0.594376
O O4 0.391979 0.000000 0.601585
O O5 0.683569 0.500000 0.035865
O O6 0.658385 0.720657 0.141721
O O7 0.750000 0.750000 0.000000
O O8 0.624862 0.738820 0.989684
O O9 0.612533 0.500000 0.237251
O O10 0.534311 0.713505 0.219257
O O11 0.928457 0.741882 0.151213
O O12 0.921249 0.766173 0.322430
O O13 0.949658 0.000000 0.221188
O O14 0.410902 0.000000 0.062896
O O15 0.500000 0.808747 0.000000
O O16 0.918514 0.500000 0.395269
#
# Coordination Sequence:
#
# PCOD9172199 Si02
#       6
#     8   8   8   8   8   8
#     4   8  14  24  41  63  93 130 166 203 247 298
#     4  11  23  39  55  75 105 138 175 218 261 307
#     4   9  18  30  46  69  99 132 167 209 256 301
#     4  10  18  29  47  72 101 134 168 208 257 304
#     4  11  22  35  54  78 102 135 176 215 259 311
#     4   8  14  25  39  63  97 130 163 204 249 296
#
# _framework density 16.760331000000001
#
# number of rings (size 3 to 8) (size 9 to 14) (size 15 to 20)
#    0.000    2.500    1.667    2.500    0.000    3.333 
#    0.000    3.333    0.000    0.000    0.000    1.167 
#    0.000    0.000    0.000    0.000    0.000    0.000 
#
# Total GULP energy -133747.634100 kJ/mol
# GULP energy per Si atom -5572.818088 kJ/mol
# Density = 1.672218 g / cm^3
# Si number density = 16.760331 Si / 1000 Ang^3
#
#
#
# Elastic Constant Matrix: (Units=GPa)
#
#
# Indices 1 2 3 4 5 6 
#
# 1 43.7245 30.2729 40.9762 0.0000 -11.8421 0.0000
# 2 30.2729 57.4581 65.2446 0.0000 -6.4811 0.0000
# 3 40.9762 65.2446 188.5366 0.0000 -18.9072 0.0000
# 4 0.0000 0.0000 0.0000 34.6276 0.0000 0.7438
# 5 -11.8421 -6.4811 -18.9072 0.0000 13.4882 0.0000
# 6 0.0000 0.0000 0.0000 0.7438 0.0000 18.9389
#
#
#
# Elastic Compliance Matrix: (Units=1/GPa)
#
#
# Indices 1 2 3 4 5 6 
#
# 1 0.045050 -0.020839 0.000445 0.000000 0.030163 0.000000
# 2 -0.020839 0.038310 -0.010143 0.000000 -0.014105 0.000000
# 3 0.000445 -0.010143 0.009620 0.000000 0.009002 0.000000
# 4 0.000000 0.000000 0.000000 0.028903 0.000000 -0.001135
# 5 0.030163 -0.014105 0.009002 0.000000 0.106462 0.000000
# 6 0.000000 0.000000 0.000000 -0.001135 0.000000 0.052846
#
#
# Mechanical properties :
#
#
# Convention : Reuss Voigt Hill
#
# Bulk Modulus (GPa) = 31.34103 62.52294 46.93199
# Shear Modulus (GPa) = 14.16832 23.62596 18.89714
#
# Velocity S-wave (km/s) = 2.91064 3.75858 3.36146
# Velocity P-wave (km/s) = 5.48050 7.49807 6.56723
#
# Compressibility (1/GPa) = 0.03190706
#
# Stress axis : x y z
#
# Youngs Moduli (GPa) = 22.19738 26.10307 103.94963
#
# Poissons Ratio (x) = 0.54396 -0.04628
# Poissons Ratio (y) = 0.46257 1.05435
# Poissons Ratio (z) = -0.00988 0.26476
#
# Static dielectric constant tensor:
#      x y z
#    x 1.545910 0.000000 -0.009940 
#    y 0.000000 1.555540 0.000000 
#    z -0.009940 0.000000 1.585370 
# 
# From -- ./inp_files/229278.got.cif
#   From: 2010.05.17/outbox.cif.g08.bks.cpg/sg12_115_cif.got.tgz:229278.got - 2010.06.03 13:09:07.
