data_PCOD9172109
_publ_section_title
;
Structure prediction by ZEFSAII (Michael W. Deem and Ramdas Pophale) SiO2 
 PCOD9172109
Probable space group: C 2/M
;
_chemical_formula_sum "Si O2"
_cell_formula_units_Z 64
_cell_length_a 25.526924
_cell_length_b 8.877106
_cell_length_c 21.102653
_cell_angle_alpha 90.000000
_cell_angle_beta 65.295588
_cell_angle_gamma 90.000000
_cell_volume 4344.305982
_symmetry_space_group_name_H-M "C 2/M"
_symmetry_group_IT_number 12
_symmetry_cell_setting 'monoclinic'
loop_
_space_group_symop_operation_xyz
x,y,z
-x,y,-z
-x,-y,-z
x,-y,z
1/2+x,1/2+y,z
1/2-x,1/2+y,-z
1/2-x,1/2-y,-z
1/2+x,1/2-y,z
loop_
_atom_site_type_symbol
_atom_site_label
_atom_site_fract_x
_atom_site_fract_y
_atom_site_fract_z
Si Si1 0.580776 0.819817 0.569135
Si Si2 0.369801 0.821948 0.790249
Si Si3 0.749882 0.319548 0.674470
Si Si4 0.731815 0.822061 0.074967
Si Si5 0.385944 0.180776 0.591785
Si Si6 0.757706 0.820732 0.801056
Si Si7 0.296878 0.180508 0.428563
Si Si8 0.961061 0.178827 0.666868
O O1 0.525947 0.734198 0.624165
O O2 0.590886 0.782833 0.490055
O O3 0.639534 0.785760 0.576956
O O4 0.570607 0.000000 0.578027
O O5 0.336721 0.801686 0.874002
O O6 0.431183 0.752439 0.743978
O O7 0.369558 0.000000 0.776188
O O8 0.744847 0.500000 0.677663
O O9 0.817821 0.282602 0.629070
O O10 0.731456 0.251694 0.751504
O O11 0.714648 0.249318 0.634496
O O12 0.762224 0.745301 0.120814
O O13 0.743179 0.000000 0.069510
O O14 0.750000 0.750000 0.000000
O O15 0.424029 0.261435 0.625619
O O16 0.391046 0.000000 0.598571
O O17 0.824328 0.764184 0.767957
O O18 0.754226 0.000000 0.801995
O O19 0.250000 0.250000 0.500000
O O20 0.290070 0.000000 0.430689
O O21 0.957678 0.000000 0.672192
#
# Coordination Sequence:
#
# PCOD9172109 Si02
#       8
#     8   8   8   8   8   8   8   8
#     4  10  22  38  50  63  88 125 162 200 252 304
#     4   9  18  31  46  65  94 131 160 186 231 284
#     4  11  20  33  52  72  96 127 163 205 254 302
#     4   9  17  28  46  71 102 137 164 193 233 285
#     4  10  19  33  50  66  89 124 157 194 249 304
#     4  10  18  29  46  71  98 128 163 198 235 284
#     4  11  22  37  54  71  91 122 164 212 261 303
#     4  12  23  32  47  71  95 122 160 206 246 288
#
# _framework density 14.731927000000001
#
# number of rings (size 3 to 8) (size 9 to 14) (size 15 to 20)
#    0.750    1.000    2.500    3.750    0.000    3.500 
#    0.000    0.000    0.000    0.000    0.000    0.000 
#    0.000    1.000    0.000   10.500    0.000    5.000 
#
# Total GULP energy -178287.245567 kJ/mol
# GULP energy per Si atom -5571.476424 kJ/mol
# Density = 1.469840 g / cm^3
# Si number density = 14.731927 Si / 1000 Ang^3
#
#
#
# Elastic Constant Matrix: (Units=GPa)
#
#
# Indices 1 2 3 4 5 6 
#
# 1 64.4014 47.3620 46.1197 0.0001 1.6911 0.0003
# 2 47.3620 91.2196 59.8895 0.0002 0.2624 0.0006
# 3 46.1197 59.8895 124.6321 0.0000 9.6481 0.0002
# 4 0.0001 0.0002 0.0000 25.3596 0.0000 2.1451
# 5 1.6911 0.2624 9.6481 0.0000 17.0477 0.0000
# 6 0.0003 0.0006 0.0002 2.1451 0.0000 22.6314
#
#
#
# Elastic Compliance Matrix: (Units=1/GPa)
#
#
# Indices 1 2 3 4 5 6 
#
# 1 0.026908 -0.010846 -0.004760 0.000000 0.000192 0.000000
# 2 -0.010846 0.020694 -0.006263 0.000000 0.004302 0.000000
# 3 -0.004760 -0.006263 0.013335 0.000000 -0.006978 0.000000
# 4 0.000000 0.000000 0.000000 0.039751 0.000000 -0.003768
# 5 0.000192 0.004302 -0.006978 0.000000 0.062523 0.000000
# 6 0.000000 0.000000 0.000000 -0.003768 0.000000 0.044544
#
#
# Mechanical properties :
#
#
# Convention : Reuss Voigt Hill
#
# Bulk Modulus (GPa) = 58.14857 65.22174 61.68515
# Shear Modulus (GPa) = 19.43812 21.46654 20.45233
#
# Velocity S-wave (km/s) = 3.63637 3.82140 3.73003
# Velocity P-wave (km/s) = 7.56226 7.98995 7.77904
#
# Compressibility (1/GPa) = 0.01719733
#
# Stress axis : x y z
#
# Youngs Moduli (GPa) = 37.16382 48.32361 74.99024
#
# Poissons Ratio (x) = 0.52412 0.35696
# Poissons Ratio (y) = 0.40308 0.46970
# Poissons Ratio (z) = 0.17690 0.30267
#
# Static dielectric constant tensor:
#      x y z
#    x 1.474140 0.000000 -0.000070 
#    y 0.000000 1.486330 0.000000 
#    z -0.000070 0.000000 1.502890 
# 
# From -- ./inp_files/323660.got.cif
#   From: 2010.05.17/outbox.cif.g08.bks.cpg/sg12_162_cif.got.tgz:323660.got - 2010.06.03 13:09:07.
