data_PCOD9172958
_publ_section_title
;
Structure prediction by ZEFSAII (Michael W. Deem and Ramdas Pophale) SiO2 
 PCOD9172958
Probable space group: C 2/M
;
_chemical_formula_sum "Si O2"
_cell_formula_units_Z 56
_cell_length_a 7.976462
_cell_length_b 30.130090
_cell_length_c 15.396800
_cell_angle_alpha 90.000000
_cell_angle_beta 121.781122
_cell_angle_gamma 90.000000
_cell_volume 3145.531089
_symmetry_space_group_name_H-M "C 2/M"
_symmetry_group_IT_number 12
_symmetry_cell_setting 'monoclinic'
loop_
_space_group_symop_operation_xyz
x,y,z
-x,y,-z
-x,-y,-z
x,-y,z
1/2+x,1/2+y,z
1/2-x,1/2+y,-z
1/2-x,1/2-y,-z
1/2+x,1/2-y,z
loop_
_atom_site_type_symbol
_atom_site_label
_atom_site_fract_x
_atom_site_fract_y
_atom_site_fract_z
Si Si1 0.974972 0.357234 0.188742
Si Si2 0.323077 0.301257 0.609371
Si Si3 0.435673 0.798412 0.621014
Si Si4 0.178357 0.950963 0.877265
Si Si5 0.290905 0.801356 0.993189
Si Si6 0.907245 0.450970 0.116779
Si Si7 0.609843 0.357745 0.798638
O O1 0.030820 0.331946 0.291455
O O2 0.174293 0.359008 0.186011
O O3 0.903782 0.408066 0.176808
O O4 0.819900 0.328812 0.089831
O O5 0.418231 0.252610 0.646165
O O6 0.256794 0.307200 0.491273
O O7 0.464306 0.337933 0.687858
O O8 0.124996 0.301530 0.611474
O O9 0.381012 0.951507 0.875564
O O10 0.061266 0.907561 0.815934
O O11 0.087223 0.000000 0.842919
O O12 0.249213 0.945320 0.996036
O O13 0.131786 0.825032 0.887332
O O14 0.500000 0.803678 0.000000
O O15 0.250000 0.750000 0.000000
O O16 0.880051 0.500000 0.148720
#
# Coordination Sequence:
#
# PCOD9172958 Si02
#       7
#     8   8   8   8   8   8   8
#     4  10  18  30  49  73 100 127 159 196 237 286
#     4  10  21  36  52  70  93 124 164 205 243 284
#     4  10  21  36  52  70  93 124 164 205 243 284
#     4   8  13  24  45  72 100 128 158 194 236 281
#     4  10  20  30  41  65  99 129 154 186 231 284
#     4   8  13  24  45  72 100 128 158 194 236 281
#     4  10  18  30  49  73 100 127 159 196 237 286
#
# _framework density 17.803035000000001
#
# number of rings (size 3 to 8) (size 9 to 14) (size 15 to 20)
#    0.000    2.571    1.429    2.571    0.000    5.143 
#    0.000    0.000    0.000    1.714    0.000    8.000 
#    0.000    0.000    0.000    0.000    0.000    0.000 
#
# Total GULP energy -156132.486074 kJ/mol
# GULP energy per Si atom -5576.160217 kJ/mol
# Density = 1.776251 g / cm^3
# Si number density = 17.803035 Si / 1000 Ang^3
#
#
#
# Elastic Constant Matrix: (Units=GPa)
#
#
# Indices 1 2 3 4 5 6 
#
# 1 1.8129 -16.8377 -13.3312 0.0000 -7.2304 0.0000
# 2 -16.8377 127.8539 47.2603 0.0000 -16.4713 0.0000
# 3 -13.3312 47.2603 60.7096 0.0000 -14.1665 0.0000
# 4 0.0000 0.0000 0.0000 27.9910 0.0000 3.1252
# 5 -7.2304 -16.4713 -14.1665 0.0000 15.0304 0.0000
# 6 0.0000 0.0000 0.0000 3.1252 0.0000 14.0477
#
#
#
# Elastic Compliance Matrix: (Units=1/GPa)
#
#
# Indices 1 2 3 4 5 6 
#
# 1 -0.085706 -0.010901 -0.029155 0.000000 -0.080654 0.000000
# 2 -0.010901 0.009908 -0.011277 0.000000 -0.005015 0.000000
# 3 -0.029155 -0.011277 0.016271 0.000000 -0.011048 0.000000
# 4 0.000000 0.000000 0.000000 0.036636 0.000000 -0.008150
# 5 -0.080654 -0.005015 -0.011048 0.000000 0.011825 0.000000
# 6 0.000000 0.000000 0.000000 -0.008150 0.000000 0.072999
#
#
# Mechanical properties :
#
#
# Convention : Reuss Voigt Hill
#
# Bulk Modulus (GPa) = -6.16549 24.95103 9.39277
# Shear Modulus (GPa) = 45.23512 22.96614 34.10063
#
# Velocity S-wave (km/s) = 5.04617 3.59557 4.38132
# Velocity P-wave (km/s) = 5.52097 5.59312 5.55716
#
# Compressibility (1/GPa) = -0.16219314
#
# Stress axis : x y z
#
# Youngs Moduli (GPa) = -11.66774 100.92523 61.46027
#
# Poissons Ratio (x) = 1.10017 1.79186
# Poissons Ratio (y) = -0.12719 0.69310
# Poissons Ratio (z) = -0.34017 1.13815
#
# Static dielectric constant tensor:
#      x y z
#    x 1.654080 0.000000 0.000330 
#    y 0.000000 1.627490 0.000000 
#    z 0.000330 0.000000 1.602110 
# 
# From -- ./inp_files/200659.got.cif
#   From: 2010.05.17/outbox.cif.g08.bks.cpg/sg12_101_cif.got.tgz:200659.got - 2010.06.03 13:09:07.
