data_PCOD9172840
_publ_section_title
;
Structure prediction by ZEFSAII (Michael W. Deem and Ramdas Pophale) SiO2 
 PCOD9172840
Probable space group: C 2/M
;
_chemical_formula_sum "Si O2"
_cell_formula_units_Z 48
_cell_length_a 22.842061
_cell_length_b 8.696480
_cell_length_c 20.283818
_cell_angle_alpha 90.000000
_cell_angle_beta 43.849143
_cell_angle_gamma 90.000000
_cell_volume 2791.338709
_symmetry_space_group_name_H-M "C 2/M"
_symmetry_group_IT_number 12
_symmetry_cell_setting 'monoclinic'
loop_
_space_group_symop_operation_xyz
x,y,z
-x,y,-z
-x,-y,-z
x,-y,z
1/2+x,1/2+y,z
1/2-x,1/2+y,-z
1/2-x,1/2-y,-z
1/2+x,1/2-y,z
loop_
_atom_site_type_symbol
_atom_site_label
_atom_site_fract_x
_atom_site_fract_y
_atom_site_fract_z
Si Si1 0.597237 0.685037 0.908312
Si Si2 0.341806 0.684591 0.287755
Si Si3 0.803549 0.816234 0.518308
Si Si4 0.447983 0.817248 0.324141
Si Si5 0.312227 0.183046 0.039754
Si Si6 0.875866 0.817103 0.854134
O O1 0.603314 0.500000 0.910369
O O2 0.625260 0.724471 0.811511
O O3 0.655066 0.762693 0.916404
O O4 0.500000 0.729128 0.000000
O O5 0.340806 0.500000 0.295942
O O6 0.248218 0.750538 0.377860
O O7 0.403655 0.753035 0.293455
O O8 0.750000 0.750000 0.500000
O O9 0.897144 0.755877 0.426858
O O10 0.801361 0.000000 0.519673
O O11 0.545080 0.767927 0.242152
O O12 0.438334 0.000000 0.333464
O O13 0.213523 0.220181 0.107818
O O14 0.322083 0.000000 0.024184
O O15 0.364606 0.265631 0.939173
O O16 0.889543 0.000000 0.840318
#
# Coordination Sequence:
#
# PCOD9172840 Si02
#       6
#     8   8   8   8   8   8
#     4  10  21  35  52  74 103 138 169 201 246 298
#     4  10  19  32  50  74 105 138 169 205 251 299
#     4  10  18  30  48  71 101 134 167 207 253 297
#     4  11  20  31  51  78 103 130 168 210 252 297
#     4  10  21  35  53  76 101 132 169 208 248 293
#     4  10  20  35  53  74 102 133 166 206 252 298
#
# _framework density 17.19605
#
# number of rings (size 3 to 8) (size 9 to 14) (size 15 to 20)
#    0.000    1.833    0.000    7.500    0.000    5.000 
#    0.000    0.000    0.000    1.000    0.000    7.000 
#    0.000    0.000    0.000    0.000    0.000    0.000 
#
# Total GULP energy -133987.820798 kJ/mol
# GULP energy per Si atom -5582.825867 kJ/mol
# Density = 1.715691 g / cm^3
# Si number density = 17.196050 Si / 1000 Ang^3
#
#
#
# Elastic Constant Matrix: (Units=GPa)
#
#
# Indices 1 2 3 4 5 6 
#
# 1 51.7413 25.6853 37.5614 0.0000 6.8899 0.0001
# 2 25.6853 92.3892 61.3265 -0.0001 0.9673 0.0002
# 3 37.5614 61.3265 157.3340 0.0000 0.4523 0.0000
# 4 0.0000 -0.0001 0.0000 31.5032 0.0000 -1.8374
# 5 6.8899 0.9673 0.4523 0.0000 19.5624 0.0000
# 6 0.0001 0.0002 0.0000 -1.8374 0.0000 24.7760
#
#
#
# Elastic Compliance Matrix: (Units=1/GPa)
#
#
# Indices 1 2 3 4 5 6 
#
# 1 0.025821 -0.004063 -0.004556 0.000000 -0.008788 0.000000
# 2 -0.004063 0.015248 -0.004976 0.000000 0.000792 0.000000
# 3 -0.004556 -0.004976 0.009378 0.000000 0.001634 0.000000
# 4 0.000000 0.000000 0.000000 0.031881 0.000000 0.002364
# 5 -0.008788 0.000792 0.001634 0.000000 0.054137 0.000000
# 6 0.000000 0.000000 0.000000 0.002364 0.000000 0.040537
#
#
# Mechanical properties :
#
#
# Convention : Reuss Voigt Hill
#
# Bulk Modulus (GPa) = 42.99390 61.17899 52.08644
# Shear Modulus (GPa) = 23.59133 26.96108 25.27621
#
# Velocity S-wave (km/s) = 3.70794 3.96392 3.83807
# Velocity P-wave (km/s) = 6.58697 7.52362 7.07082
#
# Compressibility (1/GPa) = 0.02325912
#
# Stress axis : x y z
#
# Youngs Moduli (GPa) = 38.72819 65.58346 106.62951
#
# Poissons Ratio (x) = 0.26644 0.48576
# Poissons Ratio (y) = 0.15734 0.53056
# Poissons Ratio (z) = 0.17643 0.32633
#
# Static dielectric constant tensor:
#      x y z
#    x 1.561410 0.000000 -0.012740 
#    y 0.000000 1.575710 0.000000 
#    z -0.012740 0.000000 1.611940 
# 
# From -- ./inp_files/319571.got.cif
#   From: 2010.05.17/outbox.cif.g08.bks.cpg/sg12_160_cif.got.tgz:319571.got - 2010.06.03 13:09:07.
