data_PCOD9172782
_publ_section_title
;
Structure prediction by ZEFSAII (Michael W. Deem and Ramdas Pophale) SiO2 
 PCOD9172782
Probable space group: C 2/M
;
_chemical_formula_sum "Si O2"
_cell_formula_units_Z 36
_cell_length_a 11.996769
_cell_length_b 31.781151
_cell_length_c 5.499486
_cell_angle_alpha 90.000000
_cell_angle_beta 74.148896
_cell_angle_gamma 90.000000
_cell_volume 2017.064074
_symmetry_space_group_name_H-M "C 2/M"
_symmetry_group_IT_number 12
_symmetry_cell_setting 'monoclinic'
loop_
_space_group_symop_operation_xyz
x,y,z
-x,y,-z
-x,-y,-z
x,-y,z
1/2+x,1/2+y,z
1/2-x,1/2+y,-z
1/2-x,1/2-y,-z
1/2+x,1/2-y,z
loop_
_atom_site_type_symbol
_atom_site_label
_atom_site_fract_x
_atom_site_fract_y
_atom_site_fract_z
Si Si1 0.626142 0.268117 0.801315
Si Si2 0.140708 0.405101 0.914381
Si Si3 0.140784 0.451391 0.415295
Si Si4 0.183341 0.314022 0.056907
Si Si5 0.500000 0.221879 0.500000
O O1 0.712278 0.305590 0.816358
O O2 0.596008 0.253621 0.548395
O O3 0.500000 0.275210 0.000000
O O4 0.680315 0.225422 0.878585
O O5 0.176427 0.426293 0.637826
O O6 0.175720 0.430748 0.137126
O O7 0.187574 0.358013 0.919646
O O8 0.000000 0.403436 0.000000
O O9 0.177945 0.500000 0.406794
O O10 0.000000 0.451161 0.500000
O O11 0.061653 0.308229 0.270665
#
# Coordination Sequence:
#
# PCOD9172782 Si02
#       5
#     8   8   8   8   4
#     4   9  19  34  46  65  95 131 166 202 246 284
#     4  10  19  29  47  71  98 128 166 200 238 293
#     4   9  18  31  46  66  97 132 160 193 245 301
#     4  10  20  30  47  69  96 128 167 204 241 286
#     4  10  18  30  48  66  93 132 161 204 242 292
#
# _framework density 17.847722999999998
#
# number of rings (size 3 to 8) (size 9 to 14) (size 15 to 20)
#    0.000    2.444    0.000    3.333    7.778    2.667 
#    0.000    0.000    0.000    0.000    0.000    0.000 
#    0.000    5.333    0.000    0.000    0.000    0.000 
#
# Total GULP energy -100330.169501 kJ/mol
# GULP energy per Si atom -5573.898306 kJ/mol
# Density = 1.780710 g / cm^3
# Si number density = 17.847723 Si / 1000 Ang^3
#
#
#
# Elastic Constant Matrix: (Units=GPa)
#
#
# Indices 1 2 3 4 5 6 
#
# 1 56.2060 40.7565 28.4519 0.0000 17.4970 0.0000
# 2 40.7565 126.8002 49.0621 0.0000 25.3373 0.0000
# 3 28.4519 49.0621 87.7281 0.0000 24.4834 0.0000
# 4 0.0000 0.0000 0.0000 20.8192 0.0000 12.2737
# 5 17.4970 25.3373 24.4834 0.0000 32.4124 0.0000
# 6 0.0000 0.0000 0.0000 12.2737 0.0000 21.2991
#
#
#
# Elastic Compliance Matrix: (Units=1/GPa)
#
#
# Indices 1 2 3 4 5 6 
#
# 1 0.025679 -0.005595 -0.003233 0.000000 -0.007047 0.000000
# 2 -0.005595 0.011850 -0.003891 0.000000 -0.003305 0.000000
# 3 -0.003233 -0.003891 0.016837 0.000000 -0.007932 0.000000
# 4 0.000000 0.000000 0.000000 0.072746 0.000000 -0.041920
# 5 -0.007047 -0.003305 -0.007932 0.000000 0.043231 0.000000
# 6 0.000000 0.000000 0.000000 -0.041920 0.000000 0.071107
#
#
# Mechanical properties :
#
#
# Convention : Reuss Voigt Hill
#
# Bulk Modulus (GPa) = 34.56667 56.36392 45.46529
# Shear Modulus (GPa) = 18.08134 25.07042 21.57588
#
# Velocity S-wave (km/s) = 3.18636 3.75198 3.48068
# Velocity P-wave (km/s) = 5.73993 7.10062 6.45622
#
# Compressibility (1/GPa) = 0.02892960
#
# Stress axis : x y z
#
# Youngs Moduli (GPa) = 38.94293 84.38506 59.39433
#
# Poissons Ratio (x) = 0.47213 0.19199
# Poissons Ratio (y) = 0.21788 0.23108
# Poissons Ratio (z) = 0.12588 0.32831
#
# Static dielectric constant tensor:
#      x y z
#    x 1.650080 0.000000 0.032900 
#    y 0.000000 1.596760 0.000000 
#    z 0.032900 0.000000 1.691150 
# 
# From -- ./inp_files/7381.got.cif
#   From: 2010.05.17/outbox.cif.g08.bks.cpg/sg12_4_cif.got.tgz:7381.got - 2010.06.03 13:09:07.
