data_PCOD9172092
_publ_section_title
;
Structure prediction by ZEFSAII (Michael W. Deem and Ramdas Pophale) SiO2 
 PCOD9172092
Probable space group: C 2/M
;
_chemical_formula_sum "Si O2"
_cell_formula_units_Z 44
_cell_length_a 13.447514
_cell_length_b 19.049204
_cell_length_c 11.971953
_cell_angle_alpha 90.000000
_cell_angle_beta 47.720159
_cell_angle_gamma 90.000000
_cell_volume 2269.018269
_symmetry_space_group_name_H-M "C 2/M"
_symmetry_group_IT_number 12
_symmetry_cell_setting 'monoclinic'
loop_
_space_group_symop_operation_xyz
x,y,z
-x,y,-z
-x,-y,-z
x,-y,z
1/2+x,1/2+y,z
1/2-x,1/2+y,-z
1/2-x,1/2-y,-z
1/2+x,1/2-y,z
loop_
_atom_site_type_symbol
_atom_site_label
_atom_site_fract_x
_atom_site_fract_y
_atom_site_fract_z
Si Si1 0.410260 0.844990 0.261120
Si Si2 0.252767 0.763448 0.187110
Si Si3 0.146902 0.147921 0.578267
Si Si4 0.075495 0.500000 0.824897
Si Si5 0.000000 0.240275 0.500000
Si Si6 0.926826 0.209809 0.874920
Si Si7 0.130937 0.000000 0.476181
O O1 0.329380 0.816861 0.212168
O O2 0.304409 0.834793 0.442882
O O3 0.453553 0.925534 0.213748
O O4 0.530738 0.790782 0.179126
O O5 0.181071 0.806652 0.140449
O O6 0.130876 0.725514 0.345033
O O7 0.355316 0.711422 0.048150
O O8 0.066595 0.191454 0.544462
O O9 0.064676 0.167346 0.751297
O O10 0.135489 0.067816 0.550604
O O11 0.238475 0.500000 0.702775
O O12 0.000000 0.500000 0.000000
O O13 0.000000 0.000000 0.500000
#
# Coordination Sequence:
#
# PCOD9172092 Si02
#       7
#     8   8   8   4   4   8   4
#     4  10  19  33  48  71 104 134 164 203 255 303
#     4   9  18  29  45  67  95 132 165 206 245 298
#     4   9  17  28  46  69  97 130 161 194 246 300
#     4  10  20  30  48  72 101 136 164 199 252 312
#     4   8  14  27  42  64  94 123 158 190 242 295
#     4  10  18  29  46  70 100 129 169 206 244 294
#     4  10  18  30  48  72 102 137 160 199 253 311
#
# _framework density 19.391646000000001
#
# number of rings (size 3 to 8) (size 9 to 14) (size 15 to 20)
#    0.000    2.545    0.909    2.182    2.545    0.000 
#    0.000    0.000    0.000    0.000    0.000    3.818 
#    0.000   41.455    0.000    0.000    0.000    0.000 
#
# Total GULP energy -122546.910262 kJ/mol
# GULP energy per Si atom -5570.314103 kJ/mol
# Density = 1.934751 g / cm^3
# Si number density = 19.391646 Si / 1000 Ang^3
#
#
#
# Elastic Constant Matrix: (Units=GPa)
#
#
# Indices 1 2 3 4 5 6 
#
# 1 39.6091 15.5035 5.4896 0.0000 3.0760 0.0000
# 2 15.5035 73.4224 43.4407 0.0000 -2.5748 0.0000
# 3 5.4896 43.4407 200.5309 0.0000 -9.3647 0.0000
# 4 0.0000 0.0000 0.0000 22.8382 0.0000 -2.3051
# 5 3.0760 -2.5748 -9.3647 0.0000 22.1745 0.0000
# 6 0.0000 0.0000 0.0000 -2.3051 0.0000 8.5361
#
#
#
# Elastic Compliance Matrix: (Units=1/GPa)
#
#
# Indices 1 2 3 4 5 6 
#
# 1 0.028004 -0.006300 0.000390 0.000000 -0.004451 0.000000
# 2 -0.006300 0.017043 -0.003454 0.000000 0.001394 0.000000
# 3 0.000390 -0.003454 0.005818 0.000000 0.002002 0.000000
# 4 0.000000 0.000000 0.000000 0.045013 0.000000 0.012156
# 5 -0.004451 0.001394 0.002002 0.000000 0.046722 0.000000
# 6 0.000000 0.000000 0.000000 0.012156 0.000000 0.120432
#
#
# Mechanical properties :
#
#
# Convention : Reuss Voigt Hill
#
# Bulk Modulus (GPa) = 31.11741 49.15889 40.13815
# Shear Modulus (GPa) = 17.09563 27.31833 22.20698
#
# Velocity S-wave (km/s) = 2.97239 3.75743 3.38773
# Velocity P-wave (km/s) = 5.27843 6.65056 6.00382
#
# Compressibility (1/GPa) = 0.03213635
#
# Stress axis : x y z
#
# Youngs Moduli (GPa) = 35.70872 58.67555 171.88390
#
# Poissons Ratio (x) = 0.36967 -0.06709
# Poissons Ratio (y) = 0.22498 0.59376
# Poissons Ratio (z) = -0.01394 0.20269
#
# Static dielectric constant tensor:
#      x y z
#    x 1.711890 0.000000 -0.008780 
#    y 0.000000 1.658830 0.000000 
#    z -0.008780 0.000000 1.794130 
# 
# From -- ./inp_files/226019.got.cif
#   From: 2010.05.17/outbox.cif.g08.bks.cpg/sg12_114_cif.got.tgz:226019.got - 2010.06.03 13:09:07.
