data_PCOD9172846
_publ_section_title
;
Structure prediction by ZEFSAII (Michael W. Deem and Ramdas Pophale) SiO2 
 PCOD9172846
Probable space group: C 2/M
;
_chemical_formula_sum "Si O2"
_cell_formula_units_Z 56
_cell_length_a 26.021298
_cell_length_b 7.537141
_cell_length_c 26.145717
_cell_angle_alpha 90.000000
_cell_angle_beta 145.068028
_cell_angle_gamma 90.000000
_cell_volume 2936.230240
_symmetry_space_group_name_H-M "C 2/M"
_symmetry_group_IT_number 12
_symmetry_cell_setting 'monoclinic'
loop_
_space_group_symop_operation_xyz
x,y,z
-x,y,-z
-x,-y,-z
x,-y,z
1/2+x,1/2+y,z
1/2-x,1/2+y,-z
1/2-x,1/2-y,-z
1/2+x,1/2-y,z
loop_
_atom_site_type_symbol
_atom_site_label
_atom_site_fract_x
_atom_site_fract_y
_atom_site_fract_z
Si Si1 0.273064 0.208399 0.399808
Si Si2 0.600686 0.791524 0.585699
Si Si3 0.077203 0.214411 0.396826
Si Si4 0.613460 0.714822 0.711869
Si Si5 0.110866 0.212876 0.904038
Si Si6 0.276711 0.288323 0.102321
Si Si7 0.083270 0.217535 0.283263
O O1 0.329591 0.285112 0.398437
O O2 0.336727 0.224937 0.501209
O O3 0.174841 0.281872 0.332083
O O4 0.259075 0.000000 0.377703
O O5 0.500000 0.714214 0.500000
O O6 0.631310 0.775524 0.669036
O O7 0.592215 0.000000 0.565635
O O8 0.079067 0.271558 0.339381
O O9 0.985586 0.272694 0.350085
O O10 0.076804 0.000000 0.396747
O O11 0.613147 0.500000 0.710844
O O12 0.685010 0.776672 0.812618
O O13 0.162956 0.280991 0.895818
O O14 0.008487 0.274632 0.819162
O O15 0.108369 0.000000 0.897961
O O16 0.173912 0.254729 0.003530
O O17 0.289230 0.500000 0.113071
O O18 0.084768 0.000000 0.284668
#
# Coordination Sequence:
#
# PCOD9172846 Si02
#       7
#     8   8   8   8   8   8   8
#     4  10  20  33  48  67  95 131 162 192 233 277
#     4  10  20  33  47  67  96 126 160 202 236 265
#     4  10  18  30  48  71  97 125 156 192 231 280
#     4  10  19  31  50  71  95 126 157 191 235 283
#     4   9  16  29  49  71  95 122 152 188 232 284
#     4   9  17  30  47  71  98 121 149 190 238 281
#     4   9  17  31  50  70  96 128 158 189 232 284
#
# _framework density 19.072074000000001
#
# number of rings (size 3 to 8) (size 9 to 14) (size 15 to 20)
#    0.000    2.429    2.857    0.429    0.000    1.429 
#    0.000    1.429    0.000    0.857    0.000    6.000 
#    0.000    0.000    0.000    0.000    0.000    0.000 
#
# Total GULP energy -156242.265016 kJ/mol
# GULP energy per Si atom -5580.080893 kJ/mol
# Density = 1.902867 g / cm^3
# Si number density = 19.072074 Si / 1000 Ang^3
#
#
#
# Elastic Constant Matrix: (Units=GPa)
#
#
# Indices 1 2 3 4 5 6 
#
# 1 80.2516 0.0370 56.9043 -0.0001 17.2115 -0.0003
# 2 0.0370 42.6175 -13.5011 -0.0001 4.7293 -0.0004
# 3 56.9043 -13.5011 153.3304 0.0000 11.9339 0.0001
# 4 -0.0001 -0.0001 0.0000 20.3944 0.0000 -10.1074
# 5 17.2115 4.7293 11.9339 0.0000 27.1403 0.0000
# 6 -0.0003 -0.0004 0.0001 -10.1074 0.0000 -12.8727
#
#
#
# Elastic Compliance Matrix: (Units=1/GPa)
#
#
# Indices 1 2 3 4 5 6 
#
# 1 0.018948 -0.001052 -0.006424 0.000000 -0.009008 0.000000
# 2 -0.001052 0.024962 0.002977 0.000000 -0.004992 -0.000001
# 3 -0.006424 0.002977 0.009206 0.000000 -0.000493 0.000000
# 4 0.000000 0.000000 0.000000 0.035297 0.000000 -0.027715
# 5 -0.009008 -0.004992 -0.000493 0.000000 0.043645 0.000000
# 6 0.000000 -0.000001 0.000000 -0.027715 0.000000 -0.055922
#
#
# Mechanical properties :
#
#
# Convention : Reuss Voigt Hill
#
# Bulk Modulus (GPa) = 22.66544 40.34220 31.50382
# Shear Modulus (GPa) = 50.07989 22.44971 36.26480
#
# Velocity S-wave (km/s) = 5.12984 3.43461 4.36530
# Velocity P-wave (km/s) = 6.85543 6.07677 6.47781
#
# Compressibility (1/GPa) = 0.04412003
#
# Stress axis : x y z
#
# Youngs Moduli (GPa) = 52.77578 40.06019 108.62156
#
# Poissons Ratio (x) = 0.04213 0.69773
# Poissons Ratio (y) = 0.05550 -0.32335
# Poissons Ratio (z) = 0.33901 -0.11925
#
# Static dielectric constant tensor:
#      x y z
#    x 1.651590 0.000000 0.014100 
#    y 0.000000 1.697710 0.000000 
#    z 0.014100 0.000000 1.660650 
# 
# From -- ./inp_files/165024.got.cif
#   From: 2010.05.17/outbox.cif.g08.bks.cpg/sg12_83_cif.got.tgz:165024.got - 2010.06.03 13:09:07.
