data_PCOD9172605
_publ_section_title
;
Structure prediction by ZEFSAII (Michael W. Deem and Ramdas Pophale) SiO2 
 PCOD9172605
Probable space group: C 2/M
;
_chemical_formula_sum "Si O2"
_cell_formula_units_Z 58
_cell_length_a 7.278588
_cell_length_b 29.011875
_cell_length_c 12.261684
_cell_angle_alpha 90.000000
_cell_angle_beta 86.887000
_cell_angle_gamma 90.000000
_cell_volume 2585.423697
_symmetry_space_group_name_H-M "C 2/M"
_symmetry_group_IT_number 12
_symmetry_cell_setting 'monoclinic'
loop_
_space_group_symop_operation_xyz
x,y,z
-x,y,-z
-x,-y,-z
x,-y,z
1/2+x,1/2+y,z
1/2-x,1/2+y,-z
1/2-x,1/2-y,-z
1/2+x,1/2-y,z
loop_
_atom_site_type_symbol
_atom_site_label
_atom_site_fract_x
_atom_site_fract_y
_atom_site_fract_z
Si Si1 0.000000 0.500000 0.500000
Si Si2 0.588554 0.213738 0.206425
Si Si3 0.217480 0.643669 0.026716
Si Si4 0.864745 0.448576 0.900081
Si Si5 0.996914 0.416211 0.662884
Si Si6 0.163484 0.183205 0.197885
Si Si7 0.878540 0.129107 0.590868
Si Si8 0.167378 0.679346 0.421951
O O1 0.947468 0.459348 0.590342
O O2 0.705972 0.183503 0.117703
O O3 0.381540 0.192294 0.221905
O O4 0.579212 0.266936 0.176209
O O5 0.688801 0.212158 0.319826
O O6 0.270961 0.593631 0.069919
O O7 0.328936 0.656187 0.915684
O O8 0.000000 0.640909 0.000000
O O9 0.788888 0.500000 0.883541
O O10 0.969128 0.430504 0.788789
O O11 0.000000 0.452196 0.000000
O O12 0.206848 0.401898 0.632560
O O13 0.883808 0.370726 0.629698
O O14 0.066772 0.154806 0.298802
O O15 0.815431 0.168697 0.508062
O O16 0.000000 0.100246 0.500000
O O17 0.000000 0.696879 0.500000
#
# Coordination Sequence:
#
# PCOD9172605 Si02
#       8
#     2   8   8   8   8   8   8   8
#     4  12  20  32  68  92 112 154 208 234 280 356
#     4  11  21  36  58  82 112 153 195 240 296 353
#     4   9  18  36  55  79 119 150 181 243 302 341
#     4  10  18  29  58  94 115 142 189 240 294 344
#     4  11  19  38  60  88 119 153 194 242 288 346
#     4  11  23  37  57  84 116 155 197 248 291 352
#     4  11  23  38  56  81 119 160 190 238 302 346
#     4  10  19  37  57  76 115 154 190 240 293 338
#
# _framework density 22.433461999999999
#
# number of rings (size 3 to 8) (size 9 to 14) (size 15 to 20)
#    0.000    1.517    6.897    2.069    1.931    1.103 
#    0.000    0.345    0.000    0.000    0.000    0.000 
#    0.000    7.172    0.000    0.000    0.000    0.000 
#
# Total GULP energy -161627.572035 kJ/mol
# GULP energy per Si atom -5573.364553 kJ/mol
# Density = 2.238240 g / cm^3
# Si number density = 22.433462 Si / 1000 Ang^3
#
#
#
# Elastic Constant Matrix: (Units=GPa)
#
#
# Indices 1 2 3 4 5 6 
#
# 1 35.4705 8.7636 18.9738 0.0000 -8.6926 0.0000
# 2 8.7636 142.8328 61.7908 0.0000 -26.9640 0.0000
# 3 18.9738 61.7908 198.5642 0.0000 -25.9765 0.0000
# 4 0.0000 0.0000 0.0000 31.9800 0.0000 -0.0522
# 5 -8.6926 -26.9640 -25.9765 0.0000 22.5156 0.0000
# 6 0.0000 0.0000 0.0000 -0.0522 0.0000 16.7419
#
#
#
# Elastic Compliance Matrix: (Units=1/GPa)
#
#
# Indices 1 2 3 4 5 6 
#
# 1 0.031708 0.000989 -0.001862 0.000000 0.011277 0.000000
# 2 0.000989 0.009558 -0.001792 0.000000 0.009761 0.000000
# 3 -0.001862 -0.001792 0.006356 0.000000 0.004468 0.000000
# 4 0.000000 0.000000 0.000000 0.031270 0.000000 0.000098
# 5 0.011277 0.009761 0.004468 0.000000 0.065613 0.000000
# 6 0.000000 0.000000 0.000000 0.000098 0.000000 0.059731
#
#
# Mechanical properties :
#
#
# Convention : Reuss Voigt Hill
#
# Bulk Modulus (GPa) = 23.64492 61.76933 42.70712
# Shear Modulus (GPa) = 22.35502 33.40346 27.87924
#
# Velocity S-wave (km/s) = 3.16017 3.86294 3.52909
# Velocity P-wave (km/s) = 4.88656 6.89135 5.97366
#
# Compressibility (1/GPa) = 0.04229238
#
# Stress axis : x y z
#
# Youngs Moduli (GPa) = 31.53783 104.61900 157.32399
#
# Poissons Ratio (x) = -0.10348 0.29299
# Poissons Ratio (y) = -0.03120 0.28193
# Poissons Ratio (z) = 0.05873 0.18748
#
# Static dielectric constant tensor:
#      x y z
#    x 2.251170 0.000000 -0.121760 
#    y 0.000000 1.810200 0.000000 
#    z -0.121760 0.000000 1.883130 
# 
# From -- ./inp_files/125252.got.cif
#   From: 2010.05.17/outbox.cif.g08.bks.cpg/sg12_63_cif.got.tgz:125252.got - 2010.06.03 13:09:07.
