data_PCOD9172256
_publ_section_title
;
Structure prediction by ZEFSAII (Michael W. Deem and Ramdas Pophale) SiO2 
 PCOD9172256
Probable space group: C 2/M
;
_chemical_formula_sum "Si O2"
_cell_formula_units_Z 32
_cell_length_a 14.340378
_cell_length_b 12.093157
_cell_length_c 8.309172
_cell_angle_alpha 90.000000
_cell_angle_beta 54.398363
_cell_angle_gamma 90.000000
_cell_volume 1171.638200
_symmetry_space_group_name_H-M "C 2/M"
_symmetry_group_IT_number 12
_symmetry_cell_setting 'monoclinic'
loop_
_space_group_symop_operation_xyz
x,y,z
-x,y,-z
-x,-y,-z
x,-y,z
1/2+x,1/2+y,z
1/2-x,1/2+y,-z
1/2-x,1/2-y,-z
1/2+x,1/2-y,z
loop_
_atom_site_type_symbol
_atom_site_label
_atom_site_fract_x
_atom_site_fract_y
_atom_site_fract_z
Si Si1 0.667579 0.349049 0.242590
Si Si2 0.423748 0.874543 0.237174
Si Si3 0.147153 0.387869 0.202288
Si Si4 0.076263 0.122120 0.682766
O O1 0.683867 0.219778 0.253630
O O2 0.559297 0.367124 0.231674
O O3 0.638072 0.388994 0.448176
O O4 0.780059 0.387346 0.036888
O O5 0.514273 0.879934 0.292931
O O6 0.385326 0.742914 0.284625
O O7 0.366659 0.000000 0.298310
O O8 0.500000 0.876627 0.000000
O O9 0.173332 0.500000 0.264913
O O10 0.089439 0.000000 0.752030
#
# Coordination Sequence:
#
# PCOD9172256 Si02
#       4
#     8   8   8   8
#     4   9  17  28  45  71  95 115 142 180 229 271
#     4   9  19  34  48  63  87 121 156 186 217 256
#     4   9  16  28  47  67  90 119 149 182 219 264
#     4  10  18  29  48  70  93 117 143 182 226 269
#
# _framework density 27.312186000000001
#
# number of rings (size 3 to 8) (size 9 to 14) (size 15 to 20)
#    0.000    2.750    0.000    3.000    0.000    1.500 
#    0.000    6.250    0.000    0.000    0.000    0.000 
#    0.000    0.000    0.000    0.000    0.000    0.000 
#
# Total GULP energy -89185.234339 kJ/mol
# GULP energy per Si atom -5574.077146 kJ/mol
# Density = 2.725002 g / cm^3
# Si number density = 27.312186 Si / 1000 Ang^3
#
#
#
# Elastic Constant Matrix: (Units=GPa)
#
#
# Indices 1 2 3 4 5 6 
#
# 1 117.3498 28.4654 4.8825 0.0000 -11.4312 0.0000
# 2 28.4654 367.0287 19.3273 0.0000 -2.1894 0.0000
# 3 4.8825 19.3273 82.5839 0.0000 -7.4112 0.0000
# 4 0.0000 0.0000 0.0000 144.8500 0.0000 24.2158
# 5 -11.4312 -2.1894 -7.4112 0.0000 27.8401 0.0000
# 6 0.0000 0.0000 0.0000 24.2158 0.0000 4.5712
#
#
#
# Elastic Compliance Matrix: (Units=1/GPa)
#
#
# Indices 1 2 3 4 5 6 
#
# 1 0.009043 -0.000677 -0.000049 0.000000 0.003647 0.000000
# 2 -0.000677 0.002809 -0.000638 0.000000 -0.000227 0.000000
# 3 -0.000049 -0.000638 0.012555 0.000000 0.003272 0.000000
# 4 0.000000 0.000000 0.000000 0.060356 0.000000 -0.319731
# 5 0.003647 -0.000227 0.003272 0.000000 0.038270 0.000000
# 6 0.000000 0.000000 0.000000 -0.319731 0.000000 1.912512
#
#
# Mechanical properties :
#
#
# Convention : Reuss Voigt Hill
#
# Bulk Modulus (GPa) = 46.12642 74.70141 60.41392
# Shear Modulus (GPa) = 2.44439 69.73808 36.09124
#
# Velocity S-wave (km/s) = 0.94706 5.05857 3.63910
# Velocity P-wave (km/s) = 4.25689 7.84405 6.31072
#
# Compressibility (1/GPa) = 0.02167955
#
# Stress axis : x y z
#
# Youngs Moduli (GPa) = 110.58244 355.95778 79.65156
#
# Poissons Ratio (x) = 0.24099 0.00390
# Poissons Ratio (y) = 0.07487 0.05080
# Poissons Ratio (z) = 0.00541 0.22703
#
# Static dielectric constant tensor:
#      x y z
#    x 2.134170 0.000000 -0.005740 
#    y 0.000000 2.196670 0.000000 
#    z -0.005740 0.000000 2.101650 
# 
# From -- ./inp_files/56462.got.cif
#   From: 2010.05.17/outbox.cif.g08.bks.cpg/sg12_29_cif.got.tgz:56462.got - 2010.06.03 13:09:07.
