data_PCOD9172170
_publ_section_title
;
Structure prediction by ZEFSAII (Michael W. Deem and Ramdas Pophale) SiO2 
 PCOD9172170
Probable space group: C 2/M
;
_chemical_formula_sum "Si O2"
_cell_formula_units_Z 64
_cell_length_a 25.148118
_cell_length_b 13.173445
_cell_length_c 23.385816
_cell_angle_alpha 90.000000
_cell_angle_beta 151.047040
_cell_angle_gamma 90.000000
_cell_volume 3750.461747
_symmetry_space_group_name_H-M "C 2/M"
_symmetry_group_IT_number 12
_symmetry_cell_setting 'monoclinic'
loop_
_space_group_symop_operation_xyz
x,y,z
-x,y,-z
-x,-y,-z
x,-y,z
1/2+x,1/2+y,z
1/2-x,1/2+y,-z
1/2-x,1/2-y,-z
1/2+x,1/2-y,z
loop_
_atom_site_type_symbol
_atom_site_label
_atom_site_fract_x
_atom_site_fract_y
_atom_site_fract_z
Si Si1 0.761009 0.879232 0.229850
Si Si2 0.777409 0.792096 0.588205
Si Si3 0.491030 0.756915 0.203846
Si Si4 0.121715 0.382440 0.992755
Si Si5 0.450032 0.116768 0.627074
Si Si6 0.028394 0.809167 0.634682
Si Si7 0.213742 0.117774 0.615849
Si Si8 0.351691 0.386177 0.142005
O O1 0.870661 0.820929 0.313539
O O2 0.740179 0.866142 0.277068
O O3 0.782053 0.000000 0.239613
O O4 0.662374 0.851476 0.094101
O O5 0.750000 0.750000 0.500000
O O6 0.905516 0.818272 0.706744
O O7 0.680964 0.872591 0.507777
O O8 0.762674 0.698378 0.617844
O O9 0.466275 0.814300 0.121954
O O10 0.521632 0.836899 0.283365
O O11 0.386082 0.694875 0.127227
O O12 0.086635 0.500000 0.961513
O O13 0.231421 0.375718 0.056467
O O14 0.505708 0.194319 0.634457
O O15 0.484291 0.000000 0.655567
O O16 0.064959 0.868216 0.726656
O O17 0.916941 0.858321 0.506258
O O18 0.230914 0.000000 0.615577
O O19 0.362136 0.500000 0.129625
#
# Coordination Sequence:
#
# PCOD9172170 Si02
#       8
#     8   8   8   8   8   8   8   8
#     4   9  17  29  47  71  96 124 154 187 231 275
#     4   9  20  32  44  66  90 117 153 189 231 272
#     4  10  18  30  47  67  91 127 161 188 231 279
#     4   9  17  29  45  67  96 124 150 186 230 277
#     4   9  18  31  46  67  94 122 155 194 233 277
#     4   9  16  27  46  70  95 122 152 187 234 282
#     4  10  18  29  47  70  95 122 154 191 229 277
#     4   9  17  28  44  70  98 121 152 193 234 277
#
# _framework density 17.064565000000002
#
# number of rings (size 3 to 8) (size 9 to 14) (size 15 to 20)
#    0.000    2.750    0.000    3.750    0.000    4.000 
#    0.000    0.625    0.000    8.250    0.000    0.000 
#    0.000    5.000    0.000    0.000    0.000    0.000 
#
# Total GULP energy -178272.263438 kJ/mol
# GULP energy per Si atom -5571.008232 kJ/mol
# Density = 1.702573 g / cm^3
# Si number density = 17.064565 Si / 1000 Ang^3
#
#
#
# Elastic Constant Matrix: (Units=GPa)
#
#
# Indices 1 2 3 4 5 6 
#
# 1 48.9211 16.4295 5.2199 0.0000 -15.9088 0.0000
# 2 16.4295 64.9470 8.7614 0.0000 -6.6343 0.0000
# 3 5.2199 8.7614 52.1788 0.0000 -10.7642 0.0000
# 4 0.0000 0.0000 0.0000 17.9769 0.0000 -4.8777
# 5 -15.9088 -6.6343 -10.7642 0.0000 16.2668 0.0000
# 6 0.0000 0.0000 0.0000 -4.8777 0.0000 12.4598
#
#
#
# Elastic Compliance Matrix: (Units=1/GPa)
#
#
# Indices 1 2 3 4 5 6 
#
# 1 0.032291 -0.005462 0.004334 0.000000 0.032220 0.000000
# 2 -0.005462 0.017101 -0.002302 0.000000 0.000109 0.000000
# 3 0.004334 -0.002302 0.022929 0.000000 0.018472 0.000000
# 4 0.000000 0.000000 0.000000 0.062238 0.000000 0.024364
# 5 0.032220 0.000109 0.018472 0.000000 0.105254 0.000000
# 6 0.000000 0.000000 0.000000 0.024364 0.000000 0.089796
#
#
# Mechanical properties :
#
#
# Convention : Reuss Voigt Hill
#
# Bulk Modulus (GPa) = 15.27681 25.20761 20.24221
# Shear Modulus (GPa) = 13.95523 18.38311 16.16917
#
# Velocity S-wave (km/s) = 2.86281 3.28574 3.08154
# Velocity P-wave (km/s) = 4.46087 5.40358 4.95470
#
# Compressibility (1/GPa) = 0.06545869
#
# Stress axis : x y z
#
# Youngs Moduli (GPa) = 30.96853 58.47747 43.61366
#
# Poissons Ratio (x) = 0.31940 -0.18901
# Poissons Ratio (y) = 0.16915 0.10042
# Poissons Ratio (z) = -0.13421 0.13464
#
# Static dielectric constant tensor:
#      x y z
#    x 1.585640 0.000000 0.018270 
#    y 0.000000 1.559610 0.000000 
#    z 0.018270 0.000000 1.610740 
# 
# From -- ./inp_files/349396.got.cif
#   From: 2010.05.17/outbox.cif.g08.bks.cpg/sg12_175_cif.got.tgz:349396.got - 2010.06.03 13:09:07.
