data_PCOD9172920
_publ_section_title
;
Structure prediction by ZEFSAII (Michael W. Deem and Ramdas Pophale) SiO2 
 PCOD9172920
Probable space group: C 2/M
;
_chemical_formula_sum "Si O2"
_cell_formula_units_Z 64
_cell_length_a 21.394825
_cell_length_b 7.413489
_cell_length_c 20.628581
_cell_angle_alpha 90.000000
_cell_angle_beta 102.889161
_cell_angle_gamma 90.000000
_cell_volume 3189.464559
_symmetry_space_group_name_H-M "C 2/M"
_symmetry_group_IT_number 12
_symmetry_cell_setting 'monoclinic'
loop_
_space_group_symop_operation_xyz
x,y,z
-x,y,-z
-x,-y,-z
x,-y,z
1/2+x,1/2+y,z
1/2-x,1/2+y,-z
1/2-x,1/2-y,-z
1/2+x,1/2-y,z
loop_
_atom_site_type_symbol
_atom_site_label
_atom_site_fract_x
_atom_site_fract_y
_atom_site_fract_z
Si Si1 0.801850 0.784064 0.455960
Si Si2 0.050500 0.720325 0.955775
Si Si3 0.033243 0.280629 0.181202
Si Si4 0.073193 0.717018 0.328505
Si Si5 0.558856 0.712608 0.472528
Si Si6 0.216108 0.720113 0.321165
Si Si7 0.177206 0.280524 0.173493
Si Si8 0.690177 0.215626 0.032466
O O1 0.750000 0.750000 0.500000
O O2 0.871382 0.711935 0.492101
O O3 0.772338 0.717192 0.381371
O O4 0.806953 0.000000 0.451586
O O5 0.051118 0.500000 0.955750
O O6 0.022362 0.779563 0.880034
O O7 0.122186 0.782184 0.988644
O O8 0.000000 0.772975 0.000000
O O9 0.031776 0.500000 0.181245
O O10 0.033744 0.221189 0.256156
O O11 0.102716 0.230799 0.167761
O O12 0.073709 0.500000 0.327044
O O13 0.049287 0.770873 0.393377
O O14 0.147133 0.775075 0.334955
O O15 0.500000 0.789215 0.500000
O O16 0.561720 0.500000 0.487965
O O17 0.216591 0.500000 0.321474
O O18 0.216027 0.778278 0.246217
O O19 0.178931 0.500000 0.174271
O O20 0.199448 0.217479 0.108257
O O21 0.683477 0.000000 0.035787
O O22 0.750000 0.250000 0.000000
#
# Coordination Sequence:
#
# PCOD9172920 Si02
#       8
#     8   8   8   8   8   8   8   8
#     4  10  18  30  49  70  92 118 154 197 232 269
#     4   9  14  24  45  73  95 115 155 201 231 260
#     4   8  13  23  44  73  95 110 147 204 240 260
#     4   9  16  28  48  72  94 116 149 196 240 273
#     4  10  21  34  46  65  97 131 156 182 226 285
#     4   8  14  25  45  71  91 109 147 199 236 261
#     4   8  13  24  43  68  92 115 149 192 230 267
#     4  10  19  30  47  70  98 128 155 188 230 277
#
# _framework density 20.066064000000001
#
# number of rings (size 3 to 8) (size 9 to 14) (size 15 to 20)
#    0.000    3.000    2.500    1.500    0.000    0.250 
#    0.000    1.250    0.000    6.375    0.000    0.000 
#    0.000    0.000    0.000    0.000    0.000    0.000 
#
# Total GULP energy -178478.191886 kJ/mol
# GULP energy per Si atom -5577.443496 kJ/mol
# Density = 2.002039 g / cm^3
# Si number density = 20.066064 Si / 1000 Ang^3
#
#
#
# Elastic Constant Matrix: (Units=GPa)
#
#
# Indices 1 2 3 4 5 6 
#
# 1 134.9158 4.7614 114.0537 0.0000 0.2822 0.0000
# 2 4.7614 64.2958 1.0802 0.0000 3.1185 0.0000
# 3 114.0537 1.0802 218.6326 0.0000 7.8865 0.0000
# 4 0.0000 0.0000 0.0000 -12.9347 0.0000 12.2778
# 5 0.2822 3.1185 7.8865 0.0000 29.4316 0.0000
# 6 0.0000 0.0000 0.0000 12.2778 0.0000 -16.2148
#
#
#
# Elastic Compliance Matrix: (Units=1/GPa)
#
#
# Indices 1 2 3 4 5 6 
#
# 1 0.013408 -0.000965 -0.007057 0.000000 0.001865 0.000000
# 2 -0.000965 0.015703 0.000490 0.000000 -0.001786 0.000000
# 3 -0.007057 0.000490 0.008333 0.000000 -0.002217 0.000000
# 4 0.000000 0.000000 0.000000 -0.274883 0.000000 -0.208141
# 5 0.001865 -0.001786 -0.002217 0.000000 0.034743 0.000000
# 6 0.000000 0.000000 0.000000 -0.208141 0.000000 -0.219276
#
#
# Mechanical properties :
#
#
# Convention : Reuss Voigt Hill
#
# Bulk Modulus (GPa) = 44.68187 73.07054 58.87620
# Shear Modulus (GPa) = -12.51722 19.91969 3.70123
#
# Velocity S-wave (km/s) = -2.50031 3.15414 1.35961
# Velocity P-wave (km/s) = 3.73903 7.05399 5.64532
#
# Compressibility (1/GPa) = 0.02238044
#
# Stress axis : x y z
#
# Youngs Moduli (GPa) = 74.58260 63.68229 120.00698
#
# Poissons Ratio (x) = 0.06144 0.84689
# Poissons Ratio (y) = 0.07196 -0.05882
# Poissons Ratio (z) = 0.52633 -0.03121
#
# Static dielectric constant tensor:
#      x y z
#    x 1.677620 0.000000 0.022070 
#    y 0.000000 1.781120 0.000000 
#    z 0.022070 0.000000 1.722350 
# 
# From -- ./inp_files/276523.got.cif
#   From: 2010.05.17/outbox.cif.g08.bks.cpg/sg12_139_cif.got.tgz:276523.got - 2010.06.03 13:09:07.
