data_PCOD9172003
_publ_section_title
;
Structure prediction by ZEFSAII (Michael W. Deem and Ramdas Pophale) SiO2 
 PCOD9172003
Probable space group: C 2/M
;
_chemical_formula_sum "Si O2"
_cell_formula_units_Z 56
_cell_length_a 29.710803
_cell_length_b 8.650375
_cell_length_c 13.746586
_cell_angle_alpha 90.000000
_cell_angle_beta 103.095140
_cell_angle_gamma 90.000000
_cell_volume 3441.129286
_symmetry_space_group_name_H-M "C 2/M"
_symmetry_group_IT_number 12
_symmetry_cell_setting 'monoclinic'
loop_
_space_group_symop_operation_xyz
x,y,z
-x,y,-z
-x,-y,-z
x,-y,z
1/2+x,1/2+y,z
1/2-x,1/2+y,-z
1/2-x,1/2-y,-z
1/2+x,1/2-y,z
loop_
_atom_site_type_symbol
_atom_site_label
_atom_site_fract_x
_atom_site_fract_y
_atom_site_fract_z
Si Si1 0.768235 0.315213 0.110406
Si Si2 0.549298 0.683283 0.418072
Si Si3 0.306751 0.183499 0.413029
Si Si4 0.949221 0.315419 0.364745
Si Si5 0.356925 0.683514 0.250309
Si Si6 0.219181 0.686219 0.277610
Si Si7 0.136284 0.683350 0.362220
O O1 0.767238 0.500000 0.110762
O O2 0.820303 0.257192 0.157941
O O3 0.736622 0.251404 0.183384
O O4 0.750000 0.250000 0.000000
O O5 0.547085 0.500000 0.431107
O O6 0.499225 0.746923 0.362986
O O7 0.559803 0.761063 0.528139
O O8 0.589379 0.727655 0.362490
O O9 0.335944 0.272212 0.345427
O O10 0.255158 0.246546 0.374293
O O11 0.330330 0.206685 0.528203
O O12 0.307451 0.000000 0.391637
O O13 0.950304 0.500000 0.363763
O O14 0.908230 0.252636 0.277191
O O15 0.357982 0.500000 0.239205
O O16 0.222843 0.500000 0.279295
O O17 0.167330 0.728065 0.284731
O O18 0.126127 0.500000 0.351804
#
# Coordination Sequence:
#
# PCOD9172003 Si02
#       7
#     8   8   8   8   8   8   8
#     4  11  22  38  57  78 102 130 164 208 259 306
#     4  11  21  31  47  70  98 135 177 216 250 290
#     4  10  18  29  45  67  98 136 172 204 243 291
#     4  11  20  33  49  68  99 136 173 212 254 297
#     4  11  20  32  51  76 102 132 170 210 251 301
#     4  10  20  33  49  71  99 132 169 207 248 300
#     4  10  20  32  46  67 100 139 173 205 247 295
#
# _framework density 16.273727999999998
#
# number of rings (size 3 to 8) (size 9 to 14) (size 15 to 20)
#    0.000    1.429    1.429    9.000    0.000    1.714 
#    0.000    0.000    0.000    0.000    0.000    1.000 
#    0.000    8.000    0.000    0.000    0.000    0.000 
#
# Total GULP energy -156349.262478 kJ/mol
# GULP energy per Si atom -5583.902231 kJ/mol
# Density = 1.623669 g / cm^3
# Si number density = 16.273728 Si / 1000 Ang^3
#
#
#
# Elastic Constant Matrix: (Units=GPa)
#
#
# Indices 1 2 3 4 5 6 
#
# 1 116.7487 36.5298 30.3526 0.0000 7.9108 0.0000
# 2 36.5298 102.6800 19.5285 0.0000 -0.3648 0.0000
# 3 30.3526 19.5285 55.2757 0.0000 7.5572 0.0000
# 4 0.0000 0.0000 0.0000 18.8521 0.0000 6.3525
# 5 7.9108 -0.3648 7.5572 0.0000 13.9370 0.0000
# 6 0.0000 0.0000 0.0000 6.3525 0.0000 26.6009
#
#
#
# Elastic Compliance Matrix: (Units=1/GPa)
#
#
# Indices 1 2 3 4 5 6 
#
# 1 0.010930 -0.003069 -0.004383 0.000000 -0.003907 0.000000
# 2 -0.003069 0.011380 -0.002824 0.000000 0.003571 0.000000
# 3 -0.004383 -0.002824 0.022860 0.000000 -0.009982 0.000000
# 4 0.000000 0.000000 0.000000 0.057687 0.000000 -0.013776
# 5 -0.003907 0.003571 -0.009982 0.000000 0.079475 0.000000
# 6 0.000000 0.000000 0.000000 -0.013776 0.000000 0.040883
#
#
# Mechanical properties :
#
#
# Convention : Reuss Voigt Hill
#
# Bulk Modulus (GPa) = 40.61895 49.72514 45.17205
# Shear Modulus (GPa) = 19.84337 24.43089 22.13713
#
# Velocity S-wave (km/s) = 3.49571 3.87880 3.69222
# Velocity P-wave (km/s) = 6.42708 7.11912 6.78193
#
# Compressibility (1/GPa) = 0.02461905
#
# Stress axis : x y z
#
# Youngs Moduli (GPa) = 91.49173 87.86986 43.74375
#
# Poissons Ratio (x) = 0.26965 0.19175
# Poissons Ratio (y) = 0.28076 0.12352
# Poissons Ratio (z) = 0.40105 0.24813
#
# Static dielectric constant tensor:
#      x y z
#    x 1.575280 0.000000 0.004540 
#    y 0.000000 1.542240 0.000000 
#    z 0.004540 0.000000 1.522850 
# 
# From -- ./inp_files/247926.got.cif
#   From: 2010.05.17/outbox.cif.g08.bks.cpg/sg12_124_cif.got.tgz:247926.got - 2010.06.03 13:09:07.
