data_PCOD9172063
_publ_section_title
;
Structure prediction by ZEFSAII (Michael W. Deem and Ramdas Pophale) SiO2 
 PCOD9172063
Probable space group: C 2/M
;
_chemical_formula_sum "Si O2"
_cell_formula_units_Z 56
_cell_length_a 22.374600
_cell_length_b 13.687109
_cell_length_c 25.851070
_cell_angle_alpha 90.000000
_cell_angle_beta 28.135958
_cell_angle_gamma 90.000000
_cell_volume 3733.253323
_symmetry_space_group_name_H-M "C 2/M"
_symmetry_group_IT_number 12
_symmetry_cell_setting 'monoclinic'
loop_
_space_group_symop_operation_xyz
x,y,z
-x,y,-z
-x,-y,-z
x,-y,z
1/2+x,1/2+y,z
1/2-x,1/2+y,-z
1/2-x,1/2-y,-z
1/2+x,1/2-y,z
loop_
_atom_site_type_symbol
_atom_site_label
_atom_site_fract_x
_atom_site_fract_y
_atom_site_fract_z
Si Si1 0.806202 0.799828 0.385099
Si Si2 0.574442 0.611173 0.214491
Si Si3 0.843262 0.112661 0.964615
Si Si4 0.144988 0.117362 0.876877
Si Si5 0.383240 0.884778 0.387929
Si Si6 0.135833 0.116822 0.765382
Si Si7 0.163649 0.695133 0.183851
O O1 0.689170 0.843898 0.506187
O O2 0.831879 0.687265 0.381623
O O3 0.798175 0.822307 0.330440
O O4 0.930939 0.858237 0.309745
O O5 0.578649 0.500000 0.229269
O O6 0.649967 0.618188 0.102425
O O7 0.627239 0.691176 0.213177
O O8 0.984890 0.136210 0.876153
O O9 0.818340 0.000000 0.998278
O O10 0.739940 0.175944 0.072514
O O11 0.175178 0.138616 0.793895
O O12 0.245077 0.163232 0.839652
O O13 0.148990 0.000000 0.880426
O O14 0.000000 0.147624 0.000000
O O15 0.532760 0.864860 0.280854
O O16 0.359436 0.000000 0.398409
O O17 0.152339 0.000000 0.743000
#
# Coordination Sequence:
#
# PCOD9172063 Si02
#       7
#     8   8   8   8   8   8   8
#     4   9  18  32  49  68  91 124 155 178 221 274
#     4   9  18  30  46  65  87 118 154 186 220 271
#     4   9  15  26  44  67  90 113 144 184 229 273
#     4  10  18  29  46  68  91 119 153 186 225 272
#     4  10  19  30  47  71  98 120 144 186 230 269
#     4   9  16  28  48  67  88 120 157 188 214 264
#     4  11  19  28  44  68  94 117 146 187 233 268
#
# _framework density 15.000322000000001
#
# number of rings (size 3 to 8) (size 9 to 14) (size 15 to 20)
#    0.000    2.429    1.429    3.857    0.000    0.000 
#    0.000    0.714    0.000    3.857    0.000    0.000 
#    0.000    6.857    0.000    0.000    0.000    0.000 
#
# Total GULP energy -156011.566134 kJ/mol
# GULP energy per Si atom -5571.841648 kJ/mol
# Density = 1.496618 g / cm^3
# Si number density = 15.000322 Si / 1000 Ang^3
#
#
#
# Elastic Constant Matrix: (Units=GPa)
#
#
# Indices 1 2 3 4 5 6 
#
# 1 52.5746 20.1473 13.9059 0.0009 5.6342 -0.0002
# 2 20.1473 85.9347 17.8391 0.0027 3.2772 -0.0004
# 3 13.9059 17.8391 55.6038 0.0025 5.1060 -0.0005
# 4 0.0009 0.0027 0.0025 17.7588 0.0000 3.1036
# 5 5.6342 3.2772 5.1060 0.0000 15.0531 -0.0001
# 6 -0.0002 -0.0004 -0.0005 3.1036 -0.0001 19.6472
#
#
#
# Elastic Compliance Matrix: (Units=1/GPa)
#
#
# Indices 1 2 3 4 5 6 
#
# 1 0.022267 -0.004228 -0.003645 0.000000 -0.006177 0.000000
# 2 -0.004228 0.013299 -0.003188 -0.000001 -0.000231 0.000000
# 3 -0.003645 -0.003188 0.020364 -0.000002 -0.004849 0.000001
# 4 0.000000 -0.000001 -0.000002 0.057909 0.000001 -0.009148
# 5 -0.006177 -0.000231 -0.004849 0.000001 0.070439 0.000000
# 6 0.000000 0.000000 0.000001 -0.009148 0.000000 0.052343
#
#
# Mechanical properties :
#
#
# Convention : Reuss Voigt Hill
#
# Bulk Modulus (GPa) = 29.57920 33.09975 31.33947
# Shear Modulus (GPa) = 18.51772 19.97320 19.24546
#
# Velocity S-wave (km/s) = 3.51734 3.65296 3.58579
# Velocity P-wave (km/s) = 6.02141 6.31712 6.17104
#
# Compressibility (1/GPa) = 0.03380754
#
# Stress axis : x y z
#
# Youngs Moduli (GPa) = 44.90957 75.19571 49.10630
#
# Poissons Ratio (x) = 0.31794 0.17899
# Poissons Ratio (y) = 0.18989 0.15654
# Poissons Ratio (z) = 0.16369 0.23971
#
# Static dielectric constant tensor:
#      x y z
#    x 1.483050 0.000000 0.012710 
#    y 0.000000 1.501230 0.000000 
#    z 0.012710 0.000000 1.508530 
# 
# From -- ./inp_files/367680.got.cif
#   From: 2010.05.17/outbox.cif.g08.bks.cpg/sg12_184_cif.got.tgz:367680.got - 2010.06.03 13:09:07.
