data_PCOD9172235
_publ_section_title
;
Structure prediction by ZEFSAII (Michael W. Deem and Ramdas Pophale) SiO2 
 PCOD9172235
Probable space group: C 2/M
;
_chemical_formula_sum "Si O2"
_cell_formula_units_Z 64
_cell_length_a 21.102201
_cell_length_b 8.491236
_cell_length_c 24.977408
_cell_angle_alpha 90.000000
_cell_angle_beta 53.236944
_cell_angle_gamma 90.000000
_cell_volume 3585.438086
_symmetry_space_group_name_H-M "C 2/M"
_symmetry_group_IT_number 12
_symmetry_cell_setting 'monoclinic'
loop_
_space_group_symop_operation_xyz
x,y,z
-x,y,-z
-x,-y,-z
x,-y,z
1/2+x,1/2+y,z
1/2-x,1/2+y,-z
1/2-x,1/2-y,-z
1/2+x,1/2-y,z
loop_
_atom_site_type_symbol
_atom_site_label
_atom_site_fract_x
_atom_site_fract_y
_atom_site_fract_z
Si Si1 0.148699 0.691068 0.288010
Si Si2 0.682406 0.190719 0.494007
Si Si3 0.206540 0.187309 0.146788
Si Si4 0.183101 0.187283 0.992715
Si Si5 0.572647 0.188844 0.132681
Si Si6 0.915458 0.690316 0.271132
Si Si7 0.531979 0.191765 0.636216
Si Si8 0.239282 0.309944 0.348821
O O1 0.149617 0.500000 0.285475
O O2 0.194006 0.754358 0.213192
O O3 0.189824 0.742394 0.322195
O O4 0.057174 0.743080 0.330753
O O5 0.750000 0.250000 0.500000
O O6 0.597531 0.242081 0.560037
O O7 0.701737 0.244501 0.424123
O O8 0.683591 0.000000 0.493864
O O9 0.288051 0.245793 0.078494
O O10 0.134585 0.255812 0.147073
O O11 0.203204 0.000000 0.145363
O O12 0.185637 0.000000 0.990250
O O13 0.250000 0.250000 0.000000
O O14 0.102351 0.244275 0.060991
O O15 0.485386 0.238036 0.195389
O O16 0.576266 0.000000 0.128969
O O17 0.912185 0.500000 0.272999
O O18 0.940418 0.741404 0.318479
O O19 0.829702 0.755048 0.300540
O O20 0.531143 0.000000 0.636761
O O21 0.237925 0.500000 0.350001
#
# Coordination Sequence:
#
# PCOD9172235 Si02
#       8
#     8   8   8   8   8   8   8   8
#     4  10  20  37  54  74 107 143 180 220 268 321
#     4  10  19  33  53  79 105 136 176 220 269 316
#     4  11  20  31  50  77 107 141 177 219 266 315
#     4  10  18  29  47  75 109 142 174 216 266 313
#     4  10  18  31  51  77 107 140 179 221 264 311
#     4  10  19  33  55  78 104 143 180 217 263 319
#     4   9  17  32  55  77 100 138 181 216 261 318
#     4  10  22  35  53  80 108 138 176 226 271 315
#
# _framework density 17.849979999999999
#
# number of rings (size 3 to 8) (size 9 to 14) (size 15 to 20)
#    0.000    2.000    2.500    4.125    0.000    2.000 
#    0.000    3.125    0.000    0.750    0.000    7.875 
#    0.000    0.000    0.000    0.000    0.000    0.000 
#
# Total GULP energy -178553.189464 kJ/mol
# GULP energy per Si atom -5579.787171 kJ/mol
# Density = 1.780935 g / cm^3
# Si number density = 17.849980 Si / 1000 Ang^3
#
#
#
# Elastic Constant Matrix: (Units=GPa)
#
#
# Indices 1 2 3 4 5 6 
#
# 1 110.6073 17.6272 81.2858 -0.0002 -0.1194 -0.0002
# 2 17.6272 40.9123 32.7765 -0.0007 -1.9536 -0.0012
# 3 81.2858 32.7765 193.5076 0.0000 -14.5329 0.0000
# 4 -0.0002 -0.0007 0.0000 22.1653 0.0000 -2.1103
# 5 -0.1194 -1.9536 -14.5329 0.0000 25.6382 -0.0001
# 6 -0.0002 -0.0012 0.0000 -2.1103 -0.0001 21.3019
#
#
#
# Elastic Compliance Matrix: (Units=1/GPa)
#
#
# Indices 1 2 3 4 5 6 
#
# 1 0.013403 -0.001416 -0.005634 0.000000 -0.003239 0.000000
# 2 -0.001416 0.028438 -0.004240 0.000001 -0.000243 0.000002
# 3 -0.005634 -0.004240 0.008592 0.000000 0.004521 0.000000
# 4 0.000000 0.000001 0.000000 0.045545 0.000000 0.004512
# 5 -0.003239 -0.000243 0.004521 0.000000 0.041533 0.000000
# 6 0.000000 0.000002 0.000000 0.004512 0.000000 0.047391
#
#
# Mechanical properties :
#
#
# Convention : Reuss Voigt Hill
#
# Bulk Modulus (GPa) = 35.90234 67.60068 51.75151
# Shear Modulus (GPa) = 23.06614 28.04359 25.55487
#
# Velocity S-wave (km/s) = 3.59865 3.96797 3.78782
# Velocity P-wave (km/s) = 6.11752 7.67769 6.94158
#
# Compressibility (1/GPa) = 0.02785334
#
# Stress axis : x y z
#
# Youngs Moduli (GPa) = 74.60794 35.16402 116.38699
#
# Poissons Ratio (x) = 0.04980 0.65569
# Poissons Ratio (y) = 0.10566 0.49351
# Poissons Ratio (z) = 0.42032 0.14910
#
# Static dielectric constant tensor:
#      x y z
#    x 1.576670 0.000000 -0.013470 
#    y 0.000000 1.588010 0.000000 
#    z -0.013470 0.000000 1.636350 
# 
# From -- ./inp_files/319954.got.cif
#   From: 2010.05.17/outbox.cif.g08.bks.cpg/sg12_160_cif.got.tgz:319954.got - 2010.06.03 13:09:07.
