data_PCOD9172591
_publ_section_title
;
Structure prediction by ZEFSAII (Michael W. Deem and Ramdas Pophale) SiO2 
 PCOD9172591
Probable space group: C 2/M
;
_chemical_formula_sum "Si O2"
_cell_formula_units_Z 48
_cell_length_a 29.037354
_cell_length_b 10.765394
_cell_length_c 24.548523
_cell_angle_alpha 90.000000
_cell_angle_beta 161.883474
_cell_angle_gamma 90.000000
_cell_volume 2386.182753
_symmetry_space_group_name_H-M "C 2/M"
_symmetry_group_IT_number 12
_symmetry_cell_setting 'monoclinic'
loop_
_space_group_symop_operation_xyz
x,y,z
-x,y,-z
-x,-y,-z
x,-y,z
1/2+x,1/2+y,z
1/2-x,1/2+y,-z
1/2-x,1/2-y,-z
1/2+x,1/2-y,z
loop_
_atom_site_type_symbol
_atom_site_label
_atom_site_fract_x
_atom_site_fract_y
_atom_site_fract_z
Si Si1 0.375500 0.143720 0.144395
Si Si2 0.864508 0.245212 0.955919
Si Si3 0.914612 0.636179 0.723363
Si Si4 0.738465 0.353607 0.268318
Si Si5 0.154558 0.135283 0.299079
Si Si6 0.431265 0.855898 0.331858
O O1 0.493389 0.159159 0.228385
O O2 0.449588 0.153859 0.287278
O O3 0.318447 0.000000 0.076099
O O4 0.250000 0.250000 0.000000
O O5 0.843521 0.229992 0.867985
O O6 0.704261 0.228504 0.801923
O O7 0.958667 0.357921 0.086399
O O8 0.975314 0.135799 0.100442
O O9 0.845904 0.500000 0.645180
O O10 0.807164 0.748397 0.620125
O O11 0.713141 0.500000 0.226716
O O12 0.689931 0.337023 0.276034
O O13 0.914012 0.329207 0.464978
O O14 0.216067 0.000000 0.381941
O O15 0.393886 0.000000 0.302179
#
# Coordination Sequence:
#
# PCOD9172591 Si02
#       6
#     8   8   8   8   8   8
#     4  10  18  33  53  77 102 133 171 213 252 301
#     4  10  18  29  53  74 104 130 173 201 255 300
#     4   9  20  33  51  74 103 134 172 213 254 293
#     4  10  19  31  48  79 111 133 160 216 267 300
#     4   9  18  32  53  77 101 131 177 215 250 296
#     4  10  19  30  50  79 109 132 162 208 268 311
#
# _framework density 20.115811000000001
#
# number of rings (size 3 to 8) (size 9 to 14) (size 15 to 20)
#    1.000    1.333    1.667    2.500    0.000    3.333 
#    0.000    2.500    0.000    5.000    0.000    0.000 
#    0.000    0.000    0.000    0.000    0.000    0.000 
#
# Total GULP energy -133711.835936 kJ/mol
# GULP energy per Si atom -5571.326497 kJ/mol
# Density = 2.007003 g / cm^3
# Si number density = 20.115811 Si / 1000 Ang^3
#
#
#
# Elastic Constant Matrix: (Units=GPa)
#
#
# Indices 1 2 3 4 5 6 
#
# 1 100.1033 49.3729 10.0581 0.0002 -14.2366 0.0004
# 2 49.3729 87.5682 10.2877 -0.0001 -8.4634 0.0005
# 3 10.0581 10.2877 65.5645 -0.0004 -13.1775 0.0003
# 4 0.0002 -0.0001 -0.0004 0.7853 -0.0002 5.2492
# 5 -14.2366 -8.4634 -13.1775 -0.0002 30.5475 0.0003
# 6 0.0004 0.0005 0.0003 5.2492 0.0003 -9.6077
#
#
#
# Elastic Compliance Matrix: (Units=1/GPa)
#
#
# Indices 1 2 3 4 5 6 
#
# 1 0.014440 -0.007690 -0.000092 -0.000001 0.004559 0.000000
# 2 -0.007690 0.015932 -0.001263 0.000000 0.000285 0.000001
# 3 -0.000092 -0.001263 0.016846 0.000001 0.006874 0.000001
# 4 -0.000001 0.000000 0.000001 0.273732 0.000000 0.149556
# 5 0.004559 0.000285 0.006874 0.000000 0.037905 0.000002
# 6 0.000000 0.000001 0.000001 0.149556 0.000002 -0.022373
#
#
# Mechanical properties :
#
#
# Convention : Reuss Voigt Hill
#
# Bulk Modulus (GPa) = 34.33182 43.63037 38.98110
# Shear Modulus (GPa) = 13.72561 16.57952 15.15256
#
# Velocity S-wave (km/s) = 2.61498 2.87401 2.74755
# Velocity P-wave (km/s) = 5.12070 5.72275 5.43008
#
# Compressibility (1/GPa) = 0.02912750
#
# Stress axis : x y z
#
# Youngs Moduli (GPa) = 69.25016 62.76854 59.36113
#
# Poissons Ratio (x) = 0.48271 0.00547
# Poissons Ratio (y) = 0.53256 0.07496
# Poissons Ratio (z) = 0.00638 0.07926
#
# Static dielectric constant tensor:
#      x y z
#    x 1.735270 0.000000 -0.006620 
#    y 0.000000 1.721640 0.000000 
#    z -0.006620 0.000000 1.721530 
# 
# From -- ./inp_files/353855.got.cif
#   From: 2010.05.17/outbox.cif.g08.bks.cpg/sg12_177_cif.got.tgz:353855.got - 2010.06.03 13:09:07.
