data_PCOD9172090
_publ_section_title
;
Structure prediction by ZEFSAII (Michael W. Deem and Ramdas Pophale) SiO2 
 PCOD9172090
Probable space group: C 2/M
;
_chemical_formula_sum "Si O2"
_cell_formula_units_Z 48
_cell_length_a 25.067541
_cell_length_b 7.973055
_cell_length_c 21.246432
_cell_angle_alpha 90.000000
_cell_angle_beta 38.556311
_cell_angle_gamma 90.000000
_cell_volume 2646.720777
_symmetry_space_group_name_H-M "C 2/M"
_symmetry_group_IT_number 12
_symmetry_cell_setting 'monoclinic'
loop_
_space_group_symop_operation_xyz
x,y,z
-x,y,-z
-x,-y,-z
x,-y,z
1/2+x,1/2+y,z
1/2-x,1/2+y,-z
1/2-x,1/2-y,-z
1/2+x,1/2-y,z
loop_
_atom_site_type_symbol
_atom_site_label
_atom_site_fract_x
_atom_site_fract_y
_atom_site_fract_z
Si Si1 0.652204 0.700605 0.776871
Si Si2 0.482219 0.202719 0.773806
Si Si3 0.304683 0.796440 0.887601
Si Si4 0.786557 0.807355 0.153036
Si Si5 0.828553 0.299459 0.383833
Si Si6 0.540009 0.196181 0.058870
O O1 0.645752 0.500000 0.788841
O O2 0.713601 0.765143 0.776201
O O3 0.680875 0.740190 0.679521
O O4 0.556898 0.774112 0.873321
O O5 0.402474 0.263182 0.806297
O O6 0.579300 0.264432 0.675166
O O7 0.459642 0.238254 0.867351
O O8 0.484216 0.000000 0.765558
O O9 0.262924 0.731855 0.861185
O O10 0.304257 0.000000 0.886071
O O11 0.250000 0.750000 0.000000
O O12 0.757261 0.000000 0.184736
O O13 0.886648 0.800882 0.042059
O O14 0.834020 0.500000 0.376497
O O15 0.750000 0.250000 0.500000
O O16 0.560867 0.000000 0.031877
#
# Coordination Sequence:
#
# PCOD9172090 Si02
#       6
#     8   8   8   8   8   8
#     4  10  20  33  47  70 101 131 164 206 250 298
#     4   8  16  30  48  71  99 126 162 205 244 287
#     4  10  18  31  48  70 100 137 172 205 239 286
#     4  10  20  30  45  69 101 137 170 202 244 293
#     4  10  20  36  57  79  97 122 159 208 261 307
#     4  10  18  29  46  69  98 135 172 206 244 291
#
# _framework density 18.135649999999998
#
# number of rings (size 3 to 8) (size 9 to 14) (size 15 to 20)
#    0.000    2.333    1.667    3.000    0.000    3.333 
#    0.000    0.833    0.000    1.000    0.000    7.000 
#    0.000    0.000    0.000    0.000    0.000    0.000 
#
# Total GULP energy -133782.199634 kJ/mol
# GULP energy per Si atom -5574.258318 kJ/mol
# Density = 1.809437 g / cm^3
# Si number density = 18.135650 Si / 1000 Ang^3
#
#
#
# Elastic Constant Matrix: (Units=GPa)
#
#
# Indices 1 2 3 4 5 6 
#
# 1 186.8173 4.4530 63.2437 -0.0016 5.4798 0.0005
# 2 4.4530 25.6346 -0.1501 -0.0052 2.2331 0.0027
# 3 63.2437 -0.1501 91.0044 -0.0044 -6.3070 0.0050
# 4 -0.0016 -0.0052 -0.0044 19.8675 0.0003 2.3291
# 5 5.4798 2.2331 -6.3070 0.0003 9.5183 0.0001
# 6 0.0005 0.0027 0.0050 2.3291 0.0001 16.1335
#
#
#
# Elastic Compliance Matrix: (Units=1/GPa)
#
#
# Indices 1 2 3 4 5 6 
#
# 1 0.007577 -0.000647 -0.005826 -0.000001 -0.008071 0.000002
# 2 -0.000647 0.039911 -0.000113 0.000012 -0.009065 -0.000008
# 3 -0.005826 -0.000113 0.016007 0.000003 0.013987 -0.000005
# 4 -0.000001 0.000012 0.000003 0.051200 -0.000001 -0.007391
# 5 -0.008071 -0.009065 0.013987 -0.000001 0.121102 -0.000003
# 6 0.000002 -0.000008 -0.000005 -0.007391 -0.000003 0.063050
#
#
# Mechanical properties :
#
#
# Convention : Reuss Voigt Hill
#
# Bulk Modulus (GPa) = 19.87169 48.72773 34.29971
# Shear Modulus (GPa) = 15.20707 24.83117 20.01912
#
# Velocity S-wave (km/s) = 2.89886 3.70427 3.32604
# Velocity P-wave (km/s) = 4.71015 6.72475 5.80551
#
# Compressibility (1/GPa) = 0.05032284
#
# Stress axis : x y z
#
# Youngs Moduli (GPa) = 131.97084 25.05558 62.47365
#
# Poissons Ratio (x) = 0.01622 0.36400
# Poissons Ratio (y) = 0.08543 0.00703
# Poissons Ratio (z) = 0.76892 0.00282
#
# Static dielectric constant tensor:
#      x y z
#    x 1.714170 -0.000020 -0.041260 
#    y -0.000020 1.692270 0.000040 
#    z -0.041260 0.000040 1.655870 
# 
# From -- ./inp_files/236838.got.cif
#   From: 2010.05.17/outbox.cif.g08.bks.cpg/sg12_119_cif.got.tgz:236838.got - 2010.06.03 13:09:07.
