data_PCOD9172670
_publ_section_title
;
Structure prediction by ZEFSAII (Michael W. Deem and Ramdas Pophale) SiO2 
 PCOD9172670
Probable space group: C 2/M
;
_chemical_formula_sum "Si O2"
_cell_formula_units_Z 64
_cell_length_a 22.186494
_cell_length_b 20.903526
_cell_length_c 12.386951
_cell_angle_alpha 90.000000
_cell_angle_beta 130.031599
_cell_angle_gamma 90.000000
_cell_volume 4398.711951
_symmetry_space_group_name_H-M "C 2/M"
_symmetry_group_IT_number 12
_symmetry_cell_setting 'monoclinic'
loop_
_space_group_symop_operation_xyz
x,y,z
-x,y,-z
-x,-y,-z
x,-y,z
1/2+x,1/2+y,z
1/2-x,1/2+y,-z
1/2-x,1/2-y,-z
1/2+x,1/2-y,z
loop_
_atom_site_type_symbol
_atom_site_label
_atom_site_fract_x
_atom_site_fract_y
_atom_site_fract_z
Si Si1 0.180322 0.575437 0.315449
Si Si2 0.704604 0.277192 0.283195
Si Si3 0.345311 0.834704 0.327223
Si Si4 0.542710 0.276870 0.444557
Si Si5 0.816830 0.166176 0.513548
Si Si6 0.410550 0.826166 0.938357
Si Si7 0.563625 0.828811 0.779976
Si Si8 0.080895 0.575490 0.419600
O O1 0.178206 0.500000 0.292788
O O2 0.268408 0.602463 0.431041
O O3 0.136081 0.615647 0.172169
O O4 0.133820 0.588724 0.374194
O O5 0.757120 0.315645 0.257757
O O6 0.761985 0.222872 0.400780
O O7 0.679466 0.321222 0.354420
O O8 0.632595 0.238562 0.149421
O O9 0.401408 0.778951 0.441447
O O10 0.366791 0.837386 0.226525
O O11 0.372922 0.897579 0.423422
O O12 0.500000 0.306018 0.500000
O O13 0.598399 0.324414 0.442979
O O14 0.481299 0.237974 0.299139
O O15 0.500000 0.827359 0.000000
O O16 0.409901 0.830959 0.066437
O O17 0.499251 0.884404 0.684803
O O18 0.066624 0.500000 0.410340
#
# Coordination Sequence:
#
# PCOD9172670 Si02
#       8
#     8   8   8   8   8   8   8   8
#     4  10  20  31  46  66  89 118 150 186 218 252
#     4   9  17  27  45  65  85 117 149 183 221 257
#     4   9  17  30  44  64  90 116 152 190 222 253
#     4   8  15  27  46  68  89 113 143 186 229 260
#     4   9  15  28  48  64  85 112 149 186 222 259
#     4  11  20  30  43  64  93 122 148 175 215 274
#     4  10  19  29  42  65  97 123 145 176 218 268
#     4  10  18  30  46  65  90 120 155 188 217 249
#
# _framework density 14.549714
#
# number of rings (size 3 to 8) (size 9 to 14) (size 15 to 20)
#    0.000    2.500    2.500    1.875    3.500    2.250 
#    0.000    0.000    0.000    0.375    0.000    0.000 
#    0.000    9.000    0.000    0.000    0.000    0.000 
#
# Total GULP energy -178269.230446 kJ/mol
# GULP energy per Si atom -5570.913451 kJ/mol
# Density = 1.451660 g / cm^3
# Si number density = 14.549714 Si / 1000 Ang^3
#
#
#
# Elastic Constant Matrix: (Units=GPa)
#
#
# Indices 1 2 3 4 5 6 
#
# 1 128.4257 48.3578 53.0682 0.0000 -15.1434 0.0000
# 2 48.3578 50.2909 41.7282 0.0000 -0.5266 0.0000
# 3 53.0682 41.7282 78.4528 0.0000 -19.1426 0.0000
# 4 0.0000 0.0000 0.0000 12.0419 0.0000 2.1547
# 5 -15.1434 -0.5266 -19.1426 0.0000 22.3759 0.0000
# 6 0.0000 0.0000 0.0000 2.1547 0.0000 17.0615
#
#
#
# Elastic Compliance Matrix: (Units=1/GPa)
#
#
# Indices 1 2 3 4 5 6 
#
# 1 0.013825 -0.012915 -0.000346 0.000000 0.008757 0.000000
# 2 -0.012915 0.055866 -0.028802 0.000000 -0.032066 0.000000
# 3 -0.000346 -0.028802 0.035485 0.000000 0.029445 0.000000
# 4 0.000000 0.000000 0.000000 0.084963 0.000000 -0.010730
# 5 0.008757 -0.032066 0.029445 0.000000 0.075053 0.000000
# 6 0.000000 0.000000 0.000000 -0.010730 0.000000 0.059967
#
#
# Mechanical properties :
#
#
# Convention : Reuss Voigt Hill
#
# Bulk Modulus (GPa) = 47.50781 60.38642 53.94712
# Shear Modulus (GPa) = 12.01055 17.89688 14.95372
#
# Velocity S-wave (km/s) = 2.87624 3.51101 3.20936
# Velocity P-wave (km/s) = 6.61463 7.61773 7.13383
#
# Compressibility (1/GPa) = 0.02104917
#
# Stress axis : x y z
#
# Youngs Moduli (GPa) = 72.33214 17.90013 28.18128
#
# Poissons Ratio (x) = 0.23118 0.00974
# Poissons Ratio (y) = 0.93418 0.81168
# Poissons Ratio (z) = 0.02500 0.51556
#
# Static dielectric constant tensor:
#      x y z
#    x 1.499620 0.000000 -0.003720 
#    y 0.000000 1.462080 0.000000 
#    z -0.003720 0.000000 1.466060 
# 
# From -- ./inp_files/159260.got.cif
#   From: 2010.05.17/outbox.cif.g08.bks.cpg/sg12_80_cif.got.tgz:159260.got - 2010.06.03 13:09:07.
