data_PCOD9172241
_publ_section_title
;
Structure prediction by ZEFSAII (Michael W. Deem and Ramdas Pophale) SiO2 
 PCOD9172241
Probable space group: C 2/M
;
_chemical_formula_sum "Si O2"
_cell_formula_units_Z 56
_cell_length_a 20.606871
_cell_length_b 7.567529
_cell_length_c 17.340794
_cell_angle_alpha 90.000000
_cell_angle_beta 86.347407
_cell_angle_gamma 90.000000
_cell_volume 2698.683994
_symmetry_space_group_name_H-M "C 2/M"
_symmetry_group_IT_number 12
_symmetry_cell_setting 'monoclinic'
loop_
_space_group_symop_operation_xyz
x,y,z
-x,y,-z
-x,-y,-z
x,-y,z
1/2+x,1/2+y,z
1/2-x,1/2+y,-z
1/2-x,1/2-y,-z
1/2+x,1/2-y,z
loop_
_atom_site_type_symbol
_atom_site_label
_atom_site_fract_x
_atom_site_fract_y
_atom_site_fract_z
Si Si1 0.672900 0.288214 0.508103
Si Si2 0.976882 0.202212 0.920199
Si Si3 0.821778 0.212125 0.324135
Si Si4 0.607204 0.206192 0.838687
Si Si5 0.137596 0.782596 0.178702
Si Si6 0.232474 0.711207 0.913812
Si Si7 0.332419 0.289348 0.658592
O O1 0.663672 0.500000 0.508784
O O2 0.750000 0.250000 0.500000
O O3 0.652062 0.223728 0.594274
O O4 0.648037 0.218501 0.427480
O O5 0.038915 0.202880 0.859378
O O6 0.916639 0.280413 0.877438
O O7 0.957443 0.000000 0.939921
O O8 0.000000 0.282756 0.000000
O O9 0.862767 0.278302 0.248711
O O10 0.745419 0.262359 0.324286
O O11 0.824377 0.000000 0.323022
O O12 0.662817 0.279869 0.891694
O O13 0.596380 0.000000 0.856563
O O14 0.208343 0.725749 0.143528
O O15 0.131422 0.723165 0.267742
O O16 0.135805 0.000000 0.179016
O O17 0.229456 0.500000 0.903879
O O18 0.250000 0.750000 0.000000
O O19 0.342443 0.500000 0.655329
#
# Coordination Sequence:
#
# PCOD9172241 Si02
#       7
#     8   8   8   8   8   8   8
#     4   8  15  25  43  71 102 134 164 203 250 301
#     4  10  21  37  56  75 100 135 173 213 258 305
#     4  10  18  29  47  76 107 133 169 209 252 302
#     4  11  22  36  54  75 103 137 172 210 255 305
#     4   9  17  32  53  74  99 132 169 207 252 307
#     4  10  20  34  52  75  99 128 165 207 255 303
#     4   9  15  29  50  73 104 136 168 207 256 305
#
# _framework density 20.750855999999999
#
# number of rings (size 3 to 8) (size 9 to 14) (size 15 to 20)
#    0.000    2.429    1.429    1.714    0.000    3.143 
#    0.000    1.429    0.000    0.857    0.000    6.000 
#    0.000    0.000    0.000    0.000    0.000    0.000 
#
# Total GULP energy -156155.852051 kJ/mol
# GULP energy per Si atom -5576.994716 kJ/mol
# Density = 2.070363 g / cm^3
# Si number density = 20.750856 Si / 1000 Ang^3
#
#
#
# Elastic Constant Matrix: (Units=GPa)
#
#
# Indices 1 2 3 4 5 6 
#
# 1 31.8883 -1.8704 -11.5281 0.0000 12.9102 0.0000
# 2 -1.8704 52.3677 -4.1919 0.0000 6.8688 0.0000
# 3 -11.5281 -4.1919 108.9303 0.0000 23.4357 0.0000
# 4 0.0000 0.0000 0.0000 14.1744 0.0000 -2.8955
# 5 12.9102 6.8688 23.4357 0.0000 31.1271 0.0000
# 6 0.0000 0.0000 0.0000 -2.8955 0.0000 8.7191
#
#
#
# Elastic Compliance Matrix: (Units=1/GPa)
#
#
# Indices 1 2 3 4 5 6 
#
# 1 0.048464 0.006701 0.011968 0.000000 -0.030591 0.000000
# 2 0.006701 0.020970 0.003711 0.000000 -0.010201 0.000000
# 3 0.011968 0.003711 0.014121 0.000000 -0.016415 0.000000
# 4 0.000000 0.000000 0.000000 0.075684 0.000000 0.025134
# 5 -0.030591 -0.010201 -0.016415 0.000000 0.059424 0.000000
# 6 0.000000 0.000000 0.000000 0.025134 0.000000 0.123037
#
#
# Mechanical properties :
#
#
# Convention : Reuss Voigt Hill
#
# Bulk Modulus (GPa) = 7.79326 17.55616 12.67471
# Shear Modulus (GPa) = 14.71840 24.85590 19.78715
#
# Velocity S-wave (km/s) = 2.66614 3.46472 3.09132
# Velocity P-wave (km/s) = 3.63889 4.94818 4.34316
#
# Compressibility (1/GPa) = 0.12831605
#
# Stress axis : x y z
#
# Youngs Moduli (GPa) = 20.63383 47.68696 70.81610
#
# Poissons Ratio (x) = -0.31957 -0.84754
# Poissons Ratio (y) = -0.13827 -0.26279
# Poissons Ratio (z) = -0.24695 -0.17696
#
# Static dielectric constant tensor:
#      x y z
#    x 1.729080 0.000000 0.039480 
#    y 0.000000 1.820640 0.000000 
#    z 0.039480 0.000000 1.802170 
# 
# From -- ./inp_files/280260.got.cif
#   From: 2010.05.17/outbox.cif.g08.bks.cpg/sg12_141_cif.got.tgz:280260.got - 2010.06.03 13:09:07.
