data_PCOD9172606
_publ_section_title
;
Structure prediction by ZEFSAII (Michael W. Deem and Ramdas Pophale) SiO2 
 PCOD9172606
Probable space group: C 2/M
;
_chemical_formula_sum "Si O2"
_cell_formula_units_Z 28
_cell_length_a 17.711092
_cell_length_b 5.816129
_cell_length_c 10.334921
_cell_angle_alpha 90.000000
_cell_angle_beta 117.808434
_cell_angle_gamma 90.000000
_cell_volume 941.651958
_symmetry_space_group_name_H-M "C 2/M"
_symmetry_group_IT_number 12
_symmetry_cell_setting 'monoclinic'
loop_
_space_group_symop_operation_xyz
x,y,z
-x,y,-z
-x,-y,-z
x,-y,z
1/2+x,1/2+y,z
1/2-x,1/2+y,-z
1/2-x,1/2-y,-z
1/2+x,1/2-y,z
loop_
_atom_site_type_symbol
_atom_site_label
_atom_site_fract_x
_atom_site_fract_y
_atom_site_fract_z
Si Si1 0.976009 0.000000 0.632127
Si Si2 0.520272 0.000000 0.319046
Si Si3 0.625708 0.000000 0.989115
Si Si4 0.667173 0.000000 0.742304
Si Si5 0.791857 0.751978 0.675234
Si Si6 0.083653 0.000000 0.978801
O O1 0.936201 0.254146 0.625093
O O2 0.000000 0.000000 0.500000
O O3 0.053566 0.000000 0.802089
O O4 0.473700 0.000000 0.141621
O O5 0.564791 0.000000 0.657290
O O6 0.684821 0.000000 0.908564
O O7 0.632553 0.738924 0.043883
O O8 0.710176 0.785404 0.705506
O O9 0.831935 0.500000 0.727384
O O10 0.750000 0.750000 0.500000
O O11 0.838117 0.000000 0.720022
O O12 0.000000 0.000000 0.000000
#
# Coordination Sequence:
#
# PCOD9172606 Si02
#       6
#     4   4   4   4   8   4
#     4  10  18  30  41  57  75  97 129 167 198 236
#     4   8  17  25  39  55  71  97 129 161 188 225
#     4   8  17  25  39  55  71  97 129 161 188 225
#     4   8  16  22  38  48  78  92 138 156 180 222
#     4   8  14  20  30  48  70  98 126 152 178 218
#     4  10  18  30  41  57  75  97 129 167 198 236
#
# _framework density 29.734978000000002
#
# number of rings (size 3 to 8) (size 9 to 14) (size 15 to 20)
#    1.714    1.714    0.000    0.857    4.000    0.000 
#    0.000    0.000    0.000    0.000    0.000    0.000 
#    0.000    0.000    0.000    0.000    0.000   28.571 
#
# Total GULP energy -78325.897157 kJ/mol
# GULP energy per Si atom -5594.706940 kJ/mol
# Density = 2.966730 g / cm^3
# Si number density = 29.734978 Si / 1000 Ang^3
#
#
#
# Elastic Constant Matrix: (Units=GPa)
#
#
# Indices 1 2 3 4 5 6 
#
# 1 127.5177 63.5590 47.6888 0.0000 -4.6344 0.0000
# 2 63.5590 402.4180 119.8828 0.0000 -25.1972 0.0000
# 3 47.6888 119.8828 99.8548 0.0000 -7.5417 0.0000
# 4 0.0000 0.0000 0.0000 80.0530 0.0000 -12.3779
# 5 -4.6344 -25.1972 -7.5417 0.0000 55.2578 0.0000
# 6 0.0000 0.0000 0.0000 -12.3779 0.0000 64.4117
#
#
#
# Elastic Compliance Matrix: (Units=1/GPa)
#
#
# Indices 1 2 3 4 5 6 
#
# 1 0.009562 -0.000226 -0.004287 0.000000 0.000114 0.000000
# 2 -0.000226 0.003947 -0.004543 0.000000 0.001161 0.000000
# 3 -0.004287 -0.004543 0.017512 0.000000 -0.000041 0.000000
# 4 0.000000 0.000000 0.000000 0.012874 0.000000 0.002474
# 5 0.000114 0.001161 -0.000041 0.000000 0.018630 0.000000
# 6 0.000000 0.000000 0.000000 0.002474 0.000000 0.016001
#
#
# Mechanical properties :
#
#
# Convention : Reuss Voigt Hill
#
# Bulk Modulus (GPa) = 77.45666 121.33907 99.39787
# Shear Modulus (GPa) = 49.53445 66.52182 58.02813
#
# Velocity S-wave (km/s) = 4.08593 4.73499 4.42238
# Velocity P-wave (km/s) = 6.95452 8.41362 7.71862
#
# Compressibility (1/GPa) = 0.01291045
#
# Stress axis : x y z
#
# Youngs Moduli (GPa) = 104.58096 253.38141 57.10281
#
# Poissons Ratio (x) = 0.05730 0.24477
# Poissons Ratio (y) = 0.02365 0.25939
# Poissons Ratio (z) = 0.44829 1.15099
#
# Static dielectric constant tensor:
#      x y z
#    x 2.219600 0.000000 -0.083160 
#    y 0.000000 2.251460 0.000000 
#    z -0.083160 0.000000 2.494160 
# 
# From -- ./inp_files/107091.got.cif
#   From: 2010.05.17/outbox.cif.g08.bks.cpg/sg12_54_cif.got.tgz:107091.got - 2010.06.03 13:09:07.
