data_PCOD9172993
_publ_section_title
;
Structure prediction by ZEFSAII (Michael W. Deem and Ramdas Pophale) SiO2 
 PCOD9172993
Probable space group: C 2/M
;
_chemical_formula_sum "Si O2"
_cell_formula_units_Z 64
_cell_length_a 24.166290
_cell_length_b 13.152962
_cell_length_c 26.673452
_cell_angle_alpha 90.000000
_cell_angle_beta 27.904367
_cell_angle_gamma 90.000000
_cell_volume 3967.856905
_symmetry_space_group_name_H-M "C 2/M"
_symmetry_group_IT_number 12
_symmetry_cell_setting 'monoclinic'
loop_
_space_group_symop_operation_xyz
x,y,z
-x,y,-z
-x,-y,-z
x,-y,z
1/2+x,1/2+y,z
1/2-x,1/2+y,-z
1/2-x,1/2-y,-z
1/2+x,1/2-y,z
loop_
_atom_site_type_symbol
_atom_site_label
_atom_site_fract_x
_atom_site_fract_y
_atom_site_fract_z
Si Si1 0.781962 0.379750 0.365269
Si Si2 0.951556 0.880635 0.385367
Si Si3 0.814109 0.380703 0.222247
Si Si4 0.475594 0.752714 0.270466
Si Si5 0.683254 0.882342 0.157536
Si Si6 0.083348 0.616653 0.023732
Si Si7 0.639854 0.709720 0.056349
Si Si8 0.706641 0.299040 0.212268
O O1 0.809564 0.500000 0.348284
O O2 0.651511 0.362139 0.491807
O O3 0.790205 0.356506 0.299582
O O4 0.874727 0.315517 0.323204
O O5 0.929952 0.814708 0.352867
O O6 0.079775 0.849210 0.303534
O O7 0.951827 0.000000 0.373124
O O8 0.783020 0.500000 0.238599
O O9 0.743324 0.311069 0.240389
O O10 0.955203 0.370965 0.101097
O O11 0.574717 0.829307 0.214287
O O12 0.541627 0.682869 0.175993
O O13 0.701785 0.813476 0.192169
O O14 0.659613 0.000000 0.186167
O O15 0.801690 0.869557 0.028765
O O16 0.091138 0.500000 0.035144
O O17 0.091957 0.695837 0.062208
O O18 0.191811 0.641514 0.900257
O O19 0.750000 0.750000 0.000000
#
# Coordination Sequence:
#
# PCOD9172993 Si02
#       8
#     8   8   8   8   8   8   8   8
#     4  10  20  33  51  76 103 132 169 208 250 297
#     4  10  21  34  49  73 104 136 168 207 252 298
#     4  10  19  31  52  77 100 132 166 206 252 298
#     4  10  18  33  52  74  99 133 171 208 247 295
#     4   9  19  33  51  74 101 133 168 206 250 297
#     4  10  18  30  49  74 102 129 162 204 249 300
#     4   9  18  28  45  74 101 127 158 199 247 294
#     4  10  20  33  50  74 103 132 168 204 251 301
#
# _framework density 16.129614
#
# number of rings (size 3 to 8) (size 9 to 14) (size 15 to 20)
#    0.000    2.250    1.250    3.000    0.000    4.000 
#    0.000    1.875    0.000    6.750    0.000    3.500 
#    0.000    0.000    0.000    0.000    0.000    0.000 
#
# Total GULP energy -178378.218196 kJ/mol
# GULP energy per Si atom -5574.319319 kJ/mol
# Density = 1.609290 g / cm^3
# Si number density = 16.129614 Si / 1000 Ang^3
#
#
#
# Elastic Constant Matrix: (Units=GPa)
#
#
# Indices 1 2 3 4 5 6 
#
# 1 109.0599 44.5537 43.6058 0.0001 0.9992 0.0000
# 2 44.5537 74.4998 30.3354 0.0004 2.3130 -0.0001
# 3 43.6058 30.3354 104.2177 0.0005 4.3636 -0.0002
# 4 0.0001 0.0004 0.0005 17.1989 -0.0004 -3.9372
# 5 0.9992 2.3130 4.3636 -0.0004 9.7767 0.0002
# 6 0.0000 -0.0001 -0.0002 -3.9372 0.0002 13.9037
#
#
#
# Elastic Compliance Matrix: (Units=1/GPa)
#
#
# Indices 1 2 3 4 5 6 
#
# 1 0.013303 -0.006484 -0.003756 0.000000 0.001851 0.000000
# 2 -0.006484 0.018414 -0.002540 0.000000 -0.002560 0.000000
# 3 -0.003756 -0.002540 0.012091 0.000000 -0.004412 0.000000
# 4 0.000000 0.000000 0.000000 0.062174 0.000002 0.017606
# 5 0.001851 -0.002560 -0.004412 0.000002 0.104669 -0.000001
# 6 0.000000 0.000000 0.000000 0.017606 -0.000001 0.076909
#
#
# Mechanical properties :
#
#
# Convention : Reuss Voigt Hill
#
# Bulk Modulus (GPa) = 54.79974 58.30747 56.55360
# Shear Modulus (GPa) = 15.66404 19.46137 17.56271
#
# Velocity S-wave (km/s) = 3.11969 3.47733 3.30335
# Velocity P-wave (km/s) = 6.85747 7.23534 7.04894
#
# Compressibility (1/GPa) = 0.01824826
#
# Stress axis : x y z
#
# Youngs Moduli (GPa) = 75.17129 54.30659 82.70595
#
# Poissons Ratio (x) = 0.35210 0.31067
# Poissons Ratio (y) = 0.48738 0.21006
# Poissons Ratio (z) = 0.28237 0.13793
#
# Static dielectric constant tensor:
#      x y z
#    x 1.541900 0.000000 0.004610 
#    y 0.000000 1.516840 0.000000 
#    z 0.004610 0.000000 1.570180 
# 
# From -- ./inp_files/367807.got.cif
#   From: 2010.05.17/outbox.cif.g08.bks.cpg/sg12_184_cif.got.tgz:367807.got - 2010.06.03 13:09:07.
