data_PCOD9172351
_publ_section_title
;
Structure prediction by ZEFSAII (Michael W. Deem and Ramdas Pophale) SiO2 
 PCOD9172351
Probable space group: C 2/M
;
_chemical_formula_sum "Si O2"
_cell_formula_units_Z 64
_cell_length_a 25.063676
_cell_length_b 7.594774
_cell_length_c 14.468143
_cell_angle_alpha 90.000000
_cell_angle_beta 81.970268
_cell_angle_gamma 90.000000
_cell_volume 2727.052244
_symmetry_space_group_name_H-M "C 2/M"
_symmetry_group_IT_number 12
_symmetry_cell_setting 'monoclinic'
loop_
_space_group_symop_operation_xyz
x,y,z
-x,y,-z
-x,-y,-z
x,-y,z
1/2+x,1/2+y,z
1/2-x,1/2+y,-z
1/2-x,1/2-y,-z
1/2+x,1/2-y,z
loop_
_atom_site_type_symbol
_atom_site_label
_atom_site_fract_x
_atom_site_fract_y
_atom_site_fract_z
Si Si1 0.644660 0.786248 0.586203
Si Si2 0.207807 0.208502 0.749939
Si Si3 0.909462 0.206255 0.672005
Si Si4 0.461665 0.206892 0.152107
Si Si5 0.081654 0.213339 0.117966
Si Si6 0.028114 0.712327 0.636281
Si Si7 0.301943 0.201513 0.602139
Si Si8 0.857020 0.797560 0.066745
O O1 0.661228 0.731413 0.684689
O O2 0.583973 0.727683 0.577597
O O3 0.687904 0.718468 0.501448
O O4 0.645414 0.000000 0.583358
O O5 0.260381 0.283386 0.685224
O O6 0.186726 0.282823 0.852476
O O7 0.216475 0.000000 0.763013
O O8 0.911163 0.271760 0.778004
O O9 0.861609 0.299413 0.630498
O O10 0.969617 0.228515 0.617516
O O11 0.896531 0.000000 0.675954
O O12 0.522050 0.231704 0.099705
O O13 0.466230 0.267989 0.257471
O O14 0.413774 0.297377 0.108588
O O15 0.448623 0.000000 0.156186
O O16 0.082459 0.000000 0.117431
O O17 0.127022 0.280302 0.036325
O O18 0.027152 0.500000 0.633270
O O19 0.284026 0.000000 0.593285
O O20 0.841028 0.000000 0.053908
#
# Coordination Sequence:
#
# PCOD9172351 Si02
#       8
#     8   8   8   8   8   8   8   8
#     4  10  20  36  58  82 109 140 173 214 270 326
#     4  10  21  36  56  82 109 139 177 221 265 312
#     4  10  21  37  56  77 104 140 183 224 260 307
#     4  10  18  29  48  77 110 139 172 214 259 311
#     4   9  19  34  51  73 104 142 178 212 260 317
#     4   9  18  33  53  78 109 142 170 209 267 321
#     4  10  22  39  57  77 105 143 181 219 268 320
#     4  10  19  32  51  75 106 141 174 212 262 317
#
# _framework density 23.468561999999999
#
# number of rings (size 3 to 8) (size 9 to 14) (size 15 to 20)
#    0.000    2.250    1.250    1.500    0.000    5.000 
#    0.000    3.125    0.000    0.000    0.000    0.000 
#    0.000    0.000    0.000    0.000    0.000    0.000 
#
# Total GULP energy -178732.338096 kJ/mol
# GULP energy per Si atom -5585.385566 kJ/mol
# Density = 2.341515 g / cm^3
# Si number density = 23.468562 Si / 1000 Ang^3
#
#
#
# Elastic Constant Matrix: (Units=GPa)
#
#
# Indices 1 2 3 4 5 6 
#
# 1 84.8119 -2.2978 27.5951 0.0000 -28.8346 0.0000
# 2 -2.2978 60.8308 0.6059 0.0000 -3.3642 0.0000
# 3 27.5951 0.6059 88.7741 0.0000 -43.6185 0.0000
# 4 0.0000 0.0000 0.0000 6.6575 0.0000 6.9854
# 5 -28.8346 -3.3642 -43.6185 0.0000 50.2067 0.0000
# 6 0.0000 0.0000 0.0000 6.9854 0.0000 7.1458
#
#
#
# Elastic Compliance Matrix: (Units=1/GPa)
#
#
# Indices 1 2 3 4 5 6 
#
# 1 0.014740 0.001002 -0.000691 0.000000 0.007932 0.000000
# 2 0.001002 0.016597 0.000706 0.000000 0.002301 0.000000
# 3 -0.000691 0.000706 0.019721 0.000000 0.016784 0.000000
# 4 0.000000 0.000000 0.000000 -5.845517 0.000000 5.714281
# 5 0.007932 0.002301 0.016784 0.000000 0.039208 0.000000
# 6 0.000000 0.000000 0.000000 5.714281 0.000000 -5.446050
#
#
# Mechanical properties :
#
#
# Convention : Reuss Voigt Hill
#
# Bulk Modulus (GPa) = 18.83561 31.80259 25.31910
# Shear Modulus (GPa) = -0.44700 26.70291 13.12795
#
# Velocity S-wave (km/s) = -0.43690 3.37681 2.36770
# Velocity P-wave (km/s) = 2.79084 5.36511 4.27628
#
# Compressibility (1/GPa) = 0.05309092
#
# Stress axis : x y z
#
# Youngs Moduli (GPa) = 67.84468 60.25140 50.70708
#
# Poissons Ratio (x) = -0.06039 0.03506
# Poissons Ratio (y) = -0.06800 -0.03578
# Poissons Ratio (z) = 0.04691 -0.04252
#
# Static dielectric constant tensor:
#      x y z
#    x 1.876500 0.000000 -0.051170 
#    y 0.000000 1.856270 0.000000 
#    z -0.051170 0.000000 1.938440 
# 
# From -- ./inp_files/243976.got.cif
#   From: 2010.05.17/outbox.cif.g08.bks.cpg/sg12_122_cif.got.tgz:243976.got - 2010.06.03 13:09:07.
