data_PCOD9172366
_publ_section_title
;
Structure prediction by ZEFSAII (Michael W. Deem and Ramdas Pophale) SiO2 
 PCOD9172366
Probable space group: C 2/M
;
_chemical_formula_sum "Si O2"
_cell_formula_units_Z 60
_cell_length_a 29.549994
_cell_length_b 21.028675
_cell_length_c 6.449124
_cell_angle_alpha 90.000000
_cell_angle_beta 102.401055
_cell_angle_gamma 90.000000
_cell_volume 3913.966788
_symmetry_space_group_name_H-M "C 2/M"
_symmetry_group_IT_number 12
_symmetry_cell_setting 'monoclinic'
loop_
_space_group_symop_operation_xyz
x,y,z
-x,y,-z
-x,-y,-z
x,-y,z
1/2+x,1/2+y,z
1/2-x,1/2+y,-z
1/2-x,1/2-y,-z
1/2+x,1/2-y,z
loop_
_atom_site_type_symbol
_atom_site_label
_atom_site_fract_x
_atom_site_fract_y
_atom_site_fract_z
Si Si1 0.155004 0.105927 0.832992
Si Si2 0.775313 0.688872 0.921749
Si Si3 0.706759 0.359267 0.498305
Si Si4 0.547272 0.308168 0.164889
Si Si5 0.057498 0.071483 0.897576
Si Si6 0.147340 0.224443 0.121111
Si Si7 0.500000 0.647236 0.500000
Si Si8 0.747175 0.571350 0.158875
O O1 0.167579 0.109228 0.604654
O O2 0.108435 0.071899 0.850444
O O3 0.149576 0.176941 0.924975
O O4 0.198437 0.074017 0.988524
O O5 0.743772 0.671312 0.692207
O O6 0.826585 0.710957 0.910564
O O7 0.750000 0.750000 0.000000
O O8 0.775046 0.628734 0.076613
O O9 0.680148 0.309472 0.325103
O O10 0.733829 0.408217 0.378223
O O11 0.594498 0.272357 0.148873
O O12 0.535551 0.311509 0.396698
O O13 0.500000 0.286481 0.000000
O O14 0.556123 0.380264 0.089773
O O15 0.025874 0.103574 0.691417
O O16 0.044518 0.000000 0.936763
O O17 0.766512 0.500000 0.165925
#
# Coordination Sequence:
#
# PCOD9172366 Si02
#       8
#     8   8   8   8   8   8   4   8
#     4   9  18  31  46  63  90 122 160 200 239 275
#     4  11  19  33  51  74  97 126 164 199 234 280
#     4  10  18  29  49  68  95 125 163 197 235 281
#     4   9  20  34  46  62  87 115 150 197 245 284
#     4  10  19  29  42  59  82 115 157 200 238 278
#     4  10  18  31  50  72  90 120 159 202 237 278
#     4  10  19  32  42  58  80 114 153 198 248 286
#     4  10  21  32  44  68 101 130 158 193 234 281
#
# _framework density 15.329717
#
# number of rings (size 3 to 8) (size 9 to 14) (size 15 to 20)
#    0.000    2.133    4.000    1.800    0.000    5.600 
#    0.000    0.000    0.000    0.000    0.000    0.000 
#    0.000    0.533    0.000    1.800    0.000    0.000 
#
# Total GULP energy -167201.643581 kJ/mol
# GULP energy per Si atom -5573.388119 kJ/mol
# Density = 1.529483 g / cm^3
# Si number density = 15.329717 Si / 1000 Ang^3
#
#
#
# Elastic Constant Matrix: (Units=GPa)
#
#
# Indices 1 2 3 4 5 6 
#
# 1 100.7173 41.0779 22.0722 0.0000 -25.9358 0.0000
# 2 41.0779 73.7627 30.5897 0.0000 -16.6090 0.0000
# 3 22.0722 30.5897 70.3780 0.0000 -23.9978 0.0000
# 4 0.0000 0.0000 0.0000 3.9371 0.0000 1.6169
# 5 -25.9358 -16.6090 -23.9978 0.0000 22.0927 0.0000
# 6 0.0000 0.0000 0.0000 1.6169 0.0000 7.2613
#
#
#
# Elastic Compliance Matrix: (Units=1/GPa)
#
#
# Indices 1 2 3 4 5 6 
#
# 1 0.016661 -0.006728 0.004199 0.000000 0.019063 0.000000
# 2 -0.006728 0.020041 -0.006602 0.000000 -0.000002 0.000000
# 3 0.004199 -0.006602 0.025015 0.000000 0.027139 0.000000
# 4 0.000000 0.000000 0.000000 0.279557 0.000000 -0.062250
# 5 0.019063 -0.000002 0.027139 0.000000 0.097121 0.000000
# 6 0.000000 0.000000 0.000000 -0.062250 0.000000 0.151578
#
#
# Mechanical properties :
#
#
# Convention : Reuss Voigt Hill
#
# Bulk Modulus (GPa) = 23.01116 48.03752 35.52434
# Shear Modulus (GPa) = 8.02931 16.73277 12.38104
#
# Velocity S-wave (km/s) = 2.29109 3.30741 2.84500
# Velocity P-wave (km/s) = 4.69491 6.78156 5.83231
#
# Compressibility (1/GPa) = 0.04345718
#
# Stress axis : x y z
#
# Youngs Moduli (GPa) = 60.01895 49.89856 39.97537
#
# Poissons Ratio (x) = 0.33569 -0.16785
# Poissons Ratio (y) = 0.40378 0.26390
# Poissons Ratio (z) = -0.25202 0.32941
#
# Static dielectric constant tensor:
#      x y z
#    x 1.535860 0.000000 -0.015150 
#    y 0.000000 1.510880 0.000000 
#    z -0.015150 0.000000 1.541070 
# 
# From -- ./inp_files/32257.got.cif
#   From: 2010.05.17/outbox.cif.g08.bks.cpg/sg12_17_cif.got.tgz:32257.got - 2010.06.03 13:09:07.
