data_PCOD9172257
_publ_section_title
;
Structure prediction by ZEFSAII (Michael W. Deem and Ramdas Pophale) SiO2 
 PCOD9172257
Probable space group: C 2/M
;
_chemical_formula_sum "Si O2"
_cell_formula_units_Z 48
_cell_length_a 19.020846
_cell_length_b 13.768536
_cell_length_c 26.696203
_cell_angle_alpha 90.000000
_cell_angle_beta 24.662358
_cell_angle_gamma 90.000000
_cell_volume 2917.322028
_symmetry_space_group_name_H-M "C 2/M"
_symmetry_group_IT_number 12
_symmetry_cell_setting 'monoclinic'
loop_
_space_group_symop_operation_xyz
x,y,z
-x,y,-z
-x,-y,-z
x,-y,z
1/2+x,1/2+y,z
1/2-x,1/2+y,-z
1/2-x,1/2-y,-z
1/2+x,1/2-y,z
loop_
_atom_site_type_symbol
_atom_site_label
_atom_site_fract_x
_atom_site_fract_y
_atom_site_fract_z
Si Si1 0.419908 0.892616 0.996919
Si Si2 0.625282 0.884265 0.345965
Si Si3 0.757667 0.616276 0.615496
Si Si4 0.437885 0.695778 0.097459
Si Si5 0.278057 0.389547 0.022396
Si Si6 0.894424 0.806163 0.839876
O O1 0.519060 0.802600 0.907964
O O2 0.430629 0.000000 0.966894
O O3 0.500000 0.899575 0.000000
O O4 0.227191 0.855455 0.122583
O O5 0.702190 0.866000 0.351701
O O6 0.428751 0.857165 0.475436
O O7 0.743972 0.830176 0.229971
O O8 0.634026 0.000000 0.331912
O O9 0.731335 0.500000 0.627445
O O10 0.590036 0.671181 0.707586
O O11 0.500000 0.693788 0.000000
O O12 0.552942 0.621296 0.053902
O O13 0.217342 0.500000 0.063067
O O14 0.150817 0.307379 0.125289
O O15 0.330890 0.358025 0.932265
#
# Coordination Sequence:
#
# PCOD9172257 Si02
#       6
#     8   8   8   8   8   8
#     4   9  18  31  47  68  94 123 158 198 235 274
#     4   9  17  28  44  69  97 125 155 190 233 278
#     4   9  16  28  47  68  94 124 157 195 231 273
#     4  10  19  30  47  71  99 128 154 187 237 288
#     4  10  19  29  44  70  98 123 154 191 236 283
#     4  10  18  29  48  70  93 123 156 197 237 273
#
# _framework density 16.453444999999999
#
# number of rings (size 3 to 8) (size 9 to 14) (size 15 to 20)
#    0.000    2.500    1.667    3.000    0.000    1.333 
#    0.000    0.000    0.000   10.000    0.000    7.000 
#    0.000    0.000    0.000    0.000    0.000    0.000 
#
# Total GULP energy -133670.940075 kJ/mol
# GULP energy per Si atom -5569.622503 kJ/mol
# Density = 1.641600 g / cm^3
# Si number density = 16.453445 Si / 1000 Ang^3
#
#
#
# Elastic Constant Matrix: (Units=GPa)
#
#
# Indices 1 2 3 4 5 6 
#
# 1 46.7343 20.7891 28.4418 -0.0014 -15.6053 0.0004
# 2 20.7891 110.3662 54.5040 0.0003 -9.9129 0.0006
# 3 28.4418 54.5040 146.4715 -0.0014 -18.9080 0.0025
# 4 -0.0014 0.0003 -0.0014 15.2433 0.0018 -6.7615
# 5 -15.6053 -9.9129 -18.9080 0.0018 27.7298 -0.0009
# 6 0.0004 0.0006 0.0025 -6.7615 -0.0009 15.9674
#
#
#
# Elastic Compliance Matrix: (Units=1/GPa)
#
#
# Indices 1 2 3 4 5 6 
#
# 1 0.028812 -0.002840 -0.002824 0.000001 0.013273 0.000001
# 2 -0.002840 0.011421 -0.003704 -0.000001 -0.000041 0.000000
# 3 -0.002824 -0.003704 0.009186 0.000000 0.003350 -0.000001
# 4 0.000001 -0.000001 0.000000 0.080775 -0.000004 0.034205
# 5 0.013273 -0.000041 0.003350 -0.000004 0.045802 0.000000
# 6 0.000001 0.000000 -0.000001 0.034205 0.000000 0.077112
#
#
# Mechanical properties :
#
#
# Convention : Reuss Voigt Hill
#
# Bulk Modulus (GPa) = 32.59145 56.78244 44.68695
# Shear Modulus (GPa) = 17.72596 25.11058 21.41827
#
# Velocity S-wave (km/s) = 3.28585 3.91085 3.61189
# Velocity P-wave (km/s) = 5.85209 7.41477 6.67929
#
# Compressibility (1/GPa) = 0.03068289
#
# Stress axis : x y z
#
# Youngs Moduli (GPa) = 34.70781 87.55697 108.85635
#
# Poissons Ratio (x) = 0.24868 0.30745
# Poissons Ratio (y) = 0.09858 0.40318
# Poissons Ratio (z) = 0.09803 0.32429
#
# Static dielectric constant tensor:
#      x y z
#    x 1.594130 0.000000 -0.010910 
#    y 0.000000 1.586620 0.000000 
#    z -0.010910 0.000000 1.547160 
# 
# From -- ./inp_files/289646.got.cif
#   From: 2010.05.17/outbox.cif.g08.bks.cpg/sg12_145_cif.got.tgz:289646.got - 2010.06.03 13:09:07.
