data_PCOD9172390
_publ_section_title
;
Structure prediction by ZEFSAII (Michael W. Deem and Ramdas Pophale) SiO2 
 PCOD9172390
Probable space group: C 2/M
;
_chemical_formula_sum "Si O2"
_cell_formula_units_Z 64
_cell_length_a 30.025402
_cell_length_b 8.907554
_cell_length_c 16.062895
_cell_angle_alpha 90.000000
_cell_angle_beta 61.656221
_cell_angle_gamma 90.000000
_cell_volume 3781.032972
_symmetry_space_group_name_H-M "C 2/M"
_symmetry_group_IT_number 12
_symmetry_cell_setting 'monoclinic'
loop_
_space_group_symop_operation_xyz
x,y,z
-x,y,-z
-x,-y,-z
x,-y,z
1/2+x,1/2+y,z
1/2-x,1/2+y,-z
1/2-x,1/2-y,-z
1/2+x,1/2-y,z
loop_
_atom_site_type_symbol
_atom_site_label
_atom_site_fract_x
_atom_site_fract_y
_atom_site_fract_z
Si Si1 0.671918 0.179111 0.109416
Si Si2 0.071397 0.821978 0.273919
Si Si3 0.588076 0.179839 0.436800
Si Si4 0.467212 0.179477 0.340197
Si Si5 0.863903 0.681148 0.344334
Si Si6 0.703682 0.318683 0.730264
Si Si7 0.778279 0.180429 0.095453
Si Si8 0.310296 0.182217 0.560893
O O1 0.620733 0.253942 0.186198
O O2 0.719349 0.214737 0.128281
O O3 0.665937 0.000000 0.113521
O O4 0.688869 0.238886 0.004198
O O5 0.071947 0.764064 0.368577
O O6 0.019567 0.762554 0.279531
O O7 0.073298 0.000000 0.269777
O O8 0.552966 0.209641 0.548050
O O9 0.644964 0.222252 0.414610
O O10 0.586860 0.000000 0.422481
O O11 0.421024 0.221391 0.320173
O O12 0.474675 0.000000 0.327742
O O13 0.861579 0.500000 0.342279
O O14 0.843006 0.751654 0.278875
O O15 0.827952 0.730990 0.453465
O O16 0.702283 0.500000 0.727364
O O17 0.706779 0.276551 0.824392
O O18 0.755568 0.266330 0.639237
O O19 0.783969 0.000000 0.081741
O O20 0.309654 0.000000 0.560011
#
# Coordination Sequence:
#
# PCOD9172390 Si02
#       8
#     8   8   8   8   8   8   8   8
#     4  10  20  36  57  76  99 132 165 198 241 296
#     4  12  23  32  48  75 104 130 162 207 253 297
#     4   9  17  32  52  71  97 135 174 205 240 293
#     4   9  19  35  52  69  95 135 176 210 245 288
#     4   9  18  32  49  70  98 132 173 213 239 274
#     4  10  18  29  49  74 102 134 163 196 245 298
#     4   9  19  35  54  78 105 130 159 199 246 296
#     4   8  15  29  48  71 100 135 170 201 237 284
#
# _framework density 16.926590999999998
#
# number of rings (size 3 to 8) (size 9 to 14) (size 15 to 20)
#    0.000    2.500    0.000    4.500    0.000    5.500 
#    0.000    3.750    0.000    0.750    0.000    5.250 
#    0.000    0.000    0.000    0.000    0.000    0.000 
#
# Total GULP energy -178562.244400 kJ/mol
# GULP energy per Si atom -5580.070137 kJ/mol
# Density = 1.688806 g / cm^3
# Si number density = 16.926591 Si / 1000 Ang^3
#
#
#
# Elastic Constant Matrix: (Units=GPa)
#
#
# Indices 1 2 3 4 5 6 
#
# 1 145.6469 58.0516 90.8337 0.0000 3.7611 0.0000
# 2 58.0516 42.6684 48.0968 0.0000 -4.7641 0.0000
# 3 90.8337 48.0968 79.6395 0.0000 4.9516 0.0000
# 4 0.0000 0.0000 0.0000 20.3672 0.0000 1.2548
# 5 3.7611 -4.7641 4.9516 0.0000 29.6490 0.0000
# 6 0.0000 0.0000 0.0000 1.2548 0.0000 25.4796
#
#
#
# Elastic Compliance Matrix: (Units=1/GPa)
#
#
# Indices 1 2 3 4 5 6 
#
# 1 0.024215 -0.005641 -0.024216 0.000000 0.000066 0.000000
# 2 -0.005641 0.087731 -0.047969 0.000000 0.022824 0.000000
# 3 -0.024216 -0.047969 0.070163 0.000000 -0.016354 0.000000
# 4 0.000000 0.000000 0.000000 0.049248 0.000000 -0.002425
# 5 0.000066 0.022824 -0.016354 0.000000 0.040118 0.000000
# 6 0.000000 0.000000 0.000000 -0.002425 0.000000 0.039366
#
#
# Mechanical properties :
#
#
# Convention : Reuss Voigt Hill
#
# Bulk Modulus (GPa) = 37.79618 73.54654 55.67136
# Shear Modulus (GPa) = 10.51939 19.83069 15.17504
#
# Velocity S-wave (km/s) = 2.49564 3.42653 2.99744
# Velocity P-wave (km/s) = 5.53915 7.69412 6.70379
#
# Compressibility (1/GPa) = 0.02645770
#
# Stress axis : x y z
#
# Youngs Moduli (GPa) = 41.29633 11.39846 14.25252
#
# Poissons Ratio (x) = 0.06430 0.34514
# Poissons Ratio (y) = 0.23296 0.68367
# Poissons Ratio (z) = 1.00004 0.54677
#
# Static dielectric constant tensor:
#      x y z
#    x 1.574480 0.000000 -0.003190 
#    y 0.000000 1.563940 0.000000 
#    z -0.003190 0.000000 1.553690 
# 
# From -- ./inp_files/249066.got.cif
#   From: 2010.05.17/outbox.cif.g08.bks.cpg/sg12_125_cif.got.tgz:249066.got - 2010.06.03 13:09:07.
