data_PCOD9172845
_publ_section_title
;
Structure prediction by ZEFSAII (Michael W. Deem and Ramdas Pophale) SiO2 
 PCOD9172845
Probable space group: C 2/M
;
_chemical_formula_sum "Si O2"
_cell_formula_units_Z 40
_cell_length_a 24.166865
_cell_length_b 13.855405
_cell_length_c 24.724591
_cell_angle_alpha 90.000000
_cell_angle_beta 162.199740
_cell_angle_gamma 90.000000
_cell_volume 2530.833439
_symmetry_space_group_name_H-M "C 2/M"
_symmetry_group_IT_number 12
_symmetry_cell_setting 'monoclinic'
loop_
_space_group_symop_operation_xyz
x,y,z
-x,y,-z
-x,-y,-z
x,-y,z
1/2+x,1/2+y,z
1/2-x,1/2+y,-z
1/2-x,1/2-y,-z
1/2+x,1/2-y,z
loop_
_atom_site_type_symbol
_atom_site_label
_atom_site_fract_x
_atom_site_fract_y
_atom_site_fract_z
Si Si1 0.703555 0.385543 0.253110
Si Si2 0.268253 0.614912 0.839227
Si Si3 0.415366 0.202395 0.227136
Si Si4 0.639594 0.611520 0.888659
Si Si5 0.743472 0.614662 0.410538
O O1 0.741352 0.500000 0.288496
O O2 0.778474 0.350697 0.265138
O O3 0.766285 0.349510 0.369896
O O4 0.485345 0.376137 0.047775
O O5 0.226038 0.500000 0.804719
O O6 0.173235 0.671988 0.798515
O O7 0.385376 0.313227 0.183154
O O8 0.623302 0.171970 0.426397
O O9 0.313431 0.141862 0.085599
O O10 0.649295 0.500000 0.881433
O O11 0.463969 0.623784 0.763899
O O12 0.787432 0.500000 0.453344
#
# Coordination Sequence:
#
# PCOD9172845 Si02
#       5
#     8   8   8   8   8
#     4   8  15  26  44  68  98 124 141 178 236 280
#     4   9  15  27  45  69  97 123 148 179 226 282
#     4  11  20  30  50  70  90 124 162 184 223 278
#     4  10  21  35  46  65  97 124 153 195 230 262
#     4  10  18  30  48  71  97 121 147 187 232 277
#
# _framework density 15.805070000000001
#
# number of rings (size 3 to 8) (size 9 to 14) (size 15 to 20)
#    0.000    2.400    2.000    3.600    0.000    0.800 
#    0.000    3.000    0.000    0.000    0.000    5.600 
#    0.000    0.000    0.000    0.000    0.000    0.000 
#
# Total GULP energy -111480.646483 kJ/mol
# GULP energy per Si atom -5574.032324 kJ/mol
# Density = 1.576910 g / cm^3
# Si number density = 15.805070 Si / 1000 Ang^3
#
#
#
# Elastic Constant Matrix: (Units=GPa)
#
#
# Indices 1 2 3 4 5 6 
#
# 1 71.7135 39.6749 9.8407 0.0036 -13.0837 -0.0018
# 2 39.6749 79.3163 24.2684 0.0032 -12.6748 0.0004
# 3 9.8407 24.2684 70.1452 0.0078 -26.0999 -0.0023
# 4 0.0036 0.0032 0.0078 20.6979 0.0027 -14.5613
# 5 -13.0837 -12.6748 -26.0999 0.0027 17.6068 -0.0009
# 6 -0.0018 0.0004 -0.0023 -14.5613 -0.0009 50.3135
#
#
#
# Elastic Compliance Matrix: (Units=1/GPa)
#
#
# Indices 1 2 3 4 5 6 
#
# 1 0.022536 -0.010390 0.008655 -0.000009 0.022098 -0.000001
# 2 -0.010390 0.019233 -0.006506 0.000001 -0.003520 0.000000
# 3 0.008655 -0.006506 0.035553 -0.000024 0.054451 -0.000004
# 4 -0.000009 0.000001 -0.000024 0.060666 -0.000049 0.017557
# 5 0.022098 -0.003520 0.054451 -0.000049 0.151400 -0.000008
# 6 -0.000001 0.000000 -0.000004 0.017557 -0.000008 0.024957
#
#
# Mechanical properties :
#
#
# Convention : Reuss Voigt Hill
#
# Bulk Modulus (GPa) = 16.43637 40.97147 28.70392
# Shear Modulus (GPa) = 14.24061 27.54970 20.89516
#
# Velocity S-wave (km/s) = 3.00495 4.17957 3.63995
# Velocity P-wave (km/s) = 4.73937 7.01933 5.98885
#
# Compressibility (1/GPa) = 0.06084068
#
# Stress axis : x y z
#
# Youngs Moduli (GPa) = 44.37252 51.99355 28.12677
#
# Poissons Ratio (x) = 0.54021 -0.24344
# Poissons Ratio (y) = 0.46103 0.18300
# Poissons Ratio (z) = -0.38405 0.33829
#
# Static dielectric constant tensor:
#      x y z
#    x 1.550790 0.000000 0.005530 
#    y 0.000000 1.491710 0.000000 
#    z 0.005530 0.000000 1.574900 
# 
# From -- ./inp_files/84646.got.cif
#   From: 2010.05.17/outbox.cif.g08.bks.cpg/sg12_43_cif.got.tgz:84646.got - 2010.06.03 13:09:07.
