data_PCOD9172768
_publ_section_title
;
Structure prediction by ZEFSAII (Michael W. Deem and Ramdas Pophale) SiO2 
 PCOD9172768
Probable space group: C 2/M
;
_chemical_formula_sum "Si O2"
_cell_formula_units_Z 52
_cell_length_a 5.366255
_cell_length_b 25.473297
_cell_length_c 23.156933
_cell_angle_alpha 90.000000
_cell_angle_beta 117.538688
_cell_angle_gamma 90.000000
_cell_volume 2806.814079
_symmetry_space_group_name_H-M "C 2/M"
_symmetry_group_IT_number 12
_symmetry_cell_setting 'monoclinic'
loop_
_space_group_symop_operation_xyz
x,y,z
-x,y,-z
-x,-y,-z
x,-y,z
1/2+x,1/2+y,z
1/2-x,1/2+y,-z
1/2-x,1/2-y,-z
1/2+x,1/2-y,z
loop_
_atom_site_type_symbol
_atom_site_label
_atom_site_fract_x
_atom_site_fract_y
_atom_site_fract_z
Si Si1 0.943369 0.877801 0.245312
Si Si2 0.290057 0.693687 0.924495
Si Si3 0.761813 0.940006 0.402530
Si Si4 0.757537 0.377522 0.401595
Si Si5 0.683900 0.688259 0.871098
Si Si6 0.445060 0.940149 0.244647
Si Si7 0.000000 0.284361 0.500000
O O1 0.902118 0.825496 0.203100
O O2 0.643751 0.904966 0.225425
O O3 0.096541 0.869930 0.323244
O O4 0.146800 0.915060 0.229294
O O5 0.461516 0.665183 0.892570
O O6 0.195010 0.750119 0.888394
O O7 0.000900 0.667816 0.913588
O O8 0.500000 0.703157 0.000000
O O9 0.529947 0.913602 0.418683
O O10 0.613858 0.941765 0.323653
O O11 0.040981 0.905699 0.422296
O O12 0.823630 0.000000 0.425376
O O13 0.863910 0.322808 0.437955
O O14 0.419167 0.000000 0.221106
O O15 0.750000 0.250000 0.500000
#
# Coordination Sequence:
#
# PCOD9172768 Si02
#       7
#     8   8   8   8   8   8   4
#     4  10  19  32  51  79 107 130 170 221 262 300
#     4  10  19  33  50  71 106 137 164 203 260 314
#     4   9  17  33  59  86 109 134 163 211 296 352
#     4  10  21  38  56  78 109 141 180 236 264 317
#     4  10  18  30  47  74 102 134 164 207 249 301
#     4   9  17  30  50  74 107 142 164 197 260 326
#     4  12  26  46  59  74  97 154 208 232 256 312
#
# _framework density 18.526343000000001
#
# number of rings (size 3 to 8) (size 9 to 14) (size 15 to 20)
#    0.000    2.154    0.000    5.077    0.000    3.692 
#    5.538    2.308    0.000    0.000    0.000    0.000 
#    0.000   71.385    0.000    0.000    0.000    0.000 
#
# Total GULP energy -144965.931527 kJ/mol
# GULP energy per Si atom -5575.612751 kJ/mol
# Density = 1.848418 g / cm^3
# Si number density = 18.526343 Si / 1000 Ang^3
#
#
#
# Elastic Constant Matrix: (Units=GPa)
#
#
# Indices 1 2 3 4 5 6 
#
# 1 151.6296 27.5585 -0.5425 0.0000 4.7336 0.0000
# 2 27.5585 68.3775 18.9269 0.0000 3.0454 0.0000
# 3 -0.5425 18.9269 49.6168 0.0000 5.1203 0.0000
# 4 0.0000 0.0000 0.0000 -16.1256 0.0000 0.8410
# 5 4.7336 3.0454 5.1203 0.0000 12.4555 0.0000
# 6 0.0000 0.0000 0.0000 0.8410 0.0000 26.9908
#
#
#
# Elastic Compliance Matrix: (Units=1/GPa)
#
#
# Indices 1 2 3 4 5 6 
#
# 1 0.007274 -0.003256 0.001592 0.000000 -0.002623 0.000000
# 2 -0.003256 0.017835 -0.006805 0.000000 -0.000326 0.000000
# 3 0.001592 -0.006805 0.023662 0.000000 -0.008668 0.000000
# 4 0.000000 0.000000 0.000000 -0.061913 0.000000 0.001929
# 5 -0.002623 -0.000326 -0.008668 0.000000 0.084926 0.000000
# 6 0.000000 0.000000 0.000000 0.001929 0.000000 0.036990
#
#
# Mechanical properties :
#
#
# Convention : Reuss Voigt Hill
#
# Bulk Modulus (GPa) = 31.41300 40.16776 35.79038
# Shear Modulus (GPa) = 36.67740 19.57620 28.12680
#
# Velocity S-wave (km/s) = 4.45426 3.25417 3.90064
# Velocity P-wave (km/s) = 6.59140 5.98732 6.29661
#
# Compressibility (1/GPa) = 0.03183396
#
# Stress axis : x y z
#
# Youngs Moduli (GPa) = 137.46999 56.06920 42.26116
#
# Poissons Ratio (x) = 0.18254 -0.06729
# Poissons Ratio (y) = 0.44756 0.28760
# Poissons Ratio (z) = -0.21887 0.38157
#
# Static dielectric constant tensor:
#      x y z
#    x 1.700850 0.000000 0.002060 
#    y 0.000000 0.622670 0.000000 
#    z 0.002060 0.000000 1.652660 
# 
# From -- ./inp_files/331282.got.cif
#   From: 2010.05.17/outbox.cif.g08.bks.cpg/sg12_166_cif.got.tgz:331282.got - 2010.06.03 13:09:07.
