data_PCOD9172830
_publ_section_title
;
Structure prediction by ZEFSAII (Michael W. Deem and Ramdas Pophale) SiO2 
 PCOD9172830
Probable space group: C 2/M
;
_chemical_formula_sum "Si O2"
_cell_formula_units_Z 56
_cell_length_a 20.230374
_cell_length_b 9.181147
_cell_length_c 25.050948
_cell_angle_alpha 90.000000
_cell_angle_beta 45.617623
_cell_angle_gamma 90.000000
_cell_volume 3325.381036
_symmetry_space_group_name_H-M "C 2/M"
_symmetry_group_IT_number 12
_symmetry_cell_setting 'monoclinic'
loop_
_space_group_symop_operation_xyz
x,y,z
-x,y,-z
-x,-y,-z
x,-y,z
1/2+x,1/2+y,z
1/2-x,1/2+y,-z
1/2-x,1/2-y,-z
1/2+x,1/2-y,z
loop_
_atom_site_type_symbol
_atom_site_label
_atom_site_fract_x
_atom_site_fract_y
_atom_site_fract_z
Si Si1 0.580285 0.832084 0.000426
Si Si2 0.789094 0.168195 0.149703
Si Si3 0.050166 0.167128 0.849963
Si Si4 0.816058 0.328523 0.300211
Si Si5 0.214998 0.824940 0.466155
Si Si6 0.155719 0.172911 0.302341
Si Si7 0.521939 0.170863 0.550608
O O1 0.534309 0.758000 0.077863
O O2 0.604459 0.000000 0.996200
O O3 0.500000 0.830349 0.000000
O O4 0.665187 0.742700 0.927618
O O5 0.870038 0.169294 0.149203
O O6 0.705780 0.259577 0.222369
O O7 0.764088 0.000000 0.154512
O O8 0.098918 0.237694 0.771217
O O9 0.024196 0.000000 0.855629
O O10 0.838707 0.500000 0.284759
O O11 0.783294 0.291356 0.378071
O O12 0.728232 0.306056 0.310379
O O13 0.250000 0.750000 0.500000
O O14 0.115159 0.758916 0.508999
O O15 0.209967 0.000000 0.474010
O O16 0.062632 0.257156 0.369689
O O17 0.140399 0.000000 0.305260
O O18 0.500000 0.180372 0.500000
O O19 0.532413 0.000000 0.558412
#
# Coordination Sequence:
#
# PCOD9172830 Si02
#       7
#     8   8   8   8   8   8   8
#     4   9  15  23  35  53  82 121 160 195 239 294
#     4   9  16  25  37  58  89 122 158 200 246 293
#     4   9  16  24  38  59  85 119 159 201 243 291
#     4   9  18  31  47  67  94 127 164 205 251 302
#     4  11  23  39  56  76 103 136 172 214 263 311
#     4  10  18  30  48  70  96 128 167 207 252 302
#     4  11  22  35  54  78 103 132 171 215 258 307
#
# _framework density 16.840174999999999
#
# number of rings (size 3 to 8) (size 9 to 14) (size 15 to 20)
#    0.000    2.286    1.429    2.571    0.000    7.429 
#    0.000    0.000    0.000    0.000    0.000    0.000 
#    0.000    1.143    0.000    4.286    0.000    7.143 
#
# Total GULP energy -156166.696115 kJ/mol
# GULP energy per Si atom -5577.382004 kJ/mol
# Density = 1.680185 g / cm^3
# Si number density = 16.840175 Si / 1000 Ang^3
#
#
#
# Elastic Constant Matrix: (Units=GPa)
#
#
# Indices 1 2 3 4 5 6 
#
# 1 30.1724 31.2701 32.0300 0.0000 7.1698 0.0000
# 2 31.2701 133.0368 103.6041 0.0000 8.0020 0.0001
# 3 32.0300 103.6041 176.4615 0.0000 5.0676 0.0000
# 4 0.0000 0.0000 0.0000 36.3921 0.0000 -2.1367
# 5 7.1698 8.0020 5.0676 0.0000 8.9660 0.0000
# 6 0.0000 0.0001 0.0000 -2.1367 0.0000 16.3901
#
#
#
# Elastic Compliance Matrix: (Units=1/GPa)
#
#
# Indices 1 2 3 4 5 6 
#
# 1 0.053228 -0.006834 -0.004678 0.000000 -0.033822 0.000000
# 2 -0.006834 0.015298 -0.007630 0.000000 -0.003876 0.000000
# 3 -0.004678 -0.007630 0.010869 0.000000 0.004407 0.000000
# 4 0.000000 0.000000 0.000000 0.027690 0.000000 0.003610
# 5 -0.033822 -0.003876 0.004407 0.000000 0.139546 0.000000
# 6 0.000000 0.000000 0.000000 0.003610 0.000000 0.061483
#
#
# Mechanical properties :
#
#
# Convention : Reuss Voigt Hill
#
# Bulk Modulus (GPa) = 24.32392 74.83102 49.57747
# Shear Modulus (GPa) = 13.88489 23.86741 18.87615
#
# Velocity S-wave (km/s) = 2.87454 3.76878 3.35162
# Velocity P-wave (km/s) = 5.04903 7.96685 6.66946
#
# Compressibility (1/GPa) = 0.04111179
#
# Stress axis : x y z
#
# Youngs Moduli (GPa) = 18.78699 65.36714 92.00196
#
# Poissons Ratio (x) = 0.44671 0.43039
# Poissons Ratio (y) = 0.12839 0.70199
# Poissons Ratio (z) = 0.08789 0.49876
#
# Static dielectric constant tensor:
#      x y z
#    x 1.545650 0.000000 0.004560 
#    y 0.000000 1.561020 0.000000 
#    z 0.004560 0.000000 1.557810 
# 
# From -- ./inp_files/280222.got.cif
#   From: 2010.05.17/outbox.cif.g08.bks.cpg/sg12_141_cif.got.tgz:280222.got - 2010.06.03 13:09:07.
