data_PCOD9172291
_publ_section_title
;
Structure prediction by ZEFSAII (Michael W. Deem and Ramdas Pophale) SiO2 
 PCOD9172291
Probable space group: C 2/M
;
_chemical_formula_sum "Si O2"
_cell_formula_units_Z 56
_cell_length_a 30.927813
_cell_length_b 7.654993
_cell_length_c 17.567198
_cell_angle_alpha 90.000000
_cell_angle_beta 134.014706
_cell_angle_gamma 90.000000
_cell_volume 2991.044831
_symmetry_space_group_name_H-M "C 2/M"
_symmetry_group_IT_number 12
_symmetry_cell_setting 'monoclinic'
loop_
_space_group_symop_operation_xyz
x,y,z
-x,y,-z
-x,-y,-z
x,-y,z
1/2+x,1/2+y,z
1/2-x,1/2+y,-z
1/2-x,1/2-y,-z
1/2+x,1/2-y,z
loop_
_atom_site_type_symbol
_atom_site_label
_atom_site_fract_x
_atom_site_fract_y
_atom_site_fract_z
Si Si1 0.657782 0.207748 0.420171
Si Si2 0.079776 0.786348 0.745519
Si Si3 0.230094 0.205456 0.191208
Si Si4 0.777894 0.209575 0.651486
Si Si5 0.192267 0.210588 0.981554
Si Si6 0.444938 0.293384 0.594972
Si Si7 0.129595 0.212056 0.641847
O O1 0.714494 0.277562 0.539322
O O2 0.671972 0.253902 0.350473
O O3 0.595839 0.269830 0.380620
O O4 0.658613 0.000000 0.427478
O O5 0.131903 0.725737 0.866439
O O6 0.097741 0.737107 0.681553
O O7 0.012671 0.724596 0.682612
O O8 0.080368 0.000000 0.748700
O O9 0.211063 0.278828 0.250199
O O10 0.302206 0.222775 0.275845
O O11 0.214776 0.000000 0.172853
O O12 0.203009 0.279798 0.080053
O O13 0.771876 0.000000 0.649792
O O14 0.188509 0.000000 0.981151
O O15 0.250000 0.250000 0.000000
O O16 0.450930 0.500000 0.588368
O O17 0.407430 0.223845 0.476733
O O18 0.132178 0.000000 0.642884
#
# Coordination Sequence:
#
# PCOD9172291 Si02
#       7
#     8   8   8   8   8   8   8
#     4  10  19  31  49  72  98 124 157 200 246 292
#     4   9  18  32  48  70  99 132 168 201 230 278
#     4  10  19  31  49  73 101 128 156 198 246 286
#     4   9  18  32  48  69  98 127 156 195 244 293
#     4  10  19  32  51  72  97 129 165 202 239 277
#     4  10  19  31  49  71  99 133 165 196 238 288
#     4  10  18  29  48  72  98 131 165 196 234 283
#
# _framework density 18.722553999999999
#
# number of rings (size 3 to 8) (size 9 to 14) (size 15 to 20)
#    0.000    2.286    2.857    0.857    0.000    2.857 
#    0.000    1.429    0.000    2.571    0.000    6.000 
#    0.000    0.000    0.000    0.000    0.000    0.000 
#
# Total GULP energy -156242.193781 kJ/mol
# GULP energy per Si atom -5580.078349 kJ/mol
# Density = 1.867994 g / cm^3
# Si number density = 18.722554 Si / 1000 Ang^3
#
#
#
# Elastic Constant Matrix: (Units=GPa)
#
#
# Indices 1 2 3 4 5 6 
#
# 1 126.5310 -10.5432 105.0611 0.0000 -8.0230 0.0000
# 2 -10.5432 32.5443 -1.2449 0.0000 -5.4403 0.0000
# 3 105.0611 -1.2449 101.4342 0.0000 -14.6730 0.0000
# 4 0.0000 0.0000 0.0000 10.1686 0.0000 4.5202
# 5 -8.0230 -5.4403 -14.6730 0.0000 24.3637 0.0000
# 6 0.0000 0.0000 0.0000 4.5202 0.0000 15.7262
#
#
#
# Elastic Compliance Matrix: (Units=1/GPa)
#
#
# Indices 1 2 3 4 5 6 
#
# 1 0.073426 0.017562 -0.078621 0.000000 -0.019248 0.000000
# 2 0.017562 0.036346 -0.017235 0.000000 0.003519 0.000000
# 3 -0.078621 -0.017235 0.095058 0.000000 0.027510 0.000000
# 4 0.000000 0.000000 0.000000 0.112749 0.000000 -0.032408
# 5 -0.019248 0.003519 0.027510 0.000000 0.052060 0.000000
# 6 0.000000 0.000000 0.000000 -0.032408 0.000000 0.072903
#
#
# Mechanical properties :
#
#
# Convention : Reuss Voigt Hill
#
# Bulk Modulus (GPa) = 20.72804 49.67283 35.20043
# Shear Modulus (GPa) = 8.12730 21.20080 14.66405
#
# Velocity S-wave (km/s) = 2.08575 3.36872 2.80166
# Velocity P-wave (km/s) = 4.11043 6.45907 5.41365
#
# Compressibility (1/GPa) = 0.04824383
#
# Stress axis : x y z
#
# Youngs Moduli (GPa) = 13.61910 27.51340 10.51986
#
# Poissons Ratio (x) = -0.48320 0.82708
# Poissons Ratio (y) = -0.23918 0.18131
# Poissons Ratio (z) = 1.07074 0.47420
#
# Static dielectric constant tensor:
#      x y z
#    x 1.638510 0.000000 -0.022450 
#    y 0.000000 1.701530 0.000000 
#    z -0.022450 0.000000 1.650910 
# 
# From -- ./inp_files/287366.got.cif
#   From: 2010.05.17/outbox.cif.g08.bks.cpg/sg12_144_cif.got.tgz:287366.got - 2010.06.03 13:09:07.
