data_PCOD9172115
_publ_section_title
;
Structure prediction by ZEFSAII (Michael W. Deem and Ramdas Pophale) SiO2 
 PCOD9172115
Probable space group: C 2/M
;
_chemical_formula_sum "Si O2"
_cell_formula_units_Z 56
_cell_length_a 19.807587
_cell_length_b 20.763066
_cell_length_c 9.470343
_cell_angle_alpha 90.000000
_cell_angle_beta 123.358808
_cell_angle_gamma 90.000000
_cell_volume 3253.133021
_symmetry_space_group_name_H-M "C 2/M"
_symmetry_group_IT_number 12
_symmetry_cell_setting 'monoclinic'
loop_
_space_group_symop_operation_xyz
x,y,z
-x,y,-z
-x,-y,-z
x,-y,z
1/2+x,1/2+y,z
1/2-x,1/2+y,-z
1/2-x,1/2-y,-z
1/2+x,1/2-y,z
loop_
_atom_site_type_symbol
_atom_site_label
_atom_site_fract_x
_atom_site_fract_y
_atom_site_fract_z
Si Si1 0.212155 0.571935 0.642639
Si Si2 0.807137 0.846990 0.549899
Si Si3 0.941327 0.782461 0.564175
Si Si4 0.054663 0.305772 0.863773
Si Si5 0.683299 0.227089 0.223576
Si Si6 0.474838 0.926052 0.633932
Si Si7 0.180768 0.700581 0.755649
O O1 0.223742 0.500000 0.711553
O O2 0.280083 0.591505 0.607361
O O3 0.122281 0.574734 0.472090
O O4 0.209941 0.628650 0.754812
O O5 0.888279 0.843250 0.551292
O O6 0.731673 0.827293 0.364496
O O7 0.820604 0.788120 0.675966
O O8 0.877922 0.727938 0.436647
O O9 0.000000 0.796031 0.500000
O O10 0.992829 0.750542 0.748492
O O11 0.126107 0.300324 0.829859
O O12 0.012800 0.374145 0.782965
O O13 0.098587 0.295844 0.063160
O O14 0.742832 0.252302 0.167630
O O15 0.500000 0.908895 0.500000
O O16 0.502250 0.000000 0.688912
#
# Coordination Sequence:
#
# PCOD9172115 Si02
#       7
#     8   8   8   8   8   8   8
#     4  10  18  31  52  69  93 139 176 197 231 292
#     4   9  19  36  45  66  97 133 166 207 246 310
#     4   9  17  30  51  71  95 123 158 205 262 299
#     4  11  17  27  47  76  97 129 162 206 244 292
#     4   9  19  29  47  66 101 132 160 199 258 292
#     4  10  18  29  46  72 106 140 169 198 232 286
#     4   9  16  30  45  72 101 126 160 205 239 301
#
# _framework density 17.214174
#
# number of rings (size 3 to 8) (size 9 to 14) (size 15 to 20)
#    0.000    2.429    2.857    1.714    0.000    0.571 
#    0.000    0.714    0.000    2.143    0.000    8.000 
#    0.000    0.000    0.000    0.000    0.000    6.286 
#
# Total GULP energy -156031.270836 kJ/mol
# GULP energy per Si atom -5572.545387 kJ/mol
# Density = 1.717499 g / cm^3
# Si number density = 17.214174 Si / 1000 Ang^3
#
#
#
# Elastic Constant Matrix: (Units=GPa)
#
#
# Indices 1 2 3 4 5 6 
#
# 1 76.2690 16.5799 6.2683 0.0000 1.3259 0.0000
# 2 16.5799 36.6693 12.5325 0.0000 7.8240 0.0000
# 3 6.2683 12.5325 79.7860 0.0000 18.5309 0.0000
# 4 0.0000 0.0000 0.0000 13.2640 0.0000 0.9662
# 5 1.3259 7.8240 18.5309 0.0000 21.3552 0.0000
# 6 0.0000 0.0000 0.0000 0.9662 0.0000 23.1417
#
#
#
# Elastic Compliance Matrix: (Units=1/GPa)
#
#
# Indices 1 2 3 4 5 6 
#
# 1 0.014613 -0.006863 -0.000555 0.000000 0.002089 0.000000
# 2 -0.006863 0.033267 -0.002448 0.000000 -0.009638 0.000000
# 3 -0.000555 -0.002448 0.015962 0.000000 -0.012920 0.000000
# 4 0.000000 0.000000 0.000000 0.075622 0.000000 -0.003157
# 5 0.002089 -0.009638 -0.012920 0.000000 0.061440 0.000000
# 6 0.000000 0.000000 0.000000 -0.003157 0.000000 0.043344
#
#
# Mechanical properties :
#
#
# Convention : Reuss Voigt Hill
#
# Bulk Modulus (GPa) = 22.67059 29.27618 25.97338
# Shear Modulus (GPa) = 17.94154 22.04176 19.99165
#
# Velocity S-wave (km/s) = 3.23190 3.58221 3.41155
# Velocity P-wave (km/s) = 5.20819 5.84411 5.53529
#
# Compressibility (1/GPa) = 0.04411002
#
# Stress axis : x y z
#
# Youngs Moduli (GPa) = 68.43344 30.05989 62.64719
#
# Poissons Ratio (x) = 0.20630 0.03478
# Poissons Ratio (y) = 0.46966 0.15335
# Poissons Ratio (z) = 0.03799 0.07358
#
# Static dielectric constant tensor:
#      x y z
#    x 1.652570 0.000000 -0.020680 
#    y 0.000000 1.563410 0.000000 
#    z -0.020680 0.000000 1.599450 
# 
# From -- ./inp_files/89252.got.cif
#   From: 2010.05.17/outbox.cif.g08.bks.cpg/sg12_45_cif.got.tgz:89252.got - 2010.06.03 13:09:07.
