data_PCOD9172828
_publ_section_title
;
Structure prediction by ZEFSAII (Michael W. Deem and Ramdas Pophale) SiO2 
 PCOD9172828
Probable space group: C 2/M
;
_chemical_formula_sum "Si O2"
_cell_formula_units_Z 48
_cell_length_a 28.379600
_cell_length_b 8.226155
_cell_length_c 24.519608
_cell_angle_alpha 90.000000
_cell_angle_beta 150.086909
_cell_angle_gamma 90.000000
_cell_volume 2854.589603
_symmetry_space_group_name_H-M "C 2/M"
_symmetry_group_IT_number 12
_symmetry_cell_setting 'monoclinic'
loop_
_space_group_symop_operation_xyz
x,y,z
-x,y,-z
-x,-y,-z
x,-y,z
1/2+x,1/2+y,z
1/2-x,1/2+y,-z
1/2-x,1/2-y,-z
1/2+x,1/2-y,z
loop_
_atom_site_type_symbol
_atom_site_label
_atom_site_fract_x
_atom_site_fract_y
_atom_site_fract_z
Si Si1 0.861783 0.696736 0.555556
Si Si2 0.461971 0.198227 0.546896
Si Si3 0.550410 0.187167 0.127456
Si Si4 0.857292 0.806495 0.671122
Si Si5 0.852701 0.698500 0.328976
Si Si6 0.640231 0.690382 0.109966
O O1 0.863406 0.500000 0.559088
O O2 0.926174 0.752567 0.569861
O O3 0.890099 0.761247 0.643241
O O4 0.752787 0.746447 0.435654
O O5 0.390285 0.247473 0.426569
O O6 0.566630 0.248771 0.633007
O O7 0.461629 0.000000 0.547029
O O8 0.582903 0.227824 0.220722
O O9 0.608413 0.290632 0.141098
O O10 0.569822 0.000000 0.134461
O O11 0.440322 0.222476 0.005939
O O12 0.860192 0.000000 0.680903
O O13 0.850481 0.500000 0.326985
O O14 0.746736 0.754027 0.210901
O O15 0.638391 0.500000 0.094009
#
# Coordination Sequence:
#
# PCOD9172828 Si02
#       6
#     8   8   8   8   8   8
#     4   9  17  29  47  70  95 122 150 184 226 270
#     4   8  13  24  43  69  97 121 148 180 218 266
#     4  11  21  32  46  66  92 122 154 188 228 270
#     4  10  19  31  47  68  93 121 153 188 226 269
#     4   8  14  24  43  70  96 121 148 181 219 264
#     4  10  18  30  48  70  94 120 151 186 226 269
#
# _framework density 16.815027000000001
#
# number of rings (size 3 to 8) (size 9 to 14) (size 15 to 20)
#    0.000    2.667    0.000    5.500    0.000    3.333 
#    0.000    0.000    0.000    3.000    0.000    7.000 
#    0.000    0.000    0.000    0.000    0.000    0.000 
#
# Total GULP energy -133814.727031 kJ/mol
# GULP energy per Si atom -5575.613626 kJ/mol
# Density = 1.677675 g / cm^3
# Si number density = 16.815027 Si / 1000 Ang^3
#
#
#
# Elastic Constant Matrix: (Units=GPa)
#
#
# Indices 1 2 3 4 5 6 
#
# 1 101.7199 -1.9036 59.3730 0.0000 -4.1511 0.0000
# 2 -1.9036 14.7333 3.1144 0.0000 -2.0821 0.0000
# 3 59.3730 3.1144 106.0575 0.0000 -3.4505 0.0000
# 4 0.0000 0.0000 0.0000 12.3057 0.0000 -9.0510
# 5 -4.1511 -2.0821 -3.4505 0.0000 25.3798 0.0000
# 6 0.0000 0.0000 0.0000 -9.0510 0.0000 13.2766
#
#
#
# Elastic Compliance Matrix: (Units=1/GPa)
#
#
# Indices 1 2 3 4 5 6 
#
# 1 0.014863 0.003920 -0.008384 0.000000 0.001613 0.000000
# 2 0.003920 0.070064 -0.004062 0.000000 0.005837 0.000000
# 3 -0.008384 -0.004062 0.014249 0.000000 0.000233 0.000000
# 4 0.000000 0.000000 0.000000 0.162987 0.000000 0.111112
# 5 0.001613 0.005837 0.000233 0.000000 0.040176 0.000000
# 6 0.000000 0.000000 0.000000 0.111112 0.000000 0.151068
#
#
# Mechanical properties :
#
#
# Convention : Reuss Voigt Hill
#
# Bulk Modulus (GPa) = 12.17649 38.18646 25.18148
# Shear Modulus (GPa) = 10.04355 20.98756 15.51555
#
# Velocity S-wave (km/s) = 2.44662 3.53674 3.04093
# Velocity P-wave (km/s) = 3.90364 6.27989 5.22855
#
# Compressibility (1/GPa) = 0.08212545
#
# Stress axis : x y z
#
# Youngs Moduli (GPa) = 67.27895 14.27275 70.18056
#
# Poissons Ratio (x) = -0.05596 0.58836
# Poissons Ratio (y) = -0.26377 0.28509
# Poissons Ratio (z) = 0.56403 0.05798
#
# Static dielectric constant tensor:
#      x y z
#    x 1.560880 0.000000 0.013880 
#    y 0.000000 1.578900 0.000000 
#    z 0.013880 0.000000 1.553270 
# 
# From -- ./inp_files/352753.got.cif
#   From: 2010.05.17/outbox.cif.g08.bks.cpg/sg12_177_cif.got.tgz:352753.got - 2010.06.03 13:09:07.
