data_PCOD9172017
_publ_section_title
;
Structure prediction by ZEFSAII (Michael W. Deem and Ramdas Pophale) SiO2 
 PCOD9172017
Probable space group: C 2/M
;
_chemical_formula_sum "Si O2"
_cell_formula_units_Z 48
_cell_length_a 20.932394
_cell_length_b 9.075050
_cell_length_c 15.580452
_cell_angle_alpha 90.000000
_cell_angle_beta 100.433925
_cell_angle_gamma 90.000000
_cell_volume 2910.761548
_symmetry_space_group_name_H-M "C 2/M"
_symmetry_group_IT_number 12
_symmetry_cell_setting 'monoclinic'
loop_
_space_group_symop_operation_xyz
x,y,z
-x,y,-z
-x,-y,-z
x,-y,z
1/2+x,1/2+y,z
1/2-x,1/2+y,-z
1/2-x,1/2-y,-z
1/2+x,1/2-y,z
loop_
_atom_site_type_symbol
_atom_site_label
_atom_site_fract_x
_atom_site_fract_y
_atom_site_fract_z
Si Si1 0.683138 0.169780 0.587073
Si Si2 0.928590 0.320801 0.956913
Si Si3 0.839021 0.830555 0.589293
Si Si4 0.141470 0.675451 0.231775
Si Si5 0.186771 0.677345 0.941652
Si Si6 0.294913 0.674627 0.233262
O O1 0.760903 0.171767 0.586947
O O2 0.650206 0.241828 0.495831
O O3 0.674656 0.261953 0.671908
O O4 0.663962 0.000000 0.593690
O O5 0.930131 0.500000 0.954074
O O6 0.903779 0.272687 0.857240
O O7 0.875098 0.282505 0.015107
O O8 0.000000 0.268502 0.000000
O O9 0.869194 0.756761 0.680979
O O10 0.858643 0.000000 0.584850
O O11 0.133108 0.500000 0.242191
O O12 0.216698 0.697338 0.221840
O O13 0.193374 0.500000 0.942680
O O14 0.181014 0.739567 0.844396
O O15 0.250000 0.750000 0.000000
O O16 0.305926 0.500000 0.228126
#
# Coordination Sequence:
#
# PCOD9172017 Si02
#       6
#     8   8   8   8   8   8
#     4   9  16  26  40  63  93 126 158 195 238 286
#     4   9  18  33  51  71  96 128 168 208 243 283
#     4   9  16  25  39  62  92 126 157 193 239 288
#     4   9  16  28  45  66  91 124 162 199 239 284
#     4  11  20  32  50  73  97 128 165 204 247 292
#     4  10  18  29  45  69  97 127 160 199 243 290
#
# _framework density 16.49053
#
# number of rings (size 3 to 8) (size 9 to 14) (size 15 to 20)
#    0.000    2.500    1.667    2.000    0.000    4.667 
#    0.000    0.000    0.000    4.500    0.000    1.167 
#    0.000    9.333    0.000    0.000    0.000    0.000 
#
# Total GULP energy -133784.427150 kJ/mol
# GULP energy per Si atom -5574.351131 kJ/mol
# Density = 1.645300 g / cm^3
# Si number density = 16.490530 Si / 1000 Ang^3
#
#
#
# Elastic Constant Matrix: (Units=GPa)
#
#
# Indices 1 2 3 4 5 6 
#
# 1 61.4186 33.9787 54.5264 0.0000 5.2763 0.0000
# 2 33.9787 77.3951 68.2656 0.0000 4.8200 0.0000
# 3 54.5264 68.2656 180.3180 0.0000 12.5056 0.0000
# 4 0.0000 0.0000 0.0000 34.9774 0.0000 -0.6373
# 5 5.2763 4.8200 12.5056 0.0000 13.0729 0.0000
# 6 0.0000 0.0000 0.0000 -0.6373 0.0000 9.7764
#
#
#
# Elastic Compliance Matrix: (Units=1/GPa)
#
#
# Indices 1 2 3 4 5 6 
#
# 1 0.024211 -0.006258 -0.004749 0.000000 -0.002921 0.000000
# 2 -0.006258 0.021016 -0.006107 0.000000 0.000619 0.000000
# 3 -0.004749 -0.006107 0.009645 0.000000 -0.005058 0.000000
# 4 0.000000 0.000000 0.000000 0.028624 0.000000 0.001866
# 5 -0.002921 0.000619 -0.005058 0.000000 0.082283 0.000000
# 6 0.000000 0.000000 0.000000 0.001866 0.000000 0.102409
#
#
# Mechanical properties :
#
#
# Convention : Reuss Voigt Hill
#
# Bulk Modulus (GPa) = 48.44260 70.29700 59.36980
# Shear Modulus (GPa) = 16.16560 22.38941 19.27750
#
# Velocity S-wave (km/s) = 3.13436 3.68871 3.42278
# Velocity P-wave (km/s) = 6.52217 7.80150 7.19035
#
# Compressibility (1/GPa) = 0.02064299
#
# Stress axis : x y z
#
# Youngs Moduli (GPa) = 41.30280 47.58202 103.68444
#
# Poissons Ratio (x) = 0.29779 0.49243
# Poissons Ratio (y) = 0.25849 0.63319
# Poissons Ratio (z) = 0.19616 0.29058
#
# Static dielectric constant tensor:
#      x y z
#    x 1.531460 0.000000 0.007570 
#    y 0.000000 1.551820 0.000000 
#    z 0.007570 0.000000 1.555000 
# 
# From -- ./inp_files/221723.got.cif
#   From: 2010.05.17/outbox.cif.g08.bks.cpg/sg12_111_cif.got.tgz:221723.got - 2010.06.03 13:09:07.
