data_PCOD9172317
_publ_section_title
;
Structure prediction by ZEFSAII (Michael W. Deem and Ramdas Pophale) SiO2 
 PCOD9172317
Probable space group: C 2/M
;
_chemical_formula_sum "Si O2"
_cell_formula_units_Z 64
_cell_length_a 19.107672
_cell_length_b 14.036772
_cell_length_c 12.706162
_cell_angle_alpha 90.000000
_cell_angle_beta 118.927615
_cell_angle_gamma 90.000000
_cell_volume 2982.719060
_symmetry_space_group_name_H-M "C 2/M"
_symmetry_group_IT_number 12
_symmetry_cell_setting 'monoclinic'
loop_
_space_group_symop_operation_xyz
x,y,z
-x,y,-z
-x,-y,-z
x,-y,z
1/2+x,1/2+y,z
1/2-x,1/2+y,-z
1/2-x,1/2-y,-z
1/2+x,1/2-y,z
loop_
_atom_site_type_symbol
_atom_site_label
_atom_site_fract_x
_atom_site_fract_y
_atom_site_fract_z
Si Si1 0.230673 0.610337 0.736377
Si Si2 0.994163 0.107884 0.815413
Si Si3 0.728349 0.890694 0.394180
Si Si4 0.833233 0.804796 0.636910
Si Si5 0.457826 0.897396 0.355703
Si Si6 0.294272 0.388220 0.218271
Si Si7 0.461735 0.309034 0.359216
Si Si8 0.327470 0.615327 0.009151
O O1 0.254995 0.500000 0.733737
O O2 0.257872 0.670293 0.656512
O O3 0.137016 0.607689 0.692322
O O4 0.278048 0.647687 0.872761
O O5 0.910711 0.163199 0.759065
O O6 0.010206 0.111888 0.701857
O O7 0.079045 0.146613 0.921669
O O8 0.982802 0.000000 0.845314
O O9 0.811929 0.862942 0.514636
O O10 0.668426 0.807579 0.386319
O O11 0.733273 0.882551 0.270630
O O12 0.708777 0.000000 0.407429
O O13 0.500000 0.898691 0.500000
O O14 0.480141 0.795276 0.323693
O O15 0.475534 0.000000 0.316059
O O16 0.318723 0.500000 0.235358
O O17 0.367925 0.322673 0.303649
O O18 0.281965 0.363337 0.086207
O O19 0.500000 0.317076 0.500000
O O20 0.331089 0.500000 0.006396
#
# Coordination Sequence:
#
# PCOD9172317 Si02
#       8
#     8   8   8   8   8   8   8   8
#     4  10  19  34  57  84 113 143 179 225 274 325
#     4  10  20  34  51  76 109 140 175 222 275 329
#     4  10  21  36  53  76 109 146 185 230 276 324
#     4  11  22  35  54  82 111 146 189 225 270 329
#     4   9  19  34  51  73 104 140 177 220 269 320
#     4   9  17  32  53  77 107 139 172 216 273 329
#     4  10  18  29  48  74 102 134 174 220 269 319
#     4   8  17  33  55  83 111 140 175 222 279 329
#
# _framework density 21.456932999999999
#
# number of rings (size 3 to 8) (size 9 to 14) (size 15 to 20)
#    0.000    2.375    0.000    3.750    0.000    5.500 
#    0.000    9.375    0.000    0.000    0.000    1.750 
#    0.000    0.000    0.000    1.625    0.000    0.000 
#
# Total GULP energy -178339.098870 kJ/mol
# GULP energy per Si atom -5573.096840 kJ/mol
# Density = 2.140810 g / cm^3
# Si number density = 21.456933 Si / 1000 Ang^3
#
#
#
# Elastic Constant Matrix: (Units=GPa)
#
#
# Indices 1 2 3 4 5 6 
#
# 1 31.5345 4.7578 29.1009 0.0000 2.3212 0.0000
# 2 4.7578 108.6281 10.4469 0.0000 0.9218 0.0000
# 3 29.1009 10.4469 119.9213 0.0000 4.7278 0.0000
# 4 0.0000 0.0000 0.0000 22.9311 0.0000 -6.7202
# 5 2.3212 0.9218 4.7278 0.0000 25.6669 0.0000
# 6 0.0000 0.0000 0.0000 -6.7202 0.0000 14.0090
#
#
#
# Elastic Compliance Matrix: (Units=1/GPa)
#
#
# Indices 1 2 3 4 5 6 
#
# 1 0.041028 -0.000838 -0.009809 0.000000 -0.001873 0.000000
# 2 -0.000838 0.009301 -0.000601 0.000000 -0.000148 0.000000
# 3 -0.009809 -0.000601 0.010814 0.000000 -0.001083 0.000000
# 4 0.000000 0.000000 0.000000 0.050742 0.000000 0.024341
# 5 -0.001873 -0.000148 -0.001083 0.000000 0.039335 0.000000
# 6 0.000000 0.000000 0.000000 0.024341 0.000000 0.083059
#
#
# Mechanical properties :
#
#
# Convention : Reuss Voigt Hill
#
# Bulk Modulus (GPa) = 25.87502 38.74389 32.30946
# Shear Modulus (GPa) = 18.54194 26.90662 22.72428
#
# Velocity S-wave (km/s) = 2.94283 3.54500 3.25786
# Velocity P-wave (km/s) = 4.86130 5.90355 5.40759
#
# Compressibility (1/GPa) = 0.03864731
#
# Stress axis : x y z
#
# Youngs Moduli (GPa) = 24.37367 107.50976 92.47056
#
# Poissons Ratio (x) = 0.09006 0.90707
# Poissons Ratio (y) = 0.02042 0.05559
# Poissons Ratio (z) = 0.23909 0.06463
#
# Static dielectric constant tensor:
#      x y z
#    x 1.929270 0.000000 -0.032170 
#    y 0.000000 1.853060 0.000000 
#    z -0.032170 0.000000 1.799060 
# 
# From -- ./inp_files/225751.got.cif
#   From: 2010.05.17/outbox.cif.g08.bks.cpg/sg12_113_cif.got.tgz:225751.got - 2010.06.03 13:09:07.
