data_PCOD9172356
_publ_section_title
;
Structure prediction by ZEFSAII (Michael W. Deem and Ramdas Pophale) SiO2 
 PCOD9172356
Probable space group: C 2/M
;
_chemical_formula_sum "Si O2"
_cell_formula_units_Z 56
_cell_length_a 28.000572
_cell_length_b 8.885895
_cell_length_c 12.226726
_cell_angle_alpha 90.000000
_cell_angle_beta 123.486696
_cell_angle_gamma 90.000000
_cell_volume 2537.181754
_symmetry_space_group_name_H-M "C 2/M"
_symmetry_group_IT_number 12
_symmetry_cell_setting 'monoclinic'
loop_
_space_group_symop_operation_xyz
x,y,z
-x,y,-z
-x,-y,-z
x,-y,z
1/2+x,1/2+y,z
1/2-x,1/2+y,-z
1/2-x,1/2-y,-z
1/2+x,1/2-y,z
loop_
_atom_site_type_symbol
_atom_site_label
_atom_site_fract_x
_atom_site_fract_y
_atom_site_fract_z
Si Si1 0.592158 0.322434 0.645647
Si Si2 0.794786 0.328562 0.135184
Si Si3 0.051988 0.825764 0.199891
Si Si4 0.116999 0.181350 0.069121
Si Si5 0.351084 0.325302 0.504510
Si Si6 0.238414 0.831174 0.303489
Si Si7 0.047955 0.322734 0.793057
O O1 0.580800 0.500000 0.627835
O O2 0.651021 0.278765 0.781284
O O3 0.607408 0.267473 0.541928
O O4 0.546490 0.246958 0.669096
O O5 0.809905 0.500000 0.120324
O O6 0.765960 0.340267 0.217527
O O7 0.750000 0.250000 0.000000
O O8 0.066520 0.791328 0.092947
O O9 0.112291 0.816523 0.339888
O O10 0.007855 0.723612 0.208782
O O11 0.031948 0.000000 0.182292
O O12 0.176093 0.236997 0.199013
O O13 0.122645 0.000000 0.061327
O O14 0.099429 0.256330 0.933248
O O15 0.340550 0.500000 0.463892
O O16 0.289191 0.248817 0.433608
O O17 0.229609 0.000000 0.336977
O O18 0.053472 0.500000 0.791064
#
# Coordination Sequence:
#
# PCOD9172356 Si02
#       7
#     8   8   8   8   8   8   8
#     4  10  20  36  57  80 111 149 189 235 288 344
#     4  10  18  29  48  77 113 150 189 233 283 338
#     4  10  22  41  62  83 113 154 196 236 280 337
#     4  10  21  39  62  86 115 154 194 231 281 343
#     4   9  20  38  60  87 116 150 192 233 278 338
#     4   9  19  34  54  82 115 149 185 229 281 336
#     4  12  25  39  58  86 116 147 191 244 294 342
#
# _framework density 22.071732999999998
#
# number of rings (size 3 to 8) (size 9 to 14) (size 15 to 20)
#    0.000    2.000    0.000    3.429    0.000    6.857 
#    0.000    2.857    0.000    0.000    0.000    0.000 
#    0.000    0.000    0.000    0.000    0.000    0.000 
#
# Total GULP energy -156377.103217 kJ/mol
# GULP energy per Si atom -5584.896543 kJ/mol
# Density = 2.202150 g / cm^3
# Si number density = 22.071733 Si / 1000 Ang^3
#
#
#
# Elastic Constant Matrix: (Units=GPa)
#
#
# Indices 1 2 3 4 5 6 
#
# 1 85.9120 23.4749 7.4271 0.0000 -8.8661 0.0000
# 2 23.4749 50.1714 12.2638 0.0000 -8.8243 0.0000
# 3 7.4271 12.2638 59.5679 0.0000 -11.2978 0.0000
# 4 0.0000 0.0000 0.0000 16.9415 0.0000 7.2738
# 5 -8.8661 -8.8243 -11.2978 0.0000 39.5625 0.0000
# 6 0.0000 0.0000 0.0000 7.2738 0.0000 28.5824
#
#
#
# Elastic Compliance Matrix: (Units=1/GPa)
#
#
# Indices 1 2 3 4 5 6 
#
# 1 0.013453 -0.005972 -0.000136 0.000000 0.001644 0.000000
# 2 -0.005972 0.024148 -0.003657 0.000000 0.003003 0.000000
# 3 -0.000136 -0.003657 0.018393 0.000000 0.004406 0.000000
# 4 0.000000 0.000000 0.000000 0.066267 0.000000 -0.016864
# 5 0.001644 0.003003 0.004406 0.000000 0.027573 0.000000
# 6 0.000000 0.000000 0.000000 -0.016864 0.000000 0.039278
#
#
# Mechanical properties :
#
#
# Convention : Reuss Voigt Hill
#
# Bulk Modulus (GPa) = 27.42479 31.33143 29.37811
# Shear Modulus (GPa) = 22.64503 27.18296 24.91400
#
# Velocity S-wave (km/s) = 3.20656 3.51319 3.36337
# Velocity P-wave (km/s) = 5.11484 5.53920 5.33125
#
# Compressibility (1/GPa) = 0.03646335
#
# Stress axis : x y z
#
# Youngs Moduli (GPa) = 74.33232 41.41086 54.36790
#
# Poissons Ratio (x) = 0.24731 0.00740
# Poissons Ratio (y) = 0.44393 0.19884
# Poissons Ratio (z) = 0.01011 0.15145
#
# Static dielectric constant tensor:
#      x y z
#    x 1.890040 0.000000 0.015690 
#    y 0.000000 1.773020 0.000000 
#    z 0.015690 0.000000 1.815680 
# 
# From -- ./inp_files/181089.got.cif
#   From: 2010.05.17/outbox.cif.g08.bks.cpg/sg12_91_cif.got.tgz:181089.got - 2010.06.03 13:09:07.
