data_PCOD9172149
_publ_section_title
;
Structure prediction by ZEFSAII (Michael W. Deem and Ramdas Pophale) SiO2 
 PCOD9172149
Probable space group: C 2/M
;
_chemical_formula_sum "Si O2"
_cell_formula_units_Z 64
_cell_length_a 32.739545
_cell_length_b 13.184991
_cell_length_c 11.305888
_cell_angle_alpha 90.000000
_cell_angle_beta 120.614606
_cell_angle_gamma 90.000000
_cell_volume 4200.148745
_symmetry_space_group_name_H-M "C 2/M"
_symmetry_group_IT_number 12
_symmetry_cell_setting 'monoclinic'
loop_
_space_group_symop_operation_xyz
x,y,z
-x,y,-z
-x,-y,-z
x,-y,z
1/2+x,1/2+y,z
1/2-x,1/2+y,-z
1/2-x,1/2-y,-z
1/2+x,1/2-y,z
loop_
_atom_site_type_symbol
_atom_site_label
_atom_site_fract_x
_atom_site_fract_y
_atom_site_fract_z
Si Si1 0.766455 0.120205 0.665430
Si Si2 0.490523 0.123226 0.120063
Si Si3 0.606625 0.877691 0.907703
Si Si4 0.681670 0.199679 0.383005
Si Si5 0.203326 0.614836 0.167842
Si Si6 0.590998 0.120909 0.370970
Si Si7 0.364865 0.119445 0.309267
Si Si8 0.263944 0.224320 0.155723
O O1 0.716571 0.163731 0.539793
O O2 0.804265 0.189850 0.649125
O O3 0.765512 0.144534 0.805021
O O4 0.770462 0.000000 0.651187
O O5 0.440396 0.160842 0.096707
O O6 0.536811 0.149077 0.264827
O O7 0.487859 0.000000 0.115483
O O8 0.500000 0.156077 0.000000
O O9 0.606003 0.859530 0.766975
O O10 0.607516 0.000000 0.926805
O O11 0.656841 0.839986 0.033718
O O12 0.692748 0.125206 0.290210
O O13 0.628228 0.183249 0.346817
O O14 0.208176 0.500000 0.136585
O O15 0.250951 0.673608 0.206562
O O16 0.605414 0.135193 0.528288
O O17 0.596785 0.000000 0.351790
O O18 0.317535 0.185969 0.237524
O O19 0.350780 0.000000 0.285284
O O20 0.250000 0.250000 0.000000
#
# Coordination Sequence:
#
# PCOD9172149 Si02
#       8
#     8   8   8   8   8   8   8   8
#     4  10  20  33  48  67  96 129 162 204 243 282
#     4   9  17  28  44  67  92 121 160 200 238 288
#     4   9  17  29  43  62  92 126 160 198 240 288
#     4  10  19  30  47  69  93 126 163 193 236 292
#     4  10  19  29  44  66  94 127 159 198 243 283
#     4  10  18  29  47  68  96 131 163 197 239 289
#     4  10  19  31  46  64  94 132 163 197 243 289
#     4  11  20  30  46  67  90 127 170 202 233 289
#
# _framework density 15.237556
#
# number of rings (size 3 to 8) (size 9 to 14) (size 15 to 20)
#    0.000    2.125    2.500    2.250    0.000    3.000 
#    0.000    2.500    0.000    0.000    0.000    0.000 
#    0.000   14.500    0.000    2.250    0.000    0.250 
#
# Total GULP energy -178168.899240 kJ/mol
# GULP energy per Si atom -5567.778101 kJ/mol
# Density = 1.520287 g / cm^3
# Si number density = 15.237556 Si / 1000 Ang^3
#
#
#
# Elastic Constant Matrix: (Units=GPa)
#
#
# Indices 1 2 3 4 5 6 
#
# 1 93.1422 30.4337 34.2029 0.0000 -3.1630 0.0000
# 2 30.4337 57.3440 17.6267 0.0000 3.5837 0.0000
# 3 34.2029 17.6267 85.6482 0.0000 -3.6716 0.0000
# 4 0.0000 0.0000 0.0000 11.9736 0.0000 0.7463
# 5 -3.1630 3.5837 -3.6716 0.0000 22.3437 0.0000
# 6 0.0000 0.0000 0.0000 0.7463 0.0000 19.2121
#
#
#
# Elastic Compliance Matrix: (Units=1/GPa)
#
#
# Indices 1 2 3 4 5 6 
#
# 1 0.014555 -0.006532 -0.004366 0.000000 0.002391 0.000000
# 2 -0.006532 0.021847 -0.002092 0.000000 -0.004772 0.000000
# 3 -0.004366 -0.002092 0.013936 0.000000 0.002008 0.000000
# 4 0.000000 0.000000 0.000000 0.083720 0.000000 -0.003252
# 5 0.002391 -0.004772 0.002008 0.000000 0.046189 0.000000
# 6 0.000000 0.000000 0.000000 -0.003252 0.000000 0.052177
#
#
# Mechanical properties :
#
#
# Convention : Reuss Voigt Hill
#
# Bulk Modulus (GPa) = 41.05495 44.51787 42.78641
# Shear Modulus (GPa) = 18.76018 20.96395 19.86206
#
# Velocity S-wave (km/s) = 3.51262 3.71321 3.61431
# Velocity P-wave (km/s) = 6.59190 6.90386 6.74968
#
# Compressibility (1/GPa) = 0.02435760
#
# Stress axis : x y z
#
# Youngs Moduli (GPa) = 68.70560 45.77353 71.75840
#
# Poissons Ratio (x) = 0.29900 0.31327
# Poissons Ratio (y) = 0.44879 0.15013
# Poissons Ratio (z) = 0.29994 0.09577
#
# Static dielectric constant tensor:
#      x y z
#    x 1.512170 0.000000 -0.016740 
#    y 0.000000 1.506680 0.000000 
#    z -0.016740 0.000000 1.549180 
# 
# From -- ./inp_files/188371.got.cif
#   From: 2010.05.17/outbox.cif.g08.bks.cpg/sg12_95_cif.got.tgz:188371.got - 2010.06.03 13:09:07.
