data_PCOD9172926
_publ_section_title
;
Structure prediction by ZEFSAII (Michael W. Deem and Ramdas Pophale) SiO2 
 PCOD9172926
Probable space group: C 2/M
;
_chemical_formula_sum "Si O2"
_cell_formula_units_Z 40
_cell_length_a 8.075462
_cell_length_b 23.809341
_cell_length_c 11.106050
_cell_angle_alpha 90.000000
_cell_angle_beta 125.788032
_cell_angle_gamma 90.000000
_cell_volume 1732.187170
_symmetry_space_group_name_H-M "C 2/M"
_symmetry_group_IT_number 12
_symmetry_cell_setting 'monoclinic'
loop_
_space_group_symop_operation_xyz
x,y,z
-x,y,-z
-x,-y,-z
x,-y,z
1/2+x,1/2+y,z
1/2-x,1/2+y,-z
1/2-x,1/2-y,-z
1/2+x,1/2-y,z
loop_
_atom_site_type_symbol
_atom_site_label
_atom_site_fract_x
_atom_site_fract_y
_atom_site_fract_z
Si Si1 0.986011 0.935215 0.333323
Si Si2 0.421449 0.067085 0.599831
Si Si3 0.309134 0.165882 0.836091
Si Si4 0.822724 0.890857 0.823787
Si Si5 0.954280 0.775082 0.837871
O O1 0.809791 0.888960 0.256588
O O2 0.180887 0.920137 0.499915
O O3 0.087050 0.930416 0.242450
O O4 0.923372 0.000000 0.326599
O O5 0.500000 0.084947 0.500000
O O6 0.595589 0.090186 0.762985
O O7 0.433672 0.000000 0.610270
O O8 0.382639 0.212914 0.771349
O O9 0.148333 0.201510 0.849166
O O10 0.500000 0.149338 0.000000
O O11 0.801417 0.827381 0.764672
O O12 0.000000 0.890281 0.000000
O O13 0.000000 0.769920 0.000000
#
# Coordination Sequence:
#
# PCOD9172926 Si02
#       5
#     8   8   8   8   8
#     4   9  18  30  44  67  97 128 160 196 241 286
#     4   8  14  26  42  61  93 130 158 191 237 285
#     4  10  18  30  49  70  96 128 162 199 239 288
#     4   9  16  26  45  72  97 123 159 201 239 281
#     4   9  17  29  46  71  98 124 157 198 245 288
#
# _framework density 23.092193999999999
#
# number of rings (size 3 to 8) (size 9 to 14) (size 15 to 20)
#    0.000    3.000    0.000    4.200    0.000    2.000 
#    0.000    1.000    0.000    0.000    0.000   22.400 
#    0.000   53.600    0.000    0.000    0.000    0.000 
#
# Total GULP energy -111589.559444 kJ/mol
# GULP energy per Si atom -5579.477972 kJ/mol
# Density = 2.303964 g / cm^3
# Si number density = 23.092194 Si / 1000 Ang^3
#
#
#
# Elastic Constant Matrix: (Units=GPa)
#
#
# Indices 1 2 3 4 5 6 
#
# 1 84.0997 55.0021 49.9300 0.0000 24.0079 0.0000
# 2 55.0021 163.8369 97.1640 0.0000 35.1770 0.0000
# 3 49.9300 97.1640 153.8418 0.0000 50.2599 0.0000
# 4 0.0000 0.0000 0.0000 -47.0353 0.0000 37.6435
# 5 24.0079 35.1770 50.2599 0.0000 48.1578 0.0000
# 6 0.0000 0.0000 0.0000 37.6435 0.0000 14.9441
#
#
#
# Elastic Compliance Matrix: (Units=1/GPa)
#
#
# Indices 1 2 3 4 5 6 
#
# 1 0.016391 -0.003634 -0.001855 0.000000 -0.003581 0.000000
# 2 -0.003634 0.010600 -0.005429 0.000000 -0.000266 0.000000
# 3 -0.001855 -0.005429 0.013555 0.000000 -0.009257 0.000000
# 4 0.000000 0.000000 0.000000 -0.007049 0.000000 0.017757
# 5 -0.003581 -0.000266 -0.009257 0.000000 0.032405 0.000000
# 6 0.000000 0.000000 0.000000 0.017757 0.000000 0.022187
#
#
# Mechanical properties :
#
#
# Convention : Reuss Voigt Hill
#
# Bulk Modulus (GPa) = 53.44318 89.55229 71.49774
# Shear Modulus (GPa) = 43.04420 16.52547 29.78484
#
# Velocity S-wave (km/s) = 4.32211 2.67803 3.59531
# Velocity P-wave (km/s) = 6.93550 6.95895 6.94723
#
# Compressibility (1/GPa) = 0.01871146
#
# Stress axis : x y z
#
# Youngs Moduli (GPa) = 61.01071 94.33914 73.77410
#
# Poissons Ratio (x) = 0.34280 0.13683
# Poissons Ratio (y) = 0.22169 0.40050
# Poissons Ratio (z) = 0.11315 0.51214
#
# Static dielectric constant tensor:
#      x y z
#    x 1.998950 0.000000 -0.002270 
#    y 0.000000 1.888920 0.000000 
#    z -0.002270 0.000000 1.913810 
# 
# From -- ./inp_files/199504.got.cif
#   From: 2010.05.17/outbox.cif.g08.bks.cpg/sg12_100_cif.got.tgz:199504.got - 2010.06.03 13:09:07.
