data_PCOD9172890
_publ_section_title
;
Structure prediction by ZEFSAII (Michael W. Deem and Ramdas Pophale) SiO2 
 PCOD9172890
Probable space group: C 2/M
;
_chemical_formula_sum "Si O2"
_cell_formula_units_Z 56
_cell_length_a 11.487329
_cell_length_b 21.246960
_cell_length_c 18.653645
_cell_angle_alpha 90.000000
_cell_angle_beta 131.280004
_cell_angle_gamma 90.000000
_cell_volume 3421.411657
_symmetry_space_group_name_H-M "C 2/M"
_symmetry_group_IT_number 12
_symmetry_cell_setting 'monoclinic'
loop_
_space_group_symop_operation_xyz
x,y,z
-x,y,-z
-x,-y,-z
x,-y,z
1/2+x,1/2+y,z
1/2-x,1/2+y,-z
1/2-x,1/2-y,-z
1/2+x,1/2-y,z
loop_
_atom_site_type_symbol
_atom_site_label
_atom_site_fract_x
_atom_site_fract_y
_atom_site_fract_z
Si Si1 0.922588 0.426200 0.390239
Si Si2 0.436510 0.822924 0.052517
Si Si3 0.637230 0.665611 0.256549
Si Si4 0.091959 0.170616 0.964097
Si Si5 0.144573 0.332460 0.410840
Si Si6 0.293831 0.192529 0.728928
Si Si7 0.949878 0.192683 0.616227
O O1 0.903354 0.500000 0.369472
O O2 0.763041 0.388389 0.318438
O O3 0.000000 0.417529 0.500000
O O4 0.039454 0.391840 0.384219
O O5 0.412180 0.747149 0.035651
O O6 0.576771 0.833312 0.164936
O O7 0.500000 0.844737 0.000000
O O8 0.272205 0.846795 0.019540
O O9 0.508719 0.649516 0.145393
O O10 0.711068 0.731819 0.260624
O O11 0.570275 0.681883 0.307415
O O12 0.000000 0.150409 0.000000
O O13 0.159664 0.321165 0.333113
O O14 0.070416 0.267146 0.410474
O O15 0.310612 0.339382 0.516388
O O16 0.119755 0.169129 0.667069
#
# Coordination Sequence:
#
# PCOD9172890 Si02
#       7
#     8   8   8   8   8   8   8
#     4  11  22  37  54  73 104 142 180 213 252 308
#     4   9  17  29  42  69 106 142 168 195 263 329
#     4  10  19  31  50  74 105 139 175 205 263 313
#     4   9  18  28  45  69 103 137 170 215 256 309
#     4  10  20  30  49  75 106 135 174 208 263 308
#     4  10  19  28  51  77 109 136 166 212 265 318
#     4  10  18  30  48  76 110 137 160 214 260 324
#
# _framework density 16.367514
#
# number of rings (size 3 to 8) (size 9 to 14) (size 15 to 20)
#    0.000    2.143    2.857    1.286    2.000    3.429 
#    0.000    0.000    0.000    3.000    0.000    0.000 
#    0.000    2.286    0.000    0.000    0.000    0.000 
#
# Total GULP energy -155911.495668 kJ/mol
# GULP energy per Si atom -5568.267702 kJ/mol
# Density = 1.633026 g / cm^3
# Si number density = 16.367514 Si / 1000 Ang^3
#
#
#
# Elastic Constant Matrix: (Units=GPa)
#
#
# Indices 1 2 3 4 5 6 
#
# 1 92.6928 27.5377 36.2350 0.0000 12.1383 0.0000
# 2 27.5377 48.7885 25.5322 0.0000 7.3858 0.0000
# 3 36.2350 25.5322 77.8902 0.0000 -2.2643 0.0000
# 4 0.0000 0.0000 0.0000 12.0514 0.0000 -4.2885
# 5 12.1383 7.3858 -2.2643 0.0000 23.9148 0.0000
# 6 0.0000 0.0000 0.0000 -4.2885 0.0000 31.1513
#
#
#
# Elastic Compliance Matrix: (Units=1/GPa)
#
#
# Indices 1 2 3 4 5 6 
#
# 1 0.015331 -0.004546 -0.005843 0.000000 -0.006931 0.000000
# 2 -0.004546 0.027909 -0.007237 0.000000 -0.006997 0.000000
# 3 -0.005843 -0.007237 0.018130 0.000000 0.006918 0.000000
# 4 0.000000 0.000000 0.000000 0.087252 0.000000 0.012012
# 5 -0.006931 -0.006997 0.006918 0.000000 0.048149 0.000000
# 6 0.000000 0.000000 0.000000 0.012012 0.000000 0.033755
#
#
# Mechanical properties :
#
#
# Convention : Reuss Voigt Hill
#
# Bulk Modulus (GPa) = 38.28862 44.22014 41.25438
# Shear Modulus (GPa) = 18.21594 22.09460 20.15527
#
# Velocity S-wave (km/s) = 3.33968 3.67809 3.51297
# Velocity P-wave (km/s) = 6.18992 6.71666 6.45866
#
# Compressibility (1/GPa) = 0.02611742
#
# Stress axis : x y z
#
# Youngs Moduli (GPa) = 65.22876 35.83045 55.15616
#
# Poissons Ratio (x) = 0.16288 0.32229
# Poissons Ratio (y) = 0.29653 0.39918
# Poissons Ratio (z) = 0.38115 0.25931
#
# Static dielectric constant tensor:
#      x y z
#    x 1.573710 0.000000 0.016640 
#    y 0.000000 1.528830 0.000000 
#    z 0.016640 0.000000 1.528200 
# 
# From -- ./inp_files/133315.got.cif
#   From: 2010.05.17/outbox.cif.g08.bks.cpg/sg12_67_cif.got.tgz:133315.got - 2010.06.03 13:09:07.
