data_PCOD9172547
_publ_section_title
;
Structure prediction by ZEFSAII (Michael W. Deem and Ramdas Pophale) SiO2 
 PCOD9172547
Probable space group: C 2/M
;
_chemical_formula_sum "Si O2"
_cell_formula_units_Z 64
_cell_length_a 27.512253
_cell_length_b 22.361091
_cell_length_c 7.975059
_cell_angle_alpha 90.000000
_cell_angle_beta 52.371572
_cell_angle_gamma 90.000000
_cell_volume 3885.715518
_symmetry_space_group_name_H-M "C 2/M"
_symmetry_group_IT_number 12
_symmetry_cell_setting 'monoclinic'
loop_
_space_group_symop_operation_xyz
x,y,z
-x,y,-z
-x,-y,-z
x,-y,z
1/2+x,1/2+y,z
1/2-x,1/2+y,-z
1/2-x,1/2-y,-z
1/2+x,1/2-y,z
loop_
_atom_site_type_symbol
_atom_site_label
_atom_site_fract_x
_atom_site_fract_y
_atom_site_fract_z
Si Si1 0.343581 0.434640 0.579034
Si Si2 0.433021 0.262579 0.702076
Si Si3 0.685524 0.199646 0.495318
Si Si4 0.570932 0.400042 0.901286
Si Si5 0.432179 0.406540 0.701326
Si Si6 0.070567 0.242432 0.901868
Si Si7 0.308857 0.205794 0.871603
Si Si8 0.749925 0.830263 0.684239
O O1 0.313460 0.500000 0.646963
O O2 0.389019 0.431902 0.323684
O O3 0.382504 0.426871 0.668840
O O4 0.297500 0.380073 0.643862
O O5 0.500000 0.241803 0.500000
O O6 0.433201 0.334348 0.691240
O O7 0.373561 0.240000 0.729292
O O8 0.423682 0.244584 0.913940
O O9 0.617431 0.217351 0.698403
O O10 0.692682 0.169939 0.298501
O O11 0.719116 0.161982 0.568070
O O12 0.717908 0.265007 0.404033
O O13 0.585053 0.328655 0.854718
O O14 0.500000 0.407515 0.000000
O O15 0.579641 0.420051 0.076743
O O16 0.500000 0.427258 0.500000
O O17 0.000000 0.250419 0.000000
O O18 0.250000 0.250000 0.000000
O O19 0.301191 0.172357 0.062814
#
# Coordination Sequence:
#
# PCOD9172547 Si02
#       8
#     8   8   8   8   8   8   8   8
#     4  12  25  38  53  71  98 135 180 228 261 300
#     4  10  19  30  50  80 109 140 171 209 257 313
#     4  10  18  32  54  74 102 133 164 208 253 311
#     4  10  20  35  53  73  99 135 177 220 261 301
#     4  10  20  35  53  71 100 135 177 218 261 305
#     4  10  18  29  51  78 109 138 165 205 261 313
#     4  10  19  30  50  74 101 136 169 205 251 312
#     4  10  21  35  49  72 100 130 176 207 254 311
#
# _framework density 16.470583000000001
#
# number of rings (size 3 to 8) (size 9 to 14) (size 15 to 20)
#    0.000    1.750    3.750    2.250    1.750    2.000 
#    0.000    0.000    0.000    0.000    0.000    0.000 
#    0.000    1.000    0.000    0.000    0.000    0.000 
#
# Total GULP energy -178346.118954 kJ/mol
# GULP energy per Si atom -5573.316217 kJ/mol
# Density = 1.643310 g / cm^3
# Si number density = 16.470583 Si / 1000 Ang^3
#
#
#
# Elastic Constant Matrix: (Units=GPa)
#
#
# Indices 1 2 3 4 5 6 
#
# 1 104.6427 24.5211 37.9385 0.0000 19.2269 0.0000
# 2 24.5211 33.2558 11.6049 0.0000 1.7255 0.0000
# 3 37.9385 11.6049 89.5729 0.0000 14.9994 0.0000
# 4 0.0000 0.0000 0.0000 -20.7354 0.0000 -9.1109
# 5 19.2269 1.7255 14.9994 0.0000 34.9128 0.0000
# 6 0.0000 0.0000 0.0000 -9.1109 0.0000 -3.6774
#
#
#
# Elastic Compliance Matrix: (Units=1/GPa)
#
#
# Indices 1 2 3 4 5 6 
#
# 1 0.014036 -0.008705 -0.003873 0.000000 -0.005635 0.000000
# 2 -0.008705 0.036894 -0.001714 0.000000 0.003707 0.000000
# 3 -0.003873 -0.001714 0.013636 0.000000 -0.003641 0.000000
# 4 0.000000 0.000000 0.000000 0.544354 0.000000 -1.348647
# 5 -0.005635 0.003707 -0.003641 0.000000 0.033127 0.000000
# 6 0.000000 0.000000 0.000000 -1.348647 0.000000 3.069366
#
#
# Mechanical properties :
#
#
# Convention : Reuss Voigt Hill
#
# Bulk Modulus (GPa) = 27.79159 41.73336 34.76247
# Shear Modulus (GPa) = 1.33263 12.32714 6.82988
#
# Velocity S-wave (km/s) = 0.90047 2.73872 2.03856
# Velocity P-wave (km/s) = 4.24161 5.94928 5.16649
#
# Compressibility (1/GPa) = 0.03598211
#
# Stress axis : x y z
#
# Youngs Moduli (GPa) = 71.24521 27.10439 73.33350
#
# Poissons Ratio (x) = 0.23595 0.28405
# Poissons Ratio (y) = 0.62022 0.12566
# Poissons Ratio (z) = 0.27596 0.04644
#
# Static dielectric constant tensor:
#      x y z
#    x 1.609680 0.000000 0.020900 
#    y 0.000000 1.536060 0.000000 
#    z 0.020900 0.000000 1.580220 
# 
# From -- ./inp_files/106699.got.cif
#   From: 2010.05.17/outbox.cif.g08.bks.cpg/sg12_54_cif.got.tgz:106699.got - 2010.06.03 13:09:07.
