data_PCOD9172780
_publ_section_title
;
Structure prediction by ZEFSAII (Michael W. Deem and Ramdas Pophale) SiO2 
 PCOD9172780
Probable space group: C 2/M
;
_chemical_formula_sum "Si O2"
_cell_formula_units_Z 64
_cell_length_a 30.984163
_cell_length_b 7.206647
_cell_length_c 11.161110
_cell_angle_alpha 90.000000
_cell_angle_beta 70.101409
_cell_angle_gamma 90.000000
_cell_volume 2343.393522
_symmetry_space_group_name_H-M "C 2/M"
_symmetry_group_IT_number 12
_symmetry_cell_setting 'monoclinic'
loop_
_space_group_symop_operation_xyz
x,y,z
-x,y,-z
-x,-y,-z
x,-y,z
1/2+x,1/2+y,z
1/2-x,1/2+y,-z
1/2-x,1/2-y,-z
1/2+x,1/2-y,z
loop_
_atom_site_type_symbol
_atom_site_label
_atom_site_fract_x
_atom_site_fract_y
_atom_site_fract_z
Si Si1 0.094123 0.773337 0.955262
Si Si2 0.317330 0.274966 0.510900
Si Si3 0.435224 0.276343 0.642761
Si Si4 0.766261 0.222118 0.798172
Si Si5 0.847646 0.223694 0.866930
Si Si6 0.679341 0.717836 0.745465
Si Si7 0.491642 0.274181 0.826917
Si Si8 0.923936 0.225846 0.390759
O O1 0.128394 0.709845 0.819127
O O2 0.092090 0.000000 0.950205
O O3 0.124549 0.718645 0.042627
O O4 0.042307 0.713933 0.033987
O O5 0.315781 0.500000 0.521816
O O6 0.291382 0.209005 0.653123
O O7 0.298725 0.211437 0.398560
O O8 0.370897 0.221386 0.450887
O O9 0.438957 0.500000 0.637958
O O10 0.382415 0.232140 0.725075
O O11 0.465253 0.220803 0.728575
O O12 0.445923 0.216912 0.498024
O O13 0.796904 0.290332 0.880287
O O14 0.713214 0.265214 0.826066
O O15 0.768831 0.000000 0.798869
O O16 0.845787 0.000000 0.877755
O O17 0.673369 0.500000 0.732120
O O18 0.492562 0.500000 0.834446
O O19 0.543671 0.215609 0.750259
O O20 0.924002 0.000000 0.386593
#
# Coordination Sequence:
#
# PCOD9172780 Si02
#       8
#     8   8   8   8   8   8   8   8
#     4   8  15  27  39  55  85 118 141 164 204 256
#     4   9  17  28  41  59  84 111 139 174 214 251
#     4   8  11  17  30  52  81 108 132 164 208 249
#     4  10  18  30  48  66  82 104 143 186 217 243
#     4   8  13  23  40  60  81 107 137 173 213 248
#     4  10  20  32  44  59  85 120 146 167 207 258
#     4   8  13  19  32  54  80 111 141 165 197 248
#     4   9  13  19  33  55  81 108 138 169 204 247
#
# _framework density 27.31082
#
# number of rings (size 3 to 8) (size 9 to 14) (size 15 to 20)
#    0.000    3.250    1.250    2.250    0.000    2.000 
#    0.000    0.625    0.000    3.750    0.000    0.000 
#    0.000    3.000    0.000    4.000    0.000    3.000 
#
# Total GULP energy -178802.868428 kJ/mol
# GULP energy per Si atom -5587.589638 kJ/mol
# Density = 2.724866 g / cm^3
# Si number density = 27.310820 Si / 1000 Ang^3
#
#
#
# Elastic Constant Matrix: (Units=GPa)
#
#
# Indices 1 2 3 4 5 6 
#
# 1 155.0958 -8.6767 27.5442 0.0000 -17.1143 0.0000
# 2 -8.6767 133.6003 -0.7730 0.0000 -2.7183 0.0000
# 3 27.5442 -0.7730 106.1527 0.0000 -20.5775 0.0000
# 4 0.0000 0.0000 0.0000 -16.1235 0.0000 -3.4023
# 5 -17.1143 -2.7183 -20.5775 0.0000 45.5366 0.0000
# 6 0.0000 0.0000 0.0000 -3.4023 0.0000 1.3302
#
#
#
# Elastic Compliance Matrix: (Units=1/GPa)
#
#
# Indices 1 2 3 4 5 6 
#
# 1 0.006946 0.000484 -0.001411 0.000000 0.002002 0.000000
# 2 0.000484 0.007530 0.000057 0.000000 0.000657 0.000000
# 3 -0.001411 0.000057 0.010615 0.000000 0.004270 0.000000
# 4 0.000000 0.000000 0.000000 -0.040281 0.000000 -0.103029
# 5 0.002002 0.000657 0.004270 0.000000 0.024681 0.000000
# 6 0.000000 0.000000 0.000000 -0.103029 0.000000 0.488256
#
#
# Mechanical properties :
#
#
# Convention : Reuss Voigt Hill
#
# Bulk Modulus (GPa) = 42.82655 47.89310 45.35983
# Shear Modulus (GPa) = 9.85665 31.26561 20.56113
#
# Velocity S-wave (km/s) = 1.90181 3.38717 2.74680
# Velocity P-wave (km/s) = 4.53186 5.73338 5.16766
#
# Compressibility (1/GPa) = 0.02335000
#
# Stress axis : x y z
#
# Youngs Moduli (GPa) = 143.96485 132.80004 94.21029
#
# Poissons Ratio (x) = -0.06423 0.13291
# Poissons Ratio (y) = -0.06963 -0.00534
# Poissons Ratio (z) = 0.20310 -0.00753
#
# Static dielectric constant tensor:
#      x y z
#    x 2.124700 0.000000 0.029530 
#    y 0.000000 2.234140 0.000000 
#    z 0.029530 0.000000 2.127230 
# 
# From -- ./inp_files/188338.got.cif
#   From: 2010.05.17/outbox.cif.g08.bks.cpg/sg12_95_cif.got.tgz:188338.got - 2010.06.03 13:09:07.
