data_PCOD9172762
_publ_section_title
;
Structure prediction by ZEFSAII (Michael W. Deem and Ramdas Pophale) SiO2 
 PCOD9172762
Probable space group: C 2/M
;
_chemical_formula_sum "Si O2"
_cell_formula_units_Z 58
_cell_length_a 29.907491
_cell_length_b 8.050360
_cell_length_c 18.720115
_cell_angle_alpha 90.000000
_cell_angle_beta 37.549285
_cell_angle_gamma 90.000000
_cell_volume 2746.865156
_symmetry_space_group_name_H-M "C 2/M"
_symmetry_group_IT_number 12
_symmetry_cell_setting 'monoclinic'
loop_
_space_group_symop_operation_xyz
x,y,z
-x,y,-z
-x,-y,-z
x,-y,z
1/2+x,1/2+y,z
1/2-x,1/2+y,-z
1/2-x,1/2-y,-z
1/2+x,1/2-y,z
loop_
_atom_site_type_symbol
_atom_site_label
_atom_site_fract_x
_atom_site_fract_y
_atom_site_fract_z
Si Si1 0.730212 0.803370 0.302045
Si Si2 0.619367 0.799318 0.838449
Si Si3 0.991285 0.297122 0.896541
Si Si4 0.283156 0.309848 0.077747
Si Si5 0.430491 0.190168 0.827903
Si Si6 0.579063 0.314557 0.456670
Si Si7 0.000000 0.500000 0.500000
Si Si8 0.862226 0.181635 0.780442
O O1 0.798216 0.767368 0.267533
O O2 0.761406 0.751225 0.184571
O O3 0.652636 0.713273 0.410139
O O4 0.715755 0.000000 0.316253
O O5 0.566829 0.749426 0.839414
O O6 0.622311 0.000000 0.836312
O O7 0.575035 0.745271 0.966375
O O8 0.988761 0.500000 0.898172
O O9 0.979423 0.239585 0.830603
O O10 0.309019 0.500000 0.048519
O O11 0.207076 0.303290 0.130640
O O12 0.347838 0.201931 0.963831
O O13 0.423156 0.281140 0.762098
O O14 0.450935 0.000000 0.789088
O O15 0.548132 0.500000 0.510038
O O16 0.607223 0.315878 0.338257
O O17 0.531092 0.148045 0.514880
O O18 0.831305 0.000000 0.834729
#
# Coordination Sequence:
#
# PCOD9172762 Si02
#       8
#     8   8   8   8   8   8   2   8
#     4  10  18  30  47  72 101 134 173 215 255 297
#     4   9  15  28  46  61  91 132 178 222 256 299
#     4   8  16  27  41  64  89 132 182 219 259 293
#     4  10  19  29  42  61  91 130 175 212 247 282
#     4  11  19  28  44  63  92 132 177 218 248 288
#     4  10  22  38  58  81 105 138 161 199 259 313
#     4  12  22  40  64  82 112 122 162 206 252 326
#     4  10  21  34  47  66  95 129 167 204 245 299
#
# _framework density 21.114977
#
# number of rings (size 3 to 8) (size 9 to 14) (size 15 to 20)
#    0.000    2.207    2.069    3.103    1.931    1.103 
#    0.000    2.759    0.000    0.000    0.000    0.000 
#    0.000    1.103    1.931    0.414    0.000    0.276 
#
# Total GULP energy -161521.014206 kJ/mol
# GULP energy per Si atom -5569.690145 kJ/mol
# Density = 2.106692 g / cm^3
# Si number density = 21.114977 Si / 1000 Ang^3
#
#
#
# Elastic Constant Matrix: (Units=GPa)
#
#
# Indices 1 2 3 4 5 6 
#
# 1 132.7168 9.3241 12.3725 0.0023 -22.4228 -0.0020
# 2 9.3241 76.3146 22.1486 -0.0055 -11.0766 -0.0037
# 3 12.3725 22.1486 21.2989 0.0051 -13.1229 -0.0019
# 4 0.0023 -0.0055 0.0051 9.3755 0.0019 -6.9690
# 5 -22.4228 -11.0766 -13.1229 0.0019 33.0806 -0.0002
# 6 -0.0020 -0.0037 -0.0019 -6.9690 -0.0002 24.3946
#
#
#
# Elastic Compliance Matrix: (Units=1/GPa)
#
#
# Indices 1 2 3 4 5 6 
#
# 1 0.008570 0.000327 -0.002212 -0.000002 0.005041 0.000000
# 2 0.000327 0.018874 -0.020893 0.000030 -0.001747 0.000010
# 3 -0.002212 -0.020893 0.085666 -0.000077 0.025488 -0.000018
# 4 -0.000002 0.000030 -0.000077 0.135417 -0.000029 0.038685
# 5 0.005041 -0.001747 0.025488 -0.000029 0.043172 -0.000006
# 6 0.000000 0.000010 -0.000018 0.038685 -0.000006 0.052044
#
#
# Mechanical properties :
#
#
# Convention : Reuss Voigt Hill
#
# Bulk Modulus (GPa) = 14.80320 35.33565 25.06943
# Shear Modulus (GPa) = 12.14130 25.80248 18.97189
#
# Velocity S-wave (km/s) = 2.40054 3.49950 3.00076
# Velocity P-wave (km/s) = 3.83528 5.75325 4.88924
#
# Compressibility (1/GPa) = 0.06755294
#
# Stress axis : x y z
#
# Youngs Moduli (GPa) = 116.68964 52.98323 11.67320
#
# Poissons Ratio (x) = -0.01730 0.02582
# Poissons Ratio (y) = -0.03811 0.24389
# Poissons Ratio (z) = 0.25813 1.10698
#
# Static dielectric constant tensor:
#      x y z
#    x 1.806290 0.000000 -0.007400 
#    y 0.000000 1.761260 0.000010 
#    z -0.007400 0.000010 1.776300 
# 
# From -- ./inp_files/329061.got.cif
#   From: 2010.05.17/outbox.cif.g08.bks.cpg/sg12_165_cif.got.tgz:329061.got - 2010.06.03 13:09:07.
