data_PCOD9172850
_publ_section_title
;
Structure prediction by ZEFSAII (Michael W. Deem and Ramdas Pophale) SiO2 
 PCOD9172850
Probable space group: C 2/M
;
_chemical_formula_sum "Si O2"
_cell_formula_units_Z 56
_cell_length_a 32.254992
_cell_length_b 7.539486
_cell_length_c 12.198480
_cell_angle_alpha 90.000000
_cell_angle_beta 115.764449
_cell_angle_gamma 90.000000
_cell_volume 2671.596501
_symmetry_space_group_name_H-M "C 2/M"
_symmetry_group_IT_number 12
_symmetry_cell_setting 'monoclinic'
loop_
_space_group_symop_operation_xyz
x,y,z
-x,y,-z
-x,-y,-z
x,-y,z
1/2+x,1/2+y,z
1/2-x,1/2+y,-z
1/2-x,1/2-y,-z
1/2+x,1/2-y,z
loop_
_atom_site_type_symbol
_atom_site_label
_atom_site_fract_x
_atom_site_fract_y
_atom_site_fract_z
Si Si1 0.564138 0.216408 0.482413
Si Si2 0.536735 0.783922 0.694282
Si Si3 0.337015 0.292029 0.793678
Si Si4 0.149932 0.286510 0.437509
Si Si5 0.267773 0.217223 0.323730
Si Si6 0.381546 0.790383 0.071476
Si Si7 0.297004 0.212513 0.118481
O O1 0.516262 0.274576 0.371207
O O2 0.560511 0.266618 0.605983
O O3 0.609062 0.277718 0.469463
O O4 0.565151 0.000000 0.482508
O O5 0.569256 0.721908 0.830236
O O6 0.534419 0.000000 0.692705
O O7 0.332360 0.500000 0.806826
O O8 0.357116 0.261300 0.696613
O O9 0.284784 0.217898 0.734722
O O10 0.367925 0.227601 0.929510
O O11 0.150162 0.500000 0.444458
O O12 0.199527 0.224314 0.539404
O O13 0.291251 0.273999 0.236530
O O14 0.266669 0.000000 0.324015
O O15 0.340057 0.716409 0.098866
O O16 0.382822 0.000000 0.095191
O O17 0.301932 0.000000 0.130332
O O18 0.250000 0.250000 0.000000
#
# Coordination Sequence:
#
# PCOD9172850 Si02
#       7
#     8   8   8   8   8   8   8
#     4   8  14  27  51  80 104 122 150 202 256 294
#     4   8  14  27  50  81 106 122 150 198 254 300
#     4  11  22  35  48  66 100 139 169 203 242 285
#     4  10  19  33  53  74  95 126 168 207 244 289
#     4   9  18  32  50  71  97 129 163 201 246 290
#     4  10  19  31  51  76 101 130 164 200 240 291
#     4  10  18  30  48  72 100 128 157 194 239 287
#
# _framework density 20.96125
#
# number of rings (size 3 to 8) (size 9 to 14) (size 15 to 20)
#    0.000    2.571    1.429    2.571    0.000    3.429 
#    0.000    2.143    0.000    7.714    0.000    2.000 
#    0.000    0.000    0.000    0.000    0.000    0.000 
#
# Total GULP energy -156303.961533 kJ/mol
# GULP energy per Si atom -5582.284340 kJ/mol
# Density = 2.091354 g / cm^3
# Si number density = 20.961250 Si / 1000 Ang^3
#
#
#
# Elastic Constant Matrix: (Units=GPa)
#
#
# Indices 1 2 3 4 5 6 
#
# 1 60.4041 -2.4195 52.9114 0.0000 17.3419 0.0000
# 2 -2.4195 47.9197 -7.7322 0.0000 5.2172 0.0000
# 3 52.9114 -7.7322 129.8382 0.0000 27.2025 0.0000
# 4 0.0000 0.0000 0.0000 2.4371 0.0000 3.1404
# 5 17.3419 5.2172 27.2025 0.0000 31.1235 0.0000
# 6 0.0000 0.0000 0.0000 3.1404 0.0000 5.3683
#
#
#
# Elastic Compliance Matrix: (Units=1/GPa)
#
#
# Indices 1 2 3 4 5 6 
#
# 1 0.026822 0.000559 -0.009483 0.000000 -0.006751 0.000000
# 2 0.000559 0.021932 0.002343 0.000000 -0.006036 0.000000
# 3 -0.009483 0.002343 0.013075 0.000000 -0.006537 0.000000
# 4 0.000000 0.000000 0.000000 1.666730 0.000000 -0.975020
# 5 -0.006751 -0.006036 -0.006537 0.000000 0.042617 0.000000
# 6 0.000000 0.000000 0.000000 -0.975020 0.000000 0.756653
#
#
# Mechanical properties :
#
#
# Convention : Reuss Voigt Hill
#
# Bulk Modulus (GPa) = 20.54765 35.96460 28.25613
# Shear Modulus (GPa) = 1.95525 20.81259 11.38392
#
# Velocity S-wave (km/s) = 0.96686 3.15446 2.33297
# Velocity P-wave (km/s) = 3.32722 5.51928 4.55702
#
# Compressibility (1/GPa) = 0.04866736
#
# Stress axis : x y z
#
# Youngs Moduli (GPa) = 37.28231 45.59628 76.47905
#
# Poissons Ratio (x) = -0.02550 0.72525
# Poissons Ratio (y) = -0.02085 -0.17917
# Poissons Ratio (z) = 0.35355 -0.10682
#
# Static dielectric constant tensor:
#      x y z
#    x 1.741110 0.000000 0.022930 
#    y 0.000000 1.803290 0.000000 
#    z 0.022930 0.000000 1.749960 
# 
# From -- ./inp_files/186813.got.cif
#   From: 2010.05.17/outbox.cif.g08.bks.cpg/sg12_94_cif.got.tgz:186813.got - 2010.06.03 13:09:07.
