data_PCOD9172639
_publ_section_title
;
Structure prediction by ZEFSAII (Michael W. Deem and Ramdas Pophale) SiO2 
 PCOD9172639
Probable space group: C 2/M
;
_chemical_formula_sum "Si O2"
_cell_formula_units_Z 56
_cell_length_a 27.786499
_cell_length_b 8.917323
_cell_length_c 17.864963
_cell_angle_alpha 90.000000
_cell_angle_beta 54.258290
_cell_angle_gamma 90.000000
_cell_volume 3592.888953
_symmetry_space_group_name_H-M "C 2/M"
_symmetry_group_IT_number 12
_symmetry_cell_setting 'monoclinic'
loop_
_space_group_symop_operation_xyz
x,y,z
-x,y,-z
-x,-y,-z
x,-y,z
1/2+x,1/2+y,z
1/2-x,1/2+y,-z
1/2-x,1/2-y,-z
1/2+x,1/2-y,z
loop_
_atom_site_type_symbol
_atom_site_label
_atom_site_fract_x
_atom_site_fract_y
_atom_site_fract_z
Si Si1 0.773588 0.679923 0.714737
Si Si2 0.576896 0.820606 0.566056
Si Si3 0.096795 0.179557 0.391388
Si Si4 0.961761 0.179470 0.715292
Si Si5 0.768450 0.321018 0.101757
Si Si6 0.286549 0.820172 0.534015
Si Si7 0.342206 0.680454 0.905152
O O1 0.775780 0.500000 0.717706
O O2 0.838331 0.747974 0.672400
O O3 0.731639 0.745941 0.816837
O O4 0.761414 0.721142 0.639209
O O5 0.568396 0.747111 0.491964
O O6 0.524358 0.761547 0.666231
O O7 0.643620 0.777633 0.530451
O O8 0.574815 0.000000 0.561263
O O9 0.062233 0.211887 0.346553
O O10 0.101459 0.000000 0.394363
O O11 0.908054 0.223300 0.819099
O O12 0.970034 0.000000 0.713626
O O13 0.771449 0.500000 0.105733
O O14 0.706203 0.283630 0.115707
O O15 0.819167 0.259518 0.000823
O O16 0.250000 0.750000 0.500000
O O17 0.284077 0.000000 0.530690
O O18 0.340523 0.500000 0.915973
#
# Coordination Sequence:
#
# PCOD9172639 Si02
#       7
#     8   8   8   8   8   8   8
#     4  10  19  31  48  71  98 126 157 197 242 284
#     4  10  21  33  45  68  96 122 156 195 237 286
#     4  10  18  30  45  65  93 127 165 197 225 272
#     4  10  19  31  45  65  94 130 166 195 228 272
#     4  10  18  30  46  68  94 128 168 200 234 276
#     4   9  20  36  52  72  95 119 153 196 241 289
#     4   9  18  31  44  64  96 130 166 204 232 265
#
# _framework density 15.586342999999999
#
# number of rings (size 3 to 8) (size 9 to 14) (size 15 to 20)
#    0.000    2.286    1.429    3.000    0.000    7.429 
#    0.000    0.000    0.000    0.000    0.000    1.000 
#    0.000    8.000    0.000    0.000    0.000    0.000 
#
# Total GULP energy -156134.211663 kJ/mol
# GULP energy per Si atom -5576.221845 kJ/mol
# Density = 1.555087 g / cm^3
# Si number density = 15.586343 Si / 1000 Ang^3
#
#
#
# Elastic Constant Matrix: (Units=GPa)
#
#
# Indices 1 2 3 4 5 6 
#
# 1 62.1247 35.4102 67.1537 0.0000 4.5440 0.0000
# 2 35.4102 36.8535 46.8861 -0.0001 1.1354 -0.0001
# 3 67.1537 46.8861 140.6860 -0.0001 -10.3117 0.0000
# 4 0.0000 -0.0001 -0.0001 30.1155 0.0000 -2.8673
# 5 4.5440 1.1354 -10.3117 0.0000 19.7584 0.0000
# 6 0.0000 -0.0001 0.0000 -2.8673 0.0000 20.0204
#
#
#
# Elastic Compliance Matrix: (Units=1/GPa)
#
#
# Indices 1 2 3 4 5 6 
#
# 1 0.050993 -0.027241 -0.016643 0.000000 -0.018848 0.000000
# 2 -0.027241 0.064235 -0.008542 0.000000 -0.001884 0.000000
# 3 -0.016643 -0.008542 0.018940 0.000000 0.014203 0.000000
# 4 0.000000 0.000000 0.000000 0.033665 0.000000 0.004821
# 5 -0.018848 -0.001884 0.014203 0.000000 0.062467 0.000000
# 6 0.000000 0.000000 0.000000 0.004821 0.000000 0.050640
#
#
# Mechanical properties :
#
#
# Convention : Reuss Voigt Hill
#
# Bulk Modulus (GPa) = 34.11319 59.84046 46.97683
# Shear Modulus (GPa) = 12.64017 19.99316 16.31667
#
# Velocity S-wave (km/s) = 2.85086 3.58542 3.23903
# Velocity P-wave (km/s) = 5.72456 7.45765 6.64782
#
# Compressibility (1/GPa) = 0.02931417
#
# Stress axis : x y z
#
# Youngs Moduli (GPa) = 19.61054 15.56788 52.79728
#
# Poissons Ratio (x) = 0.42409 0.87872
# Poissons Ratio (y) = 0.53421 0.45102
# Poissons Ratio (z) = 0.32639 0.13299
#
# Static dielectric constant tensor:
#      x y z
#    x 1.499820 0.000000 -0.018770 
#    y 0.000000 1.517020 0.000000 
#    z -0.018770 0.000000 1.549020 
# 
# From -- ./inp_files/243602.got.cif
#   From: 2010.05.17/outbox.cif.g08.bks.cpg/sg12_122_cif.got.tgz:243602.got - 2010.06.03 13:09:07.
