data_PCOD9172119
_publ_section_title
;
Structure prediction by ZEFSAII (Michael W. Deem and Ramdas Pophale) SiO2 
 PCOD9172119
Probable space group: C 2/M
;
_chemical_formula_sum "Si O2"
_cell_formula_units_Z 64
_cell_length_a 23.259611
_cell_length_b 17.293743
_cell_length_c 20.018324
_cell_angle_alpha 90.000000
_cell_angle_beta 153.769340
_cell_angle_gamma 90.000000
_cell_volume 3558.996862
_symmetry_space_group_name_H-M "C 2/M"
_symmetry_group_IT_number 12
_symmetry_cell_setting 'monoclinic'
loop_
_space_group_symop_operation_xyz
x,y,z
-x,y,-z
-x,-y,-z
x,-y,z
1/2+x,1/2+y,z
1/2-x,1/2+y,-z
1/2-x,1/2-y,-z
1/2+x,1/2-y,z
loop_
_atom_site_type_symbol
_atom_site_label
_atom_site_fract_x
_atom_site_fract_y
_atom_site_fract_z
Si Si1 0.043311 0.912121 0.770784
Si Si2 0.869440 0.913210 0.987715
Si Si3 0.604307 0.752700 0.820992
Si Si4 0.577922 0.702769 0.140823
Si Si5 0.708453 0.909957 0.628488
Si Si6 0.630601 0.218576 0.329193
Si Si7 0.753688 0.412553 0.488193
Si Si8 0.920775 0.408740 0.295168
O O1 0.076452 0.834564 0.763200
O O2 0.893386 0.906071 0.638835
O O3 0.061531 0.000000 0.762081
O O4 0.124403 0.908638 0.924717
O O5 0.717648 0.904319 0.811931
O O6 0.912593 0.000000 0.014402
O O7 0.972080 0.853714 0.065168
O O8 0.503065 0.756332 0.776562
O O9 0.580752 0.831906 0.754235
O O10 0.750000 0.750000 0.000000
O O11 0.693984 0.648668 0.234477
O O12 0.633153 0.757720 0.255578
O O13 0.500000 0.742901 0.000000
O O14 0.734135 0.888740 0.576560
O O15 0.553878 0.901661 0.475913
O O16 0.743115 0.000000 0.675383
O O17 0.750000 0.250000 0.500000
O O18 0.649750 0.128991 0.361351
O O19 0.791597 0.500000 0.525424
O O20 0.925187 0.500000 0.273086
#
# Coordination Sequence:
#
# PCOD9172119 Si02
#       8
#     8   8   8   8   8   8   8   8
#     4  10  18  29  46  73 107 138 171 215 263 315
#     4  10  18  33  49  68 105 146 174 207 256 308
#     4  12  19  27  48  75 105 143 172 210 273 321
#     4  12  23  35  52  76 103 140 183 221 256 310
#     4  10  18  31  49  74 101 132 169 211 254 308
#     4  12  19  34  54  75 104 135 173 221 268 311
#     4  10  18  30  53  78 102 131 173 219 267 315
#     4  10  20  31  49  77 107 136 176 222 261 313
#
# _framework density 17.982595
#
# number of rings (size 3 to 8) (size 9 to 14) (size 15 to 20)
#    0.000    1.250    7.500    0.375    0.000    1.000 
#    0.000    0.625    0.000    2.625    0.000    0.000 
#    0.000    0.000    0.000    6.500    0.000    0.000 
#
# Total GULP energy -178200.651554 kJ/mol
# GULP energy per Si atom -5568.770361 kJ/mol
# Density = 1.794167 g / cm^3
# Si number density = 17.982595 Si / 1000 Ang^3
#
#
#
# Elastic Constant Matrix: (Units=GPa)
#
#
# Indices 1 2 3 4 5 6 
#
# 1 31.7427 19.0645 18.7932 0.0001 -0.1590 0.0001
# 2 19.0645 88.4648 19.7574 0.0001 -7.9114 0.0001
# 3 18.7932 19.7574 97.3164 0.0000 6.3302 0.0001
# 4 0.0001 0.0001 0.0000 24.2155 0.0002 7.4233
# 5 -0.1590 -7.9114 6.3302 0.0002 29.3047 0.0001
# 6 0.0001 0.0001 0.0001 7.4233 0.0001 14.2284
#
#
#
# Elastic Compliance Matrix: (Units=1/GPa)
#
#
# Indices 1 2 3 4 5 6 
#
# 1 0.039436 -0.007164 -0.006136 0.000000 -0.000395 0.000000
# 2 -0.007164 0.013567 -0.001630 0.000000 0.003976 0.000000
# 3 -0.006136 -0.001630 0.011991 0.000000 -0.003063 0.000000
# 4 0.000000 0.000000 0.000000 0.049158 0.000000 -0.025647
# 5 -0.000395 0.003976 -0.003063 0.000000 0.035857 0.000000
# 6 0.000000 0.000000 0.000000 -0.025647 0.000000 0.083663
#
#
# Mechanical properties :
#
#
# Convention : Reuss Voigt Hill
#
# Bulk Modulus (GPa) = 28.46052 36.97269 32.71660
# Shear Modulus (GPa) = 18.16578 24.21029 21.18803
#
# Velocity S-wave (km/s) = 3.18179 3.67320 3.43629
# Velocity P-wave (km/s) = 5.41844 6.21247 5.82899
#
# Compressibility (1/GPa) = 0.03513640
#
# Stress axis : x y z
#
# Youngs Moduli (GPa) = 25.35726 73.70679 83.39745
#
# Poissons Ratio (x) = 0.52801 0.51170
# Poissons Ratio (y) = 0.18165 0.13591
# Poissons Ratio (z) = 0.15558 0.12012
#
# Static dielectric constant tensor:
#      x y z
#    x 1.635710 0.000000 -0.001730 
#    y 0.000000 1.755200 0.000000 
#    z -0.001730 0.000000 1.662410 
# 
# From -- ./inp_files/328650.got.cif
#   From: 2010.05.17/outbox.cif.g08.bks.cpg/sg12_165_cif.got.tgz:328650.got - 2010.06.03 13:09:07.
