data_PCOD9172299
_publ_section_title
;
Structure prediction by ZEFSAII (Michael W. Deem and Ramdas Pophale) SiO2 
 PCOD9172299
Probable space group: C 2/M
;
_chemical_formula_sum "Si O2"
_cell_formula_units_Z 56
_cell_length_a 24.337026
_cell_length_b 8.261254
_cell_length_c 15.655130
_cell_angle_alpha 90.000000
_cell_angle_beta 136.694413
_cell_angle_gamma 90.000000
_cell_volume 2158.858597
_symmetry_space_group_name_H-M "C 2/M"
_symmetry_group_IT_number 12
_symmetry_cell_setting 'monoclinic'
loop_
_space_group_symop_operation_xyz
x,y,z
-x,y,-z
-x,-y,-z
x,-y,z
1/2+x,1/2+y,z
1/2-x,1/2+y,-z
1/2-x,1/2-y,-z
1/2+x,1/2-y,z
loop_
_atom_site_type_symbol
_atom_site_label
_atom_site_fract_x
_atom_site_fract_y
_atom_site_fract_z
Si Si1 0.096439 0.187106 0.126350
Si Si2 0.799998 0.303880 0.474900
Si Si3 0.943448 0.309841 0.742357
Si Si4 0.034702 0.814207 0.444656
Si Si5 0.878470 0.306816 0.026922
Si Si6 0.362048 0.692588 0.187618
Si Si7 0.305382 0.814758 0.302822
O O1 0.103256 0.285029 0.221838
O O2 0.113763 0.000000 0.164698
O O3 0.140977 0.236220 0.088580
O O4 0.000000 0.202691 0.000000
O O5 0.798883 0.500000 0.471137
O O6 0.750000 0.250000 0.500000
O O7 0.890148 0.246137 0.604002
O O8 0.765396 0.244913 0.344745
O O9 0.953927 0.500000 0.739899
O O10 0.031423 0.239006 0.854740
O O11 0.106117 0.693157 0.552742
O O12 0.000000 0.841125 0.500000
O O13 0.954567 0.749409 0.306493
O O14 0.057307 0.000000 0.443946
O O15 0.878694 0.500000 0.017045
O O16 0.834530 0.264930 0.065580
O O17 0.363971 0.500000 0.181476
O O18 0.313344 0.731677 0.219633
O O19 0.283008 0.000000 0.262149
#
# Coordination Sequence:
#
# PCOD9172299 Si02
#       7
#     8   8   8   8   8   8   8
#     4   9  17  29  46  71 101 131 163 198 237 285
#     4  10  22  37  52  71  94 123 165 212 251 290
#     4   9  18  33  50  70  98 131 166 204 245 286
#     4   8  15  26  39  59  88 121 154 186 225 275
#     4  10  18  29  48  73 102 135 165 195 235 285
#     4  10  19  29  42  65  97 129 159 192 233 285
#     4  10  19  31  46  65  90 121 159 200 240 286
#
# _framework density 25.939630000000001
#
# number of rings (size 3 to 8) (size 9 to 14) (size 15 to 20)
#    0.000    2.571    0.000    3.429    0.000    8.286 
#    0.000    0.000    0.000    0.000    0.000    1.000 
#    0.000    0.000    0.000    0.000    0.000    0.000 
#
# Total GULP energy -156265.408245 kJ/mol
# GULP energy per Si atom -5580.907437 kJ/mol
# Density = 2.588059 g / cm^3
# Si number density = 25.939630 Si / 1000 Ang^3
#
#
#
# Elastic Constant Matrix: (Units=GPa)
#
#
# Indices 1 2 3 4 5 6 
#
# 1 83.6048 4.3321 20.2164 0.0000 -19.0549 0.0000
# 2 4.3321 54.7888 14.0820 0.0000 -10.6957 0.0000
# 3 20.2164 14.0820 167.8307 0.0000 -34.6879 0.0000
# 4 0.0000 0.0000 0.0000 13.6384 0.0000 -18.1957
# 5 -19.0549 -10.6957 -34.6879 0.0000 52.3276 0.0000
# 6 0.0000 0.0000 0.0000 -18.1957 0.0000 33.2495
#
#
#
# Elastic Compliance Matrix: (Units=1/GPa)
#
#
# Indices 1 2 3 4 5 6 
#
# 1 0.013112 -0.000018 -0.000686 0.000000 0.004316 0.000000
# 2 -0.000018 0.019133 -0.000923 0.000000 0.003293 0.000000
# 3 -0.000686 -0.000923 0.006985 0.000000 0.004192 0.000000
# 4 0.000000 0.000000 0.000000 0.271670 0.000000 0.148670
# 5 0.004316 0.003293 0.004192 0.000000 0.024134 0.000000
# 6 0.000000 0.000000 0.000000 0.148670 0.000000 0.111435
#
#
# Mechanical properties :
#
#
# Convention : Reuss Voigt Hill
#
# Bulk Modulus (GPa) = 27.79560 42.60947 35.20253
# Shear Modulus (GPa) = 10.82923 37.68271 24.25597
#
# Velocity S-wave (km/s) = 2.04544 3.81558 3.06125
# Velocity P-wave (km/s) = 4.03946 5.98945 5.10836
#
# Compressibility (1/GPa) = 0.03597691
#
# Stress axis : x y z
#
# Youngs Moduli (GPa) = 76.26870 52.26508 143.16785
#
# Poissons Ratio (x) = 0.00093 0.09818
# Poissons Ratio (y) = 0.00136 0.13210
# Poissons Ratio (z) = 0.05230 0.04823
#
# Static dielectric constant tensor:
#      x y z
#    x 2.927600 0.000000 0.117320 
#    y 0.000000 1.953070 0.000000 
#    z 0.117320 0.000000 2.128730 
# 
# From -- ./inp_files/238968.got.cif
#   From: 2010.05.17/outbox.cif.g08.bks.cpg/sg12_120_cif.got.tgz:238968.got - 2010.06.03 13:09:07.
