data_PCOD9172784
_publ_section_title
;
Structure prediction by ZEFSAII (Michael W. Deem and Ramdas Pophale) SiO2 
 PCOD9172784
Probable space group: C 2/M
;
_chemical_formula_sum "Si O2"
_cell_formula_units_Z 48
_cell_length_a 21.316874
_cell_length_b 19.467929
_cell_length_c 20.492602
_cell_angle_alpha 90.000000
_cell_angle_beta 159.312327
_cell_angle_gamma 90.000000
_cell_volume 3004.356976
_symmetry_space_group_name_H-M "C 2/M"
_symmetry_group_IT_number 12
_symmetry_cell_setting 'monoclinic'
loop_
_space_group_symop_operation_xyz
x,y,z
-x,y,-z
-x,-y,-z
x,-y,z
1/2+x,1/2+y,z
1/2-x,1/2+y,-z
1/2-x,1/2-y,-z
1/2+x,1/2-y,z
loop_
_atom_site_type_symbol
_atom_site_label
_atom_site_fract_x
_atom_site_fract_y
_atom_site_fract_z
Si Si1 0.068045 0.500000 0.325673
Si Si2 0.768194 0.500000 0.935347
Si Si3 0.000000 0.654066 0.000000
Si Si4 0.884013 0.000000 0.532309
Si Si5 0.118705 0.348372 0.372844
Si Si6 0.951318 0.208870 0.624657
Si Si7 0.153852 0.347337 0.015344
Si Si8 0.648001 0.629616 0.589941
O O1 0.204217 0.500000 0.397265
O O2 0.099388 0.424262 0.385169
O O3 0.873468 0.500000 0.105338
O O4 0.559663 0.500000 0.746329
O O5 0.818581 0.429602 0.947376
O O6 0.910480 0.686469 0.978775
O O7 0.835399 0.616730 0.806115
O O8 0.892676 0.066227 0.495882
O O9 0.061083 0.287070 0.364139
O O10 0.321037 0.333793 0.546473
O O11 0.992079 0.342926 0.184793
O O12 0.865002 0.195509 0.469663
O O13 0.154887 0.182783 0.820117
O O14 0.500000 0.635951 0.500000
#
# Coordination Sequence:
#
# PCOD9172784 Si02
#       8
#     4   4   4   4   8   8   8   8
#     4  10  18  33  51  74 100 128 164 209 244 294
#     4  10  18  30  48  67 100 137 168 198 234 278
#     4  12  22  33  46  70 102 135 172 204 242 289
#     4  12  19  33  47  70 100 141 170 199 232 285
#     4  10  21  34  53  72  99 132 167 206 253 292
#     4  11  20  35  51  72  98 135 167 207 249 293
#     4  11  20  33  48  72 101 133 169 204 241 291
#     4  12  22  33  49  70 104 136 171 204 240 289
#
# _framework density 15.976796
#
# number of rings (size 3 to 8) (size 9 to 14) (size 15 to 20)
#    0.000    1.000    6.667    1.750    0.000    1.333 
#    0.000    0.000    0.000    0.000    0.000    0.583 
#    0.000    1.333    0.000    0.000    0.000    0.000 
#
# Total GULP energy -133664.603944 kJ/mol
# GULP energy per Si atom -5569.358498 kJ/mol
# Density = 1.594043 g / cm^3
# Si number density = 15.976796 Si / 1000 Ang^3
#
#
#
# Elastic Constant Matrix: (Units=GPa)
#
#
# Indices 1 2 3 4 5 6 
#
# 1 59.5272 43.3491 22.9213 -0.0016 11.9061 0.0000
# 2 43.3491 114.2934 33.9299 0.0036 0.0441 0.0019
# 3 22.9213 33.9299 93.9681 0.0078 18.4498 0.0007
# 4 -0.0016 0.0036 0.0078 23.9569 -0.0002 -6.2795
# 5 11.9061 0.0441 18.4498 -0.0002 23.4937 0.0009
# 6 0.0000 0.0019 0.0007 -6.2795 0.0009 12.4999
#
#
#
# Elastic Compliance Matrix: (Units=1/GPa)
#
#
# Indices 1 2 3 4 5 6 
#
# 1 0.026982 -0.010145 -0.000281 0.000005 -0.013435 0.000005
# 2 -0.010145 0.013831 -0.004166 -0.000002 0.008387 -0.000004
# 3 -0.000281 -0.004166 0.014406 -0.000005 -0.011163 -0.000002
# 4 0.000005 -0.000002 -0.000005 0.048072 0.000001 0.024150
# 5 -0.013435 0.008387 -0.011163 0.000001 0.058124 -0.000004
# 6 0.000005 -0.000004 -0.000002 0.024150 -0.000004 0.092133
#
#
# Mechanical properties :
#
#
# Convention : Reuss Voigt Hill
#
# Bulk Modulus (GPa) = 38.40904 52.02102 45.21503
# Shear Modulus (GPa) = 17.15791 23.16265 20.16028
#
# Velocity S-wave (km/s) = 3.28064 3.81171 3.55610
# Velocity P-wave (km/s) = 6.20023 7.21133 6.72481
#
# Compressibility (1/GPa) = 0.02603554
#
# Stress axis : x y z
#
# Youngs Moduli (GPa) = 37.06146 72.30224 69.41314
#
# Poissons Ratio (x) = 0.73353 0.01948
# Poissons Ratio (y) = 0.37600 0.28918
# Poissons Ratio (z) = 0.01040 0.30121
#
# Static dielectric constant tensor:
#      x y z
#    x 1.536730 0.000000 0.011580 
#    y 0.000000 1.564830 0.000000 
#    z 0.011580 0.000000 1.569050 
# 
# From -- ./inp_files/317965.got.cif
#   From: 2010.05.17/outbox.cif.g08.bks.cpg/sg12_159_cif.got.tgz:317965.got - 2010.06.03 13:09:07.
