data_PCOD9172770
_publ_section_title
;
Structure prediction by ZEFSAII (Michael W. Deem and Ramdas Pophale) SiO2 
 PCOD9172770
Probable space group: C 2/M
;
_chemical_formula_sum "Si O2"
_cell_formula_units_Z 64
_cell_length_a 17.508096
_cell_length_b 13.947729
_cell_length_c 13.417346
_cell_angle_alpha 90.000000
_cell_angle_beta 63.434320
_cell_angle_gamma 90.000000
_cell_volume 2930.566963
_symmetry_space_group_name_H-M "C 2/M"
_symmetry_group_IT_number 12
_symmetry_cell_setting 'monoclinic'
loop_
_space_group_symop_operation_xyz
x,y,z
-x,y,-z
-x,-y,-z
x,-y,z
1/2+x,1/2+y,z
1/2-x,1/2+y,-z
1/2-x,1/2-y,-z
1/2+x,1/2-y,z
loop_
_atom_site_type_symbol
_atom_site_label
_atom_site_fract_x
_atom_site_fract_y
_atom_site_fract_z
Si Si1 0.660215 0.614241 0.514448
Si Si2 0.846214 0.609722 0.327001
Si Si3 0.602868 0.896766 0.934789
Si Si4 0.485402 0.388381 0.861845
Si Si5 0.420241 0.895084 0.619967
Si Si6 0.521673 0.739156 0.655660
Si Si7 0.267345 0.389461 0.309663
Si Si8 0.867210 0.810645 0.079022
O O1 0.643779 0.500000 0.512457
O O2 0.747518 0.637434 0.404699
O O3 0.578347 0.680422 0.541884
O O4 0.682429 0.633348 0.618572
O O5 0.856378 0.500000 0.359933
O O6 0.867294 0.607403 0.197574
O O7 0.912598 0.682272 0.337403
O O8 0.634719 0.797244 0.960485
O O9 0.630446 0.000000 0.961016
O O10 0.500000 0.894202 0.000000
O O11 0.508482 0.500000 0.845816
O O12 0.489879 0.339516 0.752734
O O13 0.555297 0.330426 0.886963
O O14 0.395099 0.376558 0.970812
O O15 0.500000 0.899333 0.500000
O O16 0.440996 0.802896 0.672550
O O17 0.332807 0.882987 0.611297
O O18 0.414799 0.000000 0.675197
O O19 0.287992 0.500000 0.274725
O O20 0.288454 0.332771 0.196766
#
# Coordination Sequence:
#
# PCOD9172770 Si02
#       8
#     8   8   8   8   8   8   8   8
#     4  10  20  33  55  86 116 145 187 243 294 343
#     4  10  19  30  46  74 109 144 183 232 284 339
#     4  10  18  30  47  74 114 152 184 224 278 344
#     4  11  21  33  55  88 118 145 188 243 296 348
#     4  10  23  41  59  83 116 158 201 240 288 351
#     4  12  20  34  56  84 116 151 189 238 294 349
#     4  10  19  35  58  84 116 151 194 244 292 344
#     4  11  18  34  56  85 116 153 191 237 296 344
#
# _framework density 21.838778000000001
#
# number of rings (size 3 to 8) (size 9 to 14) (size 15 to 20)
#    0.000    1.500    3.750    3.375    0.000    3.000 
#    0.000    1.250    0.000    3.000    0.000    0.000 
#    0.000    0.000    0.000    0.000    0.000    0.000 
#
# Total GULP energy -178650.734217 kJ/mol
# GULP energy per Si atom -5582.835444 kJ/mol
# Density = 2.178907 g / cm^3
# Si number density = 21.838778 Si / 1000 Ang^3
#
#
#
# Elastic Constant Matrix: (Units=GPa)
#
#
# Indices 1 2 3 4 5 6 
#
# 1 35.4476 19.2515 1.2300 0.0000 -8.8890 0.0000
# 2 19.2515 124.8669 8.7915 0.0000 1.7238 0.0000
# 3 1.2300 8.7915 98.1562 0.0000 -22.0430 0.0000
# 4 0.0000 0.0000 0.0000 41.9804 0.0000 -4.9198
# 5 -8.8890 1.7238 -22.0430 0.0000 13.6597 0.0000
# 6 0.0000 0.0000 0.0000 -4.9198 0.0000 15.9679
#
#
#
# Elastic Compliance Matrix: (Units=1/GPa)
#
#
# Indices 1 2 3 4 5 6 
#
# 1 0.044107 -0.008208 0.010760 0.000000 0.047103 0.000000
# 2 -0.008208 0.009690 -0.003512 0.000000 -0.012232 0.000000
# 3 0.010760 -0.003512 0.018883 0.000000 0.037917 0.000000
# 4 0.000000 0.000000 0.000000 0.024713 0.000000 0.007614
# 5 0.047103 -0.012232 0.037917 0.000000 0.166592 0.000000
# 6 0.000000 0.000000 0.000000 0.007614 0.000000 0.064972
#
#
# Mechanical properties :
#
#
# Convention : Reuss Voigt Hill
#
# Bulk Modulus (GPa) = 14.13226 35.22410 24.67818
# Shear Modulus (GPa) = 14.10589 29.60142 21.85366
#
# Velocity S-wave (km/s) = 2.54423 3.68564 3.16679
# Velocity P-wave (km/s) = 3.88794 5.85458 4.96951
#
# Compressibility (1/GPa) = 0.07076010
#
# Stress axis : x y z
#
# Youngs Moduli (GPa) = 22.67230 103.19770 52.95885
#
# Poissons Ratio (x) = 0.84705 -0.56985
# Poissons Ratio (y) = 0.18610 0.18599
# Poissons Ratio (z) = -0.24396 0.36242
#
# Static dielectric constant tensor:
#      x y z
#    x 1.805240 0.000000 -0.017100 
#    y 0.000000 1.866190 0.000000 
#    z -0.017100 0.000000 1.843380 
# 
# From -- ./inp_files/225264.got.cif
#   From: 2010.05.17/outbox.cif.g08.bks.cpg/sg12_113_cif.got.tgz:225264.got - 2010.06.03 13:09:07.
