data_PCOD9172988
_publ_section_title
;
Structure prediction by ZEFSAII (Michael W. Deem and Ramdas Pophale) SiO2 
 PCOD9172988
Probable space group: C 2/M
;
_chemical_formula_sum "Si O2"
_cell_formula_units_Z 60
_cell_length_a 22.884149
_cell_length_b 12.972142
_cell_length_c 28.752658
_cell_angle_alpha 90.000000
_cell_angle_beta 19.757217
_cell_angle_gamma 90.000000
_cell_volume 2885.270071
_symmetry_space_group_name_H-M "C 2/M"
_symmetry_group_IT_number 12
_symmetry_cell_setting 'monoclinic'
loop_
_space_group_symop_operation_xyz
x,y,z
-x,y,-z
-x,-y,-z
x,-y,z
1/2+x,1/2+y,z
1/2-x,1/2+y,-z
1/2-x,1/2-y,-z
1/2+x,1/2-y,z
loop_
_atom_site_type_symbol
_atom_site_label
_atom_site_fract_x
_atom_site_fract_y
_atom_site_fract_z
Si Si1 0.053081 0.624895 0.710096
Si Si2 0.363168 0.228249 0.255572
Si Si3 0.500000 0.709006 0.500000
Si Si4 0.984843 0.379602 0.076369
Si Si5 0.318747 0.624458 0.873396
Si Si6 0.378176 0.625220 0.413004
Si Si7 0.632655 0.622707 0.304502
Si Si8 0.819212 0.122576 0.980315
O O1 0.064122 0.500000 0.708464
O O2 0.125698 0.680134 0.701725
O O3 0.179598 0.652127 0.572436
O O4 0.847837 0.647745 0.862997
O O5 0.173032 0.268627 0.385097
O O6 0.404381 0.137003 0.188122
O O7 0.507208 0.315249 0.139831
O O8 0.548261 0.644082 0.417961
O O9 0.001060 0.500000 0.053318
O O10 0.832120 0.336994 0.157605
O O11 0.178123 0.338678 0.940858
O O12 0.310493 0.500000 0.876875
O O13 0.514269 0.653584 0.713623
O O14 0.272457 0.647269 0.961344
O O15 0.378400 0.500000 0.413435
O O16 0.501675 0.660720 0.363046
O O17 0.646365 0.500000 0.287495
O O18 0.849163 0.000000 0.960738
#
# Coordination Sequence:
#
# PCOD9172988 Si02
#       8
#     8   8   4   8   8   8   8   8
#     4  10  18  30  49  74 100 126 154 189 230 282
#     4  11  19  31  51  71  94 124 160 199 239 280
#     4  10  19  28  45  70  96 120 154 202 238 282
#     4   9  17  27  44  70  98 129 163 190 226 282
#     4   9  17  30  45  66  95 130 161 191 227 278
#     4   9  17  28  44  67 101 131 155 186 228 275
#     4   9  16  25  40  66  98 133 158 183 224 278
#     4  10  21  35  51  68  92 126 166 201 237 279
#
# _framework density 20.795280000000002
#
# number of rings (size 3 to 8) (size 9 to 14) (size 15 to 20)
#    0.000    2.400    2.667    1.000    0.000    1.600 
#    0.000    3.667    0.000    0.000    0.000    0.000 
#    0.000    0.000    0.000   12.267    0.000    0.133 
#
# Total GULP energy -167283.083444 kJ/mol
# GULP energy per Si atom -5576.102781 kJ/mol
# Density = 2.074795 g / cm^3
# Si number density = 20.795280 Si / 1000 Ang^3
#
#
#
# Elastic Constant Matrix: (Units=GPa)
#
#
# Indices 1 2 3 4 5 6 
#
# 1 58.2696 12.8910 32.1521 -0.0004 -7.8803 -0.0026
# 2 12.8910 53.8670 36.4444 -0.0088 -7.3494 0.0024
# 3 32.1521 36.4444 181.8592 0.0001 -16.9485 0.0073
# 4 -0.0004 -0.0088 0.0001 34.1170 0.0078 -2.2319
# 5 -7.8803 -7.3494 -16.9485 0.0078 44.2003 -0.0012
# 6 -0.0026 0.0024 0.0073 -2.2319 -0.0012 12.6090
#
#
#
# Elastic Compliance Matrix: (Units=1/GPa)
#
#
# Indices 1 2 3 4 5 6 
#
# 1 0.019513 -0.002532 -0.002756 0.000000 0.002001 0.000006
# 2 -0.002532 0.021975 -0.003793 0.000005 0.001748 -0.000001
# 3 -0.002756 -0.003793 0.006888 -0.000002 0.001519 -0.000004
# 4 0.000000 0.000005 -0.000002 0.029654 -0.000005 0.005249
# 5 0.002001 0.001748 0.001519 -0.000005 0.023854 0.000001
# 6 0.000006 -0.000001 -0.000004 0.005249 0.000001 0.080237
#
#
# Mechanical properties :
#
#
# Convention : Reuss Voigt Hill
#
# Bulk Modulus (GPa) = 33.09799 50.77454 41.93626
# Shear Modulus (GPa) = 23.76930 32.35248 28.06089
#
# Velocity S-wave (km/s) = 3.38452 3.94859 3.67739
# Velocity P-wave (km/s) = 5.58784 6.72740 6.18392
#
# Compressibility (1/GPa) = 0.03021331
#
# Stress axis : x y z
#
# Youngs Moduli (GPa) = 51.24765 45.50623 145.18610
#
# Poissons Ratio (x) = 0.11523 0.40012
# Poissons Ratio (y) = 0.12977 0.55072
# Poissons Ratio (z) = 0.14123 0.17261
#
# Static dielectric constant tensor:
#      x y z
#    x 1.760620 0.000000 -0.004790 
#    y 0.000000 1.780880 0.000010 
#    z -0.004790 0.000010 1.853530 
# 
# From -- ./inp_files/325561.got.cif
#   From: 2010.05.17/outbox.cif.g08.bks.cpg/sg12_163_cif.got.tgz:325561.got - 2010.06.03 13:09:07.
