data_PCOD9172968
_publ_section_title
;
Structure prediction by ZEFSAII (Michael W. Deem and Ramdas Pophale) SiO2 
 PCOD9172968
Probable space group: C 2/M
;
_chemical_formula_sum "Si O2"
_cell_formula_units_Z 48
_cell_length_a 30.931215
_cell_length_b 9.138106
_cell_length_c 16.946784
_cell_angle_alpha 90.000000
_cell_angle_beta 36.295621
_cell_angle_gamma 90.000000
_cell_volume 2835.480406
_symmetry_space_group_name_H-M "C 2/M"
_symmetry_group_IT_number 12
_symmetry_cell_setting 'monoclinic'
loop_
_space_group_symop_operation_xyz
x,y,z
-x,y,-z
-x,-y,-z
x,-y,z
1/2+x,1/2+y,z
1/2-x,1/2+y,-z
1/2-x,1/2-y,-z
1/2+x,1/2-y,z
loop_
_atom_site_type_symbol
_atom_site_label
_atom_site_fract_x
_atom_site_fract_y
_atom_site_fract_z
Si Si1 0.043681 0.172412 0.353402
Si Si2 0.637576 0.331310 0.637016
Si Si3 0.272161 0.827169 0.721727
Si Si4 0.299983 0.824115 0.860776
Si Si5 0.070298 0.673829 0.591654
Si Si6 0.797168 0.331937 0.317216
O O1 0.119115 0.258765 0.250277
O O2 0.000000 0.186507 0.500000
O O3 0.994029 0.242123 0.358159
O O4 0.056564 0.000000 0.320100
O O5 0.614455 0.500000 0.676049
O O6 0.586163 0.238531 0.654841
O O7 0.717729 0.329352 0.477402
O O8 0.649599 0.259746 0.704698
O O9 0.270625 0.789626 0.816021
O O10 0.354783 0.802217 0.568403
O O11 0.217775 0.737974 0.745895
O O12 0.257622 0.000000 0.733417
O O13 0.301451 0.000000 0.866662
O O14 0.250000 0.750000 0.000000
O O15 0.057012 0.500000 0.613869
O O16 0.820390 0.500000 0.277729
#
# Coordination Sequence:
#
# PCOD9172968 Si02
#       6
#     8   8   8   8   8   8
#     4  11  22  35  54  79 106 138 178 220 265 317
#     4   9  16  26  40  64  99 133 166 207 257 308
#     4   9  18  31  48  70  99 135 172 212 261 312
#     4  11  23  39  56  77 106 141 180 222 268 315
#     4  10  18  30  49  73 102 135 173 214 261 312
#     4   9  16  25  41  65  95 131 169 208 254 307
#
# _framework density 16.928348
#
# number of rings (size 3 to 8) (size 9 to 14) (size 15 to 20)
#    0.000    2.167    1.667    2.500    0.000    6.667 
#    0.000    0.000    0.000    0.000    0.000    1.167 
#    0.000    9.333    0.000    0.000    0.000    0.000 
#
# Total GULP energy -133896.360433 kJ/mol
# GULP energy per Si atom -5579.015018 kJ/mol
# Density = 1.688982 g / cm^3
# Si number density = 16.928348 Si / 1000 Ang^3
#
#
#
# Elastic Constant Matrix: (Units=GPa)
#
#
# Indices 1 2 3 4 5 6 
#
# 1 150.9429 87.6880 44.5378 -0.0006 32.0797 0.0003
# 2 87.6880 114.4499 46.7934 -0.0014 21.5579 0.0009
# 3 44.5378 46.7934 52.7903 -0.0008 14.7929 0.0004
# 4 -0.0006 -0.0014 -0.0008 19.3908 0.0008 2.1120
# 5 32.0797 21.5579 14.7929 0.0008 16.5927 -0.0004
# 6 0.0003 0.0009 0.0004 2.1120 -0.0004 37.1406
#
#
#
# Elastic Compliance Matrix: (Units=1/GPa)
#
#
# Indices 1 2 3 4 5 6 
#
# 1 0.015532 -0.008064 -0.000636 0.000001 -0.018985 0.000000
# 2 -0.008064 0.019059 -0.010024 0.000001 -0.000233 0.000000
# 3 -0.000636 -0.010024 0.032487 0.000001 -0.014709 0.000000
# 4 0.000001 0.000001 0.000001 0.051892 -0.000006 -0.002951
# 5 -0.018985 -0.000233 -0.014709 -0.000006 0.110390 0.000002
# 6 0.000000 0.000000 0.000000 -0.002951 0.000002 0.027092
#
#
# Mechanical properties :
#
#
# Convention : Reuss Voigt Hill
#
# Bulk Modulus (GPa) = 33.75156 75.13572 54.44364
# Shear Modulus (GPa) = 16.45937 23.90242 20.18090
#
# Velocity S-wave (km/s) = 3.12155 3.76170 3.45648
# Velocity P-wave (km/s) = 5.74224 7.95915 6.93979
#
# Compressibility (1/GPa) = 0.02962826
#
# Stress axis : x y z
#
# Youngs Moduli (GPa) = 64.38125 52.46970 30.78155
#
# Poissons Ratio (x) = 0.42313 0.01958
# Poissons Ratio (y) = 0.51919 0.30857
# Poissons Ratio (z) = 0.04095 0.52598
#
# Static dielectric constant tensor:
#      x y z
#    x 1.556860 0.000000 0.007860 
#    y 0.000000 1.562380 0.000000 
#    z 0.007860 0.000000 1.552700 
# 
# From -- ./inp_files/230409.got.cif
#   From: 2010.05.17/outbox.cif.g08.bks.cpg/sg12_116_cif.got.tgz:230409.got - 2010.06.03 13:09:07.
