data_PCOD9172531
_publ_section_title
;
Structure prediction by ZEFSAII (Michael W. Deem and Ramdas Pophale) SiO2 
 PCOD9172531
Probable space group: C 2/M
;
_chemical_formula_sum "Si O2"
_cell_formula_units_Z 56
_cell_length_a 32.714506
_cell_length_b 16.338762
_cell_length_c 8.996725
_cell_angle_alpha 90.000000
_cell_angle_beta 34.895599
_cell_angle_gamma 90.000000
_cell_volume 2751.078014
_symmetry_space_group_name_H-M "C 2/M"
_symmetry_group_IT_number 12
_symmetry_cell_setting 'monoclinic'
loop_
_space_group_symop_operation_xyz
x,y,z
-x,y,-z
-x,-y,-z
x,-y,z
1/2+x,1/2+y,z
1/2-x,1/2+y,-z
1/2-x,1/2-y,-z
1/2+x,1/2-y,z
loop_
_atom_site_type_symbol
_atom_site_label
_atom_site_fract_x
_atom_site_fract_y
_atom_site_fract_z
Si Si1 0.584919 0.091097 0.719341
Si Si2 0.710025 0.682714 0.432832
Si Si3 0.133597 0.753201 0.397842
Si Si4 0.084487 0.765133 0.222322
Si Si5 0.616811 0.590376 0.936288
Si Si6 0.342811 0.161808 0.222755
Si Si7 0.463741 0.588096 0.268862
O O1 0.610683 0.168981 0.546556
O O2 0.626409 0.097422 0.753298
O O3 0.597435 0.000000 0.617732
O O4 0.500000 0.100100 0.000000
O O5 0.700736 0.707451 0.288174
O O6 0.693452 0.767846 0.567354
O O7 0.782790 0.643692 0.278090
O O8 0.649364 0.623361 0.684180
O O9 0.126650 0.737935 0.243504
O O10 0.078264 0.828596 0.584920
O O11 0.127333 0.844842 0.035411
O O12 0.000000 0.777297 0.500000
O O13 0.092741 0.701785 0.062138
O O14 0.644749 0.500000 0.883953
O O15 0.531488 0.587529 0.175466
O O16 0.424745 0.500000 0.403527
O O17 0.500000 0.588082 0.000000
#
# Coordination Sequence:
#
# PCOD9172531 Si02
#       7
#     8   8   8   8   8   8   8
#     4  10  21  37  60  83 103 141 199 255 298 335
#     4   9  19  35  57  78 104 153 191 235 283 334
#     4  11  20  33  56  83 119 153 190 238 291 353
#     4  11  21  33  53  84 117 160 185 230 297 351
#     4  10  20  33  52  82 118 153 193 230 277 347
#     4   9  20  38  56  79 109 140 194 238 285 346
#     4  10  18  29  50  84 118 152 191 233 276 333
#
# _framework density 20.355657000000001
#
# number of rings (size 3 to 8) (size 9 to 14) (size 15 to 20)
#    0.000    2.000    2.857    1.286    2.000    2.000 
#    0.000    0.714    0.000    2.571    0.000    2.000 
#    0.000    0.000    0.000    0.000    0.000    0.000 
#
# Total GULP energy -155894.299444 kJ/mol
# GULP energy per Si atom -5567.653552 kJ/mol
# Density = 2.030933 g / cm^3
# Si number density = 20.355657 Si / 1000 Ang^3
#
#
#
# Elastic Constant Matrix: (Units=GPa)
#
#
# Indices 1 2 3 4 5 6 
#
# 1 108.2841 22.1071 14.3982 0.0000 8.0134 0.0000
# 2 22.1071 116.2970 7.6736 0.0000 1.6492 0.0000
# 3 14.3982 7.6736 21.9879 0.0000 -4.1310 0.0000
# 4 0.0000 0.0000 0.0000 230.6652 0.0000 -85.2163
# 5 8.0134 1.6492 -4.1310 0.0000 30.2758 0.0000
# 6 0.0000 0.0000 0.0000 -85.2163 0.0000 45.1507
#
#
#
# Elastic Compliance Matrix: (Units=1/GPa)
#
#
# Indices 1 2 3 4 5 6 
#
# 1 0.010786 -0.001519 -0.007239 0.000000 -0.003760 0.000000
# 2 -0.001519 0.009041 -0.002234 0.000000 -0.000395 0.000000
# 3 -0.007239 -0.002234 0.052734 0.000000 0.009233 0.000000
# 4 0.000000 0.000000 0.000000 0.014320 0.000000 0.027028
# 5 -0.003760 -0.000395 0.009233 0.000000 0.035306 0.000000
# 6 0.000000 0.000000 0.000000 0.027028 0.000000 0.073160
#
#
# Mechanical properties :
#
#
# Convention : Reuss Voigt Hill
#
# Bulk Modulus (GPa) = 19.77250 37.21410 28.49330
# Shear Modulus (GPa) = 21.35004 74.71102 48.03053
#
# Velocity S-wave (km/s) = 3.24211 6.06486 4.86281
# Velocity P-wave (km/s) = 4.87336 8.20762 6.74962
#
# Compressibility (1/GPa) = 0.05057529
#
# Stress axis : x y z
#
# Youngs Moduli (GPa) = 92.71329 110.61303 18.96294
#
# Poissons Ratio (x) = 0.16806 0.13727
# Poissons Ratio (y) = 0.14086 0.04237
# Poissons Ratio (z) = 0.67115 0.24716
#
# Static dielectric constant tensor:
#      x y z
#    x 1.797590 0.000000 -0.021470 
#    y 0.000000 1.743950 0.000000 
#    z -0.021470 0.000000 1.749860 
# 
# From -- ./inp_files/112595.got.cif
#   From: 2010.05.17/outbox.cif.g08.bks.cpg/sg12_57_cif.got.tgz:112595.got - 2010.06.03 13:09:07.
