data_PCOD9172575
_publ_section_title
;
Structure prediction by ZEFSAII (Michael W. Deem and Ramdas Pophale) SiO2 
 PCOD9172575
Probable space group: C 2/M
;
_chemical_formula_sum "Si O2"
_cell_formula_units_Z 56
_cell_length_a 22.167092
_cell_length_b 16.201483
_cell_length_c 9.111659
_cell_angle_alpha 90.000000
_cell_angle_beta 116.889283
_cell_angle_gamma 90.000000
_cell_volume 2918.558607
_symmetry_space_group_name_H-M "C 2/M"
_symmetry_group_IT_number 12
_symmetry_cell_setting 'monoclinic'
loop_
_space_group_symop_operation_xyz
x,y,z
-x,y,-z
-x,-y,-z
x,-y,z
1/2+x,1/2+y,z
1/2-x,1/2+y,-z
1/2-x,1/2-y,-z
1/2+x,1/2-y,z
loop_
_atom_site_type_symbol
_atom_site_label
_atom_site_fract_x
_atom_site_fract_y
_atom_site_fract_z
Si Si1 0.685930 0.263551 0.193029
Si Si2 0.282786 0.592883 0.975835
Si Si3 0.498626 0.910099 0.819176
Si Si4 0.547387 0.263566 0.196732
Si Si5 0.362300 0.844908 0.140353
Si Si6 0.448835 0.596109 0.580925
Si Si7 0.830577 0.197978 0.308971
O O1 0.626456 0.266056 0.244357
O O2 0.760778 0.228136 0.308608
O O3 0.694940 0.355244 0.140097
O O4 0.657855 0.207964 0.026810
O O5 0.307447 0.500000 0.004016
O O6 0.308524 0.642764 0.145418
O O7 0.201735 0.598632 0.893542
O O8 0.462026 0.825175 0.736265
O O9 0.572578 0.896866 0.831732
O O10 0.471009 0.000000 0.743971
O O11 0.500000 0.911018 0.000000
O O12 0.524606 0.342676 0.264171
O O13 0.500000 0.262663 0.000000
O O14 0.367640 0.778005 0.278143
O O15 0.500000 0.598157 0.500000
O O16 0.440095 0.500000 0.613738
O O17 0.379437 0.640680 0.456470
#
# Coordination Sequence:
#
# PCOD9172575 Si02
#       7
#     8   8   8   8   8   8   8
#     4   9  18  33  55  82 109 146 188 227 287 343
#     4   9  17  28  52  83 112 143 185 235 282 336
#     4  10  18  29  52  81 110 140 181 230 279 336
#     4  11  22  39  60  83 118 155 190 238 290 340
#     4   9  15  31  52  80 112 143 178 227 286 341
#     4  11  25  41  59  84 114 155 201 239 284 341
#     4   9  19  35  56  78 110 150 188 237 289 340
#
# _framework density 19.187552
#
# number of rings (size 3 to 8) (size 9 to 14) (size 15 to 20)
#    0.000    2.286    2.857    3.429    2.000    1.429 
#    0.000    0.714    0.000    7.286    0.000    0.000 
#    0.000    0.000    0.000    0.000    0.000    0.000 
#
# Total GULP energy -156053.948680 kJ/mol
# GULP energy per Si atom -5573.355310 kJ/mol
# Density = 1.914388 g / cm^3
# Si number density = 19.187552 Si / 1000 Ang^3
#
#
#
# Elastic Constant Matrix: (Units=GPa)
#
#
# Indices 1 2 3 4 5 6 
#
# 1 84.7576 27.2613 14.9861 0.0000 -3.5249 0.0000
# 2 27.2613 147.6527 39.3209 0.0000 -6.8001 0.0000
# 3 14.9861 39.3209 26.0426 0.0000 6.2595 0.0000
# 4 0.0000 0.0000 0.0000 21.8960 0.0000 1.0202
# 5 -3.5249 -6.8001 6.2595 0.0000 8.6469 0.0000
# 6 0.0000 0.0000 0.0000 1.0202 0.0000 23.3188
#
#
#
# Elastic Compliance Matrix: (Units=1/GPa)
#
#
# Indices 1 2 3 4 5 6 
#
# 1 0.015058 0.003399 -0.019268 0.000000 0.022760 0.000000
# 2 0.003399 0.020258 -0.044437 0.000000 0.049485 0.000000
# 3 -0.019268 -0.044437 0.153591 0.000000 -0.153986 0.000000
# 4 0.000000 0.000000 0.000000 0.045764 0.000000 -0.002002
# 5 0.022760 0.049485 -0.153986 0.000000 0.275314 0.000000
# 6 0.000000 0.000000 0.000000 -0.002002 0.000000 0.042971
#
#
# Mechanical properties :
#
#
# Convention : Reuss Voigt Hill
#
# Bulk Modulus (GPa) = 14.64207 46.84326 30.74267
# Shear Modulus (GPa) = 7.18047 22.56465 14.87256
#
# Velocity S-wave (km/s) = 1.93659 3.43301 2.78711
# Velocity P-wave (km/s) = 3.55642 6.33881 5.13948
#
# Compressibility (1/GPa) = 0.06829635
#
# Stress axis : x y z
#
# Youngs Moduli (GPa) = 66.40792 49.36365 6.51078
#
# Poissons Ratio (x) = -0.16780 0.12545
# Poissons Ratio (y) = -0.22574 0.28932
# Poissons Ratio (z) = 1.27957 2.19356
#
# Static dielectric constant tensor:
#      x y z
#    x 1.677850 0.000000 0.004370 
#    y 0.000000 1.669110 0.000000 
#    z 0.004370 0.000000 1.717390 
# 
# From -- ./inp_files/96455.got.cif
#   From: 2010.05.17/outbox.cif.g08.bks.cpg/sg12_49_cif.got.tgz:96455.got - 2010.06.03 13:09:07.
