data_PCOD9172715
_publ_section_title
;
Structure prediction by ZEFSAII (Michael W. Deem and Ramdas Pophale) SiO2 
 PCOD9172715
Probable space group: C 2/M
;
_chemical_formula_sum "Si O2"
_cell_formula_units_Z 48
_cell_length_a 34.248034
_cell_length_b 7.862677
_cell_length_c 11.079196
_cell_angle_alpha 90.000000
_cell_angle_beta 107.619536
_cell_angle_gamma 90.000000
_cell_volume 2843.459892
_symmetry_space_group_name_H-M "C 2/M"
_symmetry_group_IT_number 12
_symmetry_cell_setting 'monoclinic'
loop_
_space_group_symop_operation_xyz
x,y,z
-x,y,-z
-x,-y,-z
x,-y,z
1/2+x,1/2+y,z
1/2-x,1/2+y,-z
1/2-x,1/2-y,-z
1/2+x,1/2-y,z
loop_
_atom_site_type_symbol
_atom_site_label
_atom_site_fract_x
_atom_site_fract_y
_atom_site_fract_z
Si Si1 0.376379 0.303253 0.817944
Si Si2 0.069324 0.500000 0.047074
Si Si3 0.294433 0.800807 0.422315
Si Si4 0.209486 0.300296 0.305128
Si Si5 0.473903 0.300168 0.597227
Si Si6 0.496450 0.000000 0.797122
Si Si7 0.381548 0.297397 0.538374
O O1 0.389361 0.500000 0.842491
O O2 0.327755 0.287650 0.798757
O O3 0.381033 0.250342 0.680465
O O4 0.402657 0.168191 0.916903
O O5 0.038680 0.500000 0.133283
O O6 0.040142 0.500000 0.903947
O O7 0.256841 0.722234 0.312943
O O8 0.292213 0.731070 0.558173
O O9 0.341822 0.775396 0.433910
O O10 0.285937 0.000000 0.418922
O O11 0.199816 0.500000 0.298940
O O12 0.500000 0.286162 0.500000
O O13 0.474774 0.500000 0.637338
O O14 0.426227 0.253362 0.530662
O O15 0.490616 0.168568 0.711114
O O16 0.376994 0.500000 0.529784
#
# Coordination Sequence:
#
# PCOD9172715 Si02
#       7
#     8   4   8   8   8   4   8
#     4  10  18  30  47  66  97 135 168 200 244 296
#     4  11  22  34  50  76 100 138 174 210 249 300
#     4   9  16  22  35  59  90 127 160 195 235 288
#     4   9  15  24  38  58  90 128 165 196 233 288
#     4  10  21  37  56  76  99 133 169 213 261 305
#     4  11  23  36  54  74 103 131 176 214 254 299
#     4   9  17  28  44  65  93 128 165 198 246 297
#
# _framework density 16.880842999999999
#
# number of rings (size 3 to 8) (size 9 to 14) (size 15 to 20)
#    0.000    2.333    2.500    1.250    2.333    4.667 
#    0.000    1.667    0.000    0.000    0.000    0.000 
#    0.000    1.333    0.667    0.000    0.000    0.000 
#
# Total GULP energy -133648.963925 kJ/mol
# GULP energy per Si atom -5568.706830 kJ/mol
# Density = 1.684242 g / cm^3
# Si number density = 16.880843 Si / 1000 Ang^3
#
#
#
# Elastic Constant Matrix: (Units=GPa)
#
#
# Indices 1 2 3 4 5 6 
#
# 1 110.5610 40.5797 42.3721 0.0000 33.3410 0.0000
# 2 40.5797 83.6386 36.1916 0.0000 18.5041 0.0000
# 3 42.3721 36.1916 41.7006 0.0000 21.3954 0.0000
# 4 0.0000 0.0000 0.0000 13.5357 0.0000 9.3240
# 5 33.3410 18.5041 21.3954 0.0000 27.5652 0.0000
# 6 0.0000 0.0000 0.0000 9.3240 0.0000 24.6745
#
#
#
# Elastic Compliance Matrix: (Units=1/GPa)
#
#
# Indices 1 2 3 4 5 6 
#
# 1 0.016918 -0.001247 -0.010035 0.000000 -0.011837 0.000000
# 2 -0.001247 0.019239 -0.015916 0.000000 0.000947 0.000000
# 3 -0.010035 -0.015916 0.060291 0.000000 -0.023975 0.000000
# 4 0.000000 0.000000 0.000000 0.099877 0.000000 -0.037741
# 5 -0.011837 0.000947 -0.023975 0.000000 0.068567 0.000000
# 6 0.000000 0.000000 0.000000 -0.037741 0.000000 0.054789
#
#
# Mechanical properties :
#
#
# Convention : Reuss Voigt Hill
#
# Bulk Modulus (GPa) = 23.78027 52.68744 38.23386
# Shear Modulus (GPa) = 12.88349 20.93886 16.91118
#
# Velocity S-wave (km/s) = 2.76561 3.52574 3.16855
# Velocity P-wave (km/s) = 4.93111 6.91763 6.00706
#
# Compressibility (1/GPa) = 0.04205167
#
# Stress axis : x y z
#
# Youngs Moduli (GPa) = 59.10924 51.97832 16.58628
#
# Poissons Ratio (x) = 0.06483 0.16644
# Poissons Ratio (y) = 0.07373 0.26399
# Poissons Ratio (z) = 0.59314 0.82728
#
# Static dielectric constant tensor:
#      x y z
#    x 1.630990 0.000000 0.030140 
#    y 0.000000 1.589100 0.000000 
#    z 0.030140 0.000000 1.538040 
# 
# From -- ./inp_files/185973.got.cif
#   From: 2010.05.17/outbox.cif.g08.bks.cpg/sg12_93_cif.got.tgz:185973.got - 2010.06.03 13:09:07.
