data_PCOD9172428
_publ_section_title
;
Structure prediction by ZEFSAII (Michael W. Deem and Ramdas Pophale) SiO2 
 PCOD9172428
Probable space group: C 2/M
;
_chemical_formula_sum "Si O2"
_cell_formula_units_Z 64
_cell_length_a 26.496951
_cell_length_b 13.673207
_cell_length_c 12.277970
_cell_angle_alpha 90.000000
_cell_angle_beta 114.530523
_cell_angle_gamma 90.000000
_cell_volume 4046.786163
_symmetry_space_group_name_H-M "C 2/M"
_symmetry_group_IT_number 12
_symmetry_cell_setting 'monoclinic'
loop_
_space_group_symop_operation_xyz
x,y,z
-x,y,-z
-x,-y,-z
x,-y,z
1/2+x,1/2+y,z
1/2-x,1/2+y,-z
1/2-x,1/2-y,-z
1/2+x,1/2-y,z
loop_
_atom_site_type_symbol
_atom_site_label
_atom_site_fract_x
_atom_site_fract_y
_atom_site_fract_z
Si Si1 0.162700 0.113987 0.012265
Si Si2 0.828535 0.612476 0.679768
Si Si3 0.726411 0.612972 0.420580
Si Si4 0.766200 0.250918 0.777872
Si Si5 0.390156 0.713462 0.653770
Si Si6 0.562296 0.383790 0.087105
Si Si7 0.439242 0.613834 0.495075
Si Si8 0.835181 0.113408 0.243624
O O1 0.208324 0.187422 0.101548
O O2 0.106060 0.131700 0.028725
O O3 0.178395 0.000000 0.046037
O O4 0.155097 0.125873 0.876533
O O5 0.842091 0.500000 0.712350
O O6 0.773813 0.616640 0.554121
O O7 0.811747 0.672561 0.772418
O O8 0.875812 0.673342 0.660055
O O9 0.716603 0.500000 0.381902
O O10 0.743462 0.675870 0.330746
O O11 0.669412 0.659327 0.413190
O O12 0.711998 0.312041 0.759865
O O13 0.416543 0.671368 0.787489
O O14 0.426855 0.684881 0.584115
O O15 0.561808 0.500000 0.110204
O O16 0.500000 0.354623 0.000000
O O17 0.500000 0.628370 0.500000
O O18 0.435604 0.500000 0.529345
O O19 0.391577 0.627558 0.361833
O O20 0.817226 0.000000 0.246269
#
# Coordination Sequence:
#
# PCOD9172428 Si02
#       8
#     8   8   8   8   8   8   8   8
#     4  10  20  34  50  74 104 134 167 204 249 303
#     4  10  20  31  49  76 103 132 167 207 249 295
#     4  10  18  29  49  77 106 131 161 204 253 303
#     4  11  18  31  50  73 100 135 168 205 251 299
#     4  11  19  33  53  75 103 133 167 205 252 299
#     4  10  20  32  52  78 102 130 165 206 252 302
#     4  10  21  34  51  76 105 135 165 201 249 305
#     4  10  21  34  48  70 105 140 168 201 244 297
#
# _framework density 15.815018999999999
#
# number of rings (size 3 to 8) (size 9 to 14) (size 15 to 20)
#    0.000    1.750    2.500    5.250    1.750    2.000 
#    0.000    0.000    0.000    0.750    0.000    0.000 
#    0.000    0.000    0.000    0.000    0.000    0.000 
#
# Total GULP energy -178604.853064 kJ/mol
# GULP energy per Si atom -5581.401658 kJ/mol
# Density = 1.577902 g / cm^3
# Si number density = 15.815019 Si / 1000 Ang^3
#
#
#
# Elastic Constant Matrix: (Units=GPa)
#
#
# Indices 1 2 3 4 5 6 
#
# 1 75.6880 42.6796 23.4953 0.0000 0.1280 0.0000
# 2 42.6796 101.6848 27.8104 0.0000 -7.1830 0.0000
# 3 23.4953 27.8104 26.0065 0.0000 -12.1277 0.0000
# 4 0.0000 0.0000 0.0000 19.9733 0.0000 -0.5979
# 5 0.1280 -7.1830 -12.1277 0.0000 21.5392 0.0000
# 6 0.0000 0.0000 0.0000 -0.5979 0.0000 26.1320
#
#
#
# Elastic Compliance Matrix: (Units=1/GPa)
#
#
# Indices 1 2 3 4 5 6 
#
# 1 0.022671 -0.004388 -0.022422 0.000000 -0.014223 0.000000
# 2 -0.004388 0.015168 -0.013405 0.000000 -0.002463 0.000000
# 3 -0.022422 -0.013405 0.096309 0.000000 0.049890 0.000000
# 4 0.000000 0.000000 0.000000 0.050101 0.000000 0.001146
# 5 -0.014223 -0.002463 0.049890 0.000000 0.073781 0.000000
# 6 0.000000 0.000000 0.000000 0.001146 0.000000 0.038293
#
#
# Mechanical properties :
#
#
# Convention : Reuss Voigt Hill
#
# Bulk Modulus (GPa) = 18.61558 43.48331 31.04944
# Shear Modulus (GPa) = 12.66917 20.82184 16.74551
#
# Velocity S-wave (km/s) = 2.83341 3.63242 3.25751
# Velocity P-wave (km/s) = 4.74349 6.71917 5.81584
#
# Compressibility (1/GPa) = 0.05371845
#
# Stress axis : x y z
#
# Youngs Moduli (GPa) = 44.10963 65.92771 10.38325
#
# Poissons Ratio (x) = 0.28928 0.23281
# Poissons Ratio (y) = 0.19354 0.13918
# Poissons Ratio (z) = 0.98903 0.88374
#
# Static dielectric constant tensor:
#      x y z
#    x 1.516380 0.000000 -0.005280 
#    y 0.000000 1.533180 0.000000 
#    z -0.005280 0.000000 1.526260 
# 
# From -- ./inp_files/176133.got.cif
#   From: 2010.05.17/outbox.cif.g08.bks.cpg/sg12_89_cif.got.tgz:176133.got - 2010.06.03 13:09:07.
