data_PCOD9172686
_publ_section_title
;
Structure prediction by ZEFSAII (Michael W. Deem and Ramdas Pophale) SiO2 
 PCOD9172686
Probable space group: C 2/M
;
_chemical_formula_sum "Si O2"
_cell_formula_units_Z 50
_cell_length_a 13.380599
_cell_length_b 7.400088
_cell_length_c 22.611158
_cell_angle_alpha 90.000000
_cell_angle_beta 51.517017
_cell_angle_gamma 90.000000
_cell_volume 1752.597485
_symmetry_space_group_name_H-M "C 2/M"
_symmetry_group_IT_number 12
_symmetry_cell_setting 'monoclinic'
loop_
_space_group_symop_operation_xyz
x,y,z
-x,y,-z
-x,-y,-z
x,-y,z
1/2+x,1/2+y,z
1/2-x,1/2+y,-z
1/2-x,1/2-y,-z
1/2+x,1/2-y,z
loop_
_atom_site_type_symbol
_atom_site_label
_atom_site_fract_x
_atom_site_fract_y
_atom_site_fract_z
Si Si1 0.605256 0.201691 0.883789
Si Si2 0.040179 0.212551 0.560249
Si Si3 0.000000 0.000000 0.000000
Si Si4 0.296501 0.216377 0.916972
Si Si5 0.032087 0.291281 0.761094
Si Si6 0.766757 0.279827 0.401769
Si Si7 0.659592 0.719260 0.276156
O O1 0.509489 0.344400 0.945244
O O2 0.708265 0.193346 0.900033
O O3 0.695069 0.262262 0.795650
O O4 0.552294 0.000000 0.895471
O O5 0.140138 0.229844 0.578148
O O6 0.125313 0.281609 0.473764
O O7 0.909974 0.282249 0.638269
O O8 0.018831 0.000000 0.557605
O O9 0.442006 0.271532 0.847993
O O10 0.280594 0.000000 0.911354
O O11 0.250000 0.250000 0.000000
O O12 0.062821 0.500000 0.761814
O O13 0.158308 0.212258 0.683760
O O14 0.930282 0.286101 0.744005
O O15 0.762316 0.500000 0.400217
O O16 0.654853 0.500000 0.277708
#
# Coordination Sequence:
#
# PCOD9172686 Si02
#       7
#     8   8   2   8   8   8   8
#     4  10  20  34  50  70  94 124 159 198 241 282
#     4   8  12  18  29  46  70 100 135 173 206 250
#     4  12  22  36  52  70  96 124 164 202 240 294
#     4  10  18  30  46  67  93 123 162 202 239 282
#     4   8  14  22  34  51  76 109 143 181 219 262
#     4   8  12  18  28  45  69 101 138 170 208 253
#     4   8  14  23  36  54  77 106 142 179 218 264
#
# _framework density 28.529084999999998
#
# number of rings (size 3 to 8) (size 9 to 14) (size 15 to 20)
#    0.000    3.200    0.800    0.720    1.120    0.640 
#    0.000    0.000    0.000    0.000    0.000    0.000 
#    0.000    0.000    0.000    2.880    0.000   33.600 
#
# Total GULP energy -139691.138968 kJ/mol
# GULP energy per Si atom -5587.645559 kJ/mol
# Density = 2.846415 g / cm^3
# Si number density = 28.529085 Si / 1000 Ang^3
#
#
#
# Elastic Constant Matrix: (Units=GPa)
#
#
# Indices 1 2 3 4 5 6 
#
# 1 98.1310 18.4139 55.8734 0.0000 -8.8257 0.0000
# 2 18.4139 137.7824 46.7939 0.0000 -2.3883 0.0001
# 3 55.8734 46.7939 327.8551 0.0000 32.8985 0.0000
# 4 0.0000 0.0000 0.0000 -4.1637 0.0000 -13.6728
# 5 -8.8257 -2.3883 32.8985 0.0000 65.9335 0.0000
# 6 0.0000 0.0001 0.0000 -13.6728 0.0000 -8.6954
#
#
#
# Elastic Compliance Matrix: (Units=1/GPa)
#
#
# Indices 1 2 3 4 5 6 
#
# 1 0.011808 -0.000798 -0.002162 0.000000 0.002631 0.000000
# 2 -0.000798 0.007728 -0.001036 0.000000 0.000690 0.000000
# 3 -0.002162 -0.001036 0.003789 0.000000 -0.002218 0.000000
# 4 0.000000 0.000000 0.000000 0.057685 0.000000 -0.090705
# 5 0.002631 0.000690 -0.002218 0.000000 0.016650 0.000000
# 6 0.000000 0.000000 0.000000 -0.090705 0.000000 0.027622
#
#
# Mechanical properties :
#
#
# Convention : Reuss Voigt Hill
#
# Bulk Modulus (GPa) = 65.22335 89.54788 77.38561
# Shear Modulus (GPa) = 36.13046 40.12736 38.12891
#
# Velocity S-wave (km/s) = 3.56257 3.75446 3.65977
# Velocity P-wave (km/s) = 6.31144 7.08880 6.71138
#
# Compressibility (1/GPa) = 0.01533193
#
# Stress axis : x y z
#
# Youngs Moduli (GPa) = 84.68808 129.39298 263.91629
#
# Poissons Ratio (x) = 0.10327 0.57069
# Poissons Ratio (y) = 0.06759 0.27350
# Poissons Ratio (z) = 0.18313 0.13409
#
# Static dielectric constant tensor:
#      x y z
#    x 2.395860 0.000000 -0.050680 
#    y 0.000000 2.037610 0.000000 
#    z -0.050680 0.000000 2.272380 
# 
# From -- ./inp_files/362685.got.cif
#   From: 2010.05.17/outbox.cif.g08.bks.cpg/sg12_182_cif.got.tgz:362685.got - 2010.06.03 13:09:07.
