data_PCOD9172786
_publ_section_title
;
Structure prediction by ZEFSAII (Michael W. Deem and Ramdas Pophale) SiO2 
 PCOD9172786
Probable space group: C 2/M
;
_chemical_formula_sum "Si O2"
_cell_formula_units_Z 64
_cell_length_a 29.263802
_cell_length_b 7.745528
_cell_length_c 21.544688
_cell_angle_alpha 90.000000
_cell_angle_beta 134.880917
_cell_angle_gamma 90.000000
_cell_volume 3460.252168
_symmetry_space_group_name_H-M "C 2/M"
_symmetry_group_IT_number 12
_symmetry_cell_setting 'monoclinic'
loop_
_space_group_symop_operation_xyz
x,y,z
-x,y,-z
-x,-y,-z
x,-y,z
1/2+x,1/2+y,z
1/2-x,1/2+y,-z
1/2-x,1/2-y,-z
1/2+x,1/2-y,z
loop_
_atom_site_type_symbol
_atom_site_label
_atom_site_fract_x
_atom_site_fract_y
_atom_site_fract_z
Si Si1 0.567290 0.708632 0.244181
Si Si2 0.905406 0.706826 0.864144
Si Si3 0.191250 0.793629 0.897284
Si Si4 0.786567 0.791761 0.597948
Si Si5 0.244313 0.205650 0.167387
Si Si6 0.741808 0.301932 0.298080
Si Si7 0.562588 0.697788 0.835619
Si Si8 0.598261 0.199149 0.004091
O O1 0.566985 0.500000 0.247490
O O2 0.555358 0.755322 0.160501
O O3 0.639068 0.770521 0.330275
O O4 0.509180 0.775621 0.231320
O O5 0.896130 0.500000 0.859032
O O6 0.835895 0.794565 0.786078
O O7 0.928212 0.760863 0.954487
O O8 0.208625 0.734459 0.844928
O O9 0.123077 0.722533 0.857371
O O10 0.187043 0.000000 0.893367
O O11 0.250000 0.750000 0.000000
O O12 0.750000 0.750000 0.500000
O O13 0.751034 0.724024 0.626357
O O14 0.789388 0.000000 0.606737
O O15 0.267394 0.270879 0.257300
O O16 0.175879 0.292256 0.086241
O O17 0.232276 0.000000 0.161446
O O18 0.764187 0.500000 0.322814
O O19 0.556396 0.500000 0.807976
O O20 0.581960 0.698135 0.926810
O O21 0.578746 0.000000 0.975890
#
# Coordination Sequence:
#
# PCOD9172786 Si02
#       8
#     8   8   8   8   8   8   8   8
#     4   9  19  35  49  64  90 125 158 188 225 280
#     4   9  17  28  43  65  91 120 154 194 234 269
#     4  11  21  32  47  68  92 122 164 210 247 277
#     4   9  17  31  52  76  99 120 146 183 229 284
#     4  10  18  30  48  67  91 125 163 201 238 276
#     4   8  16  30  47  68  95 126 156 186 226 281
#     4  10  21  34  47  62  86 124 166 198 231 277
#     4  10  19  29  43  64  91 122 158 199 238 273
#
# _framework density 18.495761000000002
#
# number of rings (size 3 to 8) (size 9 to 14) (size 15 to 20)
#    0.000    2.500    1.250    2.250    0.000    5.500 
#    0.000    2.500    0.000    0.000    0.000    0.875 
#    0.000    7.000    0.000    0.000    0.000    0.000 
#
# Total GULP energy -178331.948177 kJ/mol
# GULP energy per Si atom -5572.873381 kJ/mol
# Density = 1.845366 g / cm^3
# Si number density = 18.495761 Si / 1000 Ang^3
#
#
#
# Elastic Constant Matrix: (Units=GPa)
#
#
# Indices 1 2 3 4 5 6 
#
# 1 165.3522 1.3553 53.6361 0.0000 -12.4817 0.0000
# 2 1.3553 41.8030 -1.6063 0.0000 0.2062 0.0000
# 3 53.6361 -1.6063 84.0585 0.0000 -18.5655 0.0000
# 4 0.0000 0.0000 0.0000 15.6403 0.0000 -4.5836
# 5 -12.4817 0.2062 -18.5655 0.0000 24.1142 0.0000
# 6 0.0000 0.0000 0.0000 -4.5836 0.0000 18.1219
#
#
#
# Elastic Compliance Matrix: (Units=1/GPa)
#
#
# Indices 1 2 3 4 5 6 
#
# 1 0.007635 -0.000434 -0.004827 0.000000 0.000239 0.000000
# 2 -0.000434 0.023965 0.000771 0.000000 0.000164 0.000000
# 3 -0.004827 0.000771 0.017396 0.000000 0.010888 0.000000
# 4 0.000000 0.000000 0.000000 0.069056 0.000000 0.017467
# 5 0.000239 0.000164 0.010888 0.000000 0.049975 0.000000
# 6 0.000000 0.000000 0.000000 0.017467 0.000000 0.059600
#
#
# Mechanical properties :
#
#
# Convention : Reuss Voigt Hill
#
# Bulk Modulus (GPa) = 24.99035 44.22043 34.60539
# Shear Modulus (GPa) = 20.00433 27.43051 23.71742
#
# Velocity S-wave (km/s) = 3.29228 3.85524 3.58483
# Velocity P-wave (km/s) = 5.29083 6.61646 5.99042
#
# Compressibility (1/GPa) = 0.04001545
#
# Stress axis : x y z
#
# Youngs Moduli (GPa) = 130.97280 41.72816 57.48377
#
# Poissons Ratio (x) = 0.01812 0.27749
# Poissons Ratio (y) = 0.05687 -0.04433
# Poissons Ratio (z) = 0.63225 -0.03218
#
# Static dielectric constant tensor:
#      x y z
#    x 1.710420 0.000000 -0.014910 
#    y 0.000000 1.698590 0.000000 
#    z -0.014910 0.000000 1.634150 
# 
# From -- ./inp_files/326948.got.cif
#   From: 2010.05.17/outbox.cif.g08.bks.cpg/sg12_164_cif.got.tgz:326948.got - 2010.06.03 13:09:07.
