data_PCOD9172511
_publ_section_title
;
Structure prediction by ZEFSAII (Michael W. Deem and Ramdas Pophale) SiO2 
 PCOD9172511
Probable space group: C 2/M
;
_chemical_formula_sum "Si O2"
_cell_formula_units_Z 56
_cell_length_a 19.130455
_cell_length_b 7.800106
_cell_length_c 31.099651
_cell_angle_alpha 90.000000
_cell_angle_beta 147.263255
_cell_angle_gamma 90.000000
_cell_volume 2509.584660
_symmetry_space_group_name_H-M "C 2/M"
_symmetry_group_IT_number 12
_symmetry_cell_setting 'monoclinic'
loop_
_space_group_symop_operation_xyz
x,y,z
-x,y,-z
-x,-y,-z
x,-y,z
1/2+x,1/2+y,z
1/2-x,1/2+y,-z
1/2-x,1/2-y,-z
1/2+x,1/2-y,z
loop_
_atom_site_type_symbol
_atom_site_label
_atom_site_fract_x
_atom_site_fract_y
_atom_site_fract_z
Si Si1 0.565633 0.803972 0.216251
Si Si2 0.223687 0.802062 0.923733
Si Si3 0.160493 0.799001 0.356161
Si Si4 0.362980 0.205934 0.524403
Si Si5 0.004170 0.291821 0.909688
Si Si6 0.202387 0.796561 0.131965
Si Si7 0.440302 0.800094 0.308141
O O1 0.410940 0.796852 0.144271
O O2 0.636237 0.720913 0.293181
O O3 0.574442 0.729281 0.172797
O O4 0.608793 0.000000 0.237507
O O5 0.274588 0.793700 0.901145
O O6 0.197074 0.000000 0.920828
O O7 0.346547 0.734655 0.014078
O O8 0.299450 0.737738 0.446465
O O9 0.046771 0.710531 0.324860
O O10 0.149464 0.000000 0.361016
O O11 0.250000 0.250000 0.500000
O O12 0.492599 0.275047 0.614247
O O13 0.378410 0.000000 0.530478
O O14 0.006559 0.500000 0.910164
O O15 0.934548 0.231755 0.916610
O O16 0.309309 0.726556 0.221006
O O17 0.222737 0.000000 0.135651
O O18 0.414287 0.000000 0.303333
#
# Coordination Sequence:
#
# PCOD9172511 Si02
#       7
#     8   8   8   8   8   8   8
#     4  11  22  37  56  78 107 141 178 221 270 318
#     4  11  22  38  59  80 104 136 178 225 270 317
#     4  10  18  29  50  79 106 137 175 215 261 315
#     4   8  15  27  45  72 105 136 169 210 258 309
#     4  10  24  41  55  75 106 144 180 220 269 317
#     4  11  22  35  56  83 110 141 177 217 263 317
#     4   9  17  31  50  75 108 140 171 214 262 310
#
# _framework density 22.314450000000001
#
# number of rings (size 3 to 8) (size 9 to 14) (size 15 to 20)
#    0.000    2.000    1.429    2.571    0.000    5.143 
#    0.000    0.000    0.000    0.857    0.000    6.000 
#    0.000    0.000    0.000    0.000    0.000    0.000 
#
# Total GULP energy -156274.121782 kJ/mol
# GULP energy per Si atom -5581.218635 kJ/mol
# Density = 2.226366 g / cm^3
# Si number density = 22.314450 Si / 1000 Ang^3
#
#
#
# Elastic Constant Matrix: (Units=GPa)
#
#
# Indices 1 2 3 4 5 6 
#
# 1 45.7337 -6.6005 -4.8683 0.0000 -15.5542 -0.0002
# 2 -6.6005 44.5813 6.0264 0.0002 -0.6194 -0.0008
# 3 -4.8683 6.0264 130.8199 0.0000 -24.9830 0.0000
# 4 0.0000 0.0002 0.0000 13.3012 0.0000 -1.8670
# 5 -15.5542 -0.6194 -24.9830 0.0000 28.8432 0.0001
# 6 -0.0002 -0.0008 0.0000 -1.8670 0.0001 12.1322
#
#
#
# Elastic Compliance Matrix: (Units=1/GPa)
#
#
# Indices 1 2 3 4 5 6 
#
# 1 0.029897 0.004058 0.004818 0.000000 0.020383 0.000001
# 2 0.004058 0.023128 -0.000481 0.000000 0.002268 0.000002
# 3 0.004818 -0.000481 0.009993 0.000000 0.011243 0.000000
# 4 0.000000 0.000000 0.000000 0.076841 0.000000 0.011825
# 5 0.020383 0.002268 0.011243 0.000000 0.055449 0.000000
# 6 0.000001 0.000002 0.000000 0.011825 0.000000 0.084245
#
#
# Mechanical properties :
#
#
# Convention : Reuss Voigt Hill
#
# Bulk Modulus (GPa) = 12.53006 23.36111 17.94559
# Shear Modulus (GPa) = 17.27918 25.96046 21.61982
#
# Velocity S-wave (km/s) = 2.78573 3.41455 3.11605
# Velocity P-wave (km/s) = 3.99681 5.10268 4.58322
#
# Compressibility (1/GPa) = 0.07980805
#
# Stress axis : x y z
#
# Youngs Moduli (GPa) = 33.44865 43.23695 100.07264
#
# Poissons Ratio (x) = -0.17547 -0.48217
# Poissons Ratio (y) = -0.13574 0.04816
# Poissons Ratio (z) = -0.16116 0.02081
#
# Static dielectric constant tensor:
#      x y z
#    x 1.784760 0.000000 -0.026600 
#    y 0.000000 1.889680 0.000000 
#    z -0.026600 0.000000 1.904010 
# 
# From -- ./inp_files/342339.got.cif
#   From: 2010.05.17/outbox.cif.g08.bks.cpg/sg12_172_cif.got.tgz:342339.got - 2010.06.03 13:09:07.
