data_PCOD9172696
_publ_section_title
;
Structure prediction by ZEFSAII (Michael W. Deem and Ramdas Pophale) SiO2 
 PCOD9172696
Probable space group: C 2/M
;
_chemical_formula_sum "Si O2"
_cell_formula_units_Z 64
_cell_length_a 26.120498
_cell_length_b 13.908608
_cell_length_c 10.412974
_cell_angle_alpha 90.000000
_cell_angle_beta 108.062644
_cell_angle_gamma 90.000000
_cell_volume 3596.596023
_symmetry_space_group_name_H-M "C 2/M"
_symmetry_group_IT_number 12
_symmetry_cell_setting 'monoclinic'
loop_
_space_group_symop_operation_xyz
x,y,z
-x,y,-z
-x,-y,-z
x,-y,z
1/2+x,1/2+y,z
1/2-x,1/2+y,-z
1/2-x,1/2-y,-z
1/2+x,1/2-y,z
loop_
_atom_site_type_symbol
_atom_site_label
_atom_site_fract_x
_atom_site_fract_y
_atom_site_fract_z
Si Si1 0.340107 0.106162 0.421789
Si Si2 0.433279 0.383230 0.077946
Si Si3 0.631180 0.311223 0.487450
Si Si4 0.148200 0.113538 0.769580
Si Si5 0.942852 0.116115 0.796777
Si Si6 0.748627 0.887822 0.429129
Si Si7 0.225105 0.390396 0.884952
Si Si8 0.268470 0.802556 0.847464
O O1 0.373990 0.198558 0.486118
O O2 0.286981 0.112952 0.470801
O O3 0.320554 0.113077 0.259647
O O4 0.363743 0.000000 0.461964
O O5 0.432265 0.500000 0.078259
O O6 0.389111 0.350271 0.144620
O O7 0.494195 0.356325 0.163790
O O8 0.423560 0.353218 0.923736
O O9 0.620120 0.367926 0.610977
O O10 0.593516 0.342323 0.343115
O O11 0.693858 0.337068 0.506053
O O12 0.205167 0.167383 0.809458
O O13 0.158027 0.000000 0.792631
O O14 0.940133 0.000000 0.789211
O O15 0.718156 0.837052 0.285528
O O16 0.758319 0.000000 0.401740
O O17 0.245566 0.500000 0.905718
O O18 0.268932 0.311416 0.873131
O O19 0.205977 0.357666 0.011628
#
# Coordination Sequence:
#
# PCOD9172696 Si02
#       8
#     8   8   8   8   8   8   8   8
#     4  10  21  35  48  65  92 127 165 202 236 270
#     4   8  17  32  49  71 101 127 148 182 229 284
#     4  11  19  30  47  72  94 124 157 197 233 280
#     4  10  18  30  46  71 101 125 154 191 233 279
#     4   9  17  32  51  73  99 125 151 183 229 283
#     4  10  19  32  47  67  97 127 159 199 237 274
#     4  10  19  32  47  66  92 127 165 199 236 271
#     4  10  19  31  49  68  94 130 163 197 234 277
#
# _framework density 17.794604
#
# number of rings (size 3 to 8) (size 9 to 14) (size 15 to 20)
#    0.000    2.250    2.500    4.125    0.000    1.500 
#    2.250    5.625    0.000    0.000    0.000    4.375 
#    0.000    0.000    0.000    0.000    0.000    0.000 
#
# Total GULP energy -178476.988689 kJ/mol
# GULP energy per Si atom -5577.405897 kJ/mol
# Density = 1.775410 g / cm^3
# Si number density = 17.794604 Si / 1000 Ang^3
#
#
#
# Elastic Constant Matrix: (Units=GPa)
#
#
# Indices 1 2 3 4 5 6 
#
# 1 29.5596 -1.2373 32.7061 0.0000 -7.4801 0.0000
# 2 -1.2373 104.5342 16.9512 0.0000 10.5292 0.0000
# 3 32.7061 16.9512 126.6272 0.0000 13.5625 0.0000
# 4 0.0000 0.0000 0.0000 25.6948 0.0000 3.9812
# 5 -7.4801 10.5292 13.5625 0.0000 17.7947 0.0000
# 6 0.0000 0.0000 0.0000 3.9812 0.0000 9.2639
#
#
#
# Elastic Compliance Matrix: (Units=1/GPa)
#
#
# Indices 1 2 3 4 5 6 
#
# 1 0.072833 -0.000179 -0.024041 0.000000 0.049045 0.000000
# 2 -0.000179 0.010244 -0.000727 0.000000 -0.005583 0.000000
# 3 -0.024041 -0.000727 0.016595 0.000000 -0.022323 0.000000
# 4 0.000000 0.000000 0.000000 0.041695 0.000000 -0.017919
# 5 0.049045 -0.005583 -0.022323 0.000000 0.097130 0.000000
# 6 0.000000 0.000000 0.000000 -0.017919 0.000000 0.115647
#
#
# Mechanical properties :
#
#
# Convention : Reuss Voigt Hill
#
# Bulk Modulus (GPa) = 20.08929 39.72898 29.90913
# Shear Modulus (GPa) = 11.88688 24.70407 18.29548
#
# Velocity S-wave (km/s) = 2.58738 3.73002 3.20995
# Velocity P-wave (km/s) = 4.49890 6.39731 5.53018
#
# Compressibility (1/GPa) = 0.04977777
#
# Stress axis : x y z
#
# Youngs Moduli (GPa) = 13.73000 97.61467 60.25945
#
# Poissons Ratio (x) = 0.01752 1.44868
# Poissons Ratio (y) = 0.00246 0.04381
# Poissons Ratio (z) = 0.33008 0.07097
#
# Static dielectric constant tensor:
#      x y z
#    x 1.588390 0.000000 -0.017410 
#    y 0.000000 1.645540 0.000000 
#    z -0.017410 0.000000 1.644880 
# 
# From -- ./inp_files/111269.got.cif
#   From: 2010.05.17/outbox.cif.g08.bks.cpg/sg12_56_cif.got.tgz:111269.got - 2010.06.03 13:09:07.
