data_PCOD9172624
_publ_section_title
;
Structure prediction by ZEFSAII (Michael W. Deem and Ramdas Pophale) SiO2 
 PCOD9172624
Probable space group: C 2/M
;
_chemical_formula_sum "Si O2"
_cell_formula_units_Z 56
_cell_length_a 15.412434
_cell_length_b 26.771999
_cell_length_c 7.753567
_cell_angle_alpha 90.000000
_cell_angle_beta 53.186102
_cell_angle_gamma 90.000000
_cell_volume 2561.306723
_symmetry_space_group_name_H-M "C 2/M"
_symmetry_group_IT_number 12
_symmetry_cell_setting 'monoclinic'
loop_
_space_group_symop_operation_xyz
x,y,z
-x,y,-z
-x,-y,-z
x,-y,z
1/2+x,1/2+y,z
1/2-x,1/2+y,-z
1/2-x,1/2-y,-z
1/2+x,1/2-y,z
loop_
_atom_site_type_symbol
_atom_site_label
_atom_site_fract_x
_atom_site_fract_y
_atom_site_fract_z
Si Si1 0.340756 0.944489 0.576571
Si Si2 0.318416 0.344249 0.775411
Si Si3 0.300064 0.757462 0.628709
Si Si4 0.066571 0.415051 0.185673
Si Si5 0.084650 0.690067 0.218308
Si Si6 0.075882 0.207282 0.063954
Si Si7 0.761886 0.559556 0.301274
O O1 0.463452 0.947471 0.358270
O O2 0.350989 0.916973 0.747718
O O3 0.275696 0.926078 0.486524
O O4 0.300828 0.000000 0.665231
O O5 0.343454 0.297773 0.621162
O O6 0.402872 0.337045 0.828628
O O7 0.313864 0.398592 0.696788
O O8 0.198346 0.327718 0.988755
O O9 0.250000 0.750000 0.500000
O O10 0.384339 0.796056 0.620842
O O11 0.193136 0.774784 0.859521
O O12 0.018560 0.359173 0.247993
O O13 0.126862 0.432076 0.941545
O O14 0.036379 0.740558 0.194811
O O15 0.000000 0.192340 0.000000
O O16 0.735695 0.500000 0.321457
#
# Coordination Sequence:
#
# PCOD9172624 Si02
#       7
#     8   8   8   8   8   8   8
#     4  10  20  30  42  65  96 130 166 203 242 273
#     4   8  17  32  47  65  94 123 155 195 242 285
#     4   9  17  30  49  69  95 124 154 195 239 286
#     4  10  18  30  44  64  99 126 162 202 237 280
#     4   8  17  30  43  66  91 124 157 187 235 287
#     4   9  17  33  50  68  95 126 158 195 242 295
#     4  10  19  31  49  67  89 127 169 200 243 296
#
# _framework density 21.86384
#
# number of rings (size 3 to 8) (size 9 to 14) (size 15 to 20)
#    0.000    2.857    0.000    3.857    2.000    4.571 
#    2.571    2.143    0.000    0.429    0.000    0.000 
#    0.000    1.143    0.000    0.000    0.000    0.000 
#
# Total GULP energy -155915.652548 kJ/mol
# GULP energy per Si atom -5568.416162 kJ/mol
# Density = 2.181408 g / cm^3
# Si number density = 21.863840 Si / 1000 Ang^3
#
#
#
# Elastic Constant Matrix: (Units=GPa)
#
#
# Indices 1 2 3 4 5 6 
#
# 1 93.4589 41.5583 -4.4097 0.0000 36.1392 0.0000
# 2 41.5583 109.5674 -5.8653 0.0000 16.7976 0.0000
# 3 -4.4097 -5.8653 29.6253 0.0000 16.5127 0.0000
# 4 0.0000 0.0000 0.0000 17.8912 0.0000 2.8257
# 5 36.1392 16.7976 16.5127 0.0000 36.9691 0.0000
# 6 0.0000 0.0000 0.0000 2.8257 0.0000 21.7707
#
#
#
# Elastic Compliance Matrix: (Units=1/GPa)
#
#
# Indices 1 2 3 4 5 6 
#
# 1 0.026734 -0.003641 0.022506 0.000000 -0.034532 0.000000
# 2 -0.003641 0.011145 0.003333 0.000000 -0.002993 0.000000
# 3 0.022506 0.003333 0.067735 0.000000 -0.053770 0.000000
# 4 0.000000 0.000000 0.000000 0.057063 0.000000 -0.007406
# 5 -0.034532 -0.002993 -0.053770 0.000000 0.086183 0.000000
# 6 0.000000 0.000000 0.000000 -0.007406 0.000000 0.046895
#
#
# Mechanical properties :
#
#
# Convention : Reuss Voigt Hill
#
# Bulk Modulus (GPa) = 6.66622 32.80200 19.73411
# Shear Modulus (GPa) = 16.59127 28.75077 22.67102
#
# Velocity S-wave (km/s) = 2.75770 3.63022 3.22362
# Velocity P-wave (km/s) = 3.63256 5.71023 4.78551
#
# Compressibility (1/GPa) = 0.15001014
#
# Stress axis : x y z
#
# Youngs Moduli (GPa) = 37.40566 89.72462 14.76332
#
# Poissons Ratio (x) = 0.32671 -0.33226
# Poissons Ratio (y) = 0.13620 -0.04921
# Poissons Ratio (z) = -0.84185 -0.29905
#
# Static dielectric constant tensor:
#      x y z
#    x 1.911900 0.000000 0.013310 
#    y 0.000000 1.809530 0.000000 
#    z 0.013310 0.000000 1.934340 
# 
# From -- ./inp_files/66512.got.cif
#   From: 2010.05.17/outbox.cif.g08.bks.cpg/sg12_34_cif.got.tgz:66512.got - 2010.06.03 13:09:07.
