data_PCOD9172941
_publ_section_title
;
Structure prediction by ZEFSAII (Michael W. Deem and Ramdas Pophale) SiO2 
 PCOD9172941
Probable space group: C 2/M
;
_chemical_formula_sum "Si O2"
_cell_formula_units_Z 40
_cell_length_a 20.789396
_cell_length_b 9.315808
_cell_length_c 18.564152
_cell_angle_alpha 90.000000
_cell_angle_beta 137.631504
_cell_angle_gamma 90.000000
_cell_volume 2422.872465
_symmetry_space_group_name_H-M "C 2/M"
_symmetry_group_IT_number 12
_symmetry_cell_setting 'monoclinic'
loop_
_space_group_symop_operation_xyz
x,y,z
-x,y,-z
-x,-y,-z
x,-y,z
1/2+x,1/2+y,z
1/2-x,1/2+y,-z
1/2-x,1/2-y,-z
1/2+x,1/2-y,z
loop_
_atom_site_type_symbol
_atom_site_label
_atom_site_fract_x
_atom_site_fract_y
_atom_site_fract_z
Si Si1 0.849959 0.828140 0.069356
Si Si2 0.044415 0.830423 0.700254
Si Si3 0.605333 0.671395 0.058849
Si Si4 0.215378 0.169724 0.726226
Si Si5 0.585949 0.165103 0.512175
O O1 0.924215 0.787782 0.193600
O O2 0.835427 0.000000 0.063512
O O3 0.750000 0.750000 0.000000
O O4 0.885914 0.796668 0.018894
O O5 0.137558 0.810752 0.726183
O O6 0.959063 0.740257 0.594897
O O7 0.021006 0.000000 0.679191
O O8 0.621182 0.500000 0.081322
O O9 0.687055 0.757047 0.168283
O O10 0.500000 0.705580 0.000000
O O11 0.170459 0.245852 0.619160
O O12 0.226337 0.000000 0.723909
O O13 0.500000 0.166286 0.500000
O O14 0.612509 0.000000 0.521328
#
# Coordination Sequence:
#
# PCOD9172941 Si02
#       5
#     8   8   8   8   8
#     4  10  19  32  51  74 102 133 167 207 251 296
#     4   9  17  29  46  72 101 128 161 204 252 295
#     4  10  21  35  51  73 103 138 171 205 248 298
#     4  10  18  30  49  72 100 132 166 207 250 296
#     4   9  17  28  45  71 100 130 162 201 250 301
#
# _framework density 16.509329000000001
#
# number of rings (size 3 to 8) (size 9 to 14) (size 15 to 20)
#    0.000    2.400    2.000    1.200    0.000    4.400 
#    0.000    0.000    0.000    1.200    0.000    0.000 
#    0.000    0.000    0.000    0.000    0.000    0.000 
#
# Total GULP energy -111534.857177 kJ/mol
# GULP energy per Si atom -5576.742859 kJ/mol
# Density = 1.647175 g / cm^3
# Si number density = 16.509329 Si / 1000 Ang^3
#
#
#
# Elastic Constant Matrix: (Units=GPa)
#
#
# Indices 1 2 3 4 5 6 
#
# 1 70.6488 48.4739 63.7130 0.0000 -3.2512 0.0000
# 2 48.4739 87.8372 102.3229 0.0000 2.8897 0.0000
# 3 63.7130 102.3229 204.1502 0.0000 -10.4669 0.0000
# 4 0.0000 0.0000 0.0000 37.8817 0.0000 2.5297
# 5 -3.2512 2.8897 -10.4669 0.0000 14.8909 0.0000
# 6 0.0000 0.0000 0.0000 2.5297 0.0000 12.7334
#
#
#
# Elastic Compliance Matrix: (Units=1/GPa)
#
#
# Indices 1 2 3 4 5 6 
#
# 1 0.023692 -0.012262 -0.000893 0.000000 0.006925 0.000000
# 2 -0.012262 0.037655 -0.016140 0.000000 -0.021329 0.000000
# 3 -0.000893 -0.016140 0.013919 0.000000 0.012721 0.000000
# 4 0.000000 0.000000 0.000000 0.026753 0.000000 -0.005315
# 5 0.006925 -0.021329 0.012721 0.000000 0.081748 0.000000
# 6 0.000000 0.000000 0.000000 -0.005315 0.000000 0.079590
#
#
# Mechanical properties :
#
#
# Convention : Reuss Voigt Hill
#
# Bulk Modulus (GPa) = 59.96793 87.96175 73.96484
# Shear Modulus (GPa) = 15.26696 22.97628 19.12162
#
# Velocity S-wave (km/s) = 3.04427 3.73462 3.40697
# Velocity P-wave (km/s) = 6.98278 8.48482 7.77018
#
# Compressibility (1/GPa) = 0.01667558
#
# Stress axis : x y z
#
# Youngs Moduli (GPa) = 42.20849 26.55687 71.84552
#
# Poissons Ratio (x) = 0.32565 0.06415
# Poissons Ratio (y) = 0.51757 1.15958
# Poissons Ratio (z) = 0.03769 0.42862
#
# Static dielectric constant tensor:
#      x y z
#    x 1.530590 0.000000 -0.016860 
#    y 0.000000 1.552570 0.000000 
#    z -0.016860 0.000000 1.542340 
# 
# From -- ./inp_files/162384.got.cif
#   From: 2010.05.17/outbox.cif.g08.bks.cpg/sg12_82_cif.got.tgz:162384.got - 2010.06.03 13:09:07.
