data_PCOD9172324
_publ_section_title
;
Structure prediction by ZEFSAII (Michael W. Deem and Ramdas Pophale) SiO2 
 PCOD9172324
Probable space group: C 2/M
;
_chemical_formula_sum "Si O2"
_cell_formula_units_Z 60
_cell_length_a 19.852945
_cell_length_b 24.834092
_cell_length_c 14.578118
_cell_angle_alpha 90.000000
_cell_angle_beta 28.567427
_cell_angle_gamma 90.000000
_cell_volume 3436.984516
_symmetry_space_group_name_H-M "C 2/M"
_symmetry_group_IT_number 12
_symmetry_cell_setting 'monoclinic'
loop_
_space_group_symop_operation_xyz
x,y,z
-x,y,-z
-x,-y,-z
x,-y,z
1/2+x,1/2+y,z
1/2-x,1/2+y,-z
1/2-x,1/2-y,-z
1/2+x,1/2-y,z
loop_
_atom_site_type_symbol
_atom_site_label
_atom_site_fract_x
_atom_site_fract_y
_atom_site_fract_z
Si Si1 0.957714 0.160290 0.448426
Si Si2 0.357184 0.306709 0.132302
Si Si3 0.888365 0.347221 0.706426
Si Si4 0.718535 0.561142 0.267735
Si Si5 0.749266 0.873777 0.948607
Si Si6 0.466693 0.799481 0.899468
Si Si7 0.000000 0.610422 0.000000
Si Si8 0.891597 0.270292 0.454099
O O1 0.879760 0.104700 0.564287
O O2 0.874057 0.208162 0.501849
O O3 0.000000 0.180241 0.500000
O O4 0.094885 0.149309 0.223132
O O5 0.254020 0.331434 0.177813
O O6 0.250753 0.298886 0.344254
O O7 0.500000 0.334162 0.000000
O O8 0.409813 0.249740 0.027696
O O9 0.000000 0.371419 0.500000
O O10 0.977703 0.296799 0.643354
O O11 0.838081 0.381858 0.854106
O O12 0.673410 0.500000 0.334040
O O13 0.729882 0.577040 0.146683
O O14 0.871304 0.573247 0.126004
O O15 0.666019 0.828184 0.990779
O O16 0.534213 0.847715 0.877410
O O17 0.568872 0.778443 0.698255
#
# Coordination Sequence:
#
# PCOD9172324 Si02
#       8
#     8   8   8   8   8   8   4   8
#     4  10  18  29  48  75 100 128 172 207 256 302
#     4  11  20  29  42  70 103 137 167 209 243 292
#     4   9  18  33  51  70 101 141 177 201 248 305
#     4  10  21  35  53  74 101 132 170 222 264 303
#     4   9  18  32  52  73  92 132 171 218 251 303
#     4  10  19  32  48  69 103 136 179 205 243 299
#     4  10  19  36  50  72 104 140 173 202 256 316
#     4  10  19  32  50  69  99 146 175 208 242 301
#
# _framework density 17.457163000000001
#
# number of rings (size 3 to 8) (size 9 to 14) (size 15 to 20)
#    0.000    2.133    0.667    5.400    0.000    5.067 
#    2.400    0.000    0.000    0.400    0.000    0.000 
#    0.000    0.533    0.000    2.867    0.000    0.000 
#
# Total GULP energy -167193.092116 kJ/mol
# GULP energy per Si atom -5573.103071 kJ/mol
# Density = 1.741743 g / cm^3
# Si number density = 17.457163 Si / 1000 Ang^3
#
#
#
# Elastic Constant Matrix: (Units=GPa)
#
#
# Indices 1 2 3 4 5 6 
#
# 1 59.7460 11.7231 34.6852 -0.0066 -10.1029 0.0030
# 2 11.7231 57.3981 25.2493 -0.0025 6.6768 0.0012
# 3 34.6852 25.2493 99.4959 -0.0064 10.0475 0.0011
# 4 -0.0066 -0.0025 -0.0064 7.9334 0.0024 2.9457
# 5 -10.1029 6.6768 10.0475 0.0024 31.9394 -0.0027
# 6 0.0030 0.0012 0.0011 2.9457 -0.0027 6.1044
#
#
#
# Elastic Compliance Matrix: (Units=1/GPa)
#
#
# Indices 1 2 3 4 5 6 
#
# 1 0.024258 -0.002278 -0.008987 0.000013 0.010976 -0.000011
# 2 -0.002278 0.020040 -0.003920 0.000004 -0.003677 -0.000006
# 3 -0.008987 -0.003920 0.014855 0.000007 -0.006696 -0.000004
# 4 0.000013 0.000004 0.000007 0.153566 -0.000017 -0.074104
# 5 0.010976 -0.003677 -0.006696 -0.000017 0.037656 0.000021
# 6 -0.000011 -0.000006 -0.000004 -0.074104 0.000021 0.199575
#
#
# Mechanical properties :
#
#
# Convention : Reuss Voigt Hill
#
# Bulk Modulus (GPa) = 34.74382 39.99504 37.36943
# Shear Modulus (GPa) = 10.20589 18.86092 14.53340
#
# Velocity S-wave (km/s) = 2.42052 3.29053 2.88847
# Velocity P-wave (km/s) = 5.26853 6.11530 5.70764
#
# Compressibility (1/GPa) = 0.02878210
#
# Stress axis : x y z
#
# Youngs Moduli (GPa) = 41.22378 49.90137 67.31928
#
# Poissons Ratio (x) = 0.11367 0.60499
# Poissons Ratio (y) = 0.09391 0.26390
# Poissons Ratio (z) = 0.37047 0.19562
#
# Static dielectric constant tensor:
#      x y z
#    x 1.656720 0.000000 -0.018530 
#    y 0.000000 1.561190 0.000000 
#    z -0.018530 0.000000 1.617370 
# 
# From -- ./inp_files/235446.got.cif
#   From: 2010.05.17/outbox.cif.g08.bks.cpg/sg12_118_cif.got.tgz:235446.got - 2010.06.03 13:09:07.
