data_PCOD9172073
_publ_section_title
;
Structure prediction by ZEFSAII (Michael W. Deem and Ramdas Pophale) SiO2 
 PCOD9172073
Probable space group: C 2/M
;
_chemical_formula_sum "Si O2"
_cell_formula_units_Z 64
_cell_length_a 28.516902
_cell_length_b 9.016972
_cell_length_c 15.179867
_cell_angle_alpha 90.000000
_cell_angle_beta 93.412548
_cell_angle_gamma 90.000000
_cell_volume 3896.370647
_symmetry_space_group_name_H-M "C 2/M"
_symmetry_group_IT_number 12
_symmetry_cell_setting 'monoclinic'
loop_
_space_group_symop_operation_xyz
x,y,z
-x,y,-z
-x,-y,-z
x,-y,z
1/2+x,1/2+y,z
1/2-x,1/2+y,-z
1/2-x,1/2-y,-z
1/2+x,1/2-y,z
loop_
_atom_site_type_symbol
_atom_site_label
_atom_site_fract_x
_atom_site_fract_y
_atom_site_fract_z
Si Si1 0.490716 0.179227 0.600992
Si Si2 0.445702 0.323041 0.243009
Si Si3 0.407231 0.672188 0.980398
Si Si4 0.136907 0.323119 0.853659
Si Si5 0.093768 0.331443 0.297066
Si Si6 0.018803 0.670656 0.126923
Si Si7 0.666050 0.670416 0.190874
Si Si8 0.255741 0.821192 0.097055
O O1 0.500000 0.209399 0.500000
O O2 0.528343 0.257019 0.668647
O O3 0.438731 0.228167 0.627511
O O4 0.493279 0.000000 0.615455
O O5 0.445750 0.500000 0.244438
O O6 0.393876 0.256875 0.224210
O O7 0.476147 0.264002 0.162763
O O8 0.416186 0.500000 0.004529
O O9 0.453734 0.753342 0.950162
O O10 0.370179 0.673389 0.895439
O O11 0.383301 0.759646 0.057011
O O12 0.129998 0.500000 0.848602
O O13 0.192384 0.291439 0.859967
O O14 0.106676 0.500000 0.318950
O O15 0.057307 0.332395 0.210547
O O16 0.139595 0.247996 0.268381
O O17 0.005203 0.500000 0.108011
O O18 0.674187 0.500000 0.216023
O O19 0.714713 0.733008 0.157989
O O20 0.250505 0.000000 0.086935
O O21 0.250000 0.750000 0.000000
#
# Coordination Sequence:
#
# PCOD9172073 Si02
#       8
#     8   8   8   8   8   8   8   8
#     4   9  18  35  58  81 105 131 159 192 236 297
#     4  11  22  35  50  71 100 129 161 202 248 294
#     4  10  18  29  46  68  95 126 165 210 254 292
#     4  11  22  34  48  66  93 131 173 210 249 296
#     4   8  15  27  46  73  99 125 157 192 234 287
#     4   9  17  31  48  66  93 128 168 203 239 291
#     4   9  17  29  45  67  97 129 162 206 252 289
#     4  10  20  33  49  69  93 128 174 218 256 293
#
# _framework density 16.425540999999999
#
# number of rings (size 3 to 8) (size 9 to 14) (size 15 to 20)
#    0.000    2.375    1.250    3.000    0.000    5.250 
#    0.000    2.500    0.000    0.000    0.000    0.875 
#    0.000    0.000    0.000    0.000    0.000    0.000 
#
# Total GULP energy -178493.012260 kJ/mol
# GULP energy per Si atom -5577.906633 kJ/mol
# Density = 1.638816 g / cm^3
# Si number density = 16.425541 Si / 1000 Ang^3
#
#
#
# Elastic Constant Matrix: (Units=GPa)
#
#
# Indices 1 2 3 4 5 6 
#
# 1 136.7096 60.1238 54.7879 0.0000 -16.5361 0.0000
# 2 60.1238 81.0904 36.3377 0.0000 -3.7146 0.0000
# 3 54.7879 36.3377 74.3722 0.0000 -19.4161 0.0000
# 4 0.0000 0.0000 0.0000 16.0423 0.0000 -3.2213
# 5 -16.5361 -3.7146 -19.4161 0.0000 22.7888 0.0000
# 6 0.0000 0.0000 0.0000 -3.2213 0.0000 23.2063
#
#
#
# Elastic Compliance Matrix: (Units=1/GPa)
#
#
# Indices 1 2 3 4 5 6 
#
# 1 0.012959 -0.007187 -0.004998 0.000000 0.003974 0.000000
# 2 -0.007187 0.020257 -0.006562 0.000000 -0.007504 0.000000
# 3 -0.004998 -0.006562 0.024574 0.000000 0.016241 0.000000
# 4 0.000000 0.000000 0.000000 0.064123 0.000000 0.008901
# 5 0.003974 -0.007504 0.016241 0.000000 0.059379 0.000000
# 6 0.000000 0.000000 0.000000 0.008901 0.000000 0.044327
#
#
# Mechanical properties :
#
#
# Convention : Reuss Voigt Hill
#
# Bulk Modulus (GPa) = 49.26953 66.07455 57.67204
# Shear Modulus (GPa) = 18.52687 21.80233 20.16460
#
# Velocity S-wave (km/s) = 3.36211 3.64722 3.50757
# Velocity P-wave (km/s) = 6.71807 7.61908 7.18272
#
# Compressibility (1/GPa) = 0.02029652
#
# Stress axis : x y z
#
# Youngs Moduli (GPa) = 77.16634 49.36451 40.69373
#
# Poissons Ratio (x) = 0.35477 0.20337
# Poissons Ratio (y) = 0.55458 0.26705
# Poissons Ratio (z) = 0.38565 0.32395
#
# Static dielectric constant tensor:
#      x y z
#    x 1.573040 0.000000 0.002240 
#    y 0.000000 1.557720 0.000000 
#    z 0.002240 0.000000 1.549990 
# 
# From -- ./inp_files/244095.got.cif
#   From: 2010.05.17/outbox.cif.g08.bks.cpg/sg12_123_cif.got.tgz:244095.got - 2010.06.03 13:09:07.
