data_PCOD9172421
_publ_section_title
;
Structure prediction by ZEFSAII (Michael W. Deem and Ramdas Pophale) SiO2 
 PCOD9172421
Probable space group: C 2/M
;
_chemical_formula_sum "Si O2"
_cell_formula_units_Z 48
_cell_length_a 13.187397
_cell_length_b 20.945243
_cell_length_c 7.998125
_cell_angle_alpha 90.000000
_cell_angle_beta 106.961252
_cell_angle_gamma 90.000000
_cell_volume 2113.093299
_symmetry_space_group_name_H-M "C 2/M"
_symmetry_group_IT_number 12
_symmetry_cell_setting 'monoclinic'
loop_
_space_group_symop_operation_xyz
x,y,z
-x,y,-z
-x,-y,-z
x,-y,z
1/2+x,1/2+y,z
1/2-x,1/2+y,-z
1/2-x,1/2-y,-z
1/2+x,1/2-y,z
loop_
_atom_site_type_symbol
_atom_site_label
_atom_site_fract_x
_atom_site_fract_y
_atom_site_fract_z
Si Si1 0.193889 0.928622 0.308361
Si Si2 0.842220 0.698040 0.722707
Si Si3 0.668530 0.193684 0.655773
Si Si4 0.748641 0.932385 0.271218
Si Si5 0.032611 0.121560 0.708782
Si Si6 0.881553 0.245029 0.064193
O O1 0.255451 0.866754 0.268707
O O2 0.234250 0.931717 0.519996
O O3 0.070117 0.910949 0.260477
O O4 0.209694 0.000000 0.242914
O O5 0.732949 0.739316 0.659848
O O6 0.878817 0.685513 0.551732
O O7 0.817947 0.630560 0.797693
O O8 0.907782 0.739906 0.884383
O O9 0.594662 0.203615 0.779357
O O10 0.867130 0.924801 0.258467
O O11 0.701575 0.000000 0.197091
O O12 0.075578 0.179137 0.842008
O O13 0.000000 0.140988 0.500000
O O14 0.750000 0.250000 0.000000
#
# Coordination Sequence:
#
# PCOD9172421 Si02
#       6
#     8   8   8   8   8   8
#     4   9  18  30  48  77 114 149 172 206 269 334
#     4   9  17  30  51  72  93 136 179 224 254 290
#     4   9  17  31  54  71  99 141 181 220 252 303
#     4   9  15  27  47  73 103 139 175 207 253 317
#     4  10  18  29  49  76 108 149 176 209 270 324
#     4  10  18  33  53  69  97 141 184 222 252 300
#
# _framework density 22.715513000000001
#
# number of rings (size 3 to 8) (size 9 to 14) (size 15 to 20)
#    0.000    2.667    3.333    0.500    2.333    2.000 
#    0.000    4.167    0.000    4.000    0.000    0.000 
#    0.000    6.667    0.000    0.000    0.000    0.000 
#
# Total GULP energy -133816.700024 kJ/mol
# GULP energy per Si atom -5575.695834 kJ/mol
# Density = 2.266381 g / cm^3
# Si number density = 22.715513 Si / 1000 Ang^3
#
#
#
# Elastic Constant Matrix: (Units=GPa)
#
#
# Indices 1 2 3 4 5 6 
#
# 1 24.6181 12.9423 17.6813 0.0000 -14.1948 0.0000
# 2 12.9423 165.0479 21.0478 0.0000 -3.3811 0.0000
# 3 17.6813 21.0478 82.0715 0.0000 -9.6639 0.0000
# 4 0.0000 0.0000 0.0000 7.0984 0.0000 7.5871
# 5 -14.1948 -3.3811 -9.6639 0.0000 42.1187 0.0000
# 6 0.0000 0.0000 0.0000 7.5871 0.0000 20.5090
#
#
#
# Elastic Compliance Matrix: (Units=1/GPa)
#
#
# Indices 1 2 3 4 5 6 
#
# 1 0.059476 -0.003033 -0.009973 0.000000 0.017513 0.000000
# 2 -0.003033 0.006419 -0.001082 0.000000 -0.000755 0.000000
# 3 -0.009973 -0.001082 0.014599 0.000000 -0.000098 0.000000
# 4 0.000000 0.000000 0.000000 0.233012 0.000000 -0.086200
# 5 0.017513 -0.000755 -0.000098 0.000000 0.029561 0.000000
# 6 0.000000 0.000000 0.000000 -0.086200 0.000000 0.080648
#
#
# Mechanical properties :
#
#
# Convention : Reuss Voigt Hill
#
# Bulk Modulus (GPa) = 19.11406 41.67559 30.39483
# Shear Modulus (GPa) = 10.65345 28.61628 19.63487
#
# Velocity S-wave (km/s) = 2.16798 3.55317 2.94323
# Velocity P-wave (km/s) = 3.83401 5.93464 4.99598
#
# Compressibility (1/GPa) = 0.05231750
#
# Stress axis : x y z
#
# Youngs Moduli (GPa) = 16.81352 155.78340 68.49798
#
# Poissons Ratio (x) = 0.47252 0.68316
# Poissons Ratio (y) = 0.05100 0.07409
# Poissons Ratio (z) = 0.16769 0.16851
#
# Static dielectric constant tensor:
#      x y z
#    x 1.969080 0.000000 -0.007680 
#    y 0.000000 1.852350 0.000000 
#    z -0.007680 0.000000 1.941610 
# 
# From -- ./inp_files/75446.got.cif
#   From: 2010.05.17/outbox.cif.g08.bks.cpg/sg12_38_cif.got.tgz:75446.got - 2010.06.03 13:09:07.
