data_PCOD9172773
_publ_section_title
;
Structure prediction by ZEFSAII (Michael W. Deem and Ramdas Pophale) SiO2 
 PCOD9172773
Probable space group: C 2/M
;
_chemical_formula_sum "Si O2"
_cell_formula_units_Z 48
_cell_length_a 28.664268
_cell_length_b 7.650421
_cell_length_c 12.862771
_cell_angle_alpha 90.000000
_cell_angle_beta 107.108923
_cell_angle_gamma 90.000000
_cell_volume 2695.899931
_symmetry_space_group_name_H-M "C 2/M"
_symmetry_group_IT_number 12
_symmetry_cell_setting 'monoclinic'
loop_
_space_group_symop_operation_xyz
x,y,z
-x,y,-z
-x,-y,-z
x,-y,z
1/2+x,1/2+y,z
1/2-x,1/2+y,-z
1/2-x,1/2-y,-z
1/2+x,1/2-y,z
loop_
_atom_site_type_symbol
_atom_site_label
_atom_site_fract_x
_atom_site_fract_y
_atom_site_fract_z
Si Si1 0.877473 0.797802 0.737098
Si Si2 0.650078 0.198831 0.909712
Si Si3 0.693936 0.209460 0.493581
Si Si4 0.192898 0.713601 0.728331
Si Si5 0.937595 0.500000 0.069748
Si Si6 0.699431 0.700610 0.147397
Si Si7 0.050234 0.500000 0.171974
O O1 0.843777 0.788791 0.613041
O O2 0.842606 0.724100 0.806637
O O3 0.923605 0.670560 0.763773
O O4 0.890944 0.000000 0.766958
O O5 0.656701 0.266862 0.797569
O O6 0.671054 0.000000 0.923581
O O7 0.594754 0.164930 0.911386
O O8 0.681147 0.293841 0.017697
O O9 0.750000 0.250000 0.500000
O O10 0.684223 0.271746 0.604944
O O11 0.688243 0.000000 0.485442
O O12 0.191673 0.500000 0.722696
O O13 0.246909 0.774020 0.798916
O O14 0.992146 0.500000 0.148466
O O15 0.940638 0.500000 0.946977
O O16 0.703193 0.500000 0.184780
#
# Coordination Sequence:
#
# PCOD9172773 Si02
#       7
#     8   8   8   8   4   8   4
#     4  11  21  35  55  80 114 144 182 227 284 333
#     4   9  17  33  51  74 102 140 177 226 268 328
#     4  11  20  33  51  77 112 151 186 229 268 326
#     4   9  18  30  49  73 110 144 182 216 266 328
#     4   9  20  34  61  79 109 135 194 235 276 342
#     4  10  18  30  47  76 110 145 170 215 270 336
#     4  11  20  40  57  85 111 147 184 241 288 317
#
# _framework density 17.804814
#
# number of rings (size 3 to 8) (size 9 to 14) (size 15 to 20)
#    0.500    1.500    4.167    1.000    0.000    0.000 
#    0.000    4.167    0.000    2.000    0.000    1.167 
#    0.000    0.000    0.000    0.000    0.000    0.000 
#
# Total GULP energy -133724.723371 kJ/mol
# GULP energy per Si atom -5571.863474 kJ/mol
# Density = 1.776429 g / cm^3
# Si number density = 17.804814 Si / 1000 Ang^3
#
#
#
# Elastic Constant Matrix: (Units=GPa)
#
#
# Indices 1 2 3 4 5 6 
#
# 1 63.4811 12.9974 40.2858 0.0000 8.4218 0.0000
# 2 12.9974 55.8192 4.2373 0.0000 8.9046 0.0000
# 3 40.2858 4.2373 113.0705 0.0000 -7.5167 0.0000
# 4 0.0000 0.0000 0.0000 17.1298 0.0000 6.5217
# 5 8.4218 8.9046 -7.5167 0.0000 31.1747 0.0000
# 6 0.0000 0.0000 0.0000 6.5217 0.0000 6.8480
#
#
#
# Elastic Compliance Matrix: (Units=1/GPa)
#
#
# Indices 1 2 3 4 5 6 
#
# 1 0.022804 -0.003519 -0.008472 0.000000 -0.007198 0.000000
# 2 -0.003519 0.019443 0.000223 0.000000 -0.004549 0.000000
# 3 -0.008472 0.000223 0.012197 0.000000 0.005166 0.000000
# 4 0.000000 0.000000 0.000000 0.091584 0.000000 -0.087219
# 5 -0.007198 -0.004549 0.005166 0.000000 0.036567 0.000000
# 6 0.000000 0.000000 0.000000 -0.087219 0.000000 0.229090
#
#
# Mechanical properties :
#
#
# Convention : Reuss Voigt Hill
#
# Bulk Modulus (GPa) = 32.35230 38.60131 35.47680
# Shear Modulus (GPa) = 11.22275 22.68719 16.95497
#
# Velocity S-wave (km/s) = 2.51334 3.57349 3.08923
# Velocity P-wave (km/s) = 5.16067 6.22525 5.71779
#
# Compressibility (1/GPa) = 0.03090970
#
# Stress axis : x y z
#
# Youngs Moduli (GPa) = 43.85156 51.43205 81.98439
#
# Poissons Ratio (x) = 0.18097 0.69453
# Poissons Ratio (y) = 0.15429 -0.01825
# Poissons Ratio (z) = 0.37149 -0.01145
#
# Static dielectric constant tensor:
#      x y z
#    x 1.609990 0.000000 -0.034400 
#    y 0.000000 1.650970 0.000000 
#    z -0.034400 0.000000 1.612540 
# 
# From -- ./inp_files/185976.got.cif
#   From: 2010.05.17/outbox.cif.g08.bks.cpg/sg12_93_cif.got.tgz:185976.got - 2010.06.03 13:09:07.
