data_PCOD9172230
_publ_section_title
;
Structure prediction by ZEFSAII (Michael W. Deem and Ramdas Pophale) SiO2 
 PCOD9172230
Probable space group: C 2/M
;
_chemical_formula_sum "Si O2"
_cell_formula_units_Z 56
_cell_length_a 23.259737
_cell_length_b 13.995848
_cell_length_c 9.279789
_cell_angle_alpha 90.000000
_cell_angle_beta 47.039162
_cell_angle_gamma 90.000000
_cell_volume 2210.783442
_symmetry_space_group_name_H-M "C 2/M"
_symmetry_group_IT_number 12
_symmetry_cell_setting 'monoclinic'
loop_
_space_group_symop_operation_xyz
x,y,z
-x,y,-z
-x,-y,-z
x,-y,z
1/2+x,1/2+y,z
1/2-x,1/2+y,-z
1/2-x,1/2-y,-z
1/2+x,1/2-y,z
loop_
_atom_site_type_symbol
_atom_site_label
_atom_site_fract_x
_atom_site_fract_y
_atom_site_fract_z
Si Si1 0.103053 0.106727 0.588951
Si Si2 0.872133 0.242956 0.033281
Si Si3 0.586809 0.197387 0.750341
Si Si4 0.432859 0.113167 0.510641
Si Si5 0.237877 0.111501 0.574983
Si Si6 0.110728 0.891149 0.237544
Si Si7 0.703248 0.888576 0.054048
O O1 0.069681 0.194340 0.733228
O O2 0.193015 0.107520 0.496774
O O3 0.093486 0.125088 0.435419
O O4 0.073537 0.000000 0.672197
O O5 0.924100 0.301623 0.059956
O O6 0.818805 0.168023 0.216730
O O7 0.917488 0.181657 0.835003
O O8 0.820696 0.319455 0.034000
O O9 0.553539 0.135291 0.677762
O O10 0.680002 0.166510 0.578771
O O11 0.500000 0.153150 0.500000
O O12 0.348841 0.143503 0.719440
O O13 0.433781 0.000000 0.522905
O O14 0.249581 0.000000 0.600377
O O15 0.087227 0.000000 0.244538
O O16 0.205343 0.883727 0.068197
O O17 0.685383 0.000000 0.050390
#
# Coordination Sequence:
#
# PCOD9172230 Si02
#       7
#     8   8   8   8   8   8   8
#     4   9  18  31  49  77 114 149 177 203 238 300
#     4  11  20  30  48  77 107 136 168 204 251 304
#     4  11  20  32  52  76 104 141 176 212 256 300
#     4  10  22  40  58  74  95 130 177 222 261 304
#     4  10  19  31  47  75 113 146 174 202 241 300
#     4  10  18  29  47  74 109 144 171 197 238 299
#     4  10  20  33  51  74 103 138 172 209 251 299
#
# _framework density 25.330387000000002
#
# number of rings (size 3 to 8) (size 9 to 14) (size 15 to 20)
#    0.000    1.857    0.000    6.429    0.000    4.000 
#    0.000    0.714    0.000    3.000    0.000    0.000 
#    0.000   10.286    0.000    0.000    0.000    0.000 
#
# Total GULP energy -156704.406799 kJ/mol
# GULP energy per Si atom -5596.585957 kJ/mol
# Density = 2.527273 g / cm^3
# Si number density = 25.330387 Si / 1000 Ang^3
#
#
#
# Elastic Constant Matrix: (Units=GPa)
#
#
# Indices 1 2 3 4 5 6 
#
# 1 125.2165 29.1501 39.5722 0.0000 28.6852 0.0000
# 2 29.1501 104.9786 35.1684 0.0000 12.0846 0.0000
# 3 39.5722 35.1684 119.4995 0.0000 9.2764 0.0000
# 4 0.0000 0.0000 0.0000 26.5888 0.0000 16.0672
# 5 28.6852 12.0846 9.2764 0.0000 43.4833 0.0000
# 6 0.0000 0.0000 0.0000 16.0672 0.0000 33.3125
#
#
#
# Elastic Compliance Matrix: (Units=1/GPa)
#
#
# Indices 1 2 3 4 5 6 
#
# 1 0.010500 -0.001350 -0.002614 0.000000 -0.005994 0.000000
# 2 -0.001350 0.010975 -0.002659 0.000000 -0.001592 0.000000
# 3 -0.002614 -0.002659 0.009991 0.000000 0.000332 0.000000
# 4 0.000000 0.000000 0.000000 0.053080 0.000000 -0.025602
# 5 -0.005994 -0.001592 0.000332 0.000000 0.027323 0.000000
# 6 0.000000 0.000000 0.000000 -0.025602 0.000000 0.042367
#
#
# Mechanical properties :
#
#
# Convention : Reuss Voigt Hill
#
# Bulk Modulus (GPa) = 54.88980 61.94176 58.41578
# Shear Modulus (GPa) = 28.80932 37.06385 32.93658
#
# Velocity S-wave (km/s) = 3.37611 3.82935 3.60985
# Velocity P-wave (km/s) = 6.07570 6.63766 6.36289
#
# Compressibility (1/GPa) = 0.01821832
#
# Stress axis : x y z
#
# Youngs Moduli (GPa) = 95.24118 91.11867 100.09176
#
# Poissons Ratio (x) = 0.12298 0.26169
# Poissons Ratio (y) = 0.12855 0.26617
# Poissons Ratio (z) = 0.24901 0.24231
#
# Static dielectric constant tensor:
#      x y z
#    x 2.104150 0.000000 -0.064290 
#    y 0.000000 1.970210 0.000000 
#    z -0.064290 0.000000 2.025150 
# 
# From -- ./inp_files/96473.got.cif
#   From: 2010.05.17/outbox.cif.g08.bks.cpg/sg12_49_cif.got.tgz:96473.got - 2010.06.03 13:09:07.
