data_PCOD9172811
_publ_section_title
;
Structure prediction by ZEFSAII (Michael W. Deem and Ramdas Pophale) SiO2 
 PCOD9172811
Probable space group: C 2/M
;
_chemical_formula_sum "Si O2"
_cell_formula_units_Z 48
_cell_length_a 19.036284
_cell_length_b 8.539209
_cell_length_c 18.977630
_cell_angle_alpha 90.000000
_cell_angle_beta 60.035351
_cell_angle_gamma 90.000000
_cell_volume 2672.557265
_symmetry_space_group_name_H-M "C 2/M"
_symmetry_group_IT_number 12
_symmetry_cell_setting 'monoclinic'
loop_
_space_group_symop_operation_xyz
x,y,z
-x,y,-z
-x,-y,-z
x,-y,z
1/2+x,1/2+y,z
1/2-x,1/2+y,-z
1/2-x,1/2-y,-z
1/2+x,1/2-y,z
loop_
_atom_site_type_symbol
_atom_site_label
_atom_site_fract_x
_atom_site_fract_y
_atom_site_fract_z
Si Si1 0.171827 0.187631 0.496380
Si Si2 0.330846 0.813309 0.998782
Si Si3 0.746930 0.811816 0.168890
Si Si4 0.580036 0.690522 0.673945
Si Si5 0.257116 0.311275 0.325889
Si Si6 0.913504 0.811589 0.828565
O O1 0.250000 0.250000 0.500000
O O2 0.097040 0.236241 0.584103
O O3 0.184097 0.251273 0.411782
O O4 0.174179 0.000000 0.493126
O O5 0.319833 0.751638 0.083473
O O6 0.330309 0.000000 0.998161
O O7 0.250000 0.750000 0.000000
O O8 0.402817 0.749538 0.913799
O O9 0.752746 0.761801 0.247111
O O10 0.663188 0.749718 0.177507
O O11 0.747262 0.000000 0.165015
O O12 0.579211 0.500000 0.675739
O O13 0.657904 0.740429 0.681156
O O14 0.496259 0.742891 0.750207
O O15 0.255842 0.500000 0.328685
O O16 0.910978 0.000000 0.830984
#
# Coordination Sequence:
#
# PCOD9172811 Si02
#       6
#     8   8   8   8   8   8
#     4   9  16  29  49  71  95 124 160 195 230 277
#     4  10  18  30  48  69  94 123 158 193 229 280
#     4  10  19  32  50  71  96 124 156 195 236 279
#     4   8  16  31  50  71  93 122 159 194 229 275
#     4   9  18  33  51  71  95 124 160 197 232 275
#     4  10  18  31  51  71  94 123 157 195 233 277
#
# _framework density 17.960326999999999
#
# number of rings (size 3 to 8) (size 9 to 14) (size 15 to 20)
#    0.000    2.667    0.000    6.000    0.000    1.333 
#    0.000   10.000    0.000   10.000    0.000    0.000 
#    0.000    0.000    0.000    0.000    0.000    0.000 
#
# Total GULP energy -133688.120132 kJ/mol
# GULP energy per Si atom -5570.338339 kJ/mol
# Density = 1.791945 g / cm^3
# Si number density = 17.960327 Si / 1000 Ang^3
#
#
#
# Elastic Constant Matrix: (Units=GPa)
#
#
# Indices 1 2 3 4 5 6 
#
# 1 36.6472 13.7329 63.2174 0.0000 -1.3912 -0.0002
# 2 13.7329 57.8301 46.5664 -0.0001 3.0533 -0.0005
# 3 63.2174 46.5664 246.8406 0.0000 -0.7441 0.0000
# 4 0.0000 -0.0001 0.0000 32.3268 0.0000 1.7943
# 5 -1.3912 3.0533 -0.7441 0.0000 33.6516 0.0000
# 6 -0.0002 -0.0005 0.0000 1.7943 0.0000 15.1244
#
#
#
# Elastic Compliance Matrix: (Units=1/GPa)
#
#
# Indices 1 2 3 4 5 6 
#
# 1 0.049168 -0.001938 -0.012221 0.000000 0.001938 0.000001
# 2 -0.001938 0.020592 -0.003395 0.000000 -0.002024 0.000001
# 3 -0.012221 -0.003395 0.007821 0.000000 -0.000024 0.000000
# 4 0.000000 0.000000 0.000000 0.031139 0.000000 -0.003694
# 5 0.001938 -0.002024 -0.000024 0.000000 0.029979 0.000000
# 6 0.000001 0.000001 0.000000 -0.003694 0.000000 0.066557
#
#
# Mechanical properties :
#
#
# Convention : Reuss Voigt Hill
#
# Bulk Modulus (GPa) = 23.54286 65.37236 44.45761
# Shear Modulus (GPa) = 19.64462 30.74062 25.19262
#
# Velocity S-wave (km/s) = 3.31082 4.14162 3.74930
# Velocity P-wave (km/s) = 5.26803 7.70376 6.59924
#
# Compressibility (1/GPa) = 0.04247572
#
# Stress axis : x y z
#
# Youngs Moduli (GPa) = 20.33829 48.56146 127.85486
#
# Poissons Ratio (x) = 0.09410 1.56250
# Poissons Ratio (y) = 0.03941 0.43402
# Poissons Ratio (z) = 0.24855 0.16485
#
# Static dielectric constant tensor:
#      x y z
#    x 1.658730 0.000000 0.002760 
#    y 0.000000 1.573950 0.000000 
#    z 0.002760 0.000000 1.677930 
# 
# From -- ./inp_files/281830.got.cif
#   From: 2010.05.17/outbox.cif.g08.bks.cpg/sg12_141_cif.got.tgz:281830.got - 2010.06.03 13:09:07.
