data_PCOD9172935
_publ_section_title
;
Structure prediction by ZEFSAII (Michael W. Deem and Ramdas Pophale) SiO2 
 PCOD9172935
Probable space group: C 2/M
;
_chemical_formula_sum "Si O2"
_cell_formula_units_Z 48
_cell_length_a 20.951355
_cell_length_b 8.689624
_cell_length_c 20.597045
_cell_angle_alpha 90.000000
_cell_angle_beta 49.287078
_cell_angle_gamma 90.000000
_cell_volume 2842.365465
_symmetry_space_group_name_H-M "C 2/M"
_symmetry_group_IT_number 12
_symmetry_cell_setting 'monoclinic'
loop_
_space_group_symop_operation_xyz
x,y,z
-x,y,-z
-x,-y,-z
x,-y,z
1/2+x,1/2+y,z
1/2-x,1/2+y,-z
1/2-x,1/2-y,-z
1/2+x,1/2-y,z
loop_
_atom_site_type_symbol
_atom_site_label
_atom_site_fract_x
_atom_site_fract_y
_atom_site_fract_z
Si Si1 0.155834 0.815550 0.556595
Si Si2 0.864872 0.818132 0.092638
Si Si3 0.902950 0.682790 0.272696
Si Si4 0.244410 0.814573 0.721601
Si Si5 0.519461 0.682204 0.092693
Si Si6 0.904864 0.185507 0.547125
O O1 0.250000 0.750000 0.500000
O O2 0.102246 0.749887 0.651783
O O3 0.118976 0.772929 0.510899
O O4 0.159005 0.000000 0.559013
O O5 0.786030 0.759202 0.186640
O O6 0.942153 0.805699 0.092551
O O7 0.851542 0.000000 0.090304
O O8 0.899671 0.756211 0.001013
O O9 0.895241 0.500000 0.279190
O O10 0.823084 0.750599 0.285768
O O11 0.986466 0.732479 0.178106
O O12 0.335956 0.759328 0.640059
O O13 0.239159 0.000000 0.723796
O O14 0.529708 0.500000 0.099573
O O15 0.000000 0.231591 0.500000
O O16 0.898771 0.000000 0.556804
#
# Coordination Sequence:
#
# PCOD9172935 Si02
#       6
#     8   8   8   8   8   8
#     4  11  21  34  53  74  98 130 167 204 246 298
#     4   7  12  23  41  64  91 124 159 197 240 291
#     4  11  20  29  44  70 102 131 163 203 247 290
#     4  10  18  30  49  71  96 129 168 204 244 293
#     4   8  13  25  42  62  92 127 161 196 240 292
#     4  10  22  38  53  72 100 131 164 205 252 299
#
# _framework density 16.887343000000001
#
# number of rings (size 3 to 8) (size 9 to 14) (size 15 to 20)
#    0.000    2.500    1.667    4.500    0.000    1.000 
#    0.000    7.500    0.000    0.000    0.000    1.167 
#    0.000    0.000    0.000    0.000    0.000    0.000 
#
# Total GULP energy -133686.418054 kJ/mol
# GULP energy per Si atom -5570.267419 kJ/mol
# Density = 1.684891 g / cm^3
# Si number density = 16.887343 Si / 1000 Ang^3
#
#
#
# Elastic Constant Matrix: (Units=GPa)
#
#
# Indices 1 2 3 4 5 6 
#
# 1 61.8983 25.6013 55.1137 0.0000 -5.0865 0.0000
# 2 25.6013 45.1146 47.9232 0.0000 -0.5211 0.0000
# 3 55.1137 47.9232 204.5751 0.0000 -1.9211 0.0000
# 4 0.0000 0.0000 0.0000 25.8907 0.0000 -2.7320
# 5 -5.0865 -0.5211 -1.9211 0.0000 13.7060 0.0000
# 6 0.0000 0.0000 0.0000 -2.7320 0.0000 11.9473
#
#
#
# Elastic Compliance Matrix: (Units=1/GPa)
#
#
# Indices 1 2 3 4 5 6 
#
# 1 0.024515 -0.009164 -0.004382 0.000000 0.008135 0.000000
# 2 -0.009164 0.032934 -0.005273 0.000000 -0.002888 0.000000
# 3 -0.004382 -0.005273 0.007296 0.000000 -0.000804 0.000000
# 4 0.000000 0.000000 0.000000 0.039579 0.000000 0.009051
# 5 0.008135 -0.002888 -0.000804 0.000000 0.075758 0.000000
# 6 0.000000 0.000000 0.000000 0.009051 0.000000 0.085771
#
#
# Mechanical properties :
#
#
# Convention : Reuss Voigt Hill
#
# Bulk Modulus (GPa) = 36.88827 63.20718 50.04772
# Shear Modulus (GPa) = 15.99862 22.50543 19.25202
#
# Velocity S-wave (km/s) = 3.08128 3.65455 3.38009
# Velocity P-wave (km/s) = 5.87794 7.43758 6.70328
#
# Compressibility (1/GPa) = 0.02710889
#
# Stress axis : x y z
#
# Youngs Moduli (GPa) = 40.79055 30.36351 137.05361
#
# Poissons Ratio (x) = 0.27824 0.60051
# Poissons Ratio (y) = 0.37379 0.72275
# Poissons Ratio (z) = 0.17873 0.16012
#
# Static dielectric constant tensor:
#      x y z
#    x 1.534410 0.000000 -0.000190 
#    y 0.000000 1.570080 0.000000 
#    z -0.000190 0.000000 1.631070 
# 
# From -- ./inp_files/318982.got.cif
#   From: 2010.05.17/outbox.cif.g08.bks.cpg/sg12_160_cif.got.tgz:318982.got - 2010.06.03 13:09:07.
