data_PCOD9172168
_publ_section_title
;
Structure prediction by ZEFSAII (Michael W. Deem and Ramdas Pophale) SiO2 
 PCOD9172168
Probable space group: C 2/M
;
_chemical_formula_sum "Si O2"
_cell_formula_units_Z 64
_cell_length_a 24.886352
_cell_length_b 7.716102
_cell_length_c 22.208990
_cell_angle_alpha 90.000000
_cell_angle_beta 132.008783
_cell_angle_gamma 90.000000
_cell_volume 3168.848771
_symmetry_space_group_name_H-M "C 2/M"
_symmetry_group_IT_number 12
_symmetry_cell_setting 'monoclinic'
loop_
_space_group_symop_operation_xyz
x,y,z
-x,y,-z
-x,-y,-z
x,-y,z
1/2+x,1/2+y,z
1/2-x,1/2+y,-z
1/2-x,1/2-y,-z
1/2+x,1/2-y,z
loop_
_atom_site_type_symbol
_atom_site_label
_atom_site_fract_x
_atom_site_fract_y
_atom_site_fract_z
Si Si1 0.338476 0.204272 0.924427
Si Si2 0.166906 0.803405 0.945618
Si Si3 0.783798 0.298485 0.338535
Si Si4 0.176563 0.287936 0.758244
Si Si5 0.936961 0.303829 0.231983
Si Si6 0.934485 0.703911 0.746221
Si Si7 0.877535 0.711782 0.825476
Si Si8 0.274491 0.292409 0.585268
O O1 0.253714 0.232000 0.844041
O O2 0.384221 0.263613 0.900261
O O3 0.350693 0.000000 0.941200
O O4 0.353156 0.289372 0.999401
O O5 0.117486 0.690601 0.865361
O O6 0.158428 0.000000 0.918577
O O7 0.250000 0.750000 0.000000
O O8 0.804507 0.500000 0.358605
O O9 0.826793 0.225912 0.313538
O O10 0.700447 0.282419 0.254057
O O11 0.780173 0.225897 0.403407
O O12 0.177774 0.500000 0.760023
O O13 0.110014 0.226539 0.749027
O O14 0.955859 0.500000 0.265747
O O15 0.008206 0.217747 0.257302
O O16 0.952480 0.500000 0.764351
O O17 0.932093 0.769095 0.813650
O O18 0.853942 0.721041 0.659681
O O19 0.874082 0.500000 0.821749
O O20 0.278597 0.500000 0.594838
O O21 0.250000 0.250000 0.500000
#
# Coordination Sequence:
#
# PCOD9172168 Si02
#       8
#     8   8   8   8   8   8   8   8
#     4  10  18  29  47  70  94 124 165 211 253 292
#     4  12  23  34  48  68  97 130 168 213 255 295
#     4   8  15  27  45  71  98 123 156 200 244 286
#     4   9  16  28  47  70  96 126 162 204 247 290
#     4  10  20  33  51  73  99 132 166 202 248 299
#     4   9  18  34  53  75 103 132 163 199 242 296
#     4   8  15  28  47  69  94 125 161 201 244 290
#     4  10  19  32  53  79 104 129 160 199 244 293
#
# _framework density 20.196611000000001
#
# number of rings (size 3 to 8) (size 9 to 14) (size 15 to 20)
#    0.000    2.500    1.250    1.875    0.000    1.500 
#    0.000    0.625    0.000    4.500    0.000    5.250 
#    0.000    0.000    0.000    0.000    0.000    0.000 
#
# Total GULP energy -178304.300626 kJ/mol
# GULP energy per Si atom -5572.009395 kJ/mol
# Density = 2.015064 g / cm^3
# Si number density = 20.196611 Si / 1000 Ang^3
#
#
#
# Elastic Constant Matrix: (Units=GPa)
#
#
# Indices 1 2 3 4 5 6 
#
# 1 183.4607 -1.1535 48.9634 0.0000 -39.4327 0.0000
# 2 -1.1535 50.7132 -8.1469 0.0000 -1.3999 0.0002
# 3 48.9634 -8.1469 48.0637 0.0000 -30.7842 0.0000
# 4 0.0000 0.0000 0.0000 14.3198 0.0000 -2.8904
# 5 -39.4327 -1.3999 -30.7842 0.0000 36.1700 0.0000
# 6 0.0000 0.0002 0.0000 -2.8904 0.0000 11.2410
#
#
#
# Elastic Compliance Matrix: (Units=1/GPa)
#
#
# Indices 1 2 3 4 5 6 
#
# 1 0.007734 -0.000646 -0.005725 0.000000 0.003535 0.000000
# 2 -0.000646 0.021481 0.009630 0.000000 0.008323 0.000000
# 3 -0.005725 0.009630 0.053885 0.000000 0.039993 0.000000
# 4 0.000000 0.000000 0.000000 0.073656 0.000000 0.018939
# 5 0.003535 0.008323 0.039993 0.000000 0.065861 0.000000
# 6 0.000000 0.000000 0.000000 0.018939 0.000000 0.093830
#
#
# Mechanical properties :
#
#
# Convention : Reuss Voigt Hill
#
# Bulk Modulus (GPa) = 11.15839 40.17373 25.66606
# Shear Modulus (GPa) = 14.71452 28.51782 21.61617
#
# Velocity S-wave (km/s) = 2.70212 3.76175 3.27507
# Velocity P-wave (km/s) = 3.90796 6.22914 5.19973
#
# Compressibility (1/GPa) = 0.08961863
#
# Stress axis : x y z
#
# Youngs Moduli (GPa) = 129.29460 46.55312 18.55815
#
# Poissons Ratio (x) = 0.03008 0.10624
# Poissons Ratio (y) = 0.08354 -0.17872
# Poissons Ratio (z) = 0.74016 -0.44832
#
# Static dielectric constant tensor:
#      x y z
#    x 1.804320 0.000000 -0.038730 
#    y 0.000000 1.741900 0.000000 
#    z -0.038730 0.000000 1.697910 
# 
# From -- ./inp_files/323766.got.cif
#   From: 2010.05.17/outbox.cif.g08.bks.cpg/sg12_162_cif.got.tgz:323766.got - 2010.06.03 13:09:07.
