data_PCOD9172467
_publ_section_title
;
Structure prediction by ZEFSAII (Michael W. Deem and Ramdas Pophale) SiO2 
 PCOD9172467
Probable space group: C 2/M
;
_chemical_formula_sum "Si O2"
_cell_formula_units_Z 48
_cell_length_a 13.140057
_cell_length_b 13.646395
_cell_length_c 25.058857
_cell_angle_alpha 90.000000
_cell_angle_beta 143.277541
_cell_angle_gamma 90.000000
_cell_volume 2686.789265
_symmetry_space_group_name_H-M "C 2/M"
_symmetry_group_IT_number 12
_symmetry_cell_setting 'monoclinic'
loop_
_space_group_symop_operation_xyz
x,y,z
-x,y,-z
-x,-y,-z
x,-y,z
1/2+x,1/2+y,z
1/2-x,1/2+y,-z
1/2-x,1/2-y,-z
1/2+x,1/2-y,z
loop_
_atom_site_type_symbol
_atom_site_label
_atom_site_fract_x
_atom_site_fract_y
_atom_site_fract_z
Si Si1 0.002999 0.812023 0.126511
Si Si2 0.152940 0.116736 0.295484
Si Si3 0.652782 0.888033 0.928847
Si Si4 0.331840 0.616110 0.898859
Si Si5 0.496045 0.233526 0.559877
Si Si6 0.643122 0.616783 0.414488
O O1 0.970727 0.697221 0.104880
O O2 0.028193 0.843226 0.197736
O O3 0.164459 0.840937 0.158301
O O4 0.836081 0.868206 0.033595
O O5 0.330533 0.172980 0.360862
O O6 0.093601 0.133245 0.331550
O O7 0.176368 0.000000 0.298798
O O8 0.681265 0.871159 0.877365
O O9 0.602172 0.000000 0.916777
O O10 0.355768 0.500000 0.902818
O O11 0.500000 0.656143 0.000000
O O12 0.500000 0.270151 0.500000
O O13 0.468290 0.320576 0.590646
O O14 0.335474 0.159862 0.499014
O O15 0.639536 0.500000 0.423309
#
# Coordination Sequence:
#
# PCOD9172467 Si02
#       6
#     8   8   8   8   8   8
#     4  10  18  29  50  72  94 124 163 201 238 281
#     4  10  19  31  49  73  98 124 158 199 239 281
#     4   9  18  32  49  68  93 127 164 201 239 279
#     4   8  14  27  46  65  85 115 156 195 229 270
#     4   9  18  33  52  72  96 128 162 192 229 283
#     4   9  18  33  52  74 100 127 155 192 238 284
#
# _framework density 17.865189999999998
#
# number of rings (size 3 to 8) (size 9 to 14) (size 15 to 20)
#    0.000    2.833    0.000    3.000    0.000    3.667 
#    0.000    0.833    0.000   18.500    0.000    0.000 
#    0.000    0.000    0.000    0.000    0.000    0.000 
#
# Total GULP energy -133641.793815 kJ/mol
# GULP energy per Si atom -5568.408076 kJ/mol
# Density = 1.782453 g / cm^3
# Si number density = 17.865190 Si / 1000 Ang^3
#
#
#
# Elastic Constant Matrix: (Units=GPa)
#
#
# Indices 1 2 3 4 5 6 
#
# 1 69.6665 57.8519 34.6065 0.0000 -16.8707 0.0000
# 2 57.8519 106.7316 29.4858 0.0000 -21.2362 0.0000
# 3 34.6065 29.4858 57.9338 0.0001 -26.5514 0.0000
# 4 0.0000 0.0000 0.0001 15.5832 0.0000 -7.2167
# 5 -16.8707 -21.2362 -26.5514 0.0000 17.9323 0.0000
# 6 0.0000 0.0000 0.0000 -7.2167 0.0000 31.4959
#
#
#
# Elastic Compliance Matrix: (Units=1/GPa)
#
#
# Indices 1 2 3 4 5 6 
#
# 1 0.033072 -0.015803 -0.018760 0.000000 -0.015378 0.000000
# 2 -0.015803 0.019840 0.010256 0.000000 0.023813 0.000000
# 3 -0.018760 0.010256 0.064482 0.000000 0.089971 0.000000
# 4 0.000000 0.000000 0.000000 0.071789 -0.000001 0.016449
# 5 -0.015378 0.023813 0.089971 -0.000001 0.202715 0.000000
# 6 0.000000 0.000000 0.000000 0.016449 0.000000 0.035519
#
#
# Mechanical properties :
#
#
# Convention : Reuss Voigt Hill
#
# Bulk Modulus (GPa) = 14.53915 53.13559 33.83737
# Shear Modulus (GPa) = 10.02086 20.49479 15.25782
#
# Velocity S-wave (km/s) = 2.37093 3.39070 2.92559
# Velocity P-wave (km/s) = 3.95614 6.71835 5.51304
#
# Compressibility (1/GPa) = 0.06877980
#
# Stress axis : x y z
#
# Youngs Moduli (GPa) = 30.23668 50.40359 15.50823
#
# Poissons Ratio (x) = 0.79654 0.29094
# Poissons Ratio (y) = 0.47784 -0.15905
# Poissons Ratio (z) = 0.56724 -0.51695
#
# Static dielectric constant tensor:
#      x y z
#    x 1.641150 0.000000 -0.017720 
#    y 0.000000 1.592720 0.000000 
#    z -0.017720 0.000000 1.637980 
# 
# From -- ./inp_files/305112.got.cif
#   From: 2010.05.17/outbox.cif.g08.bks.cpg/sg12_153_cif.got.tgz:305112.got - 2010.06.03 13:09:07.
