data_PCOD9172893
_publ_section_title
;
Structure prediction by ZEFSAII (Michael W. Deem and Ramdas Pophale) SiO2 
 PCOD9172893
Probable space group: C 2/M
;
_chemical_formula_sum "Si O2"
_cell_formula_units_Z 44
_cell_length_a 29.478687
_cell_length_b 9.997505
_cell_length_c 12.900986
_cell_angle_alpha 90.000000
_cell_angle_beta 136.933778
_cell_angle_gamma 90.000000
_cell_volume 2596.232946
_symmetry_space_group_name_H-M "C 2/M"
_symmetry_group_IT_number 12
_symmetry_cell_setting 'monoclinic'
loop_
_space_group_symop_operation_xyz
x,y,z
-x,y,-z
-x,-y,-z
x,-y,z
1/2+x,1/2+y,z
1/2-x,1/2+y,-z
1/2-x,1/2-y,-z
1/2+x,1/2-y,z
loop_
_atom_site_type_symbol
_atom_site_label
_atom_site_fract_x
_atom_site_fract_y
_atom_site_fract_z
Si Si1 0.863566 0.150543 0.684396
Si Si2 0.308726 0.343659 0.819471
Si Si3 0.476313 0.162248 0.572388
Si Si4 0.426476 0.844650 0.078824
Si Si5 0.340933 0.160079 0.452851
Si Si6 0.500000 0.747978 0.000000
O O1 0.819347 0.172423 0.713154
O O2 0.849868 0.259244 0.574104
O O3 0.939521 0.164200 0.850509
O O4 0.851645 0.000000 0.625816
O O5 0.322545 0.500000 0.865687
O O6 0.232037 0.313851 0.714626
O O7 0.361790 0.247568 0.961489
O O8 0.500000 0.211683 0.500000
O O9 0.526139 0.200572 0.748102
O O10 0.401520 0.199461 0.479115
O O11 0.477446 0.000000 0.571184
O O12 0.408879 0.000000 0.064396
O O13 0.467590 0.830519 0.040104
O O14 0.345284 0.000000 0.480140
#
# Coordination Sequence:
#
# PCOD9172893 Si02
#       6
#     8   8   8   8   8   4
#     4  10  19  30  47  74 107 140 168 201 252 309
#     4   9  20  34  49  73 108 141 165 200 258 315
#     4   9  18  34  55  77  99 130 175 218 254 294
#     4  10  19  32  53  78 102 132 172 216 251 294
#     4  10  19  34  53  74 101 136 175 211 250 300
#     4  10  18  30  48  78 106 136 166 204 258 308
#
# _framework density 16.947631999999999
#
# number of rings (size 3 to 8) (size 9 to 14) (size 15 to 20)
#    0.000    2.364    1.818    1.091    0.000    4.364 
#    0.000    0.909    0.000    2.182    0.000    0.000 
#    0.000    0.000    0.000    0.000    0.000    0.000 
#
# Total GULP energy -122645.737615 kJ/mol
# GULP energy per Si atom -5574.806255 kJ/mol
# Density = 1.690906 g / cm^3
# Si number density = 16.947632 Si / 1000 Ang^3
#
#
#
# Elastic Constant Matrix: (Units=GPa)
#
#
# Indices 1 2 3 4 5 6 
#
# 1 106.8499 47.6513 81.7295 0.0000 21.8973 0.0000
# 2 47.6513 48.3993 43.8857 0.0000 10.1784 0.0000
# 3 81.7295 43.8857 105.1223 0.0000 16.3249 0.0000
# 4 0.0000 0.0000 0.0000 14.0251 0.0000 8.5587
# 5 21.8973 10.1784 16.3249 0.0000 25.4166 0.0000
# 6 0.0000 0.0000 0.0000 8.5587 0.0000 4.3644
#
#
#
# Elastic Compliance Matrix: (Units=1/GPa)
#
#
# Indices 1 2 3 4 5 6 
#
# 1 0.028909 -0.011901 -0.015973 0.000000 -0.009881 0.000000
# 2 -0.011901 0.038701 -0.006764 0.000000 -0.000901 0.000000
# 3 -0.015973 -0.006764 0.024657 0.000000 0.000633 0.000000
# 4 0.000000 0.000000 0.000000 -0.362480 0.000000 0.710835
# 5 -0.009881 -0.000901 0.000633 0.000000 0.047811 0.000000
# 6 0.000000 0.000000 0.000000 0.710835 0.000000 -1.164844
#
#
# Mechanical properties :
#
#
# Convention : Reuss Voigt Hill
#
# Bulk Modulus (GPa) = 43.49593 67.43383 55.46488
# Shear Modulus (GPa) = -3.81591 14.56822 5.37616
#
# Velocity S-wave (km/s) = -1.50216 2.93508 1.78300
# Velocity P-wave (km/s) = 4.76571 7.16674 6.08581
#
# Compressibility (1/GPa) = 0.02299066
#
# Stress axis : x y z
#
# Youngs Moduli (GPa) = 34.59113 25.83897 40.55626
#
# Poissons Ratio (x) = 0.30750 0.64782
# Poissons Ratio (y) = 0.41166 0.27434
# Poissons Ratio (z) = 0.55254 0.17478
#
# Static dielectric constant tensor:
#      x y z
#    x 1.580420 0.000000 0.017390 
#    y 0.000000 1.566260 0.000000 
#    z 0.017390 0.000000 1.556100 
# 
# From -- ./inp_files/188482.got.cif
#   From: 2010.05.17/outbox.cif.g08.bks.cpg/sg12_95_cif.got.tgz:188482.got - 2010.06.03 13:09:07.
