data_PCOD9172165
_publ_section_title
;
Structure prediction by ZEFSAII (Michael W. Deem and Ramdas Pophale) SiO2 
 PCOD9172165
Probable space group: C 2/M
;
_chemical_formula_sum "Si O2"
_cell_formula_units_Z 64
_cell_length_a 19.837147
_cell_length_b 17.625660
_cell_length_c 12.666133
_cell_angle_alpha 90.000000
_cell_angle_beta 122.236125
_cell_angle_gamma 90.000000
_cell_volume 3745.981270
_symmetry_space_group_name_H-M "C 2/M"
_symmetry_group_IT_number 12
_symmetry_cell_setting 'monoclinic'
loop_
_space_group_symop_operation_xyz
x,y,z
-x,y,-z
-x,-y,-z
x,-y,z
1/2+x,1/2+y,z
1/2-x,1/2+y,-z
1/2-x,1/2-y,-z
1/2+x,1/2-y,z
loop_
_atom_site_type_symbol
_atom_site_label
_atom_site_fract_x
_atom_site_fract_y
_atom_site_fract_z
Si Si1 0.667064 0.414211 0.709129
Si Si2 0.023309 0.193416 0.642111
Si Si3 0.651645 0.090549 0.065140
Si Si4 0.711760 0.907238 0.519804
Si Si5 0.591170 0.090501 0.598568
Si Si6 0.375178 0.588748 0.570929
Si Si7 0.569928 0.845548 0.800672
Si Si8 0.407476 0.909098 0.758745
O O1 0.642339 0.500000 0.716243
O O2 0.602866 0.356565 0.700077
O O3 0.756072 0.402672 0.825190
O O4 0.663065 0.409588 0.578626
O O5 0.043701 0.264355 0.733113
O O6 0.000000 0.212583 0.500000
O O7 0.951430 0.142900 0.629164
O O8 0.601700 0.113560 0.127436
O O9 0.636130 0.000000 0.029221
O O10 0.628257 0.143466 0.948187
O O11 0.657460 0.880134 0.572170
O O12 0.804322 0.885522 0.589955
O O13 0.664713 0.881988 0.375594
O O14 0.712148 0.000000 0.520728
O O15 0.500000 0.115572 0.500000
O O16 0.608017 0.112328 0.732232
O O17 0.590905 0.000000 0.586426
O O18 0.396135 0.500000 0.609044
O O19 0.488962 0.885688 0.771780
O O20 0.402981 0.000000 0.755760
#
# Coordination Sequence:
#
# PCOD9172165 Si02
#       8
#     8   8   8   8   8   8   8   8
#     4   9  17  34  58  80 100 126 171 227 272 304
#     4  10  22  35  50  76 106 141 175 209 261 316
#     4  10  20  34  56  82 103 132 177 221 259 302
#     4   9  16  28  52  79 100 128 170 219 265 300
#     4  10  18  29  47  70 102 144 180 207 246 302
#     4   9  16  33  58  80 101 126 170 228 272 303
#     4  12  22  32  46  72 114 148 171 199 247 315
#     4  10  18  32  53  77 102 134 176 220 258 296
#
# _framework density 17.084976999999999
#
# number of rings (size 3 to 8) (size 9 to 14) (size 15 to 20)
#    0.000    2.125    2.500    2.250    0.000    3.000 
#    0.000    1.875    0.000    1.500    0.000    0.000 
#    0.000    9.000    0.000    0.000    0.000    0.000 
#
# Total GULP energy -178369.147361 kJ/mol
# GULP energy per Si atom -5574.035855 kJ/mol
# Density = 1.704609 g / cm^3
# Si number density = 17.084977 Si / 1000 Ang^3
#
#
#
# Elastic Constant Matrix: (Units=GPa)
#
#
# Indices 1 2 3 4 5 6 
#
# 1 106.9884 29.0522 35.7693 0.0000 -17.8853 0.0000
# 2 29.0522 30.6999 27.6039 0.0000 -5.7303 0.0000
# 3 35.7693 27.6039 68.0924 0.0000 -17.4378 0.0000
# 4 0.0000 0.0000 0.0000 24.9118 0.0000 -1.4040
# 5 -17.8853 -5.7303 -17.4378 0.0000 23.0739 0.0000
# 6 0.0000 0.0000 0.0000 -1.4040 0.0000 0.8149
#
#
#
# Elastic Compliance Matrix: (Units=1/GPa)
#
#
# Indices 1 2 3 4 5 6 
#
# 1 0.013843 -0.010824 -0.001022 0.000000 0.007270 0.000000
# 2 -0.010824 0.059974 -0.021032 0.000000 -0.009390 0.000000
# 3 -0.001022 -0.021032 0.027538 0.000000 0.014796 0.000000
# 4 0.000000 0.000000 0.000000 0.044459 0.000000 0.076598
# 5 0.007270 -0.009390 0.014796 0.000000 0.057824 0.000000
# 6 0.000000 0.000000 0.000000 0.076598 0.000000 1.359120
#
#
# Mechanical properties :
#
#
# Convention : Reuss Voigt Hill
#
# Bulk Modulus (GPa) = 28.09028 43.40353 35.74690
# Shear Modulus (GPa) = 3.04807 17.31713 10.18260
#
# Velocity S-wave (km/s) = 1.33714 3.18714 2.44395
# Velocity P-wave (km/s) = 4.34294 6.24528 5.37888
#
# Compressibility (1/GPa) = 0.03559950
#
# Stress axis : x y z
#
# Youngs Moduli (GPa) = 72.23840 16.67376 36.31338
#
# Poissons Ratio (x) = 0.18048 0.03712
# Poissons Ratio (y) = 0.78191 0.76374
# Poissons Ratio (z) = 0.07384 0.35068
#
# Static dielectric constant tensor:
#      x y z
#    x 1.590150 0.000000 -0.006620 
#    y 0.000000 1.582870 0.000000 
#    z -0.006620 0.000000 1.584650 
# 
# From -- ./inp_files/168507.got.cif
#   From: 2010.05.17/outbox.cif.g08.bks.cpg/sg12_85_cif.got.tgz:168507.got - 2010.06.03 13:09:07.
