data_PCOD9172995
_publ_section_title
;
Structure prediction by ZEFSAII (Michael W. Deem and Ramdas Pophale) SiO2 
 PCOD9172995
Probable space group: C 2/M
;
_chemical_formula_sum "Si O2"
_cell_formula_units_Z 56
_cell_length_a 24.715244
_cell_length_b 7.519133
_cell_length_c 15.444533
_cell_angle_alpha 90.000000
_cell_angle_beta 117.677928
_cell_angle_gamma 90.000000
_cell_volume 2541.742999
_symmetry_space_group_name_H-M "C 2/M"
_symmetry_group_IT_number 12
_symmetry_cell_setting 'monoclinic'
loop_
_space_group_symop_operation_xyz
x,y,z
-x,y,-z
-x,-y,-z
x,-y,z
1/2+x,1/2+y,z
1/2-x,1/2+y,-z
1/2-x,1/2-y,-z
1/2+x,1/2-y,z
loop_
_atom_site_type_symbol
_atom_site_label
_atom_site_fract_x
_atom_site_fract_y
_atom_site_fract_z
Si Si1 0.186016 0.286405 0.502306
Si Si2 0.941527 0.786645 0.015275
Si Si3 0.930444 0.297597 0.202206
Si Si4 0.207107 0.714104 0.884670
Si Si5 0.260646 0.216973 0.283981
Si Si6 0.937523 0.292390 0.677963
Si Si7 0.873638 0.214290 0.802207
O O1 0.181079 0.500000 0.498279
O O2 0.250000 0.250000 0.500000
O O3 0.192288 0.226742 0.606883
O O4 0.123477 0.215811 0.412611
O O5 0.939550 0.697556 0.105722
O O6 0.941095 0.000000 0.029800
O O7 0.886587 0.736500 0.910843
O O8 0.000000 0.746005 0.000000
O O9 0.927049 0.500000 0.233763
O O10 0.862874 0.217170 0.161934
O O11 0.994173 0.216293 0.285042
O O12 0.204080 0.500000 0.879501
O O13 0.231218 0.775756 0.808773
O O14 0.250000 0.750000 0.000000
O O15 0.194356 0.272178 0.269722
O O16 0.260938 0.000000 0.282310
O O17 0.941529 0.500000 0.656920
O O18 0.921281 0.282934 0.767783
O O19 0.878047 0.000000 0.801618
#
# Coordination Sequence:
#
# PCOD9172995 Si02
#       7
#     8   8   8   8   8   8   8
#     4  10  19  33  54  79 107 139 175 218 266 317
#     4  10  19  30  48  75 103 135 177 215 255 316
#     4  10  21  35  51  74 108 143 173 215 273 320
#     4  10  21  39  59  78 104 142 183 223 264 315
#     4   9  18  33  54  76 102 137 177 218 262 309
#     4  10  20  32  48  76 109 135 165 211 264 318
#     4  10  18  30  49  74 102 134 172 213 258 310
#
# _framework density 22.032126999999999
#
# number of rings (size 3 to 8) (size 9 to 14) (size 15 to 20)
#    0.000    2.143    2.857    0.857    0.000    2.571 
#    0.000    2.143    0.000    4.286    0.000    0.000 
#    0.000    4.571    0.000    0.000    0.000    0.000 
#
# Total GULP energy -156142.158517 kJ/mol
# GULP energy per Si atom -5576.505661 kJ/mol
# Density = 2.198198 g / cm^3
# Si number density = 22.032127 Si / 1000 Ang^3
#
#
#
# Elastic Constant Matrix: (Units=GPa)
#
#
# Indices 1 2 3 4 5 6 
#
# 1 136.4952 4.6681 55.7023 0.0000 28.0784 0.0000
# 2 4.6681 54.6847 0.4786 0.0000 3.9218 0.0000
# 3 55.7023 0.4786 124.6029 0.0000 24.0533 0.0000
# 4 0.0000 0.0000 0.0000 9.7940 0.0000 1.0633
# 5 28.0784 3.9218 24.0533 0.0000 40.8423 0.0000
# 6 0.0000 0.0000 0.0000 1.0633 0.0000 11.6205
#
#
#
# Elastic Compliance Matrix: (Units=1/GPa)
#
#
# Indices 1 2 3 4 5 6 
#
# 1 0.009692 -0.000468 -0.003445 0.000000 -0.004589 0.000000
# 2 -0.000468 0.018446 0.000472 0.000000 -0.001727 0.000000
# 3 -0.003445 0.000472 0.010285 0.000000 -0.003734 0.000000
# 4 0.000000 0.000000 0.000000 0.103128 0.000000 -0.009437
# 5 -0.004589 -0.001727 -0.003734 0.000000 0.030004 0.000000
# 6 0.000000 0.000000 0.000000 -0.009437 0.000000 0.086918
#
#
# Mechanical properties :
#
#
# Convention : Reuss Voigt Hill
#
# Bulk Modulus (GPa) = 31.70524 48.60897 40.15711
# Shear Modulus (GPa) = 18.12451 29.44695 23.78573
#
# Velocity S-wave (km/s) = 2.87128 3.65985 3.28928
# Velocity P-wave (km/s) = 5.04123 6.32218 5.71769
#
# Compressibility (1/GPa) = 0.03154053
#
# Stress axis : x y z
#
# Youngs Moduli (GPa) = 103.17506 54.21123 97.23349
#
# Poissons Ratio (x) = 0.02537 0.33498
# Poissons Ratio (y) = 0.04829 -0.04588
# Poissons Ratio (z) = 0.35545 -0.02558
#
# Static dielectric constant tensor:
#      x y z
#    x 1.824270 0.000000 0.066760 
#    y 0.000000 1.860950 0.000000 
#    z 0.066760 0.000000 1.832610 
# 
# From -- ./inp_files/237880.got.cif
#   From: 2010.05.17/outbox.cif.g08.bks.cpg/sg12_119_cif.got.tgz:237880.got - 2010.06.03 13:09:07.
