data_PCOD9172628
_publ_section_title
;
Structure prediction by ZEFSAII (Michael W. Deem and Ramdas Pophale) SiO2 
 PCOD9172628
Probable space group: C 2/M
;
_chemical_formula_sum "Si O2"
_cell_formula_units_Z 52
_cell_length_a 8.881152
_cell_length_b 31.427358
_cell_length_c 11.344938
_cell_angle_alpha 90.000000
_cell_angle_beta 125.422649
_cell_angle_gamma 90.000000
_cell_volume 2580.375740
_symmetry_space_group_name_H-M "C 2/M"
_symmetry_group_IT_number 12
_symmetry_cell_setting 'monoclinic'
loop_
_space_group_symop_operation_xyz
x,y,z
-x,y,-z
-x,-y,-z
x,-y,z
1/2+x,1/2+y,z
1/2-x,1/2+y,-z
1/2-x,1/2-y,-z
1/2+x,1/2-y,z
loop_
_atom_site_type_symbol
_atom_site_label
_atom_site_fract_x
_atom_site_fract_y
_atom_site_fract_z
Si Si1 0.048398 0.634776 0.835170
Si Si2 0.307111 0.952782 0.174236
Si Si3 0.500000 0.229994 0.500000
Si Si4 0.685402 0.368274 0.814358
Si Si5 0.454594 0.454020 0.176831
Si Si6 0.902098 0.790543 0.674374
Si Si7 0.564261 0.776506 0.900370
O O1 0.081972 0.591716 0.776893
O O2 0.083688 0.684198 0.818220
O O3 0.836496 0.635596 0.780881
O O4 0.193439 0.631222 0.010375
O O5 0.154923 0.950648 0.207918
O O6 0.399707 0.000000 0.223385
O O7 0.189785 0.953594 0.998663
O O8 0.316123 0.201456 0.430764
O O9 0.478619 0.262866 0.599789
O O10 0.587284 0.413721 0.763185
O O11 0.534963 0.330910 0.749404
O O12 0.435700 0.500000 0.227159
O O13 0.919074 0.757851 0.790471
O O14 0.500000 0.792470 0.000000
O O15 0.750000 0.750000 0.000000
#
# Coordination Sequence:
#
# PCOD9172628 Si02
#       7
#     8   8   4   8   8   8   8
#     4  10  18  30  44  75 107 139 169 204 261 319
#     4   8  15  27  42  63 102 145 177 199 234 306
#     4  10  24  40  58  70 100 142 192 228 258 304
#     4  10  18  31  49  71 106 133 172 212 259 315
#     4   8  15  27  43  68  99 136 172 208 249 304
#     4  11  22  40  55  77 103 143 184 225 265 311
#     4  12  21  34  52  78 111 138 167 218 272 321
#
# _framework density 20.152103
#
# number of rings (size 3 to 8) (size 9 to 14) (size 15 to 20)
#    0.000    2.154    3.077    2.769    0.000    3.077 
#    0.000    3.077    0.000    0.000    0.000    1.077 
#    0.000    4.923    0.000    0.308    0.000    0.000 
#
# Total GULP energy -144801.377229 kJ/mol
# GULP energy per Si atom -5569.283740 kJ/mol
# Density = 2.010624 g / cm^3
# Si number density = 20.152103 Si / 1000 Ang^3
#
#
#
# Elastic Constant Matrix: (Units=GPa)
#
#
# Indices 1 2 3 4 5 6 
#
# 1 87.4235 68.2719 20.4783 0.0000 23.2697 0.0000
# 2 68.2719 196.7729 12.4210 0.0000 17.6334 0.0000
# 3 20.4783 12.4210 14.1998 0.0000 5.1769 0.0000
# 4 0.0000 0.0000 0.0000 4.4111 0.0000 1.5085
# 5 23.2697 17.6334 5.1769 0.0000 22.4695 0.0000
# 6 0.0000 0.0000 0.0000 1.5085 0.0000 37.1949
#
#
#
# Elastic Compliance Matrix: (Units=1/GPa)
#
#
# Indices 1 2 3 4 5 6 
#
# 1 0.027314 -0.006199 -0.027762 0.000000 -0.017026 0.000000
# 2 -0.006199 0.007039 0.002681 0.000000 0.000278 0.000000
# 3 -0.027762 0.002681 0.107424 0.000000 0.001896 0.000000
# 4 0.000000 0.000000 0.000000 0.229891 0.000000 -0.009323
# 5 -0.017026 0.000278 0.001896 0.000000 0.061482 0.000000
# 6 0.000000 0.000000 0.000000 -0.009323 0.000000 0.027264
#
#
# Mechanical properties :
#
#
# Convention : Reuss Voigt Hill
#
# Bulk Modulus (GPa) = 12.62335 55.63761 34.13048
# Shear Modulus (GPa) = 9.10121 25.96343 17.53232
#
# Velocity S-wave (km/s) = 2.12745 3.59329 2.95278
# Velocity P-wave (km/s) = 3.50890 6.69958 5.34775
#
# Compressibility (1/GPa) = 0.07921828
#
# Stress axis : x y z
#
# Youngs Moduli (GPa) = 36.61110 142.07549 9.30891
#
# Poissons Ratio (x) = 0.88068 0.25843
# Poissons Ratio (y) = 0.22694 -0.02496
# Poissons Ratio (z) = 1.01639 -0.38094
#
# Static dielectric constant tensor:
#      x y z
#    x 1.716490 0.000000 0.013220 
#    y 0.000000 1.780810 0.000000 
#    z 0.013220 0.000000 1.795200 
# 
# From -- ./inp_files/125392.got.cif
#   From: 2010.05.17/outbox.cif.g08.bks.cpg/sg12_63_cif.got.tgz:125392.got - 2010.06.03 13:09:07.
