data_PCOD9172140
_publ_section_title
;
Structure prediction by ZEFSAII (Michael W. Deem and Ramdas Pophale) SiO2 
 PCOD9172140
Probable space group: C 2/M
;
_chemical_formula_sum "Si O2"
_cell_formula_units_Z 56
_cell_length_a 14.408013
_cell_length_b 25.105330
_cell_length_c 11.772417
_cell_angle_alpha 90.000000
_cell_angle_beta 40.061769
_cell_angle_gamma 90.000000
_cell_volume 2740.693879
_symmetry_space_group_name_H-M "C 2/M"
_symmetry_group_IT_number 12
_symmetry_cell_setting 'monoclinic'
loop_
_space_group_symop_operation_xyz
x,y,z
-x,y,-z
-x,-y,-z
x,-y,z
1/2+x,1/2+y,z
1/2-x,1/2+y,-z
1/2-x,1/2-y,-z
1/2+x,1/2-y,z
loop_
_atom_site_type_symbol
_atom_site_label
_atom_site_fract_x
_atom_site_fract_y
_atom_site_fract_z
Si Si1 0.710015 0.437784 0.576084
Si Si2 0.382604 0.769138 0.520403
Si Si3 0.054091 0.132243 0.162259
Si Si4 0.189389 0.694105 0.007711
Si Si5 0.063670 0.757816 0.795236
Si Si6 0.485633 0.878632 0.355601
Si Si7 0.743631 0.561353 0.815989
O O1 0.699961 0.500000 0.553180
O O2 0.576680 0.401309 0.661790
O O3 0.864456 0.411564 0.401029
O O4 0.706700 0.435136 0.717435
O O5 0.500000 0.749282 0.500000
O O6 0.221075 0.752691 0.701305
O O7 0.412788 0.750939 0.363440
O O8 0.394993 0.833558 0.508265
O O9 0.991231 0.181794 0.149116
O O10 0.168714 0.158115 0.144173
O O11 0.139457 0.095232 0.993833
O O12 0.059912 0.716735 0.052445
O O13 0.097744 0.657745 0.180544
O O14 0.250000 0.750000 0.000000
O O15 0.592978 0.918850 0.317714
O O16 0.731172 0.500000 0.861468
#
# Coordination Sequence:
#
# PCOD9172140 Si02
#       7
#     8   8   8   8   8   8   8
#     4  11  20  29  42  67  99 133 178 219 245 287
#     4  10  18  30  50  76  99 128 168 206 255 309
#     4  10  18  31  46  61  91 135 172 208 257 294
#     4   8  17  32  48  64  89 127 167 208 256 298
#     4   9  18  32  49  69  98 128 165 214 253 299
#     4  10  18  29  47  67  94 134 175 207 246 300
#     4  10  20  31  42  62  97 139 178 214 247 289
#
# _framework density 20.432780999999999
#
# number of rings (size 3 to 8) (size 9 to 14) (size 15 to 20)
#    0.000    2.286    1.429    2.571    0.000    2.286 
#    2.571    0.000    0.000    0.000    0.000    0.000 
#    0.000    2.286    0.000   23.571    0.000    0.857 
#
# Total GULP energy -156087.266218 kJ/mol
# GULP energy per Si atom -5574.545222 kJ/mol
# Density = 2.038628 g / cm^3
# Si number density = 20.432781 Si / 1000 Ang^3
#
#
#
# Elastic Constant Matrix: (Units=GPa)
#
#
# Indices 1 2 3 4 5 6 
#
# 1 96.5011 35.0882 46.5594 0.0000 -42.1262 0.0000
# 2 35.0882 129.1762 41.7900 0.0000 -22.6819 0.0000
# 3 46.5594 41.7900 88.2218 0.0000 -38.9385 0.0000
# 4 0.0000 0.0000 0.0000 -4.8018 0.0000 -109.1152
# 5 -42.1262 -22.6819 -38.9385 0.0000 47.6102 0.0000
# 6 0.0000 0.0000 0.0000 -109.1152 0.0000 -256.0981
#
#
#
# Elastic Compliance Matrix: (Units=1/GPa)
#
#
# Indices 1 2 3 4 5 6 
#
# 1 0.017952 -0.001655 -0.003173 0.000000 0.012501 0.000000
# 2 -0.001655 0.009345 -0.003497 0.000000 0.000128 0.000000
# 3 -0.003173 -0.003497 0.019861 0.000000 0.011770 0.000000
# 4 0.000000 0.000000 0.000000 0.023987 0.000000 -0.010220
# 5 0.012501 0.000128 0.011770 0.000000 0.041752 0.000000
# 6 0.000000 0.000000 0.000000 -0.010220 0.000000 0.000450
#
#
# Mechanical properties :
#
#
# Convention : Reuss Voigt Hill
#
# Bulk Modulus (GPa) = 32.77730 62.30827 47.54279
# Shear Modulus (GPa) = 35.67205 -29.96050 2.85578
#
# Velocity S-wave (km/s) = 4.18284 -3.83338 1.18350
# Velocity P-wave (km/s) = 6.27730 3.31171 5.01856
#
# Compressibility (1/GPa) = 0.03050892
#
# Stress axis : x y z
#
# Youngs Moduli (GPa) = 55.70308 107.01454 50.35003
#
# Poissons Ratio (x) = 0.17710 0.15976
# Poissons Ratio (y) = 0.09218 0.17606
# Poissons Ratio (z) = 0.17674 0.37419
#
# Static dielectric constant tensor:
#      x y z
#    x 1.850390 0.000000 0.074980 
#    y 0.000000 1.731310 0.000000 
#    z 0.074980 0.000000 1.914660 
# 
# From -- ./inp_files/218254.got.cif
#   From: 2010.05.17/outbox.cif.g08.bks.cpg/sg12_110_cif.got.tgz:218254.got - 2010.06.03 13:09:07.
