data_PCOD9172957
_publ_section_title
;
Structure prediction by ZEFSAII (Michael W. Deem and Ramdas Pophale) SiO2 
 PCOD9172957
Probable space group: C 2/M
;
_chemical_formula_sum "Si O2"
_cell_formula_units_Z 64
_cell_length_a 29.409283
_cell_length_b 7.629852
_cell_length_c 14.843698
_cell_angle_alpha 90.000000
_cell_angle_beta 86.156765
_cell_angle_gamma 90.000000
_cell_volume 3323.264496
_symmetry_space_group_name_H-M "C 2/M"
_symmetry_group_IT_number 12
_symmetry_cell_setting 'monoclinic'
loop_
_space_group_symop_operation_xyz
x,y,z
-x,y,-z
-x,-y,-z
x,-y,z
1/2+x,1/2+y,z
1/2-x,1/2+y,-z
1/2-x,1/2-y,-z
1/2+x,1/2-y,z
loop_
_atom_site_type_symbol
_atom_site_label
_atom_site_fract_x
_atom_site_fract_y
_atom_site_fract_z
Si Si1 0.904944 0.790141 0.941128
Si Si2 0.451873 0.292717 0.470566
Si Si3 0.519296 0.793786 0.204896
Si Si4 0.739476 0.710919 0.897303
Si Si5 0.406129 0.787641 0.658119
Si Si6 0.362517 0.715500 0.132638
Si Si7 0.576601 0.701797 0.718233
Si Si8 0.169268 0.292623 0.200830
O O1 0.952369 0.732394 0.890363
O O2 0.864588 0.728836 0.879798
O O3 0.095573 0.000000 0.059481
O O4 0.893088 0.729674 0.043006
O O5 0.500000 0.217829 0.500000
O O6 0.459749 0.500000 0.453875
O O7 0.416321 0.270718 0.556111
O O8 0.434784 0.218053 0.377779
O O9 0.552568 0.730072 0.281309
O O10 0.470615 0.704880 0.219822
O O11 0.511948 0.000000 0.218722
O O12 0.738907 0.500000 0.888842
O O13 0.689336 0.773214 0.876594
O O14 0.781496 0.780532 0.831962
O O15 0.750000 0.750000 0.000000
O O16 0.359426 0.723556 0.710370
O O17 0.406058 0.000000 0.660358
O O18 0.362917 0.500000 0.133062
O O19 0.384777 0.778674 0.222452
O O20 0.590049 0.500000 0.700007
O O21 0.175085 0.500000 0.215160
#
# Coordination Sequence:
#
# PCOD9172957 Si02
#       8
#     8   8   8   8   8   8   8   8
#     4  10  18  30  49  72  99 131 169 202 236 288
#     4  10  19  31  50  75  95 121 165 210 249 285
#     4  10  20  33  48  71 101 133 168 199 244 296
#     4  10  18  32  53  76 101 129 167 205 243 289
#     4   9  18  31  48  71  98 127 158 196 247 299
#     4   9  19  33  50  73  99 133 169 201 244 298
#     4  10  20  35  51  69  99 132 167 208 248 292
#     4   9  18  31  49  75 103 129 159 202 248 291
#
# _framework density 19.258172999999999
#
# number of rings (size 3 to 8) (size 9 to 14) (size 15 to 20)
#    0.000    2.375    2.500    1.500    0.000    3.250 
#    0.000    4.375    0.000    0.750    0.000    0.000 
#    0.000    0.000    0.000    0.000    0.000    0.250 
#
# Total GULP energy -178540.405717 kJ/mol
# GULP energy per Si atom -5579.387679 kJ/mol
# Density = 1.921434 g / cm^3
# Si number density = 19.258173 Si / 1000 Ang^3
#
#
#
# Elastic Constant Matrix: (Units=GPa)
#
#
# Indices 1 2 3 4 5 6 
#
# 1 -30.7824 73.9285 76.0313 0.0000 61.6496 0.0000
# 2 73.9285 -2.3704 1.9395 0.0000 -28.4970 0.0000
# 3 76.0313 1.9395 144.2565 0.0000 6.3219 0.0000
# 4 0.0000 0.0000 0.0000 -32.3891 0.0000 1.0034
# 5 61.6496 -28.4970 6.3219 0.0000 2.0327 0.0000
# 6 0.0000 0.0000 0.0000 1.0034 0.0000 12.0813
#
#
#
# Elastic Compliance Matrix: (Units=1/GPa)
#
#
# Indices 1 2 3 4 5 6 
#
# 1 0.004414 0.009647 -0.002914 0.000000 0.010449 0.000000
# 2 0.009647 0.018949 -0.004815 0.000000 -0.011968 0.000000
# 3 -0.002914 -0.004815 0.008820 0.000000 -0.006559 0.000000
# 4 0.000000 0.000000 0.000000 -0.030795 0.000000 0.002558
# 5 0.010449 -0.011968 -0.006559 0.000000 0.027657 0.000000
# 6 0.000000 0.000000 0.000000 0.002558 0.000000 0.082560
#
#
# Mechanical properties :
#
#
# Convention : Reuss Voigt Hill
#
# Bulk Modulus (GPa) = 27.76278 46.10026 36.93152
# Shear Modulus (GPa) = 41.74519 -6.37471 17.68524
#
# Velocity S-wave (km/s) = 4.66087 -1.82135 3.03367
# Velocity P-wave (km/s) = 6.58880 4.42345 5.61156
#
# Compressibility (1/GPa) = 0.03601944
#
# Stress axis : x y z
#
# Youngs Moduli (GPa) = 226.56960 52.77369 113.37818
#
# Poissons Ratio (x) = -0.50912 0.33037
# Poissons Ratio (y) = -2.18579 0.54591
# Poissons Ratio (z) = 0.66020 0.25410
#
# Static dielectric constant tensor:
#      x y z
#    x 1.667160 0.000000 -0.008010 
#    y 0.000000 1.720840 0.000000 
#    z -0.008010 0.000000 1.672170 
# 
# From -- ./inp_files/244064.got.cif
#   From: 2010.05.17/outbox.cif.g08.bks.cpg/sg12_123_cif.got.tgz:244064.got - 2010.06.03 13:09:07.
