data_PCOD9172387
_publ_section_title
;
Structure prediction by ZEFSAII (Michael W. Deem and Ramdas Pophale) SiO2 
 PCOD9172387
Probable space group: C 2/M
;
_chemical_formula_sum "Si O2"
_cell_formula_units_Z 56
_cell_length_a 8.494561
_cell_length_b 29.296941
_cell_length_c 15.548152
_cell_angle_alpha 90.000000
_cell_angle_beta 46.174733
_cell_angle_gamma 90.000000
_cell_volume 2791.587197
_symmetry_space_group_name_H-M "C 2/M"
_symmetry_group_IT_number 12
_symmetry_cell_setting 'monoclinic'
loop_
_space_group_symop_operation_xyz
x,y,z
-x,y,-z
-x,-y,-z
x,-y,z
1/2+x,1/2+y,z
1/2-x,1/2+y,-z
1/2-x,1/2-y,-z
1/2+x,1/2-y,z
loop_
_atom_site_type_symbol
_atom_site_label
_atom_site_fract_x
_atom_site_fract_y
_atom_site_fract_z
Si Si1 0.031218 0.446712 0.240253
Si Si2 0.449591 0.450230 0.621870
Si Si3 0.946625 0.223385 0.278610
Si Si4 0.034113 0.308426 0.352137
Si Si5 0.346286 0.896457 0.477486
Si Si6 0.256795 0.144538 0.893434
Si Si7 0.566149 0.791300 0.879982
O O1 0.098823 0.500000 0.217223
O O2 0.806194 0.443902 0.271069
O O3 0.952666 0.429230 0.364173
O O4 0.193068 0.409095 0.140470
O O5 0.500000 0.450722 0.500000
O O6 0.514174 0.500000 0.631325
O O7 0.607045 0.411711 0.595580
O O8 0.938866 0.260724 0.356997
O O9 0.174885 0.197478 0.209553
O O10 0.718996 0.197032 0.355092
O O11 0.961160 0.252166 0.182778
O O12 0.164960 0.329500 0.221797
O O13 0.850642 0.345552 0.439649
O O14 0.500000 0.898932 0.500000
O O15 0.408017 0.167376 0.910308
O O16 0.000000 0.151950 0.000000
O O17 0.500000 0.774689 0.000000
#
# Coordination Sequence:
#
# PCOD9172387 Si02
#       7
#     8   8   8   8   8   8   8
#     4   9  19  36  55  75 101 134 169 204 249 306
#     4   8  15  30  51  73  96 124 161 202 245 296
#     4   9  18  32  50  70 102 138 169 209 251 294
#     4   9  19  34  49  73 105 136 171 210 248 295
#     4  10  19  31  52  80 104 126 163 216 260 295
#     4  10  20  33  51  77 106 135 167 204 250 303
#     4  10  18  29  49  74 100 133 174 215 251 285
#
# _framework density 20.060272999999999
#
# number of rings (size 3 to 8) (size 9 to 14) (size 15 to 20)
#    0.000    2.714    0.000    2.571    0.000    6.571 
#    0.000    5.000    0.000    0.429    0.000    0.000 
#    0.000    0.000    0.000    0.000    0.000    0.000 
#
# Total GULP energy -156130.061209 kJ/mol
# GULP energy per Si atom -5576.073615 kJ/mol
# Density = 2.001462 g / cm^3
# Si number density = 20.060273 Si / 1000 Ang^3
#
#
#
# Elastic Constant Matrix: (Units=GPa)
#
#
# Indices 1 2 3 4 5 6 
#
# 1 79.5374 28.7877 11.7691 0.0000 -11.3090 0.0000
# 2 28.7877 84.4209 23.3953 0.0000 -12.3963 0.0000
# 3 11.7691 23.3953 41.8994 0.0000 -3.4470 0.0000
# 4 0.0000 0.0000 0.0000 18.0284 0.0000 -6.1977
# 5 -11.3090 -12.3963 -3.4470 0.0000 20.7186 0.0000
# 6 0.0000 0.0000 0.0000 -6.1977 0.0000 25.2931
#
#
#
# Elastic Compliance Matrix: (Units=1/GPa)
#
#
# Indices 1 2 3 4 5 6 
#
# 1 0.015001 -0.003846 -0.001604 0.000000 0.005620 0.000000
# 2 -0.003846 0.016139 -0.007411 0.000000 0.006324 0.000000
# 3 -0.001604 -0.007411 0.028407 0.000000 -0.000583 0.000000
# 4 0.000000 0.000000 0.000000 0.060570 0.000000 0.014842
# 5 0.005620 0.006324 -0.000583 0.000000 0.055021 0.000000
# 6 0.000000 0.000000 0.000000 0.014842 0.000000 0.043173
#
#
# Mechanical properties :
#
#
# Convention : Reuss Voigt Hill
#
# Bulk Modulus (GPa) = 29.56285 37.08463 33.32374
# Shear Modulus (GPa) = 19.58414 22.26841 20.92627
#
# Velocity S-wave (km/s) = 3.12791 3.33539 3.23332
# Velocity P-wave (km/s) = 5.27391 5.77580 5.53055
#
# Compressibility (1/GPa) = 0.03382624
#
# Stress axis : x y z
#
# Youngs Moduli (GPa) = 66.66203 61.96081 35.20209
#
# Poissons Ratio (x) = 0.23827 0.05646
# Poissons Ratio (y) = 0.25635 0.26089
# Poissons Ratio (z) = 0.10693 0.45920
#
# Static dielectric constant tensor:
#      x y z
#    x 1.734790 0.000000 -0.010760 
#    y 0.000000 1.758560 0.000000 
#    z -0.010760 0.000000 1.741740 
# 
# From -- ./inp_files/178713.got.cif
#   From: 2010.05.17/outbox.cif.g08.bks.cpg/sg12_90_cif.got.tgz:178713.got - 2010.06.03 13:09:07.
