data_PCOD9172392
_publ_section_title
;
Structure prediction by ZEFSAII (Michael W. Deem and Ramdas Pophale) SiO2 
 PCOD9172392
Probable space group: C 2/M
;
_chemical_formula_sum "Si O2"
_cell_formula_units_Z 40
_cell_length_a 6.633489
_cell_length_b 14.044116
_cell_length_c 14.737374
_cell_angle_alpha 90.000000
_cell_angle_beta 82.988035
_cell_angle_gamma 90.000000
_cell_volume 1362.686931
_symmetry_space_group_name_H-M "C 2/M"
_symmetry_group_IT_number 12
_symmetry_cell_setting 'monoclinic'
loop_
_space_group_symop_operation_xyz
x,y,z
-x,y,-z
-x,-y,-z
x,-y,z
1/2+x,1/2+y,z
1/2-x,1/2+y,-z
1/2-x,1/2-y,-z
1/2+x,1/2-y,z
loop_
_atom_site_type_symbol
_atom_site_label
_atom_site_fract_x
_atom_site_fract_y
_atom_site_fract_z
Si Si1 0.598220 0.325521 0.087206
Si Si2 0.274256 0.639350 0.481173
Si Si3 0.935722 0.113398 0.280346
Si Si4 0.633826 0.891399 0.676569
Si Si5 0.962959 0.387262 0.871422
O O1 0.443679 0.344454 0.179442
O O2 0.804143 0.379879 0.104170
O O3 0.627290 0.210392 0.080106
O O4 0.500000 0.362697 0.000000
O O5 0.500000 0.605332 0.500000
O O6 0.250000 0.750000 0.500000
O O7 0.280253 0.625989 0.372778
O O8 0.122255 0.604884 0.568515
O O9 0.147755 0.154617 0.311645
O O10 0.937001 0.000000 0.267363
O O11 0.475973 0.862265 0.762605
O O12 0.660719 0.000000 0.701925
O O13 0.898427 0.500000 0.887451
#
# Coordination Sequence:
#
# PCOD9172392 Si02
#       5
#     8   8   8   8   8
#     4  11  22  39  61  85 116 153 195 242 292 345
#     4  10  18  29  49  74 103 139 179 224 274 331
#     4   9  18  32  53  81 109 143 191 237 279 337
#     4   8  15  30  52  76 103 137 177 222 273 329
#     4  10  22  40  61  87 118 151 192 242 293 348
#
# _framework density 29.353770999999998
#
# number of rings (size 3 to 8) (size 9 to 14) (size 15 to 20)
#    0.000    2.400    0.000    4.200    0.000    4.400 
#    0.000    2.000    0.000    4.800    0.000    0.000 
#    0.000    0.000    0.000    0.000    0.000    0.000 
#
# Total GULP energy -111780.814484 kJ/mol
# GULP energy per Si atom -5589.040724 kJ/mol
# Density = 2.928696 g / cm^3
# Si number density = 29.353771 Si / 1000 Ang^3
#
#
#
# Elastic Constant Matrix: (Units=GPa)
#
#
# Indices 1 2 3 4 5 6 
#
# 1 85.5671 3.7464 45.0822 0.0000 -15.2252 0.0000
# 2 3.7464 196.8776 30.9811 0.0000 -8.2837 0.0000
# 3 45.0822 30.9811 276.6743 0.0000 32.3399 0.0000
# 4 0.0000 0.0000 0.0000 42.5903 0.0000 -11.8232
# 5 -15.2252 -8.2837 32.3399 0.0000 65.1069 0.0000
# 6 0.0000 0.0000 0.0000 -11.8232 0.0000 31.6391
#
#
#
# Elastic Compliance Matrix: (Units=1/GPa)
#
#
# Indices 1 2 3 4 5 6 
#
# 1 0.014040 0.000388 -0.002888 0.000000 0.004767 0.000000
# 2 0.000388 0.005244 -0.000785 0.000000 0.001148 0.000000
# 3 -0.002888 -0.000785 0.004526 0.000000 -0.003024 0.000000
# 4 0.000000 0.000000 0.000000 0.026197 0.000000 0.009790
# 5 0.004767 0.001148 -0.003024 0.000000 0.018122 0.000000
# 6 0.000000 0.000000 0.000000 0.009790 0.000000 0.035265
#
#
# Mechanical properties :
#
#
# Convention : Reuss Voigt Hill
#
# Bulk Modulus (GPa) = 58.00529 79.85981 68.93255
# Shear Modulus (GPa) = 43.21143 59.82121 51.51632
#
# Velocity S-wave (km/s) = 3.84095 4.51925 4.19384
# Velocity P-wave (km/s) = 6.28285 7.38218 6.85459
#
# Compressibility (1/GPa) = 0.01723981
#
# Stress axis : x y z
#
# Youngs Moduli (GPa) = 71.22624 190.70670 220.93291
#
# Poissons Ratio (x) = -0.07398 0.63813
# Poissons Ratio (y) = -0.02763 0.17333
# Poissons Ratio (z) = 0.20573 0.14961
#
# Static dielectric constant tensor:
#      x y z
#    x 2.289950 0.000000 -0.020710 
#    y 0.000000 2.189020 0.000000 
#    z -0.020710 0.000000 2.327740 
# 
# From -- ./inp_files/194573.got.cif
#   From: 2010.05.17/outbox.cif.g08.bks.cpg/sg12_98_cif.got.tgz:194573.got - 2010.06.03 13:09:07.
