data_PCOD9172051
_publ_section_title
;
Structure prediction by ZEFSAII (Michael W. Deem and Ramdas Pophale) SiO2 
 PCOD9172051
Probable space group: C 2/M
;
_chemical_formula_sum "Si O2"
_cell_formula_units_Z 56
_cell_length_a 24.669151
_cell_length_b 10.100091
_cell_length_c 24.516698
_cell_angle_alpha 90.000000
_cell_angle_beta 32.382117
_cell_angle_gamma 90.000000
_cell_volume 3271.539945
_symmetry_space_group_name_H-M "C 2/M"
_symmetry_group_IT_number 12
_symmetry_cell_setting 'monoclinic'
loop_
_space_group_symop_operation_xyz
x,y,z
-x,y,-z
-x,-y,-z
x,-y,z
1/2+x,1/2+y,z
1/2-x,1/2+y,-z
1/2-x,1/2-y,-z
1/2+x,1/2-y,z
loop_
_atom_site_type_symbol
_atom_site_label
_atom_site_fract_x
_atom_site_fract_y
_atom_site_fract_z
Si Si1 0.899159 0.342369 0.245479
Si Si2 0.579924 0.728842 0.163389
Si Si3 0.734491 0.358173 0.943367
Si Si4 0.596440 0.839263 0.882661
Si Si5 0.767802 0.839948 0.821403
Si Si6 0.985724 0.849532 0.662582
Si Si7 0.288211 0.339676 0.517850
O O1 0.917114 0.500000 0.228994
O O2 0.904711 0.292133 0.178657
O O3 0.790599 0.321757 0.365928
O O4 0.984618 0.279836 0.210924
O O5 0.655666 0.841287 0.122053
O O6 0.542614 0.654251 0.249130
O O7 0.651501 0.649593 0.061299
O O8 0.728011 0.500000 0.920458
O O9 0.722576 0.235889 0.912184
O O10 0.699153 0.807822 0.827845
O O11 0.591131 0.000000 0.885349
O O12 0.500000 0.793803 0.000000
O O13 0.885229 0.794796 0.718569
O O14 0.765814 0.000000 0.831576
O O15 0.098473 0.793537 0.562485
O O16 0.994344 0.000000 0.635852
O O17 0.290855 0.500000 0.502592
O O18 0.250000 0.250000 0.500000
#
# Coordination Sequence:
#
# PCOD9172051 Si02
#       7
#     8   8   8   8   8   8   8
#     4  10  19  30  49  75  99 127 168 210 245 291
#     4  10  18  29  46  67 101 133 160 196 250 305
#     4  10  20  30  46  73 101 129 164 205 248 296
#     4   9  17  30  49  72  97 129 170 211 246 285
#     4   9  18  33  51  69  95 134 170 201 246 297
#     4   9  17  30  48  69  97 130 161 198 248 299
#     4  10  19  33  51  74 103 130 162 204 250 298
#
# _framework density 17.117321
#
# number of rings (size 3 to 8) (size 9 to 14) (size 15 to 20)
#    0.000    2.429    1.429    1.714    0.000    5.143 
#    0.000    0.714    0.000    9.857    0.000    0.000 
#    0.000    3.714    0.000    0.000    0.000    0.000 
#
# Total GULP energy -155873.929884 kJ/mol
# GULP energy per Si atom -5566.926067 kJ/mol
# Density = 1.707836 g / cm^3
# Si number density = 17.117321 Si / 1000 Ang^3
#
#
#
# Elastic Constant Matrix: (Units=GPa)
#
#
# Indices 1 2 3 4 5 6 
#
# 1 97.6377 6.0486 33.9882 0.0000 -14.5677 0.0000
# 2 6.0486 34.4473 8.5861 0.0000 0.1596 0.0000
# 3 33.9882 8.5861 83.4772 0.0000 -18.6537 0.0000
# 4 0.0000 0.0000 0.0000 -0.7752 0.0000 8.7545
# 5 -14.5677 0.1596 -18.6537 0.0000 28.2143 0.0000
# 6 0.0000 0.0000 0.0000 8.7545 0.0000 13.2653
#
#
#
# Elastic Compliance Matrix: (Units=1/GPa)
#
#
# Indices 1 2 3 4 5 6 
#
# 1 0.012273 -0.001160 -0.004060 0.000000 0.003659 0.000000
# 2 -0.001160 0.030064 -0.003276 0.000000 -0.002935 0.000000
# 3 -0.004060 -0.003276 0.015846 0.000000 0.008399 0.000000
# 4 0.000000 0.000000 0.000000 -0.152606 0.000000 0.100713
# 5 0.003659 -0.002935 0.008399 0.000000 0.042902 0.000000
# 6 0.000000 0.000000 0.000000 0.100713 0.000000 0.008919
#
#
# Mechanical properties :
#
#
# Convention : Reuss Voigt Hill
#
# Bulk Modulus (GPa) = 24.27699 34.75645 29.51672
# Shear Modulus (GPa) = -420.84304 19.27017 -200.78643
#
# Velocity S-wave (km/s) = -15.69687 3.35889 -10.84227
# Velocity P-wave (km/s) = 17.72876 5.94910 11.80926
#
# Compressibility (1/GPa) = 0.04119127
#
# Stress axis : x y z
#
# Youngs Moduli (GPa) = 81.47910 33.26278 63.10701
#
# Poissons Ratio (x) = 0.03858 0.25622
# Poissons Ratio (y) = 0.09452 0.20672
# Poissons Ratio (z) = 0.33081 0.10896
#
# Static dielectric constant tensor:
#      x y z
#    x 1.575460 0.000000 -0.021300 
#    y 0.000000 1.592290 0.000000 
#    z -0.021300 0.000000 1.595240 
# 
# From -- ./inp_files/173861.got.cif
#   From: 2010.05.17/outbox.cif.g08.bks.cpg/sg12_87_cif.got.tgz:173861.got - 2010.06.03 13:09:07.
