data_PCOD9172398
_publ_section_title
;
Structure prediction by ZEFSAII (Michael W. Deem and Ramdas Pophale) SiO2 
 PCOD9172398
Probable space group: C 2/M
;
_chemical_formula_sum "Si O2"
_cell_formula_units_Z 64
_cell_length_a 19.957795
_cell_length_b 7.868081
_cell_length_c 22.384721
_cell_angle_alpha 90.000000
_cell_angle_beta 121.104076
_cell_angle_gamma 90.000000
_cell_volume 3009.703244
_symmetry_space_group_name_H-M "C 2/M"
_symmetry_group_IT_number 12
_symmetry_cell_setting 'monoclinic'
loop_
_space_group_symop_operation_xyz
x,y,z
-x,y,-z
-x,-y,-z
x,-y,z
1/2+x,1/2+y,z
1/2-x,1/2+y,-z
1/2-x,1/2-y,-z
1/2+x,1/2-y,z
loop_
_atom_site_type_symbol
_atom_site_label
_atom_site_fract_x
_atom_site_fract_y
_atom_site_fract_z
Si Si1 0.874515 0.698843 0.259269
Si Si2 0.408754 0.205161 0.818366
Si Si3 0.499096 0.793328 0.405166
Si Si4 0.705292 0.302794 0.896181
Si Si5 0.574000 0.298667 0.919558
Si Si6 0.753547 0.799155 0.305995
Si Si7 0.371573 0.798254 0.934278
Si Si8 0.125949 0.704536 0.548234
O O1 0.882726 0.500000 0.247885
O O2 0.844001 0.794636 0.187542
O O3 0.809139 0.714247 0.281549
O O4 0.956342 0.763519 0.325171
O O5 0.496618 0.261819 0.845748
O O6 0.335789 0.259117 0.743894
O O7 0.391404 0.269145 0.877966
O O8 0.410230 0.000000 0.818800
O O9 0.437026 0.750228 0.428972
O O10 0.584179 0.736423 0.467730
O O11 0.501178 0.000000 0.403587
O O12 0.718457 0.500000 0.918109
O O13 0.650991 0.225602 0.922546
O O14 0.789238 0.223926 0.920059
O O15 0.581655 0.500000 0.928208
O O16 0.568585 0.226890 0.983966
O O17 0.792168 0.769844 0.388543
O O18 0.756084 0.000000 0.294299
O O19 0.361120 0.000000 0.920793
O O20 0.130733 0.500000 0.548544
#
# Coordination Sequence:
#
# PCOD9172398 Si02
#       8
#     8   8   8   8   8   8   8   8
#     4  10  18  29  49  74  98 131 172 209 244 294
#     4  10  21  37  55  73 100 140 171 201 252 307
#     4   7  12  23  39  63  97 130 160 199 248 293
#     4  10  21  38  54  74 105 136 164 204 260 303
#     4  11  24  37  53  78 105 129 164 216 256 293
#     4  10  18  30  47  70 101 134 168 207 251 296
#     4  10  20  38  59  74  97 135 170 201 252 313
#     4   8  13  24  41  63  95 132 165 200 244 295
#
# _framework density 21.264554
#
# number of rings (size 3 to 8) (size 9 to 14) (size 15 to 20)
#    0.000    2.500    1.250    3.375    0.000    4.500 
#    0.000    5.625    0.000    0.000    0.000    0.875 
#    0.000    0.000    0.000    0.000    0.000    0.000 
#
# Total GULP energy -178412.550259 kJ/mol
# GULP energy per Si atom -5575.392196 kJ/mol
# Density = 2.121616 g / cm^3
# Si number density = 21.264554 Si / 1000 Ang^3
#
#
#
# Elastic Constant Matrix: (Units=GPa)
#
#
# Indices 1 2 3 4 5 6 
#
# 1 44.0503 1.7250 4.3710 0.0000 15.3536 0.0000
# 2 1.7250 29.4484 -8.0386 0.0000 0.4105 0.0000
# 3 4.3710 -8.0386 99.5303 0.0000 29.3973 0.0000
# 4 0.0000 0.0000 0.0000 25.4813 0.0000 6.4284
# 5 15.3536 0.4105 29.3973 0.0000 21.4417 0.0000
# 6 0.0000 0.0000 0.0000 6.4284 0.0000 14.1118
#
#
#
# Elastic Compliance Matrix: (Units=1/GPa)
#
#
# Indices 1 2 3 4 5 6 
#
# 1 0.035306 0.001241 0.010123 0.000000 -0.039184 0.000000
# 2 0.001241 0.035515 0.005508 0.000000 -0.009120 0.000000
# 3 0.010123 0.005508 0.020535 0.000000 -0.035509 0.000000
# 4 0.000000 0.000000 0.000000 0.044340 0.000000 -0.020198
# 5 -0.039184 -0.009120 -0.035509 0.000000 0.123555 0.000000
# 6 0.000000 0.000000 0.000000 -0.020198 0.000000 0.080063
#
#
# Mechanical properties :
#
#
# Convention : Reuss Voigt Hill
#
# Bulk Modulus (GPa) = 7.99356 18.79377 13.39366
# Shear Modulus (GPa) = 14.39799 23.87174 19.13486
#
# Velocity S-wave (km/s) = 2.60492 3.35417 3.00300
# Velocity P-wave (km/s) = 3.57976 4.88445 4.28209
#
# Compressibility (1/GPa) = 0.12510070
#
# Stress axis : x y z
#
# Youngs Moduli (GPa) = 28.32411 28.15674 48.69653
#
# Poissons Ratio (x) = -0.03496 -0.49296
# Poissons Ratio (y) = -0.03516 -0.26820
# Poissons Ratio (z) = -0.28673 -0.15507
#
# Static dielectric constant tensor:
#      x y z
#    x 1.789470 0.000000 0.029940 
#    y 0.000000 1.773990 0.000000 
#    z 0.029940 0.000000 1.811650 
# 
# From -- ./inp_files/345584.got.cif
#   From: 2010.05.17/outbox.cif.g08.bks.cpg/sg12_173_cif.got.tgz:345584.got - 2010.06.03 13:09:07.
