data_PCOD9172271
_publ_section_title
;
Structure prediction by ZEFSAII (Michael W. Deem and Ramdas Pophale) SiO2 
 PCOD9172271
Probable space group: C 2/M
;
_chemical_formula_sum "Si O2"
_cell_formula_units_Z 64
_cell_length_a 25.267565
_cell_length_b 8.149748
_cell_length_c 22.945497
_cell_angle_alpha 90.000000
_cell_angle_beta 45.891819
_cell_angle_gamma 90.000000
_cell_volume 3392.702432
_symmetry_space_group_name_H-M "C 2/M"
_symmetry_group_IT_number 12
_symmetry_cell_setting 'monoclinic'
loop_
_space_group_symop_operation_xyz
x,y,z
-x,y,-z
-x,-y,-z
x,-y,z
1/2+x,1/2+y,z
1/2-x,1/2+y,-z
1/2-x,1/2-y,-z
1/2+x,1/2-y,z
loop_
_atom_site_type_symbol
_atom_site_label
_atom_site_fract_x
_atom_site_fract_y
_atom_site_fract_z
Si Si1 0.634515 0.697900 0.274980
Si Si2 0.275003 0.695587 0.222121
Si Si3 0.057393 0.698509 0.907565
Si Si4 0.636799 0.697686 0.520341
Si Si5 0.087280 0.189028 0.434494
Si Si6 0.058488 0.304053 0.775550
Si Si7 0.500631 0.698150 0.296584
Si Si8 0.774603 0.194494 0.356329
O O1 0.627409 0.500000 0.280846
O O2 0.720861 0.738811 0.213073
O O3 0.610215 0.767961 0.356520
O O4 0.574813 0.755332 0.273190
O O5 0.269017 0.500000 0.228391
O O6 0.359136 0.744619 0.145891
O O7 0.257593 0.756771 0.302561
O O8 0.057103 0.500000 0.908885
O O9 0.037678 0.751233 0.856725
O O10 0.000000 0.757692 0.000000
O O11 0.631065 0.500000 0.526318
O O12 0.610397 0.764863 0.477606
O O13 0.575732 0.756443 0.613491
O O14 0.723211 0.738027 0.447733
O O15 0.000000 0.179971 0.500000
O O16 0.115011 0.000000 0.413652
O O17 0.063983 0.500000 0.771699
O O18 0.139857 0.234845 0.699635
O O19 0.003760 0.250374 0.766806
O O20 0.500175 0.500000 0.299708
O O21 0.765317 0.000000 0.362915
#
# Coordination Sequence:
#
# PCOD9172271 Si02
#       8
#     8   8   8   8   8   8   8   8
#     4  10  18  30  51  74 101 141 182 216 252 297
#     4  10  20  32  50  81 114 137 162 207 265 310
#     4   9  19  38  64  88 104 124 161 206 253 312
#     4  10  18  29  48  71  97 135 184 228 262 295
#     4   9  14  24  44  69  94 127 178 229 258 284
#     4  10  21  37  56  76 101 134 167 206 260 316
#     4  10  21  34  50  74 104 142 183 219 255 298
#     4  10  20  33  49  71 102 137 175 222 266 304
#
# _framework density 18.864018000000002
#
# number of rings (size 3 to 8) (size 9 to 14) (size 15 to 20)
#    0.000    2.250    2.500    1.125    0.000    3.250 
#    0.000    0.000    0.000    3.000    0.000    0.000 
#    0.000    0.000    0.000    0.000    0.000    0.000 
#
# Total GULP energy -178247.580810 kJ/mol
# GULP energy per Si atom -5570.236900 kJ/mol
# Density = 1.882108 g / cm^3
# Si number density = 18.864018 Si / 1000 Ang^3
#
#
#
# Elastic Constant Matrix: (Units=GPa)
#
#
# Indices 1 2 3 4 5 6 
#
# 1 111.6699 10.6848 63.3631 0.0000 12.8585 -0.0002
# 2 10.6848 18.6230 15.3746 -0.0032 0.5953 -0.0040
# 3 63.3631 15.3746 107.2770 0.0000 0.3799 -0.0006
# 4 0.0000 -0.0032 0.0000 6.1648 0.0006 3.4364
# 5 12.8585 0.5953 0.3799 0.0006 16.5733 0.0000
# 6 -0.0002 -0.0040 -0.0006 3.4364 0.0000 17.9725
#
#
#
# Elastic Compliance Matrix: (Units=1/GPa)
#
#
# Indices 1 2 3 4 5 6 
#
# 1 0.015498 -0.001126 -0.008951 0.000001 -0.011778 -0.000001
# 2 -0.001126 0.061050 -0.008081 0.000028 -0.001134 0.000008
# 3 -0.008951 -0.008081 0.015742 -0.000005 0.006874 0.000000
# 4 0.000001 0.000028 -0.000005 0.181562 -0.000008 -0.034716
# 5 -0.011778 -0.001134 0.006874 -0.000008 0.069360 0.000001
# 6 -0.000001 0.000008 0.000000 -0.034716 0.000001 0.062278
#
#
# Mechanical properties :
#
#
# Convention : Reuss Voigt Hill
#
# Bulk Modulus (GPa) = 17.86480 46.26833 32.06657
# Shear Modulus (GPa) = 10.85865 18.01862 14.43864
#
# Velocity S-wave (km/s) = 2.40183 3.09396 2.76960
# Velocity P-wave (km/s) = 4.14519 6.11097 5.22142
#
# Compressibility (1/GPa) = 0.05597599
#
# Stress axis : x y z
#
# Youngs Moduli (GPa) = 64.52598 16.37995 63.52405
#
# Poissons Ratio (x) = 0.01844 0.56858
# Poissons Ratio (y) = 0.07264 0.51331
# Poissons Ratio (z) = 0.57755 0.13236
#
# Static dielectric constant tensor:
#      x y z
#    x 1.711290 0.000000 -0.009500 
#    y 0.000000 1.676970 0.000000 
#    z -0.009500 0.000000 1.672830 
# 
# From -- ./inp_files/324112.got.cif
#   From: 2010.05.17/outbox.cif.g08.bks.cpg/sg12_163_cif.got.tgz:324112.got - 2010.06.03 13:09:07.
