data_PCOD9172676
_publ_section_title
;
Structure prediction by ZEFSAII (Michael W. Deem and Ramdas Pophale) SiO2 
 PCOD9172676
Probable space group: C 2/M
;
_chemical_formula_sum "Si O2"
_cell_formula_units_Z 64
_cell_length_a 30.984786
_cell_length_b 8.661003
_cell_length_c 31.817268
_cell_angle_alpha 90.000000
_cell_angle_beta 28.663685
_cell_angle_gamma 90.000000
_cell_volume 4095.621611
_symmetry_space_group_name_H-M "C 2/M"
_symmetry_group_IT_number 12
_symmetry_cell_setting 'monoclinic'
loop_
_space_group_symop_operation_xyz
x,y,z
-x,y,-z
-x,-y,-z
x,-y,z
1/2+x,1/2+y,z
1/2-x,1/2+y,-z
1/2-x,1/2-y,-z
1/2+x,1/2-y,z
loop_
_atom_site_type_symbol
_atom_site_label
_atom_site_fract_x
_atom_site_fract_y
_atom_site_fract_z
Si Si1 0.526177 0.813394 0.078021
Si Si2 0.518601 0.686523 0.415779
Si Si3 0.184644 0.686626 0.878068
Si Si4 0.134531 0.184691 0.059834
Si Si5 0.168177 0.184593 0.125646
Si Si6 0.357982 0.312428 0.610138
Si Si7 0.662038 0.188384 0.800347
Si Si8 0.626891 0.816820 0.248476
O O1 0.556377 0.746560 0.096800
O O2 0.428723 0.761045 0.145097
O O3 0.525937 0.000000 0.080567
O O4 0.602798 0.769506 0.978611
O O5 0.519706 0.500000 0.411603
O O6 0.591463 0.729409 0.389625
O O7 0.422113 0.735986 0.516988
O O8 0.549535 0.757164 0.345676
O O9 0.192695 0.500000 0.871997
O O10 0.164747 0.733145 0.847093
O O11 0.278281 0.754509 0.814284
O O12 0.126618 0.226677 0.115817
O O13 0.140337 0.000000 0.051909
O O14 0.229037 0.255285 0.963224
O O15 0.119375 0.254336 0.207596
O O16 0.170120 0.000000 0.127627
O O17 0.357322 0.500000 0.609971
O O18 0.255209 0.259537 0.699379
O O19 0.661461 0.000000 0.800332
O O20 0.628820 0.000000 0.246466
#
# Coordination Sequence:
#
# PCOD9172676 Si02
#       8
#     8   8   8   8   8   8   8   8
#     4  10  19  29  47  71  96 130 165 194 229 271
#     4   9  16  29  49  69  91 123 160 198 237 279
#     4  10  18  30  46  65  95 132 168 197 220 265
#     4  10  20  33  49  70  95 121 153 196 239 279
#     4  10  20  34  51  68  90 123 159 193 234 283
#     4   8  14  26  48  72  91 119 163 204 231 265
#     4   9  16  28  47  71  95 125 169 204 222 262
#     4  12  22  30  45  71  99 126 154 193 242 286
#
# _framework density 15.626443999999999
#
# number of rings (size 3 to 8) (size 9 to 14) (size 15 to 20)
#    0.000    2.250    2.500    3.000    0.000    3.000 
#    0.000    1.875    0.000    1.500    0.000    0.875 
#    0.000    0.000    0.000    0.000    0.000    0.000 
#
# Total GULP energy -178472.502500 kJ/mol
# GULP energy per Si atom -5577.265703 kJ/mol
# Density = 1.559088 g / cm^3
# Si number density = 15.626444 Si / 1000 Ang^3
#
#
#
# Elastic Constant Matrix: (Units=GPa)
#
#
# Indices 1 2 3 4 5 6 
#
# 1 108.7686 26.7369 71.8629 -0.0017 11.7356 0.0031
# 2 26.7369 22.5949 28.0998 -0.0167 6.5573 0.0261
# 3 71.8629 28.0998 119.2497 -0.0030 16.3935 0.0098
# 4 -0.0017 -0.0167 -0.0030 10.5965 -0.0005 3.8616
# 5 11.7356 6.5573 16.3935 -0.0005 26.0705 -0.0032
# 6 0.0031 0.0261 0.0098 3.8616 -0.0032 18.5852
#
#
#
# Elastic Compliance Matrix: (Units=1/GPa)
#
#
# Indices 1 2 3 4 5 6 
#
# 1 0.016823 -0.010300 -0.007691 -0.000023 -0.000146 0.000021
# 2 -0.010300 0.070128 -0.009338 0.000151 -0.007131 -0.000124
# 3 -0.007691 -0.009338 0.015787 -0.000015 -0.004116 0.000008
# 4 -0.000023 0.000151 -0.000015 0.102102 -0.000019 -0.021215
# 5 -0.000146 -0.007131 -0.004116 -0.000019 0.042805 0.000023
# 6 0.000021 -0.000124 0.000008 -0.021215 0.000023 0.058214
#
#
# Mechanical properties :
#
#
# Convention : Reuss Voigt Hill
#
# Bulk Modulus (GPa) = 20.79825 56.00140 38.39983
# Shear Modulus (GPa) = 13.27873 19.31134 16.29503
#
# Velocity S-wave (km/s) = 2.91823 3.51922 3.23272
# Velocity P-wave (km/s) = 4.96923 7.24076 6.20975
#
# Compressibility (1/GPa) = 0.04808096
#
# Stress axis : x y z
#
# Youngs Moduli (GPa) = 59.44385 14.25964 63.34519
#
# Poissons Ratio (x) = 0.14687 0.48716
# Poissons Ratio (y) = 0.61226 0.59150
# Poissons Ratio (z) = 0.45716 0.13315
#
# Static dielectric constant tensor:
#      x y z
#    x 1.511160 0.000000 0.010200 
#    y 0.000000 1.526280 0.000000 
#    z 0.010200 0.000000 1.522180 
# 
# From -- ./inp_files/248286.got.cif
#   From: 2010.05.17/outbox.cif.g08.bks.cpg/sg12_125_cif.got.tgz:248286.got - 2010.06.03 13:09:07.
