data_PCOD9172883
_publ_section_title
;
Structure prediction by ZEFSAII (Michael W. Deem and Ramdas Pophale) SiO2 
 PCOD9172883
Probable space group: C 2/M
;
_chemical_formula_sum "Si O2"
_cell_formula_units_Z 56
_cell_length_a 21.218838
_cell_length_b 7.420333
_cell_length_c 23.356352
_cell_angle_alpha 90.000000
_cell_angle_beta 132.285403
_cell_angle_gamma 90.000000
_cell_volume 2720.607039
_symmetry_space_group_name_H-M "C 2/M"
_symmetry_group_IT_number 12
_symmetry_cell_setting 'monoclinic'
loop_
_space_group_symop_operation_xyz
x,y,z
-x,y,-z
-x,-y,-z
x,-y,z
1/2+x,1/2+y,z
1/2-x,1/2+y,-z
1/2-x,1/2-y,-z
1/2+x,1/2-y,z
loop_
_atom_site_type_symbol
_atom_site_label
_atom_site_fract_x
_atom_site_fract_y
_atom_site_fract_z
Si Si1 0.135410 0.283617 0.579351
Si Si2 0.694732 0.788370 0.258851
Si Si3 0.938303 0.710646 0.248651
Si Si4 0.746341 0.218194 0.164999
Si Si5 0.495425 0.221059 0.832282
Si Si6 0.000421 0.720368 0.592858
Si Si7 0.072880 0.719535 0.999474
O O1 0.132566 0.500000 0.577656
O O2 0.232276 0.230999 0.649159
O O3 0.077856 0.223333 0.598310
O O4 0.086240 0.223743 0.492132
O O5 0.730031 0.716019 0.219995
O O6 0.602299 0.718366 0.219633
O O7 0.681429 0.000000 0.240527
O O8 0.961519 0.500000 0.261480
O O9 0.837380 0.723291 0.197177
O O10 0.983560 0.785977 0.333269
O O11 0.966343 0.784697 0.204494
O O12 0.665708 0.276158 0.077821
O O13 0.747941 0.000000 0.166458
O O14 0.497027 0.000000 0.833131
O O15 0.548016 0.277044 0.920520
O O16 0.001809 0.500000 0.594488
O O17 0.072474 0.500000 0.999890
O O18 0.000000 0.775997 0.000000
#
# Coordination Sequence:
#
# PCOD9172883 Si02
#       7
#     8   8   8   8   8   8   8
#     4   9  16  29  49  70  92 123 164 196 228 280
#     4  10  18  30  48  74  98 120 157 202 240 273
#     4  10  19  33  51  71  97 127 159 196 238 282
#     4  10  19  30  50  74  97 124 158 199 237 278
#     4   9  18  31  49  71  96 128 162 194 232 282
#     4   8  15  28  47  69  93 124 160 194 227 280
#     4   9  15  28  49  72  96 125 161 194 228 279
#
# _framework density 20.583642000000001
#
# number of rings (size 3 to 8) (size 9 to 14) (size 15 to 20)
#    0.000    2.714    2.857    0.857    0.000    0.571 
#    0.000    3.571    0.000    1.286    0.000    0.000 
#    0.000    0.000    0.000    0.000    0.000    0.000 
#
# Total GULP energy -156273.699462 kJ/mol
# GULP energy per Si atom -5581.203552 kJ/mol
# Density = 2.053679 g / cm^3
# Si number density = 20.583642 Si / 1000 Ang^3
#
#
#
# Elastic Constant Matrix: (Units=GPa)
#
#
# Indices 1 2 3 4 5 6 
#
# 1 135.9890 -2.5222 93.7075 0.0000 -16.5890 0.0000
# 2 -2.5222 62.4810 -7.2266 0.0000 -7.6932 0.0000
# 3 93.7075 -7.2266 194.9140 0.0000 -11.0482 0.0000
# 4 0.0000 0.0000 0.0000 13.7905 0.0000 10.9225
# 5 -16.5890 -7.6932 -11.0482 0.0000 33.1484 0.0000
# 6 0.0000 0.0000 0.0000 10.9225 0.0000 7.8335
#
#
#
# Elastic Compliance Matrix: (Units=1/GPa)
#
#
# Indices 1 2 3 4 5 6 
#
# 1 0.011498 0.000355 -0.005284 0.000000 0.004076 0.000000
# 2 0.000355 0.016624 0.000687 -0.000001 0.004265 0.000001
# 3 -0.005284 0.000687 0.007701 0.000000 0.000082 0.000000
# 4 0.000000 -0.000001 0.000000 -0.694927 0.000000 0.968953
# 5 0.004076 0.004265 0.000082 0.000000 0.033224 0.000000
# 6 0.000000 0.000001 0.000000 0.968953 0.000000 -1.223377
#
#
# Mechanical properties :
#
#
# Convention : Reuss Voigt Hill
#
# Bulk Modulus (GPa) = 36.57638 62.36682 49.47160
# Shear Modulus (GPa) = -2.72976 31.58283 14.42653
#
# Velocity S-wave (km/s) = -1.15285 3.92135 2.65027
# Velocity P-wave (km/s) = 4.00451 7.13215 5.78376
#
# Compressibility (1/GPa) = 0.02734005
#
# Stress axis : x y z
#
# Youngs Moduli (GPa) = 86.96995 60.15463 129.85599
#
# Poissons Ratio (x) = -0.02135 0.68613
# Poissons Ratio (y) = -0.03086 -0.08927
# Poissons Ratio (z) = 0.45953 -0.04136
#
# Static dielectric constant tensor:
#      x y z
#    x 1.690180 0.000000 -0.012350 
#    y 0.000000 1.795490 0.000000 
#    z -0.012350 0.000000 1.730280 
# 
# From -- ./inp_files/315398.got.cif
#   From: 2010.05.17/outbox.cif.g08.bks.cpg/sg12_158_cif.got.tgz:315398.got - 2010.06.03 13:09:07.
