data_PCOD9172997
_publ_section_title
;
Structure prediction by ZEFSAII (Michael W. Deem and Ramdas Pophale) SiO2 
 PCOD9172997
Probable space group: C 2/M
;
_chemical_formula_sum "Si O2"
_cell_formula_units_Z 40
_cell_length_a 29.795357
_cell_length_b 8.596605
_cell_length_c 13.209539
_cell_angle_alpha 90.000000
_cell_angle_beta 136.467940
_cell_angle_gamma 90.000000
_cell_volume 2330.404804
_symmetry_space_group_name_H-M "C 2/M"
_symmetry_group_IT_number 12
_symmetry_cell_setting 'monoclinic'
loop_
_space_group_symop_operation_xyz
x,y,z
-x,y,-z
-x,-y,-z
x,-y,z
1/2+x,1/2+y,z
1/2-x,1/2+y,-z
1/2-x,1/2-y,-z
1/2+x,1/2-y,z
loop_
_atom_site_type_symbol
_atom_site_label
_atom_site_fract_x
_atom_site_fract_y
_atom_site_fract_z
Si Si1 0.318054 0.813655 0.568072
Si Si2 0.651708 0.313128 0.035647
Si Si3 0.797395 0.813061 0.317046
Si Si4 0.322347 0.312747 0.139742
Si Si5 0.427072 0.812006 0.908091
O O1 0.250000 0.750000 0.500000
O O2 0.325855 0.754177 0.466703
O O3 0.376152 0.763904 0.737542
O O4 0.315235 0.000000 0.563365
O O5 0.655568 0.500000 0.047122
O O6 0.722729 0.245766 0.182634
O O7 0.599108 0.252670 0.028786
O O8 0.638194 0.266121 0.896314
O O9 0.836033 0.764759 0.277787
O O10 0.795910 0.000000 0.320700
O O11 0.320806 0.500000 0.137745
O O12 0.250000 0.250000 0.000000
O O13 0.426138 0.000000 0.911753
O O14 0.500000 0.761925 0.000000
#
# Coordination Sequence:
#
# PCOD9172997 Si02
#       5
#     8   8   8   8   8
#     4  11  21  33  52  76 103 132 167 212 257 302
#     4  10  18  30  50  75 102 131 169 211 251 297
#     4  10  18  30  49  74 105 135 165 203 252 303
#     4   8  16  28  44  70 101 131 162 203 250 296
#     4  10  22  38  53  71 100 138 173 207 254 307
#
# _framework density 17.164400000000001
#
# number of rings (size 3 to 8) (size 9 to 14) (size 15 to 20)
#    0.000    2.200    2.000    1.800    0.000    2.800 
#    0.000    0.000    0.000    1.200    0.000    8.400 
#    0.000    0.000    0.000    0.000    0.000    0.000 
#
# Total GULP energy -111460.168668 kJ/mol
# GULP energy per Si atom -5573.008433 kJ/mol
# Density = 1.712533 g / cm^3
# Si number density = 17.164400 Si / 1000 Ang^3
#
#
#
# Elastic Constant Matrix: (Units=GPa)
#
#
# Indices 1 2 3 4 5 6 
#
# 1 160.1600 31.5979 91.9484 0.0000 -34.6798 0.0000
# 2 31.5979 25.1010 27.4454 0.0000 -5.5230 0.0000
# 3 91.9484 27.4454 102.8267 0.0000 -25.0111 0.0000
# 4 0.0000 0.0000 0.0000 20.9262 0.0000 -6.3809
# 5 -34.6798 -5.5230 -25.0111 0.0000 38.5622 0.0000
# 6 0.0000 0.0000 0.0000 -6.3809 0.0000 23.6079
#
#
#
# Elastic Compliance Matrix: (Units=1/GPa)
#
#
# Indices 1 2 3 4 5 6 
#
# 1 0.014265 -0.006027 -0.009779 0.000000 0.005622 0.000000
# 2 -0.006027 0.058933 -0.011405 0.000000 -0.004377 0.000000
# 3 -0.009779 -0.011405 0.022532 0.000000 0.004186 0.000000
# 4 0.000000 0.000000 0.000000 0.052079 0.000000 0.014076
# 5 0.005622 -0.004377 0.004186 0.000000 0.033077 0.000000
# 6 0.000000 0.000000 0.000000 0.014076 0.000000 0.046163
#
#
# Mechanical properties :
#
#
# Convention : Reuss Voigt Hill
#
# Bulk Modulus (GPa) = 24.20875 65.56344 44.88610
# Shear Modulus (GPa) = 16.93533 25.75899 21.34716
#
# Velocity S-wave (km/s) = 3.14451 3.87812 3.53042
# Velocity P-wave (km/s) = 5.22672 7.63763 6.54416
#
# Compressibility (1/GPa) = 0.04130737
#
# Stress axis : x y z
#
# Youngs Moduli (GPa) = 70.10390 16.96836 44.38121
#
# Poissons Ratio (x) = 0.10227 0.43401
# Poissons Ratio (y) = 0.42251 0.50617
# Poissons Ratio (z) = 0.68556 0.19353
#
# Static dielectric constant tensor:
#      x y z
#    x 1.597850 0.000000 -0.048000 
#    y 0.000000 1.583850 0.000000 
#    z -0.048000 0.000000 1.578120 
# 
# From -- ./inp_files/162381.got.cif
#   From: 2010.05.17/outbox.cif.g08.bks.cpg/sg12_82_cif.got.tgz:162381.got - 2010.06.03 13:09:07.
