data_PCOD9172583
_publ_section_title
;
Structure prediction by ZEFSAII (Michael W. Deem and Ramdas Pophale) SiO2 
 PCOD9172583
Probable space group: C 2/M
;
_chemical_formula_sum "Si O2"
_cell_formula_units_Z 58
_cell_length_a 18.700762
_cell_length_b 17.805486
_cell_length_c 7.198404
_cell_angle_alpha 90.000000
_cell_angle_beta 87.170503
_cell_angle_gamma 90.000000
_cell_volume 2393.974731
_symmetry_space_group_name_H-M "C 2/M"
_symmetry_group_IT_number 12
_symmetry_cell_setting 'monoclinic'
loop_
_space_group_symop_operation_xyz
x,y,z
-x,y,-z
-x,-y,-z
x,-y,z
1/2+x,1/2+y,z
1/2-x,1/2+y,-z
1/2-x,1/2-y,-z
1/2+x,1/2-y,z
loop_
_atom_site_type_symbol
_atom_site_label
_atom_site_fract_x
_atom_site_fract_y
_atom_site_fract_z
Si Si1 0.619366 0.201707 0.155354
Si Si2 0.271133 0.084340 0.926280
Si Si3 0.223163 0.913396 0.522829
Si Si4 0.351572 0.367901 0.804976
Si Si5 0.879468 0.629299 0.437217
Si Si6 0.500000 0.000000 0.500000
Si Si7 0.469542 0.254265 0.289740
Si Si8 0.009251 0.082036 0.722479
O O1 0.662671 0.138655 0.039069
O O2 0.653142 0.283142 0.123059
O O3 0.627945 0.170641 0.363532
O O4 0.535147 0.219859 0.163850
O O5 0.233465 0.106988 0.736390
O O6 0.299463 0.000000 0.893536
O O7 0.209562 0.086031 0.085892
O O8 0.167310 0.865919 0.411760
O O9 0.301338 0.905164 0.418164
O O10 0.199646 0.000000 0.516860
O O11 0.429636 0.403861 0.813358
O O12 0.940752 0.566157 0.449761
O O13 0.905874 0.695003 0.297861
O O14 0.500000 0.258070 0.500000
O O15 0.451342 0.339671 0.236629
O O16 0.000000 0.079266 0.500000
O O17 0.037668 0.000000 0.776782
#
# Coordination Sequence:
#
# PCOD9172583 Si02
#       8
#     8   8   8   8   8   2   8   8
#     4   9  18  31  51  77 107 147 185 224 281 326
#     4  10  21  34  53  79 110 151 188 226 278 339
#     4  10  21  35  55  87 115 146 189 228 281 337
#     4  11  21  37  57  81 118 147 181 239 280 334
#     4  10  18  29  52  84 109 149 191 231 275 334
#     4  12  16  28  56  80 116 148 194 232 274 330
#     4   8  14  27  45  73 104 134 184 226 266 323
#     4   9  17  30  53  79 103 141 185 225 277 334
#
# _framework density 24.22749
#
# number of rings (size 3 to 8) (size 9 to 14) (size 15 to 20)
#    0.000    2.345    2.759    2.483    0.966    2.207 
#    0.000    0.000    0.000    1.655    0.000   25.103 
#    0.000    0.000    0.000    0.000    0.000    0.000 
#
# Total GULP energy -161824.337027 kJ/mol
# GULP energy per Si atom -5580.149553 kJ/mol
# Density = 2.417235 g / cm^3
# Si number density = 24.227490 Si / 1000 Ang^3
#
#
#
# Elastic Constant Matrix: (Units=GPa)
#
#
# Indices 1 2 3 4 5 6 
#
# 1 54.8509 27.1253 33.3639 0.0000 -9.1120 0.0000
# 2 27.1253 138.4465 29.3548 0.0000 -9.9407 0.0000
# 3 33.3639 29.3548 66.3953 0.0000 -1.4069 0.0000
# 4 0.0000 0.0000 0.0000 4.7600 0.0000 -27.6802
# 5 -9.1120 -9.9407 -1.4069 0.0000 36.1011 0.0000
# 6 0.0000 0.0000 0.0000 -27.6802 0.0000 -4.3076
#
#
#
# Elastic Compliance Matrix: (Units=1/GPa)
#
#
# Indices 1 2 3 4 5 6 
#
# 1 0.028344 -0.002350 -0.013077 0.000000 0.005997 0.000000
# 2 -0.002350 0.008321 -0.002464 0.000000 0.001602 0.000000
# 3 -0.013077 -0.002464 0.022656 0.000000 -0.003096 0.000000
# 4 0.000000 0.000000 0.000000 0.005476 0.000000 -0.035185
# 5 0.005997 0.001602 -0.003096 0.000000 0.029534 0.000000
# 6 0.000000 0.000000 0.000000 -0.035185 0.000000 -0.006051
#
#
# Mechanical properties :
#
#
# Convention : Reuss Voigt Hill
#
# Bulk Modulus (GPa) = 42.48211 48.82007 45.65109
# Shear Modulus (GPa) = 37.90510 18.63393 28.26951
#
# Velocity S-wave (km/s) = 3.95973 2.77632 3.41960
# Velocity P-wave (km/s) = 6.20312 5.52012 5.87156
#
# Compressibility (1/GPa) = 0.02353932
#
# Stress axis : x y z
#
# Youngs Moduli (GPa) = 35.28101 120.17912 44.13796
#
# Poissons Ratio (x) = 0.28242 0.57718
# Poissons Ratio (y) = 0.08291 0.10876
# Poissons Ratio (z) = 0.46136 0.29612
#
# Static dielectric constant tensor:
#      x y z
#    x 1.908180 0.000000 0.007710 
#    y 0.000000 1.895100 0.000000 
#    z 0.007710 0.000000 2.004850 
# 
# From -- ./inp_files/87912.got.cif
#   From: 2010.05.17/outbox.cif.g08.bks.cpg/sg12_44_cif.got.tgz:87912.got - 2010.06.03 13:09:07.
