data_PCOD9172353
_publ_section_title
;
Structure prediction by ZEFSAII (Michael W. Deem and Ramdas Pophale) SiO2 
 PCOD9172353
Probable space group: C 2/M
;
_chemical_formula_sum "Si O2"
_cell_formula_units_Z 56
_cell_length_a 22.982692
_cell_length_b 9.843072
_cell_length_c 12.519800
_cell_angle_alpha 90.000000
_cell_angle_beta 67.511629
_cell_angle_gamma 90.000000
_cell_volume 2616.861856
_symmetry_space_group_name_H-M "C 2/M"
_symmetry_group_IT_number 12
_symmetry_cell_setting 'monoclinic'
loop_
_space_group_symop_operation_xyz
x,y,z
-x,y,-z
-x,-y,-z
x,-y,z
1/2+x,1/2+y,z
1/2-x,1/2+y,-z
1/2-x,1/2-y,-z
1/2+x,1/2-y,z
loop_
_atom_site_type_symbol
_atom_site_label
_atom_site_fract_x
_atom_site_fract_y
_atom_site_fract_z
Si Si1 0.449363 0.162920 0.350305
Si Si2 0.918443 0.342095 0.137433
Si Si3 0.236786 0.149613 0.913397
Si Si4 0.268523 0.845083 0.268853
Si Si5 0.352669 0.345346 0.532758
Si Si6 0.063571 0.842886 0.315207
Si Si7 0.911290 0.851078 0.949587
O O1 0.454738 0.196179 0.220131
O O2 0.386020 0.232821 0.437922
O O3 0.506901 0.237220 0.368864
O O4 0.449023 0.000000 0.362797
O O5 0.929497 0.500000 0.106856
O O6 0.843903 0.330519 0.222489
O O7 0.933270 0.256969 0.021550
O O8 0.254468 0.228368 0.794390
O O9 0.161792 0.135588 0.967834
O O10 0.265708 0.000000 0.904023
O O11 0.250000 0.250000 0.000000
O O12 0.222636 0.833504 0.402260
O O13 0.257477 0.000000 0.234513
O O14 0.366914 0.500000 0.485448
O O15 0.384375 0.332055 0.628709
O O16 0.040502 0.000000 0.335649
O O17 0.087924 0.818205 0.177203
O O18 0.941978 0.000000 0.940591
#
# Coordination Sequence:
#
# PCOD9172353 Si02
#       7
#     8   8   8   8   8   8   8
#     4  11  24  39  55  79 112 147 185 228 270 321
#     4   9  20  38  57  81 114 147 178 218 273 329
#     4  10  18  29  48  77 111 144 178 219 269 324
#     4   9  18  35  57  79 106 141 179 222 273 325
#     4  10  21  38  60  83 108 142 184 228 275 325
#     4  10  21  38  58  81 109 142 183 229 275 320
#     4   9  19  35  56  81 108 140 182 228 268 319
#
# _framework density 21.399677000000001
#
# number of rings (size 3 to 8) (size 9 to 14) (size 15 to 20)
#    0.000    2.286    0.000    2.143    0.000    8.571 
#    0.000    4.286    0.000    0.000    0.000    0.000 
#    0.000    0.000    0.000    0.000    0.000    0.000 
#
# Total GULP energy -156220.735189 kJ/mol
# GULP energy per Si atom -5579.311971 kJ/mol
# Density = 2.135097 g / cm^3
# Si number density = 21.399677 Si / 1000 Ang^3
#
#
#
# Elastic Constant Matrix: (Units=GPa)
#
#
# Indices 1 2 3 4 5 6 
#
# 1 34.5759 17.2025 7.8542 0.0000 1.2058 0.0000
# 2 17.2025 95.6209 45.0391 0.0000 13.6660 0.0000
# 3 7.8542 45.0391 92.4048 0.0000 2.1313 0.0000
# 4 0.0000 0.0000 0.0000 21.8076 0.0000 13.4225
# 5 1.2058 13.6660 2.1313 0.0000 35.6059 0.0000
# 6 0.0000 0.0000 0.0000 13.4225 0.0000 4.0793
#
#
#
# Elastic Compliance Matrix: (Units=1/GPa)
#
#
# Indices 1 2 3 4 5 6 
#
# 1 0.031815 -0.005983 0.000184 0.000000 0.001208 0.000000
# 2 -0.005983 0.015579 -0.006961 0.000000 -0.005360 0.000000
# 3 0.000184 -0.006961 0.014157 0.000000 0.001818 0.000000
# 4 0.000000 0.000000 0.000000 -0.044726 0.000000 0.147169
# 5 0.001208 -0.005360 0.001818 0.000000 0.029993 0.000000
# 6 0.000000 0.000000 0.000000 0.147169 0.000000 -0.239105
#
#
# Mechanical properties :
#
#
# Convention : Reuss Voigt Hill
#
# Bulk Modulus (GPa) = 27.75387 40.31035 34.03211
# Shear Modulus (GPa) = -32.30886 22.46560 -4.92163
#
# Velocity S-wave (km/s) = -3.88981 3.24359 -1.51817
# Velocity P-wave (km/s) = 2.67893 5.73634 3.58671
#
# Compressibility (1/GPa) = 0.03603101
#
# Stress axis : x y z
#
# Youngs Moduli (GPa) = 31.43212 64.18772 70.63437
#
# Poissons Ratio (x) = 0.38403 -0.01301
# Poissons Ratio (y) = 0.18806 0.49171
# Poissons Ratio (z) = -0.00579 0.44683
#
# Static dielectric constant tensor:
#      x y z
#    x 1.820710 0.000000 -0.018480 
#    y 0.000000 1.792610 0.000000 
#    z -0.018480 0.000000 1.775040 
# 
# From -- ./inp_files/180761.got.cif
#   From: 2010.05.17/outbox.cif.g08.bks.cpg/sg12_91_cif.got.tgz:180761.got - 2010.06.03 13:09:07.
