data_PCOD9172380
_publ_section_title
;
Structure prediction by ZEFSAII (Michael W. Deem and Ramdas Pophale) SiO2 
 PCOD9172380
Probable space group: C 2/M
;
_chemical_formula_sum "Si O2"
_cell_formula_units_Z 64
_cell_length_a 30.152372
_cell_length_b 8.674485
_cell_length_c 16.101260
_cell_angle_alpha 90.000000
_cell_angle_beta 62.558944
_cell_angle_gamma 90.000000
_cell_volume 3737.543542
_symmetry_space_group_name_H-M "C 2/M"
_symmetry_group_IT_number 12
_symmetry_cell_setting 'monoclinic'
loop_
_space_group_symop_operation_xyz
x,y,z
-x,y,-z
-x,-y,-z
x,-y,z
1/2+x,1/2+y,z
1/2-x,1/2+y,-z
1/2-x,1/2-y,-z
1/2+x,1/2-y,z
loop_
_atom_site_type_symbol
_atom_site_label
_atom_site_fract_x
_atom_site_fract_y
_atom_site_fract_z
Si Si1 0.387009 0.682918 0.651690
Si Si2 0.923428 0.187564 0.105317
Si Si3 0.523570 0.686409 0.109915
Si Si4 0.159504 0.684373 0.565155
Si Si5 0.044353 0.684585 0.272460
Si Si6 0.320459 0.314293 0.271850
Si Si7 0.709657 0.813811 0.348413
Si Si8 0.940206 0.685451 0.444970
O O1 0.386971 0.500000 0.654036
O O2 0.408748 0.749824 0.717998
O O3 0.332078 0.743801 0.675375
O O4 0.423132 0.740298 0.545917
O O5 0.869129 0.242919 0.180356
O O6 0.967343 0.233577 0.131359
O O7 0.922914 0.000000 0.106449
O O8 0.941086 0.232398 0.997916
O O9 0.524341 0.500000 0.115081
O O10 0.539855 0.756826 0.182620
O O11 0.162998 0.500000 0.573472
O O12 0.174041 0.766033 0.637207
O O13 0.193858 0.727171 0.456666
O O14 0.102975 0.721411 0.584982
O O15 0.045785 0.500000 0.272327
O O16 0.993962 0.733993 0.365025
O O17 0.320561 0.500000 0.267918
O O18 0.266479 0.262909 0.285002
O O19 0.706469 0.000000 0.345443
O O20 0.940194 0.500000 0.456807
#
# Coordination Sequence:
#
# PCOD9172380 Si02
#       8
#     8   8   8   8   8   8   8   8
#     4  11  22  34  50  71  95 126 166 206 240 282
#     4   8  16  31  51  75 102 130 158 195 242 285
#     4   9  17  32  52  74 103 132 158 193 238 288
#     4   9  17  29  44  67 100 131 158 193 240 285
#     4  11  21  33  51  73  99 130 162 197 240 288
#     4  10  18  29  49  73  95 127 169 202 236 287
#     4   9  19  34  48  65  96 133 165 202 245 285
#     4   9  19  34  49  69 101 135 161 192 238 286
#
# _framework density 17.123546000000001
#
# number of rings (size 3 to 8) (size 9 to 14) (size 15 to 20)
#    0.000    2.500    0.000    4.500    0.000    5.000 
#    0.000    1.875    0.000    0.750    0.000    0.000 
#    0.000    0.000    0.000    0.000    0.000    0.000 
#
# Total GULP energy -178549.102015 kJ/mol
# GULP energy per Si atom -5579.659438 kJ/mol
# Density = 1.708457 g / cm^3
# Si number density = 17.123546 Si / 1000 Ang^3
#
#
#
# Elastic Constant Matrix: (Units=GPa)
#
#
# Indices 1 2 3 4 5 6 
#
# 1 152.9965 36.6482 99.8997 0.0000 -1.6442 0.0000
# 2 36.6482 22.5558 27.4068 0.0000 2.8197 0.0000
# 3 99.8997 27.4068 91.1722 0.0000 4.8659 0.0000
# 4 0.0000 0.0000 0.0000 10.6360 0.0000 -3.9343
# 5 -1.6442 2.8197 4.8659 0.0000 29.4549 0.0000
# 6 0.0000 0.0000 0.0000 -3.9343 0.0000 1.7444
#
#
#
# Elastic Compliance Matrix: (Units=1/GPa)
#
#
# Indices 1 2 3 4 5 6 
#
# 1 0.025984 -0.012655 -0.025029 0.000000 0.006797 0.000000
# 2 -0.012655 0.076318 -0.008725 -0.000001 -0.006571 -0.000002
# 3 -0.025029 -0.008725 0.041411 0.000000 -0.007403 0.000000
# 4 0.000000 -0.000001 0.000000 0.567402 0.000000 1.279729
# 5 0.006797 -0.006571 -0.007403 0.000000 0.036182 0.000000
# 6 0.000000 -0.000002 0.000000 1.279729 0.000000 3.459594
#
#
# Mechanical properties :
#
#
# Convention : Reuss Voigt Hill
#
# Bulk Modulus (GPa) = 19.64815 66.07044 42.85930
# Shear Modulus (GPa) = 1.15830 15.21836 8.18833
#
# Velocity S-wave (km/s) = 0.82335 2.98441 2.18913
# Velocity P-wave (km/s) = 3.52181 7.10942 5.61013
#
# Compressibility (1/GPa) = 0.05089538
#
# Stress axis : x y z
#
# Youngs Moduli (GPa) = 38.48596 13.10298 24.14789
#
# Poissons Ratio (x) = 0.16581 0.60441
# Poissons Ratio (y) = 0.48703 0.21069
# Poissons Ratio (z) = 0.96328 0.11432
#
# Static dielectric constant tensor:
#      x y z
#    x 1.587480 0.000000 -0.021430 
#    y 0.000000 1.573360 0.000000 
#    z -0.021430 0.000000 1.561970 
# 
# From -- ./inp_files/243853.got.cif
#   From: 2010.05.17/outbox.cif.g08.bks.cpg/sg12_122_cif.got.tgz:243853.got - 2010.06.03 13:09:07.
