data_PCOD9172832
_publ_section_title
;
Structure prediction by ZEFSAII (Michael W. Deem and Ramdas Pophale) SiO2 
 PCOD9172832
Probable space group: C 2/M
;
_chemical_formula_sum "Si O2"
_cell_formula_units_Z 40
_cell_length_a 29.469504
_cell_length_b 7.885617
_cell_length_c 13.201328
_cell_angle_alpha 90.000000
_cell_angle_beta 135.219658
_cell_angle_gamma 90.000000
_cell_volume 2160.925287
_symmetry_space_group_name_H-M "C 2/M"
_symmetry_group_IT_number 12
_symmetry_cell_setting 'monoclinic'
loop_
_space_group_symop_operation_xyz
x,y,z
-x,y,-z
-x,-y,-z
x,-y,z
1/2+x,1/2+y,z
1/2-x,1/2+y,-z
1/2-x,1/2-y,-z
1/2+x,1/2-y,z
loop_
_atom_site_type_symbol
_atom_site_label
_atom_site_fract_x
_atom_site_fract_y
_atom_site_fract_z
Si Si1 0.348852 0.300726 0.956679
Si Si2 0.675109 0.202355 0.864285
Si Si3 0.700939 0.207389 0.688494
Si Si4 0.071673 0.700034 0.105390
Si Si5 0.679556 0.204750 0.430202
O O1 0.349155 0.500000 0.936049
O O2 0.275929 0.237652 0.817398
O O3 0.399037 0.218136 0.960119
O O4 0.361190 0.273775 0.095535
O O5 0.662920 0.261127 0.729669
O O6 0.668676 0.000000 0.857410
O O7 0.750000 0.250000 0.000000
O O8 0.674304 0.263642 0.538187
O O9 0.701734 0.000000 0.691198
O O10 0.066727 0.500000 0.120818
O O11 0.124032 0.771186 0.267709
O O12 0.000000 0.773628 0.000000
O O13 0.750000 0.250000 0.500000
O O14 0.676248 0.000000 0.426107
#
# Coordination Sequence:
#
# PCOD9172832 Si02
#       5
#     8   8   8   8   8
#     4  10  18  30  48  70  97 128 165 204 244 291
#     4   9  16  27  44  69  99 127 158 199 248 295
#     4   8  15  27  45  70  97 122 154 198 242 287
#     4  10  21  34  49  72 101 133 166 201 244 296
#     4  10  18  31  50  72  99 128 160 201 246 291
#
# _framework density 18.510589
#
# number of rings (size 3 to 8) (size 9 to 14) (size 15 to 20)
#    0.000    2.600    2.000    2.400    0.000    0.400 
#    0.000    1.000    0.000    1.200    0.000    8.400 
#    0.000    0.000    0.000    0.000    0.000    0.000 
#
# Total GULP energy -111428.829178 kJ/mol
# GULP energy per Si atom -5571.441459 kJ/mol
# Density = 1.846846 g / cm^3
# Si number density = 18.510589 Si / 1000 Ang^3
#
#
#
# Elastic Constant Matrix: (Units=GPa)
#
#
# Indices 1 2 3 4 5 6 
#
# 1 109.8673 -9.0533 87.6404 0.0000 -17.9244 0.0000
# 2 -9.0533 19.2070 3.9900 0.0000 6.5923 0.0000
# 3 87.6404 3.9900 119.2315 0.0000 -19.8954 0.0000
# 4 0.0000 0.0000 0.0000 9.5599 0.0000 -3.1473
# 5 -17.9244 6.5923 -19.8954 0.0000 33.8489 0.0000
# 6 0.0000 0.0000 0.0000 -3.1473 0.0000 20.1798
#
#
#
# Elastic Compliance Matrix: (Units=1/GPa)
#
#
# Indices 1 2 3 4 5 6 
#
# 1 0.026414 0.017056 -0.020187 0.000000 -0.001199 0.000000
# 2 0.017056 0.068657 -0.017250 0.000000 -0.014479 0.000000
# 3 -0.020187 -0.017250 0.025035 0.000000 0.007385 0.000000
# 4 0.000000 0.000000 0.000000 0.110265 0.000000 0.017197
# 5 -0.001199 -0.014479 0.007385 0.000000 0.036068 0.000000
# 6 0.000000 0.000000 0.000000 0.017197 0.000000 0.052237
#
#
# Mechanical properties :
#
#
# Convention : Reuss Voigt Hill
#
# Bulk Modulus (GPa) = 12.60346 45.93999 29.27172
# Shear Modulus (GPa) = 12.95723 23.76631 18.36177
#
# Velocity S-wave (km/s) = 2.64860 3.58708 3.15296
# Velocity P-wave (km/s) = 4.02207 6.48293 5.39469
#
# Compressibility (1/GPa) = 0.07934331
#
# Stress axis : x y z
#
# Youngs Moduli (GPa) = 37.85814 14.56525 39.94473
#
# Poissons Ratio (x) = -0.24842 0.80635
# Poissons Ratio (y) = -0.64570 0.68905
# Poissons Ratio (z) = 0.76423 0.25125
#
# Static dielectric constant tensor:
#      x y z
#    x 1.635550 0.000000 -0.035640 
#    y 0.000000 1.665910 0.000000 
#    z -0.035640 0.000000 1.663200 
# 
# From -- ./inp_files/162374.got.cif
#   From: 2010.05.17/outbox.cif.g08.bks.cpg/sg12_82_cif.got.tgz:162374.got - 2010.06.03 13:09:07.
