data_PCOD9172535
_publ_section_title
;
Structure prediction by ZEFSAII (Michael W. Deem and Ramdas Pophale) SiO2 
 PCOD9172535
Probable space group: C 2/M
;
_chemical_formula_sum "Si O2"
_cell_formula_units_Z 56
_cell_length_a 15.852527
_cell_length_b 16.556653
_cell_length_c 21.650549
_cell_angle_alpha 90.000000
_cell_angle_beta 26.521587
_cell_angle_gamma 90.000000
_cell_volume 2537.437937
_symmetry_space_group_name_H-M "C 2/M"
_symmetry_group_IT_number 12
_symmetry_cell_setting 'monoclinic'
loop_
_space_group_symop_operation_xyz
x,y,z
-x,y,-z
-x,-y,-z
x,-y,z
1/2+x,1/2+y,z
1/2-x,1/2+y,-z
1/2-x,1/2-y,-z
1/2+x,1/2-y,z
loop_
_atom_site_type_symbol
_atom_site_label
_atom_site_fract_x
_atom_site_fract_y
_atom_site_fract_z
Si Si1 0.007577 0.762474 0.387240
Si Si2 0.227511 0.412431 0.359403
Si Si3 0.168507 0.622075 0.934879
Si Si4 0.849012 0.335983 0.918880
Si Si5 0.907787 0.086591 0.376664
Si Si6 0.792052 0.184363 0.114809
Si Si7 0.269872 0.757256 0.317734
O O1 0.895755 0.829661 0.421779
O O2 0.871851 0.741001 0.532900
O O3 0.109676 0.692432 0.280460
O O4 0.182930 0.797614 0.313400
O O5 0.288616 0.500000 0.294656
O O6 0.292605 0.410274 0.388291
O O7 0.323178 0.334708 0.265080
O O8 0.000000 0.409186 0.500000
O O9 0.369501 0.587004 0.784373
O O10 0.183030 0.719625 0.917123
O O11 0.150280 0.609865 0.020369
O O12 0.000000 0.595463 0.000000
O O13 0.762656 0.363373 0.911085
O O14 0.063310 0.310204 0.766674
O O15 0.750000 0.250000 0.000000
O O16 0.860421 0.000000 0.438482
O O17 0.000000 0.157971 0.000000
#
# Coordination Sequence:
#
# PCOD9172535 Si02
#       7
#     8   8   8   8   8   8   8
#     4  10  20  34  53  81 114 144 189 239 290 346
#     4  10  20  36  53  76 109 145 190 235 283 341
#     4   9  17  32  52  77 105 140 181 233 283 342
#     4  10  18  29  51  76 109 143 177 233 291 340
#     4  10  21  36  57  81 113 152 191 238 289 349
#     4   9  17  29  46  73 107 140 175 225 279 334
#     4  11  20  35  54  84 112 150 190 244 294 340
#
# _framework density 22.069506000000001
#
# number of rings (size 3 to 8) (size 9 to 14) (size 15 to 20)
#    0.000    2.143    1.429    6.000    0.000    2.571 
#    0.000    1.429    0.000    0.857    0.000    2.000 
#    0.000   46.857    0.000    0.000    0.000    0.000 
#
# Total GULP energy -155974.405850 kJ/mol
# GULP energy per Si atom -5570.514495 kJ/mol
# Density = 2.201927 g / cm^3
# Si number density = 22.069506 Si / 1000 Ang^3
#
#
#
# Elastic Constant Matrix: (Units=GPa)
#
#
# Indices 1 2 3 4 5 6 
#
# 1 133.5712 5.1216 19.1885 -0.0195 -10.7240 0.0394
# 2 5.1216 47.5605 -22.5615 0.0207 -2.4128 0.0157
# 3 19.1885 -22.5615 54.1095 -0.0032 9.6215 0.0476
# 4 -0.0195 0.0207 -0.0032 2.7451 0.0038 16.7774
# 5 -10.7240 -2.4128 9.6215 0.0038 35.6002 -0.0233
# 6 0.0394 0.0157 0.0476 16.7774 -0.0233 -69.8291
#
#
#
# Elastic Compliance Matrix: (Units=1/GPa)
#
#
# Indices 1 2 3 4 5 6 
#
# 1 0.008630 -0.003125 -0.005030 0.000031 0.003747 0.000007
# 2 -0.003125 0.027394 0.012992 -0.000120 -0.002596 -0.000015
# 3 -0.005030 0.012992 0.027097 -0.000090 -0.007958 0.000000
# 4 0.000031 -0.000120 -0.000090 0.147577 0.000033 0.035458
# 5 0.003747 -0.002596 -0.007958 0.000033 0.031193 -0.000006
# 6 0.000007 -0.000015 0.000000 0.035458 -0.000006 -0.005802
#
#
# Mechanical properties :
#
#
# Convention : Reuss Voigt Hill
#
# Bulk Modulus (GPa) = 13.73727 26.52650 20.13189
# Shear Modulus (GPa) = 19.94570 9.26942 14.60756
#
# Velocity S-wave (km/s) = 3.00953 2.05164 2.57551
# Velocity P-wave (km/s) = 4.27954 4.20213 4.24101
#
# Compressibility (1/GPa) = 0.07279465
#
# Stress axis : x y z
#
# Youngs Moduli (GPa) = 115.87637 36.50457 36.90464
#
# Poissons Ratio (x) = 0.11408 0.18562
# Poissons Ratio (y) = 0.36214 -0.47947
# Poissons Ratio (z) = 0.58283 -0.47427
#
# Static dielectric constant tensor:
#      x y z
#    x 1.851410 0.000000 0.004080 
#    y 0.000000 1.871080 0.000020 
#    z 0.004080 0.000020 1.885920 
# 
# From -- ./inp_files/311702.got.cif
#   From: 2010.05.17/outbox.cif.g08.bks.cpg/sg12_156_cif.got.tgz:311702.got - 2010.06.03 13:09:07.
