data_PCOD9172213
_publ_section_title
;
Structure prediction by ZEFSAII (Michael W. Deem and Ramdas Pophale) SiO2 
 PCOD9172213
Probable space group: C 2/M
;
_chemical_formula_sum "Si O2"
_cell_formula_units_Z 64
_cell_length_a 23.853176
_cell_length_b 9.226047
_cell_length_c 21.758445
_cell_angle_alpha 90.000000
_cell_angle_beta 52.728188
_cell_angle_gamma 90.000000
_cell_volume 3810.466248
_symmetry_space_group_name_H-M "C 2/M"
_symmetry_group_IT_number 12
_symmetry_cell_setting 'monoclinic'
loop_
_space_group_symop_operation_xyz
x,y,z
-x,y,-z
-x,-y,-z
x,-y,z
1/2+x,1/2+y,z
1/2-x,1/2+y,-z
1/2-x,1/2-y,-z
1/2+x,1/2-y,z
loop_
_atom_site_type_symbol
_atom_site_label
_atom_site_fract_x
_atom_site_fract_y
_atom_site_fract_z
Si Si1 0.702705 0.171438 0.161157
Si Si2 0.115955 0.826351 0.420237
Si Si3 0.883080 0.673590 0.150144
Si Si4 0.023677 0.323788 0.125071
Si Si5 0.255966 0.828608 0.723591
Si Si6 0.492586 0.326532 0.404236
Si Si7 0.658927 0.826901 0.962900
Si Si8 0.040841 0.325165 0.251142
O O1 0.715815 0.194713 0.225268
O O2 0.765171 0.252478 0.084398
O O3 0.623426 0.217672 0.198670
O O4 0.708275 0.000000 0.145223
O O5 0.187713 0.743656 0.358958
O O6 0.060008 0.793112 0.402890
O O7 0.076107 0.787970 0.509914
O O8 0.127119 0.000000 0.412111
O O9 0.876768 0.500000 0.163033
O O10 0.820026 0.753261 0.227238
O O11 0.872249 0.701096 0.084814
O O12 0.959137 0.720691 0.124535
O O13 0.025987 0.500000 0.121195
O O14 0.012092 0.282915 0.203400
O O15 0.099723 0.275044 0.049830
O O16 0.250702 0.000000 0.716958
O O17 0.492044 0.500000 0.395730
O O18 0.501157 0.246217 0.334438
O O19 0.667755 0.000000 0.963429
O O20 0.038085 0.500000 0.258861
#
# Coordination Sequence:
#
# PCOD9172213 Si02
#       8
#     8   8   8   8   8   8   8   8
#     4   9  18  30  43  66  99 129 153 186 239 289
#     4   9  17  30  49  73  99 125 154 191 234 278
#     4   9  17  31  51  71  92 123 162 206 245 275
#     4   9  18  32  50  70  92 124 167 204 237 279
#     4  10  18  29  47  73 101 126 154 193 237 285
#     4   9  18  31  48  72 100 126 155 192 231 277
#     4   9  17  30  50  72  91 118 162 209 241 273
#     4  10  19  32  48  67  98 134 160 189 233 289
#
# _framework density 16.795843999999999
#
# number of rings (size 3 to 8) (size 9 to 14) (size 15 to 20)
#    0.000    2.750    1.250    1.500    0.000    3.500 
#    0.000    3.125    0.000    3.750    0.000    0.000 
#    0.000    0.000    0.000    0.000    0.000    0.000 
#
# Total GULP energy -178383.677083 kJ/mol
# GULP energy per Si atom -5574.489909 kJ/mol
# Density = 1.675762 g / cm^3
# Si number density = 16.795844 Si / 1000 Ang^3
#
#
#
# Elastic Constant Matrix: (Units=GPa)
#
#
# Indices 1 2 3 4 5 6 
#
# 1 0.5890 5.5877 -0.8711 0.0000 2.4879 0.0000
# 2 5.5877 12.3199 32.5400 0.0010 0.4029 -0.0004
# 3 -0.8711 32.5400 108.3110 0.0000 -4.6820 -0.0002
# 4 0.0000 0.0010 0.0000 25.1511 -0.0003 -3.3229
# 5 2.4879 0.4029 -4.6820 -0.0003 17.8204 0.0001
# 6 0.0000 -0.0004 -0.0002 -3.3229 0.0001 14.6080
#
#
#
# Elastic Compliance Matrix: (Units=1/GPa)
#
#
# Indices 1 2 3 4 5 6 
#
# 1 -0.076642 0.181946 -0.055626 -0.000007 -0.008029 0.000004
# 2 0.181946 -0.007841 0.002760 0.000000 -0.024499 0.000000
# 3 -0.055626 0.002760 0.008384 0.000000 0.009906 0.000000
# 4 -0.000007 0.000000 0.000000 0.040992 0.000001 0.009324
# 5 -0.008029 -0.024499 0.009906 0.000001 0.060393 -0.000001
# 6 0.000004 0.000000 0.000000 0.009324 -0.000001 0.070577
#
#
# Mechanical properties :
#
#
# Convention : Reuss Voigt Hill
#
# Bulk Modulus (GPa) = 5.49263 21.74813 13.62038
# Shear Modulus (GPa) = -49.20750 17.11346 -16.04702
#
# Velocity S-wave (km/s) = -5.41858 3.19550 -3.09433
# Velocity P-wave (km/s) = 5.98922 5.15670 2.15396
#
# Compressibility (1/GPa) = 0.18206218
#
# Stress axis : x y z
#
# Youngs Moduli (GPa) = -13.04770 -127.53531 119.27039
#
# Poissons Ratio (x) = 23.20456 6.63452
# Poissons Ratio (y) = 2.37398 -0.32919
# Poissons Ratio (z) = -0.72579 0.35200
#
# Static dielectric constant tensor:
#      x y z
#    x 1.557150 0.000000 0.004200 
#    y 0.000000 1.557950 0.000000 
#    z 0.004200 0.000000 1.561810 
# 
# From -- ./inp_files/282857.got.cif
#   From: 2010.05.17/outbox.cif.g08.bks.cpg/sg12_142_cif.got.tgz:282857.got - 2010.06.03 13:09:07.
