data_PCOD9172542
_publ_section_title
;
Structure prediction by ZEFSAII (Michael W. Deem and Ramdas Pophale) SiO2 
 PCOD9172542
Probable space group: C 2/M
;
_chemical_formula_sum "Si O2"
_cell_formula_units_Z 56
_cell_length_a 7.973798
_cell_length_b 18.871279
_cell_length_c 26.739484
_cell_angle_alpha 90.000000
_cell_angle_beta 42.110246
_cell_angle_gamma 90.000000
_cell_volume 2698.092116
_symmetry_space_group_name_H-M "C 2/M"
_symmetry_group_IT_number 12
_symmetry_cell_setting 'monoclinic'
loop_
_space_group_symop_operation_xyz
x,y,z
-x,y,-z
-x,-y,-z
x,-y,z
1/2+x,1/2+y,z
1/2-x,1/2+y,-z
1/2-x,1/2-y,-z
1/2+x,1/2-y,z
loop_
_atom_site_type_symbol
_atom_site_label
_atom_site_fract_x
_atom_site_fract_y
_atom_site_fract_z
Si Si1 0.909923 0.698236 0.373944
Si Si2 0.738838 0.856934 0.067874
Si Si3 0.798023 0.818164 0.207117
Si Si4 0.746208 0.922609 0.522362
Si Si5 0.505360 0.649601 0.380231
Si Si6 0.173835 0.714904 0.888697
Si Si7 0.935800 0.583576 0.224474
O O1 0.901537 0.643239 0.421391
O O2 0.708656 0.673441 0.377312
O O3 0.176726 0.696518 0.287488
O O4 0.859593 0.778944 0.399481
O O5 0.822906 0.786056 0.079303
O O6 0.582965 0.828009 0.055217
O O7 0.542361 0.898422 0.146054
O O8 0.000000 0.895859 0.000000
O O9 0.778480 0.747437 0.177310
O O10 0.640969 0.879623 0.215355
O O11 0.091254 0.831776 0.147217
O O12 0.000000 0.925266 0.500000
O O13 0.830143 0.906063 0.447378
O O14 0.625063 0.000000 0.553727
O O15 0.670195 0.618183 0.298582
O O16 0.922070 0.500000 0.235549
#
# Coordination Sequence:
#
# PCOD9172542 Si02
#       7
#     8   8   8   8   8   8   8
#     4  10  18  29  51  77  98 128 168 215 258 292
#     4  10  19  32  54  80 106 132 165 211 258 310
#     4   9  17  30  51  74 101 130 165 213 254 306
#     4   9  18  31  48  73 103 135 171 208 249 298
#     4  10  19  33  53  74  99 131 171 215 254 301
#     4   9  17  32  52  79 105 130 165 209 263 306
#     4  10  21  35  51  71  99 139 177 211 259 312
#
# _framework density 20.755405
#
# number of rings (size 3 to 8) (size 9 to 14) (size 15 to 20)
#    0.000    2.429    0.000    4.714    0.000    3.714 
#    0.000    0.714    0.000    5.143    0.000    0.000 
#    0.000    0.000    0.000    0.000    0.000    0.000 
#
# Total GULP energy -156240.613236 kJ/mol
# GULP energy per Si atom -5580.021901 kJ/mol
# Density = 2.070817 g / cm^3
# Si number density = 20.755405 Si / 1000 Ang^3
#
#
#
# Elastic Constant Matrix: (Units=GPa)
#
#
# Indices 1 2 3 4 5 6 
#
# 1 24.0399 -3.9527 -4.7085 -0.0113 -10.3318 0.0028
# 2 -3.9527 99.4532 11.8388 -0.0040 1.8485 0.0003
# 3 -4.7085 11.8388 66.2183 -0.0276 10.1083 0.0136
# 4 -0.0113 -0.0040 -0.0276 15.1967 0.0157 -2.0938
# 5 -10.3318 1.8485 10.1083 0.0157 16.9518 -0.0063
# 6 0.0028 0.0003 0.0136 -2.0938 -0.0063 10.6790
#
#
#
# Elastic Compliance Matrix: (Units=1/GPa)
#
#
# Indices 1 2 3 4 5 6 
#
# 1 0.056786 0.001800 -0.001691 0.000004 0.035422 0.000009
# 2 0.001800 0.010331 -0.001886 0.000000 0.001095 0.000002
# 3 -0.001691 -0.001886 0.016991 0.000038 -0.010957 -0.000020
# 4 0.000004 0.000000 0.000038 0.067631 -0.000078 0.013260
# 5 0.035422 0.001095 -0.010957 -0.000078 0.086994 0.000041
# 6 0.000009 0.000002 -0.000020 0.013260 0.000041 0.096242
#
#
# Mechanical properties :
#
#
# Convention : Reuss Voigt Hill
#
# Bulk Modulus (GPa) = 12.41427 21.78517 17.09972
# Shear Modulus (GPa) = 13.68437 21.00107 17.34272
#
# Velocity S-wave (km/s) = 2.57050 3.18439 2.89377
# Velocity P-wave (km/s) = 3.84762 4.90300 4.40701
#
# Compressibility (1/GPa) = 0.08055245
#
# Stress axis : x y z
#
# Youngs Moduli (GPa) = 17.61011 96.79893 58.85432
#
# Poissons Ratio (x) = -0.17423 0.09953
# Poissons Ratio (y) = -0.03170 0.11101
# Poissons Ratio (z) = 0.02978 0.18258
#
# Static dielectric constant tensor:
#      x y z
#    x 1.783040 0.000000 0.013710 
#    y 0.000000 1.716000 0.000000 
#    z 0.013710 0.000000 1.813210 
# 
# From -- ./inp_files/356729.got.cif
#   From: 2010.05.17/outbox.cif.g08.bks.cpg/sg12_179_cif.got.tgz:356729.got - 2010.06.03 13:09:07.
