data_PCOD9172391
_publ_section_title
;
Structure prediction by ZEFSAII (Michael W. Deem and Ramdas Pophale) SiO2 
 PCOD9172391
Probable space group: C 2/M
;
_chemical_formula_sum "Si O2"
_cell_formula_units_Z 56
_cell_length_a 20.856314
_cell_length_b 18.750132
_cell_length_c 12.893593
_cell_angle_alpha 90.000000
_cell_angle_beta 25.935226
_cell_angle_gamma 90.000000
_cell_volume 2205.208732
_symmetry_space_group_name_H-M "C 2/M"
_symmetry_group_IT_number 12
_symmetry_cell_setting 'monoclinic'
loop_
_space_group_symop_operation_xyz
x,y,z
-x,y,-z
-x,-y,-z
x,-y,z
1/2+x,1/2+y,z
1/2-x,1/2+y,-z
1/2-x,1/2-y,-z
1/2+x,1/2-y,z
loop_
_atom_site_type_symbol
_atom_site_label
_atom_site_fract_x
_atom_site_fract_y
_atom_site_fract_z
Si Si1 0.320395 0.920262 0.238674
Si Si2 0.841919 0.920209 0.903324
Si Si3 0.561611 0.795082 0.025436
Si Si4 0.298491 0.422785 0.215757
Si Si5 0.514064 0.120527 0.358193
Si Si6 0.089396 0.228573 0.193677
Si Si7 0.757248 0.665652 0.520854
O O1 0.228874 0.891376 0.470801
O O2 0.277498 0.000000 0.270765
O O3 0.500000 0.923796 0.000000
O O4 0.310590 0.852536 0.176491
O O5 0.829863 0.916270 0.047513
O O6 0.678868 0.904901 0.093418
O O7 0.889019 0.000000 0.807409
O O8 0.939866 0.852109 0.731136
O O9 0.593575 0.734493 0.061849
O O10 0.433317 0.838981 0.269068
O O11 0.500000 0.776978 0.000000
O O12 0.354151 0.500000 0.168702
O O13 0.329973 0.358998 0.251153
O O14 0.122257 0.423043 0.485396
O O15 0.500000 0.107748 0.500000
O O16 0.492019 0.206352 0.376528
O O17 0.250000 0.250000 0.000000
O O18 0.750000 0.750000 0.500000
#
# Coordination Sequence:
#
# PCOD9172391 Si02
#       7
#     8   8   8   8   8   8   8
#     4   8  16  31  49  71 103 132 163 212 265 311
#     4   9  19  31  49  74 106 136 166 213 262 312
#     4   9  19  33  50  76 102 136 175 211 260 306
#     4  10  18  29  49  74 103 131 168 216 270 311
#     4   9  17  32  51  78 102 129 167 218 268 313
#     4  10  19  34  54  79 105 138 175 214 258 315
#     4  10  19  29  47  74 104 140 171 210 254 307
#
# _framework density 25.394421000000001
#
# number of rings (size 3 to 8) (size 9 to 14) (size 15 to 20)
#    0.000    3.000    1.429    0.857    4.000    2.286 
#    0.000    0.714    0.000    2.571    0.000    0.000 
#    0.000    0.000    0.000    0.000    0.000    0.000 
#
# Total GULP energy -155891.580016 kJ/mol
# GULP energy per Si atom -5567.556429 kJ/mol
# Density = 2.533662 g / cm^3
# Si number density = 25.394421 Si / 1000 Ang^3
#
#
#
# Elastic Constant Matrix: (Units=GPa)
#
#
# Indices 1 2 3 4 5 6 
#
# 1 63.9677 14.0881 16.3212 -0.0001 0.3887 0.0000
# 2 14.0881 185.1309 -7.0229 0.0005 -23.0972 -0.0001
# 3 16.3212 -7.0229 32.0042 0.0005 -13.8008 0.0000
# 4 -0.0001 0.0005 0.0005 20.5777 0.0001 8.1698
# 5 0.3887 -23.0972 -13.8008 0.0001 15.7523 -0.0001
# 6 0.0000 -0.0001 0.0000 8.1698 -0.0001 23.6957
#
#
#
# Elastic Compliance Matrix: (Units=1/GPa)
#
#
# Indices 1 2 3 4 5 6 
#
# 1 0.026526 -0.008722 -0.034134 0.000002 -0.043348 -0.000001
# 2 -0.008722 0.011643 0.023236 -0.000001 0.037645 0.000001
# 3 -0.034134 0.023236 0.110585 -0.000005 0.131797 0.000002
# 4 0.000002 -0.000001 -0.000005 0.056303 -0.000007 -0.019412
# 5 -0.043348 0.037645 0.131797 -0.000007 0.235219 0.000003
# 6 -0.000001 0.000001 0.000002 -0.019412 0.000003 0.048895
#
#
# Mechanical properties :
#
#
# Convention : Reuss Voigt Hill
#
# Bulk Modulus (GPa) = 9.13115 36.43063 22.78089
# Shear Modulus (GPa) = 8.85089 29.18622 19.01856
#
# Velocity S-wave (km/s) = 1.86894 3.39383 2.73962
# Velocity P-wave (km/s) = 2.87416 5.45294 4.35863
#
# Compressibility (1/GPa) = 0.10951526
#
# Stress axis : x y z
#
# Youngs Moduli (GPa) = 37.69858 85.88628 9.04284
#
# Poissons Ratio (x) = 0.74906 0.30866
# Poissons Ratio (y) = 0.32879 -0.21012
# Poissons Ratio (z) = 1.28679 -1.99562
#
# Static dielectric constant tensor:
#      x y z
#    x 2.168660 0.000000 -0.019920 
#    y 0.000000 2.094870 0.000000 
#    z -0.019920 0.000000 2.010440 
# 
# From -- ./inp_files/240400.got.cif
#   From: 2010.05.17/outbox.cif.g08.bks.cpg/sg12_121_cif.got.tgz:240400.got - 2010.06.03 13:09:07.
