data_PCOD9172527
_publ_section_title
;
Structure prediction by ZEFSAII (Michael W. Deem and Ramdas Pophale) SiO2 
 PCOD9172527
Probable space group: C 2/M
;
_chemical_formula_sum "Si O2"
_cell_formula_units_Z 64
_cell_length_a 22.285943
_cell_length_b 8.679815
_cell_length_c 17.995061
_cell_angle_alpha 90.000000
_cell_angle_beta 105.458580
_cell_angle_gamma 90.000000
_cell_volume 3354.998033
_symmetry_space_group_name_H-M "C 2/M"
_symmetry_group_IT_number 12
_symmetry_cell_setting 'monoclinic'
loop_
_space_group_symop_operation_xyz
x,y,z
-x,y,-z
-x,-y,-z
x,-y,z
1/2+x,1/2+y,z
1/2-x,1/2+y,-z
1/2-x,1/2-y,-z
1/2+x,1/2-y,z
loop_
_atom_site_type_symbol
_atom_site_label
_atom_site_fract_x
_atom_site_fract_y
_atom_site_fract_z
Si Si1 0.587901 0.181729 0.325626
Si Si2 0.882348 0.821919 0.267428
Si Si3 0.176455 0.186894 0.897061
Si Si4 0.010127 0.813526 0.589236
Si Si5 0.623552 0.322009 0.185085
Si Si6 0.767358 0.668367 0.282765
Si Si7 0.284902 0.324319 0.579205
Si Si8 0.321252 0.184285 0.939246
O O1 0.543215 0.262284 0.370830
O O2 0.585091 0.245322 0.239793
O O3 0.657078 0.222049 0.376568
O O4 0.576876 0.000000 0.321559
O O5 0.873690 0.757776 0.180933
O O6 0.927502 0.757670 0.346378
O O7 0.811868 0.803236 0.272211
O O8 0.900106 0.000000 0.265064
O O9 0.248395 0.233284 0.901139
O O10 0.175511 0.000000 0.897877
O O11 0.163367 0.250356 0.974464
O O12 0.000000 0.759592 0.500000
O O13 0.011739 0.000000 0.585633
O O14 0.604725 0.500000 0.171682
O O15 0.695861 0.318544 0.235229
O O16 0.630739 0.242628 0.107419
O O17 0.790916 0.500000 0.264455
O O18 0.763858 0.668982 0.369911
O O19 0.306644 0.500000 0.572339
O O20 0.250000 0.250000 0.500000
O O21 0.321611 0.000000 0.939994
#
# Coordination Sequence:
#
# PCOD9172527 Si02
#       8
#     8   8   8   8   8   8   8   8
#     4  11  23  39  58  81 110 146 189 236 283 338
#     4  10  20  35  56  79 108 148 189 232 278 332
#     4   9  18  31  48  77 116 152 188 226 272 336
#     4  10  23  42  61  82 108 146 193 240 289 338
#     4  10  19  34  56  81 114 151 184 225 278 336
#     4   9  19  32  49  77 109 140 177 221 274 328
#     4  10  21  36  54  80 110 143 179 228 286 344
#     4  10  18  29  50  82 118 151 185 225 275 336
#
# _framework density 19.076017
#
# number of rings (size 3 to 8) (size 9 to 14) (size 15 to 20)
#    0.000    2.125    1.250    3.000    1.750    4.250 
#    0.000    0.000    0.000    0.750    0.000    5.250 
#    0.000    0.000    0.000    0.000    0.000    0.000 
#
# Total GULP energy -178202.293474 kJ/mol
# GULP energy per Si atom -5568.821671 kJ/mol
# Density = 1.903260 g / cm^3
# Si number density = 19.076017 Si / 1000 Ang^3
#
#
#
# Elastic Constant Matrix: (Units=GPa)
#
#
# Indices 1 2 3 4 5 6 
#
# 1 34.8216 0.8156 37.9068 0.0000 -10.6798 0.0000
# 2 0.8156 27.2968 31.4629 0.0000 -3.3050 0.0000
# 3 37.9068 31.4629 152.0982 0.0000 -8.8522 0.0000
# 4 0.0000 0.0000 0.0000 25.1328 0.0000 -5.4247
# 5 -10.6798 -3.3050 -8.8522 0.0000 29.5472 0.0000
# 6 0.0000 0.0000 0.0000 -5.4247 0.0000 19.7083
#
#
#
# Elastic Compliance Matrix: (Units=1/GPa)
#
#
# Indices 1 2 3 4 5 6 
#
# 1 0.049463 0.017804 -0.015118 0.000000 0.015341 0.000000
# 2 0.017804 0.054686 -0.015286 0.000000 0.007973 0.000000
# 3 -0.015118 -0.015286 0.013319 0.000000 -0.003184 0.000000
# 4 0.000000 0.000000 0.000000 0.042302 0.000000 0.011644
# 5 0.015341 0.007973 -0.003184 0.000000 0.039327 0.000000
# 6 0.000000 0.000000 0.000000 0.011644 0.000000 0.053945
#
#
# Mechanical properties :
#
#
# Convention : Reuss Voigt Hill
#
# Bulk Modulus (GPa) = 10.83770 39.39856 25.11813
# Shear Modulus (GPa) = 16.18141 24.47974 20.33058
#
# Velocity S-wave (km/s) = 2.91565 3.58617 3.26815
# Velocity P-wave (km/s) = 4.12654 6.15189 5.23804
#
# Compressibility (1/GPa) = 0.09227050
#
# Stress axis : x y z
#
# Youngs Moduli (GPa) = 20.21722 18.28612 75.08033
#
# Poissons Ratio (x) = -0.32557 1.13503
# Poissons Ratio (y) = -0.35996 1.14765
# Poissons Ratio (z) = 0.30564 0.27951
#
# Static dielectric constant tensor:
#      x y z
#    x 1.660130 0.000000 0.003930 
#    y 0.000000 1.680900 0.000000 
#    z 0.003930 0.000000 1.692620 
# 
# From -- ./inp_files/287708.got.cif
#   From: 2010.05.17/outbox.cif.g08.bks.cpg/sg12_144_cif.got.tgz:287708.got - 2010.06.03 13:09:07.
