data_PCOD9172567
_publ_section_title
;
Structure prediction by ZEFSAII (Michael W. Deem and Ramdas Pophale) SiO2 
 PCOD9172567
Probable space group: C 2/M
;
_chemical_formula_sum "Si O2"
_cell_formula_units_Z 40
_cell_length_a 7.377897
_cell_length_b 16.118737
_cell_length_c 24.486732
_cell_angle_alpha 90.000000
_cell_angle_beta 36.719653
_cell_angle_gamma 90.000000
_cell_volume 1741.097420
_symmetry_space_group_name_H-M "C 2/M"
_symmetry_group_IT_number 12
_symmetry_cell_setting 'monoclinic'
loop_
_space_group_symop_operation_xyz
x,y,z
-x,y,-z
-x,-y,-z
x,-y,z
1/2+x,1/2+y,z
1/2-x,1/2+y,-z
1/2-x,1/2-y,-z
1/2+x,1/2-y,z
loop_
_atom_site_type_symbol
_atom_site_label
_atom_site_fract_x
_atom_site_fract_y
_atom_site_fract_z
Si Si1 0.688142 0.500000 0.105261
Si Si2 0.938549 0.833047 0.436457
Si Si3 0.741527 0.000000 0.110344
Si Si4 0.946189 0.656710 0.228294
Si Si5 0.546975 0.095412 0.607173
Si Si6 0.927317 0.159851 0.210024
O O1 0.436337 0.500000 0.118917
O O2 0.656564 0.585001 0.146103
O O3 0.000000 0.500000 0.000000
O O4 0.750000 0.750000 0.500000
O O5 0.683938 0.900305 0.513712
O O6 0.108120 0.836721 0.337222
O O7 0.212294 0.857637 0.411621
O O8 0.527033 0.918685 0.168324
O O9 0.000000 0.000000 0.000000
O O10 0.025602 0.745564 0.183118
O O11 0.174316 0.648253 0.224364
O O12 0.236384 0.143277 0.692574
O O13 0.516323 0.000000 0.632475
#
# Coordination Sequence:
#
# PCOD9172567 Si02
#       6
#     4   8   4   8   8   8
#     4  10  22  40  65  87 111 144 201 252 295 352
#     4  10  18  29  51  85 115 150 189 233 281 335
#     4  10  24  44  63  85 116 157 202 247 305 358
#     4  10  22  37  60  86 121 153 197 242 292 352
#     4  10  19  32  54  83 117 155 200 234 282 350
#     4  10  20  38  58  90 118 153 192 246 296 357
#
# _framework density 22.974015000000001
#
# number of rings (size 3 to 8) (size 9 to 14) (size 15 to 20)
#    0.000    2.000    3.000    1.200    5.600    2.400 
#    0.000    4.000    0.000    0.000    0.000    9.800 
#    0.000    0.000    0.000    0.000    0.000    0.000 
#
# Total GULP energy -111428.975429 kJ/mol
# GULP energy per Si atom -5571.448771 kJ/mol
# Density = 2.292173 g / cm^3
# Si number density = 22.974015 Si / 1000 Ang^3
#
#
#
# Elastic Constant Matrix: (Units=GPa)
#
#
# Indices 1 2 3 4 5 6 
#
# 1 74.2990 12.1414 6.2405 0.0106 9.6506 0.0075
# 2 12.1414 223.1308 102.5641 0.0151 7.5590 0.0087
# 3 6.2405 102.5641 165.1104 -0.0054 13.8716 -0.0105
# 4 0.0106 0.0151 -0.0054 16.4434 -0.0074 -10.9397
# 5 9.6506 7.5590 13.8716 -0.0074 18.3167 -0.0058
# 6 0.0075 0.0087 -0.0105 -10.9397 -0.0058 18.2989
#
#
#
# Elastic Compliance Matrix: (Units=1/GPa)
#
#
# Indices 1 2 3 4 5 6 
#
# 1 0.014552 -0.000806 0.000605 -0.000028 -0.007793 -0.000025
# 2 -0.000806 0.006320 -0.003964 -0.000015 0.000819 -0.000014
# 3 0.000605 -0.003964 0.008955 0.000012 -0.005465 0.000012
# 4 -0.000028 -0.000015 0.000012 0.100976 0.000072 0.060367
# 5 -0.007793 0.000819 -0.005465 0.000072 0.062502 0.000063
# 6 -0.000025 -0.000014 0.000012 0.060367 0.000063 0.090737
#
#
# Mechanical properties :
#
#
# Convention : Reuss Voigt Hill
#
# Bulk Modulus (GPa) = 46.51637 78.27026 62.39332
# Shear Modulus (GPa) = 16.69232 33.38475 25.03853
#
# Velocity S-wave (km/s) = 2.69843 3.81616 3.30489
# Velocity P-wave (km/s) = 5.47723 7.31850 6.46376
#
# Compressibility (1/GPa) = 0.02149781
#
# Stress axis : x y z
#
# Youngs Moduli (GPa) = 68.71790 158.22819 111.66551
#
# Poissons Ratio (x) = 0.12755 -0.06761
# Poissons Ratio (y) = 0.05540 0.44266
# Poissons Ratio (z) = -0.04161 0.62725
#
# Static dielectric constant tensor:
#      x y z
#    x 1.918130 -0.000050 -0.013650 
#    y -0.000050 1.913630 0.000000 
#    z -0.013650 0.000000 1.889470 
# 
# From -- ./inp_files/372452.got.cif
#   From: 2010.05.17/outbox.cif.g08.bks.cpg/sg12_187_cif.got.tgz:372452.got - 2010.06.03 13:09:07.
