data_PCOD9172416
_publ_section_title
;
Structure prediction by ZEFSAII (Michael W. Deem and Ramdas Pophale) SiO2 
 PCOD9172416
Probable space group: C 2/M
;
_chemical_formula_sum "Si O2"
_cell_formula_units_Z 56
_cell_length_a 30.301945
_cell_length_b 7.464788
_cell_length_c 12.084890
_cell_angle_alpha 90.000000
_cell_angle_beta 111.662310
_cell_angle_gamma 90.000000
_cell_volume 2540.516089
_symmetry_space_group_name_H-M "C 2/M"
_symmetry_group_IT_number 12
_symmetry_cell_setting 'monoclinic'
loop_
_space_group_symop_operation_xyz
x,y,z
-x,y,-z
-x,-y,-z
x,-y,z
1/2+x,1/2+y,z
1/2-x,1/2+y,-z
1/2-x,1/2-y,-z
1/2+x,1/2-y,z
loop_
_atom_site_type_symbol
_atom_site_label
_atom_site_fract_x
_atom_site_fract_y
_atom_site_fract_z
Si Si1 0.077910 0.784867 0.337071
Si Si2 0.600948 0.718904 0.830585
Si Si3 0.681921 0.210946 0.399803
Si Si4 0.704983 0.714535 0.881499
Si Si5 0.055146 0.218249 0.556339
Si Si6 0.987714 0.219088 0.112291
Si Si7 0.766852 0.207841 0.332485
O O1 0.126998 0.739226 0.323112
O O2 0.079178 0.720605 0.464949
O O3 0.030275 0.722549 0.232567
O O4 0.074948 0.000000 0.337801
O O5 0.600466 0.500000 0.832972
O O6 0.655314 0.780349 0.886858
O O7 0.580329 0.774875 0.692010
O O8 0.563293 0.777232 0.888339
O O9 0.718886 0.285244 0.343412
O O10 0.694986 0.286313 0.532914
O O11 0.691110 0.000000 0.417087
O O12 0.699188 0.500000 0.867313
O O13 0.714740 0.784846 0.766098
O O14 0.750000 0.750000 0.000000
O O15 0.000000 0.270514 0.500000
O O16 0.056144 0.000000 0.558721
O O17 0.987604 0.000000 0.112867
O O18 0.000000 0.276444 0.000000
O O19 0.756352 0.000000 0.298664
#
# Coordination Sequence:
#
# PCOD9172416 Si02
#       7
#     8   8   8   8   8   8   8
#     4  10  18  29  49  76 103 132 167 208 256 311
#     4   9  16  28  46  70  97 127 165 209 253 293
#     4  10  20  33  53  78 106 136 169 215 267 319
#     4  10  21  36  55  77 104 138 177 220 261 310
#     4   9  14  24  46  74  98 123 163 210 251 295
#     4   9  17  28  43  69 103 131 160 204 252 298
#     4   9  19  37  55  75 102 135 176 220 265 310
#
# _framework density 22.042767000000001
#
# number of rings (size 3 to 8) (size 9 to 14) (size 15 to 20)
#    0.000    2.571    1.429    1.286    0.000    4.571 
#    0.000    1.429    0.000    1.714    0.000    0.000 
#    0.000    0.000    0.000    0.000    0.000    0.000 
#
# Total GULP energy -156340.179261 kJ/mol
# GULP energy per Si atom -5583.577831 kJ/mol
# Density = 2.199260 g / cm^3
# Si number density = 22.042767 Si / 1000 Ang^3
#
#
#
# Elastic Constant Matrix: (Units=GPa)
#
#
# Indices 1 2 3 4 5 6 
#
# 1 223.7725 2.9129 95.5916 0.0000 -0.3083 0.0000
# 2 2.9129 61.0736 1.2008 0.0000 -6.6055 0.0000
# 3 95.5916 1.2008 101.4159 0.0000 -16.2154 0.0000
# 4 0.0000 0.0000 0.0000 -4.2520 0.0000 5.5341
# 5 -0.3083 -6.6055 -16.2154 0.0000 35.6448 0.0000
# 6 0.0000 0.0000 0.0000 5.5341 0.0000 8.8461
#
#
#
# Elastic Compliance Matrix: (Units=1/GPa)
#
#
# Indices 1 2 3 4 5 6 
#
# 1 0.007904 -0.000619 -0.008035 0.000000 -0.003701 0.000000
# 2 -0.000619 0.016767 0.000950 0.000000 0.003534 0.000000
# 3 -0.008035 0.000950 0.018807 0.000000 0.008662 0.000000
# 4 0.000000 0.000000 0.000000 -0.129634 0.000000 0.081098
# 5 -0.003701 0.003534 0.008662 0.000000 0.032618 0.000000
# 6 0.000000 0.000000 0.000000 0.081098 0.000000 0.062310
#
#
# Mechanical properties :
#
#
# Convention : Reuss Voigt Hill
#
# Bulk Modulus (GPa) = 35.62409 65.07472 50.34941
# Shear Modulus (GPa) = 149.09337 27.15157 88.12247
#
# Velocity S-wave (km/s) = 8.23317 3.51346 6.32967
# Velocity P-wave (km/s) = 10.32359 6.78567 8.73561
#
# Compressibility (1/GPa) = 0.02807089
#
# Stress axis : x y z
#
# Youngs Moduli (GPa) = 126.51782 59.64175 53.17076
#
# Poissons Ratio (x) = 0.03694 0.42721
# Poissons Ratio (y) = 0.07836 -0.05053
# Poissons Ratio (z) = 1.01652 -0.05668
#
# Static dielectric constant tensor:
#      x y z
#    x 1.825930 0.000000 -0.014170 
#    y 0.000000 1.855780 0.000000 
#    z -0.014170 0.000000 1.764190 
# 
# From -- ./inp_files/186854.got.cif
#   From: 2010.05.17/outbox.cif.g08.bks.cpg/sg12_94_cif.got.tgz:186854.got - 2010.06.03 13:09:07.
