data_PCOD9172642
_publ_section_title
;
Structure prediction by ZEFSAII (Michael W. Deem and Ramdas Pophale) SiO2 
 PCOD9172642
Probable space group: C 2/M
;
_chemical_formula_sum "Si O2"
_cell_formula_units_Z 64
_cell_length_a 7.943405
_cell_length_b 28.515184
_cell_length_c 16.247751
_cell_angle_alpha 90.000000
_cell_angle_beta 93.988954
_cell_angle_gamma 90.000000
_cell_volume 3671.324526
_symmetry_space_group_name_H-M "C 2/M"
_symmetry_group_IT_number 12
_symmetry_cell_setting 'monoclinic'
loop_
_space_group_symop_operation_xyz
x,y,z
-x,y,-z
-x,-y,-z
x,-y,z
1/2+x,1/2+y,z
1/2-x,1/2+y,-z
1/2-x,1/2-y,-z
1/2+x,1/2-y,z
loop_
_atom_site_type_symbol
_atom_site_label
_atom_site_fract_x
_atom_site_fract_y
_atom_site_fract_z
Si Si1 0.377988 0.784827 0.918600
Si Si2 0.768987 0.316034 0.670506
Si Si3 0.683714 0.053288 0.046275
Si Si4 0.796459 0.694907 0.141066
Si Si5 0.330850 0.207976 0.318415
Si Si6 0.878987 0.887296 0.928279
Si Si7 0.314829 0.368451 0.165462
Si Si8 0.702978 0.804732 0.506820
O O1 0.304160 0.733006 0.915277
O O2 0.512346 0.787964 0.849478
O O3 0.236775 0.822537 0.890624
O O4 0.500000 0.794509 0.000000
O O5 0.683945 0.264725 0.680478
O O6 0.716306 0.351633 0.741874
O O7 0.729167 0.329444 0.573487
O O8 0.972593 0.307615 0.677488
O O9 0.701480 0.089928 0.122047
O O10 0.717651 0.000000 0.073540
O O11 0.500000 0.056017 0.000000
O O12 0.811614 0.068444 0.976989
O O13 0.736347 0.693137 0.232318
O O14 0.778232 0.644880 0.099077
O O15 0.247576 0.185305 0.397157
O O16 0.998632 0.887315 0.852417
O O17 0.000000 0.863248 0.000000
O O18 0.500000 0.808803 0.500000
O O19 0.750000 0.750000 0.500000
#
# Coordination Sequence:
#
# PCOD9172642 Si02
#       8
#     8   8   8   8   8   8   8   8
#     4  12  22  31  43  63  98 137 170 210 245 287
#     4  10  19  31  46  70  98 135 174 211 246 288
#     4  10  22  41  60  75  95 123 159 204 255 304
#     4  12  20  31  44  65  97 134 176 207 242 286
#     4  10  18  30  45  66  95 139 176 210 245 284
#     4  10  22  35  50  72  97 131 165 201 245 290
#     4  11  20  33  51  73  98 128 168 206 247 297
#     4   8  16  29  45  62  91 129 178 208 246 281
#
# _framework density 17.432402
#
# number of rings (size 3 to 8) (size 9 to 14) (size 15 to 20)
#    0.000    1.625    2.500    4.125    1.750    2.250 
#    0.000    0.000    0.000    0.000    0.000    0.000 
#    0.000    5.500    0.000    5.750    0.000    0.000 
#
# Total GULP energy -178142.634900 kJ/mol
# GULP energy per Si atom -5566.957341 kJ/mol
# Density = 1.739272 g / cm^3
# Si number density = 17.432402 Si / 1000 Ang^3
#
#
#
# Elastic Constant Matrix: (Units=GPa)
#
#
# Indices 1 2 3 4 5 6 
#
# 1 47.5342 8.2573 7.7975 0.0000 -14.7971 0.0000
# 2 8.2573 62.6609 30.4066 0.0000 -3.6815 0.0000
# 3 7.7975 30.4066 133.2242 0.0000 -19.4525 0.0000
# 4 0.0000 0.0000 0.0000 12.4964 0.0000 0.4986
# 5 -14.7971 -3.6815 -19.4525 0.0000 18.7907 0.0000
# 6 0.0000 0.0000 0.0000 0.4986 0.0000 18.0577
#
#
#
# Elastic Compliance Matrix: (Units=1/GPa)
#
#
# Indices 1 2 3 4 5 6 
#
# 1 0.029011 -0.003713 0.002803 0.000000 0.025019 0.000000
# 2 -0.003713 0.018433 -0.004582 0.000000 -0.004056 0.000000
# 3 0.002803 -0.004582 0.010107 0.000000 0.011772 0.000000
# 4 0.000000 0.000000 0.000000 0.080111 0.000000 -0.002212
# 5 0.025019 -0.004056 0.011772 0.000000 0.084312 0.000000
# 6 0.000000 0.000000 0.000000 -0.002212 0.000000 0.055439
#
#
# Mechanical properties :
#
#
# Convention : Reuss Voigt Hill
#
# Bulk Modulus (GPa) = 21.47479 37.37136 29.42307
# Shear Modulus (GPa) = 16.45167 22.99948 19.72557
#
# Velocity S-wave (km/s) = 3.07537 3.63623 3.36750
# Velocity P-wave (km/s) = 4.99561 6.25412 5.65995
#
# Compressibility (1/GPa) = 0.04656623
#
# Stress axis : x y z
#
# Youngs Moduli (GPa) = 34.46962 54.24942 98.94362
#
# Poissons Ratio (x) = 0.20143 -0.27730
# Poissons Ratio (y) = 0.12799 0.45336
# Poissons Ratio (z) = -0.09660 0.24857
#
# Static dielectric constant tensor:
#      x y z
#    x 1.683160 0.000000 -0.048530 
#    y 0.000000 1.547700 0.000000 
#    z -0.048530 0.000000 1.721820 
# 
# From -- ./inp_files/258928.got.cif
#   From: 2010.05.17/outbox.cif.g08.bks.cpg/sg12_130_cif.got.tgz:258928.got - 2010.06.03 13:09:07.
