data_PCOD9172805
_publ_section_title
;
Structure prediction by ZEFSAII (Michael W. Deem and Ramdas Pophale) SiO2 
 PCOD9172805
Probable space group: C 2/M
;
_chemical_formula_sum "Si O2"
_cell_formula_units_Z 64
_cell_length_a 32.400798
_cell_length_b 8.287463
_cell_length_c 14.795055
_cell_angle_alpha 90.000000
_cell_angle_beta 89.362894
_cell_angle_gamma 90.000000
_cell_volume 3972.528697
_symmetry_space_group_name_H-M "C 2/M"
_symmetry_group_IT_number 12
_symmetry_cell_setting 'monoclinic'
loop_
_space_group_symop_operation_xyz
x,y,z
-x,y,-z
-x,-y,-z
x,-y,z
1/2+x,1/2+y,z
1/2-x,1/2+y,-z
1/2-x,1/2-y,-z
1/2+x,1/2-y,z
loop_
_atom_site_type_symbol
_atom_site_label
_atom_site_fract_x
_atom_site_fract_y
_atom_site_fract_z
Si Si1 0.417657 0.194948 0.714012
Si Si2 0.451788 0.805352 0.102529
Si Si3 0.838342 0.305762 0.606696
Si Si4 0.079746 0.807926 0.710119
Si Si5 0.452368 0.196639 0.900430
Si Si6 0.001544 0.195415 0.395279
Si Si7 0.249899 0.192984 0.395878
Si Si8 0.159886 0.694553 0.602395
O O1 0.375851 0.254031 0.667543
O O2 0.425483 0.252458 0.816342
O O3 0.457363 0.242876 0.654220
O O4 0.415802 0.000000 0.716422
O O5 0.424987 0.743179 0.185888
O O6 0.499737 0.755566 0.115109
O O7 0.450987 0.000000 0.104070
O O8 0.439623 0.751936 0.001579
O O9 0.840051 0.500000 0.604064
O O10 0.792856 0.258579 0.642276
O O11 0.843596 0.248760 0.502272
O O12 0.121317 0.749016 0.661813
O O13 0.039262 0.746915 0.656814
O O14 0.078996 0.000000 0.705001
O O15 0.451984 0.000000 0.900625
O O16 0.000000 0.245962 0.500000
O O17 0.002152 0.000000 0.392946
O O18 0.250000 0.250000 0.500000
O O19 0.295140 0.245987 0.360578
O O20 0.248307 0.000000 0.393019
O O21 0.159983 0.500000 0.599814
#
# Coordination Sequence:
#
# PCOD9172805 Si02
#       8
#     8   8   8   8   8   8   8   8
#     4  10  18  30  48  69  90 117 156 192 220 262
#     4   9  16  30  49  65  86 117 152 190 231 273
#     4   9  18  30  46  70  96 120 151 189 227 269
#     4  11  21  30  43  66  91 119 154 190 229 268
#     4   8  15  28  48  69  86 113 153 192 229 268
#     4  10  21  33  41  57  91 128 157 183 218 266
#     4   9  17  30  48  68  91 119 153 190 228 269
#     4   9  18  31  45  64  90 121 154 184 218 266
#
# _framework density 16.110645999999999
#
# number of rings (size 3 to 8) (size 9 to 14) (size 15 to 20)
#    0.000    2.625    1.250    3.000    0.000    3.750 
#    0.000    1.875    0.000    0.000    0.000    0.875 
#    0.000    0.000    0.000    0.000    0.000    0.000 
#
# Total GULP energy -178307.788166 kJ/mol
# GULP energy per Si atom -5572.118380 kJ/mol
# Density = 1.607398 g / cm^3
# Si number density = 16.110646 Si / 1000 Ang^3
#
#
#
# Elastic Constant Matrix: (Units=GPa)
#
#
# Indices 1 2 3 4 5 6 
#
# 1 158.2241 15.1269 80.9302 0.0000 2.9895 0.0000
# 2 15.1269 2.8500 12.8662 0.0000 -0.4706 0.0000
# 3 80.9302 12.8662 117.0400 0.0000 9.4073 0.0000
# 4 0.0000 0.0000 0.0000 12.1547 0.0000 -2.1387
# 5 2.9895 -0.4706 9.4073 0.0000 9.4105 0.0000
# 6 0.0000 0.0000 0.0000 -2.1387 0.0000 20.3406
#
#
#
# Elastic Compliance Matrix: (Units=1/GPa)
#
#
# Indices 1 2 3 4 5 6 
#
# 1 0.013525 -0.064734 -0.001773 0.000000 -0.005762 0.000000
# 2 -0.064734 1.161672 -0.097061 0.000000 0.175685 0.000000
# 3 -0.001773 -0.097061 0.022600 0.000000 -0.026883 0.000000
# 4 0.000000 0.000000 0.000000 0.083824 0.000000 0.008814
# 5 -0.005762 0.175685 -0.026883 0.000000 0.143754 0.000000
# 6 0.000000 0.000000 0.000000 0.008814 0.000000 0.050089
#
#
# Mechanical properties :
#
#
# Convention : Reuss Voigt Hill
#
# Bulk Modulus (GPa) = 1.14855 55.10674 28.12765
# Shear Modulus (GPa) = 2.38912 19.66054 11.02483
#
# Velocity S-wave (km/s) = 1.21908 3.49713 2.61879
# Velocity P-wave (km/s) = 1.64195 7.11238 5.16149
#
# Compressibility (1/GPa) = 0.87066068
#
# Stress axis : x y z
#
# Youngs Moduli (GPa) = 73.93974 0.86083 44.24692
#
# Poissons Ratio (x) = 0.05573 0.07843
# Poissons Ratio (y) = 4.78644 4.29466
# Poissons Ratio (z) = 0.13106 0.08355
#
# Static dielectric constant tensor:
#      x y z
#    x 1.550780 0.000000 0.020100 
#    y 0.000000 1.558270 0.000000 
#    z 0.020100 0.000000 1.533430 
# 
# From -- ./inp_files/248309.got.cif
#   From: 2010.05.17/outbox.cif.g08.bks.cpg/sg12_125_cif.got.tgz:248309.got - 2010.06.03 13:09:07.
