data_PCOD9172743
_publ_section_title
;
Structure prediction by ZEFSAII (Michael W. Deem and Ramdas Pophale) SiO2 
 PCOD9172743
Probable space group: C 2/M
;
_chemical_formula_sum "Si O2"
_cell_formula_units_Z 48
_cell_length_a 32.018644
_cell_length_b 7.814953
_cell_length_c 11.564116
_cell_angle_alpha 90.000000
_cell_angle_beta 100.757440
_cell_angle_gamma 90.000000
_cell_volume 2842.769633
_symmetry_space_group_name_H-M "C 2/M"
_symmetry_group_IT_number 12
_symmetry_cell_setting 'monoclinic'
loop_
_space_group_symop_operation_xyz
x,y,z
-x,y,-z
-x,-y,-z
x,-y,z
1/2+x,1/2+y,z
1/2-x,1/2+y,-z
1/2-x,1/2-y,-z
1/2+x,1/2-y,z
loop_
_atom_site_type_symbol
_atom_site_label
_atom_site_fract_x
_atom_site_fract_y
_atom_site_fract_z
Si Si1 0.100754 0.691454 0.230787
Si Si2 0.684028 0.701816 0.399108
Si Si3 0.708291 0.794781 0.905968
Si Si4 0.381114 0.797605 0.031019
Si Si5 0.040465 0.000000 0.179565
Si Si6 0.055412 0.000000 0.909319
Si Si7 0.273847 0.207709 0.342949
O O1 0.083133 0.500000 0.228459
O O2 0.141292 0.710295 0.334407
O O3 0.065295 0.833286 0.236605
O O4 0.117210 0.718261 0.107480
O O5 0.679092 0.500000 0.374273
O O6 0.695537 0.730922 0.538860
O O7 0.725868 0.763239 0.350824
O O8 0.664798 0.740564 0.945396
O O9 0.712980 0.731385 0.776988
O O10 0.706321 0.000000 0.899106
O O11 0.750000 0.750000 0.000000
O O12 0.416902 0.670283 0.098582
O O13 0.387869 0.000000 0.061407
O O14 0.990236 0.000000 0.175556
O O15 0.046377 0.000000 0.043012
O O16 0.273974 0.000000 0.345143
#
# Coordination Sequence:
#
# PCOD9172743 Si02
#       7
#     8   8   8   8   4   4   8
#     4  10  18  30  50  73 101 130 160 203 251 296
#     4  10  18  30  47  69  99 130 167 209 244 292
#     4  10  20  32  47  70  99 131 171 206 236 290
#     4   9  19  32  48  73 100 133 167 197 246 297
#     4   9  18  32  48  77  99 127 171 200 251 304
#     4   9  18  32  52  69 103 135 159 210 247 297
#     4   9  19  32  46  66  96 135 169 202 247 286
#
# _framework density 16.884943
#
# number of rings (size 3 to 8) (size 9 to 14) (size 15 to 20)
#    0.000    2.500    0.833    1.500    1.167    2.000 
#    0.000    3.333    0.000    0.000    0.000    2.333 
#    0.000    5.333    0.000    0.000    0.000    0.000 
#
# Total GULP energy -133839.635050 kJ/mol
# GULP energy per Si atom -5576.651460 kJ/mol
# Density = 1.684651 g / cm^3
# Si number density = 16.884943 Si / 1000 Ang^3
#
#
#
# Elastic Constant Matrix: (Units=GPa)
#
#
# Indices 1 2 3 4 5 6 
#
# 1 125.3460 53.1833 50.3983 0.0000 23.4433 0.0000
# 2 53.1833 70.2074 30.7316 0.0000 11.7097 0.0000
# 3 50.3983 30.7316 60.0882 0.0000 12.6242 0.0000
# 4 0.0000 0.0000 0.0000 17.7239 0.0000 4.3878
# 5 23.4433 11.7097 12.6242 0.0000 25.6221 0.0000
# 6 0.0000 0.0000 0.0000 4.3878 0.0000 19.4295
#
#
#
# Elastic Compliance Matrix: (Units=1/GPa)
#
#
# Indices 1 2 3 4 5 6 
#
# 1 0.015469 -0.007103 -0.007864 0.000000 -0.007033 0.000000
# 2 -0.007103 0.022027 -0.005085 0.000000 -0.001063 0.000000
# 3 -0.007864 -0.005085 0.026592 0.000000 -0.003582 0.000000
# 4 0.000000 0.000000 0.000000 0.059762 0.000000 -0.013496
# 5 -0.007033 -0.001063 -0.003582 0.000000 0.047714 0.000000
# 6 0.000000 0.000000 0.000000 -0.013496 0.000000 0.054516
#
#
# Mechanical properties :
#
#
# Convention : Reuss Voigt Hill
#
# Bulk Modulus (GPa) = 41.69504 58.25201 49.97353
# Shear Modulus (GPa) = 18.23635 20.64365 19.44000
#
# Velocity S-wave (km/s) = 3.28996 3.50037 3.39679
# Velocity P-wave (km/s) = 6.25931 7.13520 6.71156
#
# Compressibility (1/GPa) = 0.02398367
#
# Stress axis : x y z
#
# Youngs Moduli (GPa) = 64.64632 45.39906 37.60590
#
# Poissons Ratio (x) = 0.32245 0.29574
# Poissons Ratio (y) = 0.45915 0.19123
# Poissons Ratio (z) = 0.50839 0.23086
#
# Static dielectric constant tensor:
#      x y z
#    x 1.553240 0.000000 -0.011110 
#    y 0.000000 1.600990 0.000000 
#    z -0.011110 0.000000 1.551430 
# 
# From -- ./inp_files/185985.got.cif
#   From: 2010.05.17/outbox.cif.g08.bks.cpg/sg12_93_cif.got.tgz:185985.got - 2010.06.03 13:09:07.
