data_PCOD9172007
_publ_section_title
;
Structure prediction by ZEFSAII (Michael W. Deem and Ramdas Pophale) SiO2 
 PCOD9172007
Probable space group: C 2/M
;
_chemical_formula_sum "Si O2"
_cell_formula_units_Z 56
_cell_length_a 29.815517
_cell_length_b 8.435247
_cell_length_c 14.048251
_cell_angle_alpha 90.000000
_cell_angle_beta 104.020061
_cell_angle_gamma 90.000000
_cell_volume 3427.903474
_symmetry_space_group_name_H-M "C 2/M"
_symmetry_group_IT_number 12
_symmetry_cell_setting 'monoclinic'
loop_
_space_group_symop_operation_xyz
x,y,z
-x,y,-z
-x,-y,-z
x,-y,z
1/2+x,1/2+y,z
1/2-x,1/2+y,-z
1/2-x,1/2-y,-z
1/2+x,1/2-y,z
loop_
_atom_site_type_symbol
_atom_site_label
_atom_site_fract_x
_atom_site_fract_y
_atom_site_fract_z
Si Si1 0.535004 0.813349 0.238769
Si Si2 0.104908 0.691702 0.125082
Si Si3 0.450888 0.315532 0.083794
Si Si4 0.602947 0.184769 0.768124
Si Si5 0.301180 0.808350 0.921777
Si Si6 0.696877 0.311206 0.861353
Si Si7 0.019883 0.188226 0.612035
O O1 0.582768 0.760078 0.214510
O O2 0.495673 0.782961 0.138560
O O3 0.516743 0.725363 0.322904
O O4 0.536969 0.000000 0.261000
O O5 0.102382 0.500000 0.119901
O O6 0.157365 0.738334 0.127119
O O7 0.073038 0.759216 0.024573
O O8 0.463283 0.500000 0.084586
O O9 0.414936 0.286804 0.151335
O O10 0.656308 0.227996 0.781682
O O11 0.567483 0.226088 0.665801
O O12 0.598461 0.000000 0.790435
O O13 0.249456 0.764160 0.862958
O O14 0.302239 0.000000 0.932880
O O15 0.308966 0.736025 0.030495
O O16 0.692512 0.500000 0.849685
O O17 0.000000 0.238403 0.500000
O O18 0.028376 0.000000 0.614446
#
# Coordination Sequence:
#
# PCOD9172007 Si02
#       7
#     8   8   8   8   8   8   8
#     4  10  20  32  48  68  93 125 158 191 231 284
#     4  10  19  31  45  65  94 130 164 192 229 275
#     4  11  20  29  43  65  93 127 164 198 231 270
#     4  11  20  31  49  70  96 128 159 195 239 285
#     4   9  18  30  45  64  94 132 166 200 233 271
#     4  10  18  29  45  68  94 126 167 202 235 273
#     4  10  21  37  55  74  95 118 150 196 245 289
#
# _framework density 16.336517000000001
#
# number of rings (size 3 to 8) (size 9 to 14) (size 15 to 20)
#    0.000    1.857    1.429    6.000    0.000    4.571 
#    0.000    0.000    0.000    0.000    0.000    1.000 
#    0.000    0.000    0.000    0.000    0.000    0.000 
#
# Total GULP energy -156215.500365 kJ/mol
# GULP energy per Si atom -5579.125013 kJ/mol
# Density = 1.629933 g / cm^3
# Si number density = 16.336517 Si / 1000 Ang^3
#
#
#
# Elastic Constant Matrix: (Units=GPa)
#
#
# Indices 1 2 3 4 5 6 
#
# 1 104.5134 6.5622 42.1344 0.0000 -0.3860 0.0000
# 2 6.5622 22.9976 10.4375 0.0000 1.5014 0.0000
# 3 42.1344 10.4375 72.6294 0.0000 7.2247 0.0000
# 4 0.0000 0.0000 0.0000 22.2526 0.0000 8.7354
# 5 -0.3860 1.5014 7.2247 0.0000 9.7960 0.0000
# 6 0.0000 0.0000 0.0000 8.7354 0.0000 34.4145
#
#
#
# Elastic Compliance Matrix: (Units=1/GPa)
#
#
# Indices 1 2 3 4 5 6 
#
# 1 0.012864 -0.000444 -0.008046 0.000000 0.006509 0.000000
# 2 -0.000444 0.046583 -0.006178 0.000000 -0.002600 0.000000
# 3 -0.008046 -0.006178 0.020787 0.000000 -0.014701 0.000000
# 4 0.000000 0.000000 0.000000 0.049912 0.000000 -0.012669
# 5 0.006509 -0.002600 -0.014701 0.000000 0.113579 0.000000
# 6 0.000000 0.000000 0.000000 -0.012669 0.000000 0.032273
#
#
# Mechanical properties :
#
#
# Convention : Reuss Voigt Hill
#
# Bulk Modulus (GPa) = 19.64756 35.37874 27.51315
# Shear Modulus (GPa) = 15.51345 22.69304 19.10324
#
# Velocity S-wave (km/s) = 3.08493 3.73111 3.42330
# Velocity P-wave (km/s) = 4.97413 6.34545 5.70117
#
# Compressibility (1/GPa) = 0.05089690
#
# Stress axis : x y z
#
# Youngs Moduli (GPa) = 77.73646 21.46691 48.10760
#
# Poissons Ratio (x) = 0.00952 0.38710
# Poissons Ratio (y) = 0.03449 0.29723
# Poissons Ratio (z) = 0.62551 0.13263
#
# Static dielectric constant tensor:
#      x y z
#    x 1.601820 0.000000 0.000790 
#    y 0.000000 1.553230 0.000000 
#    z 0.000790 0.000000 1.516610 
# 
# From -- ./inp_files/247935.got.cif
#   From: 2010.05.17/outbox.cif.g08.bks.cpg/sg12_124_cif.got.tgz:247935.got - 2010.06.03 13:09:07.
