data_PCOD9172748
_publ_section_title
;
Structure prediction by ZEFSAII (Michael W. Deem and Ramdas Pophale) SiO2 
 PCOD9172748
Probable space group: C 2/M
;
_chemical_formula_sum "Si O2"
_cell_formula_units_Z 56
_cell_length_a 20.482777
_cell_length_b 10.508421
_cell_length_c 17.818182
_cell_angle_alpha 90.000000
_cell_angle_beta 55.113939
_cell_angle_gamma 90.000000
_cell_volume 3145.992341
_symmetry_space_group_name_H-M "C 2/M"
_symmetry_group_IT_number 12
_symmetry_cell_setting 'monoclinic'
loop_
_space_group_symop_operation_xyz
x,y,z
-x,y,-z
-x,-y,-z
x,-y,z
1/2+x,1/2+y,z
1/2-x,1/2+y,-z
1/2-x,1/2-y,-z
1/2+x,1/2-y,z
loop_
_atom_site_type_symbol
_atom_site_label
_atom_site_fract_x
_atom_site_fract_y
_atom_site_fract_z
Si Si1 0.877091 0.716984 0.913810
Si Si2 0.072332 0.150403 0.394082
Si Si3 0.030711 0.362028 0.895502
Si Si4 0.986684 0.148985 0.728344
Si Si5 0.708792 0.149713 0.307110
Si Si6 0.263783 0.356247 0.101124
Si Si7 0.619482 0.649884 0.751542
O O1 0.814095 0.649157 0.900961
O O2 0.952384 0.640447 0.894710
O O3 0.918596 0.824345 0.834775
O O4 0.828353 0.769196 0.017117
O O5 0.142361 0.246851 0.370308
O O6 0.000000 0.154820 0.500000
O O7 0.040550 0.199679 0.334037
O O8 0.097466 0.000000 0.371860
O O9 0.071270 0.500000 0.860352
O O10 0.084537 0.242988 0.837703
O O11 0.000000 0.349788 0.000000
O O12 0.070719 0.190434 0.709160
O O13 0.994965 0.000000 0.710726
O O14 0.738795 0.178047 0.202047
O O15 0.785835 0.161365 0.309790
O O16 0.683058 0.000000 0.324910
O O17 0.295103 0.500000 0.083045
O O18 0.601241 0.500000 0.778287
#
# Coordination Sequence:
#
# PCOD9172748 Si02
#       7
#     8   8   8   8   8   8   8
#     4  10  18  30  47  70 103 141 179 216 254 302
#     4  10  21  38  59  81 105 135 174 219 268 323
#     4  10  20  32  46  69 104 143 182 218 257 302
#     4   9  17  33  54  77 103 139 179 215 258 310
#     4  10  20  36  55  80 110 138 172 217 266 313
#     4  10  19  29  45  72 104 137 175 215 257 303
#     4   9  19  34  54  76 103 138 176 216 259 312
#
# _framework density 17.800425000000001
#
# number of rings (size 3 to 8) (size 9 to 14) (size 15 to 20)
#    0.000    2.286    1.429    1.714    0.000    1.714 
#    0.000    1.429    0.000    0.000    0.000    0.000 
#    0.000    0.000    0.000    0.000    0.000    0.000 
#
# Total GULP energy -155927.342179 kJ/mol
# GULP energy per Si atom -5568.833649 kJ/mol
# Density = 1.775991 g / cm^3
# Si number density = 17.800425 Si / 1000 Ang^3
#
#
#
# Elastic Constant Matrix: (Units=GPa)
#
#
# Indices 1 2 3 4 5 6 
#
# 1 73.8405 38.8596 18.3226 0.0003 -15.6779 0.0002
# 2 38.8596 70.8653 21.4886 0.0003 -20.7377 0.0002
# 3 18.3226 21.4886 35.8221 -0.0002 -14.2907 -0.0001
# 4 0.0003 0.0003 -0.0002 309.0381 -0.0001 185.3886
# 5 -15.6779 -20.7377 -14.2907 -0.0001 15.5216 0.0000
# 6 0.0002 0.0002 -0.0001 185.3886 0.0000 140.3320
#
#
#
# Elastic Compliance Matrix: (Units=1/GPa)
#
#
# Indices 1 2 3 4 5 6 
#
# 1 0.019921 -0.008126 -0.002558 0.000000 0.006909 0.000000
# 2 -0.008126 0.026622 -0.001420 0.000000 0.026053 0.000000
# 3 -0.002558 -0.001420 0.044711 0.000000 0.036684 0.000000
# 4 0.000000 0.000000 0.000000 0.015594 0.000000 -0.020601
# 5 0.006909 0.026053 0.036684 0.000000 0.139988 0.000000
# 6 0.000000 0.000000 0.000000 -0.020601 0.000000 0.034341
#
#
# Mechanical properties :
#
#
# Convention : Reuss Voigt Hill
#
# Bulk Modulus (GPa) = 14.91544 37.54106 26.22825
# Shear Modulus (GPa) = 15.25628 99.76881 57.51254
#
# Velocity S-wave (km/s) = 2.93076 7.49468 5.69032
# Velocity P-wave (km/s) = 4.45532 9.79946 7.61181
#
# Compressibility (1/GPa) = 0.06704461
#
# Stress axis : x y z
#
# Youngs Moduli (GPa) = 50.19825 37.56305 22.36609
#
# Poissons Ratio (x) = 0.30525 0.05722
# Poissons Ratio (y) = 0.40793 0.03175
# Poissons Ratio (z) = 0.12843 0.05333
#
# Static dielectric constant tensor:
#      x y z
#    x 1.649310 0.000000 0.017660 
#    y 0.000000 1.619950 0.000000 
#    z 0.017660 0.000000 1.576040 
# 
# From -- ./inp_files/282781.got.cif
#   From: 2010.05.17/outbox.cif.g08.bks.cpg/sg12_142_cif.got.tgz:282781.got - 2010.06.03 13:09:07.
