data_PCOD9172382
_publ_section_title
;
Structure prediction by ZEFSAII (Michael W. Deem and Ramdas Pophale) SiO2 
 PCOD9172382
Probable space group: C 2/M
;
_chemical_formula_sum "Si O2"
_cell_formula_units_Z 64
_cell_length_a 24.313145
_cell_length_b 8.982991
_cell_length_c 22.144800
_cell_angle_alpha 90.000000
_cell_angle_beta 50.437864
_cell_angle_gamma 90.000000
_cell_volume 3728.646790
_symmetry_space_group_name_H-M "C 2/M"
_symmetry_group_IT_number 12
_symmetry_cell_setting 'monoclinic'
loop_
_space_group_symop_operation_xyz
x,y,z
-x,y,-z
-x,-y,-z
x,-y,z
1/2+x,1/2+y,z
1/2-x,1/2+y,-z
1/2-x,1/2-y,-z
1/2+x,1/2-y,z
loop_
_atom_site_type_symbol
_atom_site_label
_atom_site_fract_x
_atom_site_fract_y
_atom_site_fract_z
Si Si1 0.833378 0.178917 0.585626
Si Si2 0.075117 0.324138 0.719901
Si Si3 0.225595 0.322631 0.078794
Si Si4 0.824679 0.324469 0.466627
Si Si5 0.069549 0.320738 0.238338
Si Si6 0.113326 0.823134 0.325390
Si Si7 0.816616 0.823939 0.268444
Si Si8 0.239028 0.176961 0.817631
O O1 0.852797 0.247887 0.507797
O O2 0.886768 0.218238 0.603546
O O3 0.754581 0.242237 0.657026
O O4 0.829200 0.000000 0.584949
O O5 0.073819 0.500000 0.735595
O O6 0.121758 0.306625 0.626551
O O7 0.115206 0.237315 0.744516
O O8 0.995742 0.273919 0.758256
O O9 0.225508 0.500000 0.070697
O O10 0.145473 0.278687 0.155562
O O11 0.275130 0.287944 0.102575
O O12 0.250000 0.250000 0.000000
O O13 0.813773 0.500000 0.484965
O O14 0.750000 0.250000 0.500000
O O15 0.067858 0.500000 0.244719
O O16 0.064374 0.254867 0.309554
O O17 0.192658 0.772606 0.249794
O O18 0.104950 0.000000 0.326841
O O19 0.818304 0.799553 0.194867
O O20 0.808301 0.000000 0.285083
O O21 0.258806 0.000000 0.801731
#
# Coordination Sequence:
#
# PCOD9172382 Si02
#       8
#     8   8   8   8   8   8   8   8
#     4  10  19  31  47  69  98 128 163 208 254 295
#     4  10  21  35  50  69  97 132 167 204 248 293
#     4   9  17  31  53  78 102 125 155 195 239 288
#     4  11  21  32  48  70  97 128 167 212 255 294
#     4   9  19  36  53  70  98 134 164 195 241 299
#     4   9  17  29  48  72  95 123 162 209 248 283
#     4  10  18  29  49  73  96 127 167 206 246 286
#     4   8  16  30  47  71 101 130 159 195 239 290
#
# _framework density 17.164403
#
# number of rings (size 3 to 8) (size 9 to 14) (size 15 to 20)
#    0.000    2.500    1.250    2.250    0.000    5.000 
#    0.000    0.625    0.000    4.500    0.000    5.250 
#    0.000    0.000    0.000    0.000    0.000    0.000 
#
# Total GULP energy -178297.002938 kJ/mol
# GULP energy per Si atom -5571.781342 kJ/mol
# Density = 1.712534 g / cm^3
# Si number density = 17.164403 Si / 1000 Ang^3
#
#
#
# Elastic Constant Matrix: (Units=GPa)
#
#
# Indices 1 2 3 4 5 6 
#
# 1 124.4997 40.4715 35.8750 0.0000 23.9288 0.0001
# 2 40.4715 43.6554 28.4690 -0.0003 13.0884 0.0000
# 3 35.8750 28.4690 46.5462 -0.0002 23.3419 0.0001
# 4 0.0000 -0.0003 -0.0002 22.0520 -0.0002 8.5584
# 5 23.9288 13.0884 23.3419 -0.0002 27.1957 0.0003
# 6 0.0001 0.0000 0.0001 8.5584 0.0003 28.3149
#
#
#
# Elastic Compliance Matrix: (Units=1/GPa)
#
#
# Indices 1 2 3 4 5 6 
#
# 1 0.012378 -0.008985 -0.001319 0.000000 -0.005434 0.000000
# 2 -0.008985 0.044761 -0.023901 0.000001 0.006878 0.000000
# 3 -0.001319 -0.023901 0.054020 0.000000 -0.033702 0.000000
# 4 0.000000 0.000001 0.000000 0.051374 0.000001 -0.015528
# 5 -0.005434 0.006878 -0.033702 0.000001 0.067168 -0.000001
# 6 0.000000 0.000000 0.000000 -0.015528 -0.000001 0.040011
#
#
# Mechanical properties :
#
#
# Convention : Reuss Voigt Hill
#
# Bulk Modulus (GPa) = 23.39306 47.14803 35.27054
# Shear Modulus (GPa) = 14.18957 22.83824 18.51390
#
# Velocity S-wave (km/s) = 2.87833 3.65164 3.28780
# Velocity P-wave (km/s) = 4.97039 6.73108 5.91660
#
# Compressibility (1/GPa) = 0.04274773
#
# Stress axis : x y z
#
# Youngs Moduli (GPa) = 80.79105 22.34071 18.51166
#
# Poissons Ratio (x) = 0.20074 0.02442
# Poissons Ratio (y) = 0.72595 0.44245
# Poissons Ratio (z) = 0.10656 0.53397
#
# Static dielectric constant tensor:
#      x y z
#    x 1.614890 0.000000 0.023080 
#    y 0.000000 1.584290 0.000000 
#    z 0.023080 0.000000 1.569030 
# 
# From -- ./inp_files/323699.got.cif
#   From: 2010.05.17/outbox.cif.g08.bks.cpg/sg12_162_cif.got.tgz:323699.got - 2010.06.03 13:09:07.
