data_PCOD9172678
_publ_section_title
;
Structure prediction by ZEFSAII (Michael W. Deem and Ramdas Pophale) SiO2 
 PCOD9172678
Probable space group: C 2/M
;
_chemical_formula_sum "Si O2"
_cell_formula_units_Z 48
_cell_length_a 24.607648
_cell_length_b 11.180278
_cell_length_c 23.491041
_cell_angle_alpha 90.000000
_cell_angle_beta 22.656037
_cell_angle_gamma 90.000000
_cell_volume 2489.482452
_symmetry_space_group_name_H-M "C 2/M"
_symmetry_group_IT_number 12
_symmetry_cell_setting 'monoclinic'
loop_
_space_group_symop_operation_xyz
x,y,z
-x,y,-z
-x,-y,-z
x,-y,z
1/2+x,1/2+y,z
1/2-x,1/2+y,-z
1/2-x,1/2-y,-z
1/2+x,1/2-y,z
loop_
_atom_site_type_symbol
_atom_site_label
_atom_site_fract_x
_atom_site_fract_y
_atom_site_fract_z
Si Si1 0.223465 0.755486 0.692199
Si Si2 0.821018 0.246479 0.724886
Si Si3 0.619504 0.500000 0.835778
Si Si4 0.530630 0.364360 0.602892
Si Si5 0.614922 0.000000 0.340088
Si Si6 0.725518 0.636984 0.064176
Si Si7 0.570812 0.865935 0.024498
O O1 0.312550 0.746349 0.665074
O O2 0.143784 0.883274 0.773336
O O3 0.338711 0.725581 0.532597
O O4 0.093512 0.663873 0.814946
O O5 0.922301 0.148629 0.654413
O O6 0.880527 0.371440 0.693529
O O7 0.660298 0.224769 0.899362
O O8 0.747086 0.500000 0.755956
O O9 0.500000 0.500000 0.000000
O O10 0.585720 0.500000 0.551333
O O11 0.424957 0.346531 0.758215
O O12 0.500000 0.000000 0.500000
O O13 0.726352 0.500000 0.039202
O O14 0.750000 0.750000 0.000000
O O15 0.849609 0.639841 0.991761
O O16 0.591293 0.000000 0.981963
#
# Coordination Sequence:
#
# PCOD9172678 Si02
#       7
#     8   8   4   8   4   8   8
#     4  11  20  33  52  80 115 151 185 215 268 323
#     4  10  19  32  50  76 113 153 187 215 255 321
#     4  10  20  34  48  68 114 160 186 224 260 296
#     4  10  21  35  54  81 114 143 180 233 278 320
#     4  10  18  30  46  66 100 150 190 222 258 290
#     4   9  20  43  63  82 107 139 181 236 293 342
#     4  10  21  35  54  80 111 141 180 224 270 324
#
# _framework density 19.281116000000001
#
# number of rings (size 3 to 8) (size 9 to 14) (size 15 to 20)
#    0.000    2.000    0.000    7.000    0.000    4.000 
#    9.000    0.833    0.000    0.000    0.000    0.000 
#    0.000    0.000    0.000    0.000    0.000    0.000 
#
# Total GULP energy -133610.998208 kJ/mol
# GULP energy per Si atom -5567.124925 kJ/mol
# Density = 1.923723 g / cm^3
# Si number density = 19.281116 Si / 1000 Ang^3
#
#
#
# Elastic Constant Matrix: (Units=GPa)
#
#
# Indices 1 2 3 4 5 6 
#
# 1 13.7845 21.2922 12.3426 0.0009 6.9823 -0.0001
# 2 21.2922 134.8032 59.1366 0.0045 19.9571 -0.0021
# 3 12.3426 59.1366 136.6438 0.0030 -6.8139 -0.0015
# 4 0.0009 0.0045 0.0030 32.0362 -0.0019 0.6929
# 5 6.9823 19.9571 -6.8139 -0.0019 19.1700 0.0006
# 6 -0.0001 -0.0021 -0.0015 0.6929 0.0006 24.1890
#
#
#
# Elastic Compliance Matrix: (Units=1/GPa)
#
#
# Indices 1 2 3 4 5 6 
#
# 1 0.110488 -0.009111 -0.007707 -0.000003 -0.033497 0.000000
# 2 -0.009111 0.013045 -0.005430 -0.000002 -0.012192 0.000001
# 3 -0.007707 -0.005430 0.010981 0.000001 0.012364 0.000000
# 4 -0.000003 -0.000002 0.000001 0.031234 0.000006 -0.000895
# 5 -0.033497 -0.012192 0.012364 0.000006 0.081453 -0.000003
# 6 0.000000 0.000001 0.000000 -0.000895 -0.000003 0.041367
#
#
# Mechanical properties :
#
#
# Convention : Reuss Voigt Hill
#
# Bulk Modulus (GPa) = 11.10920 52.30825 31.70873
# Shear Modulus (GPa) = 13.77146 27.90969 20.84057
#
# Velocity S-wave (km/s) = 2.67544 3.80875 3.29124
# Velocity P-wave (km/s) = 3.91384 6.82131 5.56095
#
# Compressibility (1/GPa) = 0.09001547
#
# Stress axis : x y z
#
# Youngs Moduli (GPa) = 9.05079 76.66034 91.06511
#
# Poissons Ratio (x) = 0.69848 0.70185
# Poissons Ratio (y) = 0.08247 0.49452
# Poissons Ratio (z) = 0.06976 0.41629
#
# Static dielectric constant tensor:
#      x y z
#    x 1.643860 0.000000 0.009660 
#    y 0.000000 1.926450 0.000000 
#    z 0.009660 0.000000 1.677680 
# 
# From -- ./inp_files/351907.got.cif
#   From: 2010.05.17/outbox.cif.g08.bks.cpg/sg12_176_cif.got.tgz:351907.got - 2010.06.03 13:09:07.
