data_PCOD9172885
_publ_section_title
;
Structure prediction by ZEFSAII (Michael W. Deem and Ramdas Pophale) SiO2 
 PCOD9172885
Probable space group: C 2/M
;
_chemical_formula_sum "Si O2"
_cell_formula_units_Z 56
_cell_length_a 15.453970
_cell_length_b 21.544769
_cell_length_c 23.655907
_cell_angle_alpha 90.000000
_cell_angle_beta 155.114359
_cell_angle_gamma 90.000000
_cell_volume 3314.408227
_symmetry_space_group_name_H-M "C 2/M"
_symmetry_group_IT_number 12
_symmetry_cell_setting 'monoclinic'
loop_
_space_group_symop_operation_xyz
x,y,z
-x,y,-z
-x,-y,-z
x,-y,z
1/2+x,1/2+y,z
1/2-x,1/2+y,-z
1/2-x,1/2-y,-z
1/2+x,1/2-y,z
loop_
_atom_site_type_symbol
_atom_site_label
_atom_site_fract_x
_atom_site_fract_y
_atom_site_fract_z
Si Si1 0.824869 0.607335 0.738963
Si Si2 0.201910 0.678176 0.977899
Si Si3 0.466536 0.000000 0.072685
Si Si4 0.260660 0.203557 0.875266
Si Si5 0.291638 0.351232 0.910375
Si Si6 0.504455 0.381395 0.358580
Si Si7 0.620148 0.925472 0.355191
Si Si8 0.160495 0.000000 0.796963
O O1 0.630252 0.608269 0.664276
O O2 0.787651 0.587243 0.652985
O O3 0.988218 0.559057 0.862282
O O4 0.957358 0.669811 0.822218
O O5 0.261585 0.666958 0.078359
O O6 0.250000 0.750000 0.000000
O O7 0.310602 0.643542 0.989943
O O8 0.644134 0.000000 0.130119
O O9 0.252431 0.000000 0.913830
O O10 0.238181 0.278064 0.868186
O O11 0.098023 0.176964 0.733863
O O12 0.500000 0.191887 0.000000
O O13 0.107354 0.396176 0.782071
O O14 0.500000 0.364249 0.000000
O O15 0.738787 0.387354 0.517290
O O16 0.462700 0.439000 0.292324
O O17 0.623499 0.000000 0.367520
#
# Coordination Sequence:
#
# PCOD9172885 Si02
#       8
#     8   8   4   8   8   8   8   4
#     4  10  18  30  48  75 109 146 172 214 269 327
#     4   9  17  31  53  79 107 136 179 223 269 318
#     4   9  16  25  43  67 103 135 175 205 247 320
#     4  10  18  33  56  83 113 141 172 222 278 335
#     4   9  21  38  58  79 100 139 195 243 272 303
#     4  11  20  30  50  77 117 148 167 210 280 340
#     4  11  22  36  51  76 111 148 191 226 269 327
#     4   9  18  25  39  73 105 141 172 195 254 338
#
# _framework density 16.895927
#
# number of rings (size 3 to 8) (size 9 to 14) (size 15 to 20)
#    0.000    2.143    2.857    1.286    2.000    1.429 
#    0.000    0.000    0.000    0.857    0.000    1.000 
#    0.000    0.000    0.000    0.000    0.000    0.000 
#
# Total GULP energy -155889.736709 kJ/mol
# GULP energy per Si atom -5567.490597 kJ/mol
# Density = 1.685747 g / cm^3
# Si number density = 16.895927 Si / 1000 Ang^3
#
#
#
# Elastic Constant Matrix: (Units=GPa)
#
#
# Indices 1 2 3 4 5 6 
#
# 1 79.9869 13.7013 44.7157 0.0010 -5.4771 -0.0006
# 2 13.7013 57.0142 32.9680 0.0046 -0.8323 0.0002
# 3 44.7157 32.9680 95.4860 -0.0028 -14.1208 0.0038
# 4 0.0010 0.0046 -0.0028 12.8805 -0.0002 3.6920
# 5 -5.4771 -0.8323 -14.1208 -0.0002 25.5715 0.0015
# 6 -0.0006 0.0002 0.0038 3.6920 0.0015 6.9938
#
#
#
# Elastic Compliance Matrix: (Units=1/GPa)
#
#
# Indices 1 2 3 4 5 6 
#
# 1 0.016975 0.000730 -0.008342 -0.000006 -0.000947 0.000009
# 2 0.000730 0.022286 -0.008609 -0.000013 -0.003872 0.000012
# 3 -0.008342 -0.008609 0.018562 0.000013 0.008183 -0.000019
# 4 -0.000006 -0.000013 0.000013 0.091479 0.000009 -0.048291
# 5 -0.000947 -0.003872 0.008183 0.000009 0.043296 -0.000018
# 6 0.000009 0.000012 -0.000019 -0.048291 -0.000018 0.168477
#
#
# Mechanical properties :
#
#
# Convention : Reuss Voigt Hill
#
# Bulk Modulus (GPa) = 39.39837 46.13967 42.76902
# Shear Modulus (GPa) = 12.43857 18.49597 15.46727
#
# Velocity S-wave (km/s) = 2.71622 3.31221 3.02891
# Velocity P-wave (km/s) = 5.76247 6.48037 6.13193
#
# Compressibility (1/GPa) = 0.02538176
#
# Stress axis : x y z
#
# Youngs Moduli (GPa) = 58.90863 44.87203 53.87450
#
# Poissons Ratio (x) = -0.03277 0.44940
# Poissons Ratio (y) = -0.04302 0.46381
# Poissons Ratio (z) = 0.49140 0.38631
#
# Static dielectric constant tensor:
#      x y z
#    x 1.607370 0.000000 -0.018120 
#    y 0.000000 1.628870 0.000000 
#    z -0.018120 0.000000 1.566140 
# 
# From -- ./inp_files/364689.got.cif
#   From: 2010.05.17/outbox.cif.g08.bks.cpg/sg12_183_cif.got.tgz:364689.got - 2010.06.03 13:09:07.
