data_PCOD9172254
_publ_section_title
;
Structure prediction by ZEFSAII (Michael W. Deem and Ramdas Pophale) SiO2 
 PCOD9172254
Probable space group: C 2/M
;
_chemical_formula_sum "Si O2"
_cell_formula_units_Z 64
_cell_length_a 24.487934
_cell_length_b 7.456700
_cell_length_c 24.605573
_cell_angle_alpha 90.000000
_cell_angle_beta 43.499430
_cell_angle_gamma 90.000000
_cell_volume 3092.715356
_symmetry_space_group_name_H-M "C 2/M"
_symmetry_group_IT_number 12
_symmetry_cell_setting 'monoclinic'
loop_
_space_group_symop_operation_xyz
x,y,z
-x,y,-z
-x,-y,-z
x,-y,z
1/2+x,1/2+y,z
1/2-x,1/2+y,-z
1/2-x,1/2-y,-z
1/2+x,1/2-y,z
loop_
_atom_site_type_symbol
_atom_site_label
_atom_site_fract_x
_atom_site_fract_y
_atom_site_fract_z
Si Si1 0.025107 0.281365 0.420836
Si Si2 0.767022 0.219846 0.351006
Si Si3 0.257347 0.713312 0.867151
Si Si4 0.371993 0.216596 0.466455
Si Si5 0.093546 0.209288 0.677273
Si Si6 0.334368 0.787678 0.968044
Si Si7 0.205079 0.715221 0.279830
Si Si8 0.080513 0.205011 0.198275
O O1 0.025557 0.500000 0.419628
O O2 0.113866 0.219442 0.343705
O O3 0.000000 0.229435 0.500000
O O4 0.957349 0.222986 0.427970
O O5 0.696114 0.274017 0.442697
O O6 0.849777 0.282862 0.316777
O O7 0.747188 0.278853 0.304391
O O8 0.767736 0.000000 0.350694
O O9 0.260062 0.500000 0.875949
O O10 0.251582 0.741554 0.807507
O O11 0.342942 0.786765 0.826273
O O12 0.184712 0.778848 0.957262
O O13 0.361583 0.279272 0.412546
O O14 0.371749 0.000000 0.466073
O O15 0.005915 0.289806 0.732493
O O16 0.080867 0.000000 0.699699
O O17 0.398025 0.704932 0.881301
O O18 0.350417 0.000000 0.956880
O O19 0.250000 0.750000 0.000000
O O20 0.200813 0.500000 0.286891
O O21 0.075447 0.000000 0.221934
#
# Coordination Sequence:
#
# PCOD9172254 Si02
#       8
#     8   8   8   8   8   8   8   8
#     4   9  15  26  45  67  91 119 152 193 236 271
#     4   9  18  32  48  66  91 126 165 202 237 276
#     4   9  18  31  46  70 100 122 142 182 238 285
#     4  10  18  30  49  70  92 121 162 205 240 282
#     4  10  20  33  48  67  95 127 158 198 245 283
#     4   9  17  30  50  74 101 128 152 185 233 286
#     4  10  18  29  48  70  91 123 164 197 229 278
#     4   9  18  32  49  70  98 128 156 191 236 283
#
# _framework density 20.69379
#
# number of rings (size 3 to 8) (size 9 to 14) (size 15 to 20)
#    0.000    2.625    1.250    2.250    0.000    3.000 
#    0.000    1.250    0.000    1.500    0.000    5.250 
#    0.000    0.000    0.000    0.000    0.000    0.000 
#
# Total GULP energy -178542.444496 kJ/mol
# GULP energy per Si atom -5579.451390 kJ/mol
# Density = 2.064669 g / cm^3
# Si number density = 20.693790 Si / 1000 Ang^3
#
#
#
# Elastic Constant Matrix: (Units=GPa)
#
#
# Indices 1 2 3 4 5 6 
#
# 1 89.8400 -0.6945 27.4669 -0.0112 12.6962 0.0110
# 2 -0.6945 62.7041 -11.2938 -0.0094 -5.9148 0.0235
# 3 27.4669 -11.2938 96.3028 -0.0095 25.9303 0.0133
# 4 -0.0112 -0.0094 -0.0095 13.8501 0.0093 10.1963
# 5 12.6962 -5.9148 25.9303 0.0093 20.9058 -0.0135
# 6 0.0110 0.0235 0.0133 10.1963 -0.0135 -1.3594
#
#
#
# Elastic Compliance Matrix: (Units=1/GPa)
#
#
# Indices 1 2 3 4 5 6 
#
# 1 0.012536 -0.000747 -0.002337 -0.000011 -0.004926 0.000031
# 2 -0.000747 0.016495 0.001154 -0.000027 0.003689 0.000049
# 3 -0.002337 0.001154 0.016089 -0.000035 -0.018210 0.000077
# 4 -0.000011 -0.000027 -0.000035 0.011071 0.000091 0.083037
# 5 -0.004926 0.003689 -0.018210 0.000091 0.074455 -0.000210
# 6 0.000031 0.000049 0.000077 0.083037 -0.000210 -0.112793
#
#
# Mechanical properties :
#
#
# Convention : Reuss Voigt Hill
#
# Bulk Modulus (GPa) = 24.23540 31.08935 27.66237
# Shear Modulus (GPa) = 140.98307 22.23721 81.61014
#
# Velocity S-wave (km/s) = 8.26294 3.28164 6.28670
# Velocity P-wave (km/s) = 10.13764 5.42356 8.12978
#
# Compressibility (1/GPa) = 0.04126195
#
# Stress axis : x y z
#
# Youngs Moduli (GPa) = 79.77273 60.62265 62.15470
#
# Poissons Ratio (x) = 0.04527 0.14523
# Poissons Ratio (y) = 0.05956 -0.07174
# Poissons Ratio (z) = 0.18639 -0.06997
#
# Static dielectric constant tensor:
#      x y z
#    x 1.730500 0.001840 -0.000240 
#    y 0.001840 -31.779030 0.003730 
#    z -0.000240 0.003730 1.752830 
# 
# From -- ./inp_files/348557.got.cif
#   From: 2010.05.17/outbox.cif.g08.bks.cpg/sg12_175_cif.got.tgz:348557.got - 2010.06.03 13:09:07.
