data_PCOD9172112
_publ_section_title
;
Structure prediction by ZEFSAII (Michael W. Deem and Ramdas Pophale) SiO2 
 PCOD9172112
Probable space group: C 2/M
;
_chemical_formula_sum "Si O2"
_cell_formula_units_Z 48
_cell_length_a 24.402911
_cell_length_b 8.348228
_cell_length_c 14.102760
_cell_angle_alpha 90.000000
_cell_angle_beta 108.404762
_cell_angle_gamma 90.000000
_cell_volume 2726.073188
_symmetry_space_group_name_H-M "C 2/M"
_symmetry_group_IT_number 12
_symmetry_cell_setting 'monoclinic'
loop_
_space_group_symop_operation_xyz
x,y,z
-x,y,-z
-x,-y,-z
x,-y,z
1/2+x,1/2+y,z
1/2-x,1/2+y,-z
1/2-x,1/2-y,-z
1/2+x,1/2-y,z
loop_
_atom_site_type_symbol
_atom_site_label
_atom_site_fract_x
_atom_site_fract_y
_atom_site_fract_z
Si Si1 0.270845 0.811540 0.112615
Si Si2 0.300364 0.187904 0.752665
Si Si3 0.304669 0.188235 0.420800
Si Si4 0.879410 0.306947 0.637308
Si Si5 0.124925 0.810453 0.712290
Si Si6 0.496688 0.307805 0.608419
O O1 0.222450 0.775831 0.166391
O O2 0.329705 0.726635 0.179961
O O3 0.281467 0.000000 0.115362
O O4 0.250000 0.750000 0.000000
O O5 0.249335 0.212861 0.647675
O O6 0.357611 0.246272 0.729137
O O7 0.305518 0.000000 0.777909
O O8 0.333347 0.248985 0.532884
O O9 0.352731 0.211020 0.365615
O O10 0.289567 0.000000 0.420076
O O11 0.876282 0.500000 0.635587
O O12 0.942254 0.258371 0.635695
O O13 0.057981 0.770758 0.691068
O O14 0.128395 0.000000 0.691227
O O15 0.500000 0.252257 0.500000
O O16 0.490173 0.500000 0.601525
#
# Coordination Sequence:
#
# PCOD9172112 Si02
#       6
#     8   8   8   8   8   8
#     4  11  22  38  60  83 103 130 168 216 272 319
#     4  10  20  34  50  74 105 137 173 216 264 313
#     4  10  18  29  46  72 103 140 179 215 255 304
#     4  10  21  32  47  72 106 145 180 214 256 304
#     4  10  19  33  52  77 107 139 177 219 259 304
#     4  10  20  33  50  74 106 147 186 216 252 300
#
# _framework density 17.607744
#
# number of rings (size 3 to 8) (size 9 to 14) (size 15 to 20)
#    0.000    1.833    1.667    5.500    0.000    3.667 
#    0.000    0.000    0.000    1.000    0.000    7.000 
#    0.000    0.000    0.000    0.000    0.000    0.000 
#
# Total GULP energy -133901.822602 kJ/mol
# GULP energy per Si atom -5579.242608 kJ/mol
# Density = 1.756767 g / cm^3
# Si number density = 17.607744 Si / 1000 Ang^3
#
#
#
# Elastic Constant Matrix: (Units=GPa)
#
#
# Indices 1 2 3 4 5 6 
#
# 1 111.4141 -0.1507 44.4621 0.0000 -17.7949 0.0000
# 2 -0.1507 27.9843 3.8413 0.0000 -2.0247 0.0000
# 3 44.4621 3.8413 92.4203 0.0000 -7.3525 0.0000
# 4 0.0000 0.0000 0.0000 22.6404 0.0000 1.2214
# 5 -17.7949 -2.0247 -7.3525 0.0000 8.1832 0.0000
# 6 0.0000 0.0000 0.0000 1.2214 0.0000 25.5600
#
#
#
# Elastic Compliance Matrix: (Units=1/GPa)
#
#
# Indices 1 2 3 4 5 6 
#
# 1 0.016058 0.003058 -0.005400 0.000000 0.030823 0.000000
# 2 0.003058 0.037031 -0.001887 0.000000 0.014116 0.000000
# 3 -0.005400 -0.001887 0.013489 0.000000 -0.000090 0.000000
# 4 0.000000 0.000000 0.000000 0.044283 0.000000 -0.002116
# 5 0.030823 0.014116 -0.000090 0.000000 0.192640 0.000000
# 6 0.000000 0.000000 0.000000 -0.002116 0.000000 0.039225
#
#
# Mechanical properties :
#
#
# Convention : Reuss Voigt Hill
#
# Bulk Modulus (GPa) = 17.20599 36.45822 26.83211
# Shear Modulus (GPa) = 13.49318 23.52112 18.50715
#
# Velocity S-wave (km/s) = 2.77125 3.65888 3.24555
# Velocity P-wave (km/s) = 4.47581 6.21294 5.41449
#
# Compressibility (1/GPa) = 0.05811929
#
# Stress axis : x y z
#
# Youngs Moduli (GPa) = 62.27550 27.00426 74.13268
#
# Poissons Ratio (x) = -0.08257 0.40032
# Poissons Ratio (y) = -0.19043 0.13990
# Poissons Ratio (z) = 0.33629 0.05096
#
# Static dielectric constant tensor:
#      x y z
#    x 1.629010 0.000000 -0.006930 
#    y 0.000000 1.600840 0.000000 
#    z -0.006930 0.000000 1.587170 
# 
# From -- ./inp_files/172277.got.cif
#   From: 2010.05.17/outbox.cif.g08.bks.cpg/sg12_87_cif.got.tgz:172277.got - 2010.06.03 13:09:07.
