data_PCOD9172764
_publ_section_title
;
Structure prediction by ZEFSAII (Michael W. Deem and Ramdas Pophale) SiO2 
 PCOD9172764
Probable space group: C 2/M
;
_chemical_formula_sum "Si O2"
_cell_formula_units_Z 56
_cell_length_a 31.848338
_cell_length_b 13.555605
_cell_length_c 9.299405
_cell_angle_alpha 90.000000
_cell_angle_beta 123.043086
_cell_angle_gamma 90.000000
_cell_volume 3365.425501
_symmetry_space_group_name_H-M "C 2/M"
_symmetry_group_IT_number 12
_symmetry_cell_setting 'monoclinic'
loop_
_space_group_symop_operation_xyz
x,y,z
-x,y,-z
-x,-y,-z
x,-y,z
1/2+x,1/2+y,z
1/2-x,1/2+y,-z
1/2-x,1/2-y,-z
1/2+x,1/2-y,z
loop_
_atom_site_type_symbol
_atom_site_label
_atom_site_fract_x
_atom_site_fract_y
_atom_site_fract_z
Si Si1 0.645398 0.723440 0.399096
Si Si2 0.557591 0.618647 0.066859
Si Si3 0.612073 0.385141 0.892242
Si Si4 0.668925 0.617643 0.734744
Si Si5 0.811250 0.616152 0.353713
Si Si6 0.784272 0.617095 0.980261
Si Si7 0.796511 0.792206 0.784565
O O1 0.594376 0.679588 0.239206
O O2 0.663555 0.655131 0.563835
O O3 0.645596 0.830150 0.475236
O O4 0.684847 0.724119 0.342238
O O5 0.568649 0.500000 0.098374
O O6 0.500000 0.632542 0.000000
O O7 0.570564 0.651684 0.927190
O O8 0.600820 0.500000 0.850378
O O9 0.625791 0.342611 0.761324
O O10 0.664275 0.369999 0.074626
O O11 0.664801 0.500000 0.727377
O O12 0.725094 0.639384 0.895147
O O13 0.810020 0.500000 0.375201
O O14 0.758912 0.664515 0.306739
O O15 0.812704 0.633431 0.184138
O O16 0.788236 0.500000 0.951003
O O17 0.800519 0.691394 0.884944
#
# Coordination Sequence:
#
# PCOD9172764 Si02
#       7
#     8   8   8   8   8   8   8
#     4  11  22  32  48  75 101 133 164 211 255 294
#     4   9  19  37  57  75  97 126 164 211 260 305
#     4   9  17  30  51  73  98 134 168 197 240 297
#     4  10  18  30  47  72 102 135 170 200 238 291
#     4  11  21  32  46  69 102 137 170 201 236 286
#     4  10  20  32  48  68 100 144 177 201 233 283
#     4  11  19  32  46  70 102 139 171 199 239 286
#
# _framework density 16.639796
#
# number of rings (size 3 to 8) (size 9 to 14) (size 15 to 20)
#    0.000    1.857    2.857    2.571    0.000    2.286 
#    0.000    0.714    0.000    3.857    0.000    0.000 
#    0.000   10.286    0.000    0.000    0.000    0.000 
#
# Total GULP energy -156017.175485 kJ/mol
# GULP energy per Si atom -5572.041982 kJ/mol
# Density = 1.660192 g / cm^3
# Si number density = 16.639796 Si / 1000 Ang^3
#
#
#
# Elastic Constant Matrix: (Units=GPa)
#
#
# Indices 1 2 3 4 5 6 
#
# 1 100.4537 27.9302 49.2572 0.0000 -16.8659 0.0000
# 2 27.9302 67.5732 34.8532 0.0000 -0.6336 0.0000
# 3 49.2572 34.8532 77.3872 0.0000 -23.2558 0.0000
# 4 0.0000 0.0000 0.0000 29.0053 0.0000 -3.0117
# 5 -16.8659 -0.6336 -23.2558 0.0000 26.1984 0.0000
# 6 0.0000 0.0000 0.0000 -3.0117 0.0000 16.5447
#
#
#
# Elastic Compliance Matrix: (Units=1/GPa)
#
#
# Indices 1 2 3 4 5 6 
#
# 1 0.014729 -0.002140 -0.007607 0.000000 0.002678 0.000000
# 2 -0.002140 0.021662 -0.011798 0.000000 -0.011326 0.000000
# 3 -0.007607 -0.011798 0.029349 0.000000 0.020870 0.000000
# 4 0.000000 0.000000 0.000000 0.035141 0.000000 0.006397
# 5 0.002678 -0.011326 0.020870 0.000000 0.058146 0.000000
# 6 0.000000 0.000000 0.000000 0.006397 0.000000 0.061607
#
#
# Mechanical properties :
#
#
# Convention : Reuss Voigt Hill
#
# Bulk Modulus (GPa) = 44.14653 52.16618 48.15635
# Shear Modulus (GPa) = 18.43157 23.24125 20.83641
#
# Velocity S-wave (km/s) = 3.33179 3.74133 3.54249
# Velocity P-wave (km/s) = 6.43346 7.07685 6.76281
#
# Compressibility (1/GPa) = 0.02265184
#
# Stress axis : x y z
#
# Youngs Moduli (GPa) = 67.89149 46.16361 34.07266
#
# Poissons Ratio (x) = 0.09877 0.25919
# Poissons Ratio (y) = 0.14525 0.40199
# Poissons Ratio (z) = 0.51644 0.54464
#
# Static dielectric constant tensor:
#      x y z
#    x 1.574850 0.000000 -0.036500 
#    y 0.000000 1.595770 0.000000 
#    z -0.036500 0.000000 1.569080 
# 
# From -- ./inp_files/104711.got.cif
#   From: 2010.05.17/outbox.cif.g08.bks.cpg/sg12_53_cif.got.tgz:104711.got - 2010.06.03 13:09:07.
