data_PCOD9172655
_publ_section_title
;
Structure prediction by ZEFSAII (Michael W. Deem and Ramdas Pophale) SiO2 
 PCOD9172655
Probable space group: C 2/M
;
_chemical_formula_sum "Si O2"
_cell_formula_units_Z 56
_cell_length_a 24.810552
_cell_length_b 8.748547
_cell_length_c 26.365661
_cell_angle_alpha 90.000000
_cell_angle_beta 38.874114
_cell_angle_gamma 90.000000
_cell_volume 3591.714717
_symmetry_space_group_name_H-M "C 2/M"
_symmetry_group_IT_number 12
_symmetry_cell_setting 'monoclinic'
loop_
_space_group_symop_operation_xyz
x,y,z
-x,y,-z
-x,-y,-z
x,-y,z
1/2+x,1/2+y,z
1/2-x,1/2+y,-z
1/2-x,1/2-y,-z
1/2+x,1/2-y,z
loop_
_atom_site_type_symbol
_atom_site_label
_atom_site_fract_x
_atom_site_fract_y
_atom_site_fract_z
Si Si1 0.655657 0.317386 0.010639
Si Si2 0.594874 0.182942 0.949922
Si Si3 0.741526 0.815267 0.224821
Si Si4 0.637039 0.181047 0.392989
Si Si5 0.584911 0.681689 0.273110
Si Si6 0.141111 0.682453 0.129672
Si Si7 0.027048 0.681405 0.562131
O O1 0.646268 0.500000 0.017015
O O2 0.611225 0.245139 0.994386
O O3 0.757980 0.282676 0.933481
O O4 0.622285 0.249714 0.088066
O O5 0.667861 0.255067 0.860741
O O6 0.604344 0.000000 0.942881
O O7 0.500000 0.222224 0.000000
O O8 0.715186 0.761959 0.301019
O O9 0.667499 0.754974 0.241131
O O10 0.739409 0.000000 0.224941
O O11 0.606921 0.241580 0.469829
O O12 0.554973 0.195279 0.415604
O O13 0.650448 0.000000 0.390902
O O14 0.593202 0.500000 0.267835
O O15 0.586965 0.743672 0.214513
O O16 0.501694 0.733479 0.366166
O O17 0.131268 0.500000 0.136885
O O18 0.037513 0.500000 0.564562
#
# Coordination Sequence:
#
# PCOD9172655 Si02
#       7
#     8   8   8   8   8   8   8
#     4  10  20  33  50  69  89 117 153 192 232 274
#     4  11  23  36  49  67  93 123 155 193 234 273
#     4  10  18  30  46  63  84 116 157 193 229 271
#     4   7  12  23  40  58  79 111 149 186 221 264
#     4  11  19  26  40  64  94 122 151 186 223 269
#     4  10  19  31  48  68  92 121 152 189 229 276
#     4   8  13  24  39  56  82 116 150 181 218 265
#
# _framework density 15.591438999999999
#
# number of rings (size 3 to 8) (size 9 to 14) (size 15 to 20)
#    0.000    2.429    1.429    4.714    0.000    2.286 
#    0.000    6.429    0.000    0.000    0.000    0.000 
#    0.000    1.143    0.000    3.429    0.000    5.571 
#
# Total GULP energy -155976.056991 kJ/mol
# GULP energy per Si atom -5570.573464 kJ/mol
# Density = 1.555595 g / cm^3
# Si number density = 15.591439 Si / 1000 Ang^3
#
#
#
# Elastic Constant Matrix: (Units=GPa)
#
#
# Indices 1 2 3 4 5 6 
#
# 1 58.7692 33.5251 58.4659 0.0000 10.1039 0.0001
# 2 33.5251 54.3234 49.8670 0.0001 10.9235 0.0022
# 3 58.4659 49.8670 164.7094 0.0000 35.4534 -0.0001
# 4 0.0000 0.0001 0.0000 22.4193 0.0000 3.6267
# 5 10.1039 10.9235 35.4534 0.0000 19.7637 0.0000
# 6 0.0001 0.0022 -0.0001 3.6267 0.0000 15.9269
#
#
#
# Elastic Compliance Matrix: (Units=1/GPa)
#
#
# Indices 1 2 3 4 5 6 
#
# 1 0.032161 -0.013007 -0.008937 0.000000 0.006780 0.000002
# 2 -0.013007 0.030756 -0.004019 0.000001 -0.003140 -0.000004
# 3 -0.008937 -0.004019 0.014659 0.000000 -0.019506 0.000001
# 4 0.000000 0.000001 0.000000 0.046310 0.000000 -0.010545
# 5 0.006780 -0.003140 -0.019506 0.000000 0.083859 0.000000
# 6 0.000002 -0.000004 0.000001 -0.010545 0.000000 0.065188
#
#
# Mechanical properties :
#
#
# Convention : Reuss Voigt Hill
#
# Bulk Modulus (GPa) = 38.98602 62.39088 50.68845
# Shear Modulus (GPa) = 14.99656 20.68492 17.84074
#
# Velocity S-wave (km/s) = 3.10473 3.64632 3.38637
# Velocity P-wave (km/s) = 6.15723 7.60464 6.91889
#
# Compressibility (1/GPa) = 0.02565022
#
# Stress axis : x y z
#
# Youngs Moduli (GPa) = 31.09328 32.51426 68.21702
#
# Poissons Ratio (x) = 0.42291 0.60969
# Poissons Ratio (y) = 0.40443 0.27413
# Poissons Ratio (z) = 0.27789 0.13066
#
# Static dielectric constant tensor:
#      x y z
#    x 1.481770 0.000000 0.020120 
#    y 0.000000 1.519640 0.000000 
#    z 0.020120 0.000000 1.568380 
# 
# From -- ./inp_files/348463.got.cif
#   From: 2010.05.17/outbox.cif.g08.bks.cpg/sg12_175_cif.got.tgz:348463.got - 2010.06.03 13:09:07.
