data_PCOD9172069
_publ_section_title
;
Structure prediction by ZEFSAII (Michael W. Deem and Ramdas Pophale) SiO2 
 PCOD9172069
Probable space group: C 2/M
;
_chemical_formula_sum "Si O2"
_cell_formula_units_Z 48
_cell_length_a 20.723426
_cell_length_b 9.322768
_cell_length_c 15.585197
_cell_angle_alpha 90.000000
_cell_angle_beta 76.731980
_cell_angle_gamma 90.000000
_cell_volume 2930.681550
_symmetry_space_group_name_H-M "C 2/M"
_symmetry_group_IT_number 12
_symmetry_cell_setting 'monoclinic'
loop_
_space_group_symop_operation_xyz
x,y,z
-x,y,-z
-x,-y,-z
x,-y,z
1/2+x,1/2+y,z
1/2-x,1/2+y,-z
1/2-x,1/2-y,-z
1/2+x,1/2-y,z
loop_
_atom_site_type_symbol
_atom_site_label
_atom_site_fract_x
_atom_site_fract_y
_atom_site_fract_z
Si Si1 0.686058 0.171598 0.057630
Si Si2 0.075088 0.670921 0.950998
Si Si3 0.142624 0.830570 0.773856
Si Si4 0.661036 0.834499 0.596758
Si Si5 0.699276 0.169214 0.247641
Si Si6 0.821025 0.834931 0.576864
O O1 0.675836 0.212544 0.160040
O O2 0.697975 0.000000 0.053301
O O3 0.750000 0.250000 0.000000
O O4 0.623885 0.201947 0.015668
O O5 0.079843 0.500000 0.931159
O O6 0.099858 0.758649 0.861500
O O7 0.000000 0.703596 0.000000
O O8 0.132373 0.751380 0.686384
O O9 0.220701 0.812694 0.773893
O O10 0.130041 0.000000 0.770373
O O11 0.741135 0.834211 0.585680
O O12 0.648552 0.754709 0.510866
O O13 0.639631 0.000000 0.601821
O O14 0.669152 0.259981 0.334490
O O15 0.685994 0.000000 0.265224
O O16 0.842649 0.000000 0.569504
#
# Coordination Sequence:
#
# PCOD9172069 Si02
#       6
#     8   8   8   8   8   8
#     4  10  19  32  50  71  96 127 165 204 244 289
#     4  10  21  35  50  70  98 131 166 204 245 291
#     4  10  18  29  46  68  94 125 162 202 242 287
#     4   9  16  26  41  62  92 127 158 192 237 288
#     4   9  17  28  43  66  94 124 157 196 241 286
#     4   9  16  25  39  63  93 124 156 193 236 284
#
# _framework density 16.378443000000001
#
# number of rings (size 3 to 8) (size 9 to 14) (size 15 to 20)
#    0.000    2.500    1.667    1.500    0.000    5.667 
#    0.000    0.000    0.000    0.000    0.000    1.167 
#    0.000    9.333    0.000    0.000    0.000    0.000 
#
# Total GULP energy -133806.755955 kJ/mol
# GULP energy per Si atom -5575.281498 kJ/mol
# Density = 1.634116 g / cm^3
# Si number density = 16.378443 Si / 1000 Ang^3
#
#
#
# Elastic Constant Matrix: (Units=GPa)
#
#
# Indices 1 2 3 4 5 6 
#
# 1 53.3622 41.3017 50.6618 0.0000 5.1985 0.0000
# 2 41.3017 111.6083 109.3553 0.0000 4.7433 0.0000
# 3 50.6618 109.3553 195.6393 0.0000 20.1724 0.0000
# 4 0.0000 0.0000 0.0000 36.5621 0.0000 -0.4673
# 5 5.1985 4.7433 20.1724 0.0000 12.3562 0.0000
# 6 0.0000 0.0000 0.0000 -0.4673 0.0000 10.3882
#
#
#
# Elastic Compliance Matrix: (Units=1/GPa)
#
#
# Indices 1 2 3 4 5 6 
#
# 1 0.027312 -0.007645 -0.002306 0.000000 -0.004792 0.000000
# 2 -0.007645 0.023724 -0.012834 0.000000 0.015062 0.000000
# 3 -0.002306 -0.012834 0.014759 0.000000 -0.018198 0.000000
# 4 0.000000 0.000000 0.000000 0.027366 0.000000 0.001231
# 5 -0.004792 0.015062 -0.018198 0.000000 0.106875 0.000000
# 6 0.000000 0.000000 0.000000 0.001231 0.000000 0.096318
#
#
# Mechanical properties :
#
#
# Convention : Reuss Voigt Hill
#
# Bulk Modulus (GPa) = 49.44036 84.80527 67.12282
# Shear Modulus (GPa) = 14.34039 22.48070 18.41054
#
# Velocity S-wave (km/s) = 2.96220 3.70885 3.35635
# Velocity P-wave (km/s) = 6.47698 8.38044 7.48943
#
# Compressibility (1/GPa) = 0.02022639
#
# Stress axis : x y z
#
# Youngs Moduli (GPa) = 36.61347 42.15154 67.75626
#
# Poissons Ratio (x) = 0.32223 0.15621
# Poissons Ratio (y) = 0.27989 0.86960
# Poissons Ratio (z) = 0.08441 0.54098
#
# Static dielectric constant tensor:
#      x y z
#    x 1.522210 0.000000 0.015720 
#    y 0.000000 1.547600 0.000000 
#    z 0.015720 0.000000 1.537960 
# 
# From -- ./inp_files/221722.got.cif
#   From: 2010.05.17/outbox.cif.g08.bks.cpg/sg12_111_cif.got.tgz:221722.got - 2010.06.03 13:09:07.
