data_PCOD9172325
_publ_section_title
;
Structure prediction by ZEFSAII (Michael W. Deem and Ramdas Pophale) SiO2 
 PCOD9172325
Probable space group: C 2/M
;
_chemical_formula_sum "Si O2"
_cell_formula_units_Z 64
_cell_length_a 22.759203
_cell_length_b 12.736915
_cell_length_c 14.667401
_cell_angle_alpha 90.000000
_cell_angle_beta 108.844540
_cell_angle_gamma 90.000000
_cell_volume 4023.912126
_symmetry_space_group_name_H-M "C 2/M"
_symmetry_group_IT_number 12
_symmetry_cell_setting 'monoclinic'
loop_
_space_group_symop_operation_xyz
x,y,z
-x,y,-z
-x,-y,-z
x,-y,z
1/2+x,1/2+y,z
1/2-x,1/2+y,-z
1/2-x,1/2-y,-z
1/2+x,1/2-y,z
loop_
_atom_site_type_symbol
_atom_site_label
_atom_site_fract_x
_atom_site_fract_y
_atom_site_fract_z
Si Si1 0.135291 0.124580 0.450387
Si Si2 0.914311 0.879324 0.898342
Si Si3 0.214800 0.876740 0.674946
Si Si4 0.098003 0.124490 0.737476
Si Si5 0.959491 0.201655 0.107453
Si Si6 0.536775 0.123460 0.236109
Si Si7 0.989857 0.741400 0.595331
Si Si8 0.838080 0.243002 0.720981
O O1 0.178099 0.137635 0.560968
O O2 0.163618 0.179972 0.375211
O O3 0.069860 0.182328 0.433742
O O4 0.126410 0.000000 0.430638
O O5 0.857882 0.837588 0.810065
O O6 0.977486 0.867993 0.870114
O O7 0.907197 0.000000 0.922150
O O8 0.926290 0.809188 0.993787
O O9 0.166185 0.853839 0.731765
O O10 0.274627 0.803558 0.706793
O O11 0.232257 0.000000 0.689199
O O12 0.083877 0.159741 0.833554
O O13 0.048454 0.187804 0.652592
O O14 0.087401 0.000000 0.723252
O O15 0.987025 0.315057 0.148077
O O16 0.519587 0.155226 0.331095
O O17 0.604456 0.174667 0.253619
O O18 0.536779 0.000000 0.221734
O O19 0.000000 0.696985 0.500000
#
# Coordination Sequence:
#
# PCOD9172325 Si02
#       8
#     8   8   8   8   8   8   8   8
#     4  10  19  31  50  74  99 130 165 207 253 290
#     4  10  18  32  55  80 103 124 153 201 255 298
#     4  10  20  32  48  68  97 135 170 204 241 287
#     4  10  18  29  49  75 103 130 157 199 252 301
#     4   9  18  32  53  79 101 124 156 200 251 300
#     4   9  19  33  49  68  97 132 164 200 238 284
#     4  10  18  29  48  75 101 125 159 202 251 296
#     4  10  20  33  48  69  98 132 171 206 237 282
#
# _framework density 15.904919
#
# number of rings (size 3 to 8) (size 9 to 14) (size 15 to 20)
#    0.000    2.250    1.250    3.750    0.000    0.750 
#    0.000    6.250    0.000    6.750    0.000    0.000 
#    0.000    0.000    0.000    0.000    0.000    0.000 
#
# Total GULP energy -178425.395640 kJ/mol
# GULP energy per Si atom -5575.793614 kJ/mol
# Density = 1.586872 g / cm^3
# Si number density = 15.904919 Si / 1000 Ang^3
#
#
#
# Elastic Constant Matrix: (Units=GPa)
#
#
# Indices 1 2 3 4 5 6 
#
# 1 59.7421 15.8271 43.7512 0.0000 -4.5331 0.0000
# 2 15.8271 77.2412 33.4129 0.0000 -3.6740 0.0000
# 3 43.7512 33.4129 81.6617 0.0000 -15.7675 0.0000
# 4 0.0000 0.0000 0.0000 10.9749 0.0000 1.1578
# 5 -4.5331 -3.6740 -15.7675 0.0000 16.7421 0.0000
# 6 0.0000 0.0000 0.0000 1.1578 0.0000 19.3432
#
#
#
# Elastic Compliance Matrix: (Units=1/GPa)
#
#
# Indices 1 2 3 4 5 6 
#
# 1 0.028528 0.001299 -0.017441 0.000000 -0.008416 0.000000
# 2 0.001299 0.015930 -0.007909 0.000000 -0.003601 0.000000
# 3 -0.017441 -0.007909 0.028820 0.000000 0.020684 0.000000
# 4 0.000000 0.000000 0.000000 0.091696 0.000000 -0.005489
# 5 -0.008416 -0.003601 0.020684 0.000000 0.076141 0.000000
# 6 0.000000 0.000000 0.000000 -0.005489 0.000000 0.052026
#
#
# Mechanical properties :
#
#
# Convention : Reuss Voigt Hill
#
# Bulk Modulus (GPa) = 39.72089 44.95861 42.33975
# Shear Modulus (GPa) = 14.30058 17.78897 16.04477
#
# Velocity S-wave (km/s) = 3.00180 3.34796 3.17960
# Velocity P-wave (km/s) = 6.08626 6.57827 6.33704
#
# Compressibility (1/GPa) = 0.02517567
#
# Stress axis : x y z
#
# Youngs Moduli (GPa) = 35.05267 62.77294 34.69856
#
# Poissons Ratio (x) = -0.08152 0.60517
# Poissons Ratio (y) = -0.04552 0.27444
# Poissons Ratio (z) = 0.61135 0.49648
#
# Static dielectric constant tensor:
#      x y z
#    x 1.519110 0.000000 -0.018230 
#    y 0.000000 1.508500 0.000000 
#    z -0.018230 0.000000 1.540800 
# 
# From -- ./inp_files/232515.got.cif
#   From: 2010.05.17/outbox.cif.g08.bks.cpg/sg12_117_cif.got.tgz:232515.got - 2010.06.03 13:09:07.
