data_PCOD9172874
_publ_section_title
;
Structure prediction by ZEFSAII (Michael W. Deem and Ramdas Pophale) SiO2 
 PCOD9172874
Probable space group: C 2/M
;
_chemical_formula_sum "Si O2"
_cell_formula_units_Z 40
_cell_length_a 21.046529
_cell_length_b 8.954269
_cell_length_c 18.397178
_cell_angle_alpha 90.000000
_cell_angle_beta 43.410547
_cell_angle_gamma 90.000000
_cell_volume 2382.639886
_symmetry_space_group_name_H-M "C 2/M"
_symmetry_group_IT_number 12
_symmetry_cell_setting 'monoclinic'
loop_
_space_group_symop_operation_xyz
x,y,z
-x,y,-z
-x,-y,-z
x,-y,z
1/2+x,1/2+y,z
1/2-x,1/2+y,-z
1/2-x,1/2-y,-z
1/2+x,1/2-y,z
loop_
_atom_site_type_symbol
_atom_site_label
_atom_site_fract_x
_atom_site_fract_y
_atom_site_fract_z
Si Si1 0.211597 0.321374 0.280220
Si Si2 0.441465 0.822698 0.717698
Si Si3 0.098327 0.818151 0.948452
Si Si4 0.421980 0.671934 0.501239
Si Si5 0.649468 0.320525 0.069892
O O1 0.211666 0.500000 0.291824
O O2 0.143250 0.293696 0.268403
O O3 0.313755 0.270568 0.172678
O O4 0.167741 0.242646 0.386621
O O5 0.533503 0.763560 0.601744
O O6 0.417906 0.738687 0.811395
O O7 0.445844 0.000000 0.725535
O O8 0.098379 0.000000 0.946379
O O9 0.115238 0.776474 0.018069
O O10 0.000000 0.766037 0.000000
O O11 0.500000 0.676177 0.500000
O O12 0.407349 0.500000 0.493150
O O13 0.656382 0.500000 0.067037
O O14 0.750000 0.250000 0.000000
#
# Coordination Sequence:
#
# PCOD9172874 Si02
#       5
#     8   8   8   8   8
#     4   9  16  29  48  71  98 131 167 204 247 296
#     4  10  18  30  48  74 102 131 165 207 253 300
#     4   9  18  33  52  74 101 135 173 206 245 300
#     4   9  17  28  44  71 101 131 162 203 254 300
#     4  11  20  32  51  76 103 134 168 209 254 297
#
# _framework density 16.788103
#
# number of rings (size 3 to 8) (size 9 to 14) (size 15 to 20)
#    0.000    2.400    2.000    1.800    0.000    3.200 
#    0.000    0.000    0.000    6.600    0.000    0.000 
#    0.000    0.000    0.000    0.000    0.000    0.000 
#
# Total GULP energy -111521.210279 kJ/mol
# GULP energy per Si atom -5576.060514 kJ/mol
# Density = 1.674989 g / cm^3
# Si number density = 16.788103 Si / 1000 Ang^3
#
#
#
# Elastic Constant Matrix: (Units=GPa)
#
#
# Indices 1 2 3 4 5 6 
#
# 1 80.9194 33.4109 66.7766 0.0000 -4.5882 0.0000
# 2 33.4109 49.4217 54.4012 -0.0002 0.4298 0.0002
# 3 66.7766 54.4012 182.1039 0.0000 -1.9938 0.0000
# 4 0.0000 -0.0002 0.0000 34.6811 0.0000 4.7879
# 5 -4.5882 0.4298 -1.9938 0.0000 17.9336 0.0000
# 6 0.0000 0.0002 0.0000 4.7879 0.0000 11.3884
#
#
#
# Elastic Compliance Matrix: (Units=1/GPa)
#
#
# Indices 1 2 3 4 5 6 
#
# 1 0.020021 -0.008274 -0.004818 0.000000 0.004785 0.000000
# 2 -0.008274 0.033620 -0.007050 0.000000 -0.003706 -0.000001
# 3 -0.004818 -0.007050 0.009364 0.000000 -0.000023 0.000000
# 4 0.000000 0.000000 0.000000 0.030611 0.000000 -0.012869
# 5 0.004785 -0.003706 -0.000023 0.000000 0.057072 0.000000
# 6 0.000000 -0.000001 0.000000 -0.012869 0.000000 0.093219
#
#
# Mechanical properties :
#
#
# Convention : Reuss Voigt Hill
#
# Bulk Modulus (GPa) = 44.00993 69.06917 56.53955
# Shear Modulus (GPa) = 17.13715 23.32437 20.23076
#
# Velocity S-wave (km/s) = 3.19845 3.73143 3.47517
# Velocity P-wave (km/s) = 6.31759 7.73277 7.06073
#
# Compressibility (1/GPa) = 0.02272215
#
# Stress axis : x y z
#
# Youngs Moduli (GPa) = 49.94773 29.74407 106.79315
#
# Poissons Ratio (x) = 0.24609 0.51448
# Poissons Ratio (y) = 0.41324 0.75292
# Poissons Ratio (z) = 0.24063 0.20970
#
# Static dielectric constant tensor:
#      x y z
#    x 1.545250 0.000000 -0.005250 
#    y 0.000000 1.560190 0.000000 
#    z -0.005250 0.000000 1.568490 
# 
# From -- ./inp_files/179668.got.cif
#   From: 2010.05.17/outbox.cif.g08.bks.cpg/sg12_90_cif.got.tgz:179668.got - 2010.06.03 13:09:07.
