data_PCOD9172836
_publ_section_title
;
Structure prediction by ZEFSAII (Michael W. Deem and Ramdas Pophale) SiO2 
 PCOD9172836
Probable space group: C 2/M
;
_chemical_formula_sum "Si O2"
_cell_formula_units_Z 64
_cell_length_a 24.775353
_cell_length_b 8.907061
_cell_length_c 18.921577
_cell_angle_alpha 90.000000
_cell_angle_beta 120.954088
_cell_angle_gamma 90.000000
_cell_volume 3580.849894
_symmetry_space_group_name_H-M "C 2/M"
_symmetry_group_IT_number 12
_symmetry_cell_setting 'monoclinic'
loop_
_space_group_symop_operation_xyz
x,y,z
-x,y,-z
-x,-y,-z
x,-y,z
1/2+x,1/2+y,z
1/2-x,1/2+y,-z
1/2-x,1/2-y,-z
1/2+x,1/2-y,z
loop_
_atom_site_type_symbol
_atom_site_label
_atom_site_fract_x
_atom_site_fract_y
_atom_site_fract_z
Si Si1 0.326681 0.179422 0.270933
Si Si2 0.415943 0.175200 0.778080
Si Si3 0.333860 0.673247 0.974970
Si Si4 0.503902 0.321715 0.283180
Si Si5 0.360983 0.318472 0.144932
Si Si6 0.466996 0.819266 0.405456
Si Si7 0.015853 0.163229 0.928873
Si Si8 0.301955 0.819990 0.803543
O O1 0.332921 0.241329 0.195208
O O2 0.392762 0.218765 0.352695
O O3 0.265573 0.254754 0.263461
O O4 0.320060 0.000000 0.265479
O O5 0.437094 0.259528 0.721239
O O6 0.476811 0.204650 0.867945
O O7 0.356720 0.228896 0.785532
O O8 0.407150 0.000000 0.757387
O O9 0.311473 0.500000 0.954239
O O10 0.313849 0.761892 0.891684
O O11 0.325043 0.731169 0.049342
O O12 0.409776 0.671140 0.025369
O O13 0.507234 0.500000 0.291605
O O14 0.436498 0.285929 0.198889
O O15 0.498070 0.250147 0.356607
O O16 0.355013 0.500000 0.145040
O O17 0.500000 0.770294 0.500000
O O18 0.471748 0.000000 0.403755
O O19 0.995850 0.000000 0.884034
O O20 0.000000 0.161324 0.000000
O O21 0.301389 0.000000 0.804338
#
# Coordination Sequence:
#
# PCOD9172836 Si02
#       8
#     8   8   8   8   8   8   8   8
#     4  10  21  37  57  79 103 138 176 211 260 322
#     4  11  22  33  49  74 106 144 184 224 270 314
#     4  10  19  32  50  72 100 140 187 229 272 315
#     4  10  19  33  55  84 113 140 174 217 265 314
#     4   9  18  33  52  74 103 138 176 225 273 309
#     4   9  19  38  64  92 116 134 159 205 265 324
#     4  10  18  30  48  70  99 137 183 234 277 309
#     4  11  24  37  49  71 105 147 188 227 266 307
#
# _framework density 17.872852000000002
#
# number of rings (size 3 to 8) (size 9 to 14) (size 15 to 20)
#    0.000    2.000    2.500    1.500    0.000    4.500 
#    0.000    0.000    0.000    0.750    0.000    0.000 
#    0.000    0.000    0.000    0.000    0.000    0.000 
#
# Total GULP energy -178447.628974 kJ/mol
# GULP energy per Si atom -5576.488405 kJ/mol
# Density = 1.783217 g / cm^3
# Si number density = 17.872852 Si / 1000 Ang^3
#
#
#
# Elastic Constant Matrix: (Units=GPa)
#
#
# Indices 1 2 3 4 5 6 
#
# 1 95.5008 38.5936 66.5479 0.0000 8.4645 0.0000
# 2 38.5936 37.6929 32.3926 0.0000 -1.2384 0.0000
# 3 66.5479 32.3926 101.3199 0.0000 -12.1579 0.0000
# 4 0.0000 0.0000 0.0000 20.6567 0.0000 -0.0415
# 5 8.4645 -1.2384 -12.1579 0.0000 17.9857 0.0000
# 6 0.0000 0.0000 0.0000 -0.0415 0.0000 22.2527
#
#
#
# Elastic Compliance Matrix: (Units=1/GPa)
#
#
# Indices 1 2 3 4 5 6 
#
# 1 0.036485 -0.019903 -0.021575 0.000000 -0.033125 0.000000
# 2 -0.019903 0.048016 -0.000824 0.000000 0.012116 0.000000
# 3 -0.021575 -0.000824 0.027768 0.000000 0.028867 0.000000
# 4 0.000000 0.000000 0.000000 0.048411 0.000000 0.000090
# 5 -0.033125 0.012116 0.028867 0.000000 0.091537 0.000000
# 6 0.000000 0.000000 0.000000 0.000090 0.000000 0.044938
#
#
# Mechanical properties :
#
#
# Convention : Reuss Voigt Hill
#
# Bulk Modulus (GPa) = 36.14984 56.62018 46.38501
# Shear Modulus (GPa) = 12.78837 18.64434 15.71636
#
# Velocity S-wave (km/s) = 2.67782 3.23331 2.96859
# Velocity P-wave (km/s) = 5.46178 6.75924 6.14485
#
# Compressibility (1/GPa) = 0.02766264
#
# Stress axis : x y z
#
# Youngs Moduli (GPa) = 27.40887 20.82650 36.01288
#
# Poissons Ratio (x) = 0.41452 0.77698
# Poissons Ratio (y) = 0.54553 0.02969
# Poissons Ratio (z) = 0.59135 0.01717
#
# Static dielectric constant tensor:
#      x y z
#    x 1.682090 0.000000 -0.017570 
#    y 0.000000 1.616140 0.000000 
#    z -0.017570 0.000000 1.612930 
# 
# From -- ./inp_files/324314.got.cif
#   From: 2010.05.17/outbox.cif.g08.bks.cpg/sg12_163_cif.got.tgz:324314.got - 2010.06.03 13:09:07.
