data_PCOD9172162
_publ_section_title
;
Structure prediction by ZEFSAII (Michael W. Deem and Ramdas Pophale) SiO2 
 PCOD9172162
Probable space group: C 2/M
;
_chemical_formula_sum "Si O2"
_cell_formula_units_Z 64
_cell_length_a 26.385985
_cell_length_b 21.368427
_cell_length_c 8.356732
_cell_angle_alpha 90.000000
_cell_angle_beta 129.303047
_cell_angle_gamma 90.000000
_cell_volume 3645.983736
_symmetry_space_group_name_H-M "C 2/M"
_symmetry_group_IT_number 12
_symmetry_cell_setting 'monoclinic'
loop_
_space_group_symop_operation_xyz
x,y,z
-x,y,-z
-x,-y,-z
x,-y,z
1/2+x,1/2+y,z
1/2-x,1/2+y,-z
1/2-x,1/2-y,-z
1/2+x,1/2-y,z
loop_
_atom_site_type_symbol
_atom_site_label
_atom_site_fract_x
_atom_site_fract_y
_atom_site_fract_z
Si Si1 0.570178 0.236816 0.698782
Si Si2 0.429765 0.619883 0.800730
Si Si3 0.290351 0.569426 0.135134
Si Si4 0.429822 0.236816 0.918068
Si Si5 0.570235 0.619883 0.581669
Si Si6 0.290755 0.810237 0.025122
Si Si7 0.209245 0.310237 0.362103
Si Si8 0.290351 0.569426 0.526270
O O1 0.500000 0.212439 0.500000
O O2 0.576673 0.308114 0.650342
O O3 0.634006 0.198615 0.772599
O O4 0.569427 0.238807 0.888854
O O5 0.423327 0.691886 0.843651
O O6 0.430667 0.619341 0.611334
O O7 0.365157 0.583385 0.726209
O O8 0.500000 0.595647 0.000000
O O9 0.270209 0.500000 0.043583
O O10 0.365157 0.583385 0.234418
O O11 0.289880 0.570305 0.329760
O O12 0.244104 0.626164 0.988568
O O13 0.365994 0.198615 0.736573
O O14 0.500000 0.212439 0.000000
O O15 0.500000 0.595647 0.500000
O O16 0.250000 0.750000 0.000000
O O17 0.289702 0.810516 0.829403
O O18 0.250000 0.250000 0.500000
O O19 0.244104 0.373836 0.487846
O O20 0.270209 0.500000 0.537255
#
# Coordination Sequence:
#
# PCOD9172162 Si02
#       8
#     8   8   8   8   8   8   8   8
#     4  10  19  30  48  73  99 126 159 199 244 288
#     4  10  18  29  47  69  97 131 163 197 236 281
#     4   9  18  32  49  70  97 130 165 199 240 290
#     4  10  19  30  48  73  99 126 159 199 244 288
#     4  10  18  29  47  69  97 131 163 197 236 281
#     4  10  19  32  52  75  97 126 163 203 244 286
#     4  10  19  32  52  75  97 126 163 203 244 286
#     4   9  18  32  49  70  97 130 165 199 240 290
#
# _framework density 17.553561999999999
#
# number of rings (size 3 to 8) (size 9 to 14) (size 15 to 20)
#    0.000    2.250    2.500    3.000    0.000    1.500 
#    0.000    0.000    0.000    6.750    0.000    0.000 
#    0.000    0.000    0.000    0.000    0.000    1.000 
#
# Total GULP energy -178487.441005 kJ/mol
# GULP energy per Si atom -5577.732531 kJ/mol
# Density = 1.751361 g / cm^3
# Si number density = 17.553562 Si / 1000 Ang^3
#
#
#
# Elastic Constant Matrix: (Units=GPa)
#
#
# Indices 1 2 3 4 5 6 
#
# 1 74.1622 47.9773 34.4838 0.0000 34.5669 0.0000
# 2 47.9773 122.4733 37.5267 0.0000 35.9552 0.0000
# 3 34.4838 37.5267 55.6528 0.0000 29.1144 0.0000
# 4 0.0000 0.0000 0.0000 16.9913 0.0000 5.3591
# 5 34.5669 35.9552 29.1144 0.0000 33.5749 0.0000
# 6 0.0000 0.0000 0.0000 5.3591 0.0000 18.5490
#
#
#
# Elastic Compliance Matrix: (Units=1/GPa)
#
#
# Indices 1 2 3 4 5 6 
#
# 1 0.027255 -0.003304 -0.003352 0.000000 -0.021615 0.000000
# 2 -0.003304 0.012501 -0.002120 0.000000 -0.008147 0.000000
# 3 -0.003352 -0.002120 0.033828 0.000000 -0.023612 0.000000
# 4 0.000000 0.000000 0.000000 0.064754 0.000000 -0.018708
# 5 -0.021615 -0.008147 -0.023612 0.000000 0.081238 0.000000
# 6 0.000000 0.000000 0.000000 -0.018708 0.000000 0.059316
#
#
# Mechanical properties :
#
#
# Convention : Reuss Voigt Hill
#
# Bulk Modulus (GPa) = 17.84717 54.69598 36.27158
# Shear Modulus (GPa) = 15.86695 22.64308 19.25501
#
# Velocity S-wave (km/s) = 3.00978 3.59547 3.31559
# Velocity P-wave (km/s) = 4.71887 6.96159 5.94691
#
# Compressibility (1/GPa) = 0.05603128
#
# Stress axis : x y z
#
# Youngs Moduli (GPa) = 36.69080 79.99586 29.56167
#
# Poissons Ratio (x) = 0.26430 0.09909
# Poissons Ratio (y) = 0.12122 0.06267
# Poissons Ratio (z) = 0.12299 0.16958
#
# Static dielectric constant tensor:
#      x y z
#    x 1.617420 0.000000 0.005970 
#    y 0.000000 1.581730 0.000000 
#    z 0.005970 0.000000 1.615690 
# 
# From -- ./inp_files/106425.got.cif
#   From: 2010.05.17/outbox.cif.g08.bks.cpg/sg12_54_cif.got.tgz:106425.got - 2010.06.03 13:09:07.
