data_PCOD9172070
_publ_section_title
;
Structure prediction by ZEFSAII (Michael W. Deem and Ramdas Pophale) SiO2 
 PCOD9172070
Probable space group: C 2/M
;
_chemical_formula_sum "Si O2"
_cell_formula_units_Z 48
_cell_length_a 24.452961
_cell_length_b 7.712545
_cell_length_c 14.220828
_cell_angle_alpha 90.000000
_cell_angle_beta 72.553593
_cell_angle_gamma 90.000000
_cell_volume 2558.594287
_symmetry_space_group_name_H-M "C 2/M"
_symmetry_group_IT_number 12
_symmetry_cell_setting 'monoclinic'
loop_
_space_group_symop_operation_xyz
x,y,z
-x,y,-z
-x,-y,-z
x,-y,z
1/2+x,1/2+y,z
1/2-x,1/2+y,-z
1/2-x,1/2-y,-z
1/2+x,1/2-y,z
loop_
_atom_site_type_symbol
_atom_site_label
_atom_site_fract_x
_atom_site_fract_y
_atom_site_fract_z
Si Si1 0.255244 0.291044 0.108129
Si Si2 0.056621 0.295082 0.084288
Si Si3 0.632281 0.210826 0.220924
Si Si4 0.975806 0.703101 0.609087
Si Si5 0.874850 0.790309 0.133196
Si Si6 0.949750 0.802598 0.255078
O O1 0.256298 0.500000 0.114232
O O2 0.197573 0.228145 0.190111
O O3 0.313772 0.226300 0.125702
O O4 0.250000 0.250000 0.000000
O O5 0.044937 0.500000 0.099754
O O6 0.107595 0.248471 0.130173
O O7 0.001125 0.199775 0.152082
O O8 0.078254 0.257303 0.969530
O O9 0.584061 0.275870 0.318663
O O10 0.633000 0.000000 0.227333
O O11 0.964453 0.500000 0.597312
O O12 0.000000 0.780010 0.500000
O O13 0.023038 0.714651 0.667499
O O14 0.896231 0.727370 0.224320
O O15 0.872924 0.000000 0.139500
O O16 0.936876 0.000000 0.288727
#
# Coordination Sequence:
#
# PCOD9172070 Si02
#       6
#     8   8   8   8   8   8
#     4  10  18  30  46  66  95 130 165 195 227 271
#     4  10  18  29  46  68  94 127 164 198 232 276
#     4   8  15  28  46  69  93 118 154 195 234 275
#     4   9  18  34  55  75  92 114 152 204 253 291
#     4  10  20  30  43  65  97 133 162 191 232 282
#     4  10  20  32  45  67  97 126 157 193 239 292
#
# _framework density 18.760300999999998
#
# number of rings (size 3 to 8) (size 9 to 14) (size 15 to 20)
#    0.000    2.500    1.667    2.500    0.000    3.667 
#    0.000    0.000    0.000    1.000    0.000    0.000 
#    0.000    0.000    0.000    0.000    0.000    0.167 
#
# Total GULP energy -133776.160079 kJ/mol
# GULP energy per Si atom -5574.006670 kJ/mol
# Density = 1.871760 g / cm^3
# Si number density = 18.760301 Si / 1000 Ang^3
#
#
#
# Elastic Constant Matrix: (Units=GPa)
#
#
# Indices 1 2 3 4 5 6 
#
# 1 105.2829 -2.6225 48.2507 0.0000 9.3141 0.0000
# 2 -2.6225 30.0492 -4.1711 0.0000 -1.2069 0.0000
# 3 48.2507 -4.1711 112.4349 0.0000 0.6372 0.0000
# 4 0.0000 0.0000 0.0000 10.2905 0.0000 4.1054
# 5 9.3141 -1.2069 0.6372 0.0000 11.7216 0.0000
# 6 0.0000 0.0000 0.0000 4.1054 0.0000 12.1280
#
#
#
# Elastic Compliance Matrix: (Units=1/GPa)
#
#
# Indices 1 2 3 4 5 6 
#
# 1 0.012886 -0.000035 -0.005475 0.000000 -0.009946 0.000000
# 2 -0.000035 0.033585 0.001242 0.000000 0.003418 0.000000
# 3 -0.005475 0.001242 0.011268 0.000000 0.003866 0.000000
# 4 0.000000 0.000000 0.000000 0.112350 0.000000 -0.038031
# 5 -0.009946 0.003418 0.003866 0.000000 0.093357 0.000000
# 6 0.000000 0.000000 0.000000 -0.038031 0.000000 0.095328
#
#
# Mechanical properties :
#
#
# Convention : Reuss Voigt Hill
#
# Bulk Modulus (GPa) = 20.32402 36.74235 28.53318
# Shear Modulus (GPa) = 13.03061 20.58201 16.80631
#
# Velocity S-wave (km/s) = 2.63836 3.31585 2.99631
# Velocity P-wave (km/s) = 4.48757 5.85555 5.21660
#
# Compressibility (1/GPa) = 0.04920286
#
# Stress axis : x y z
#
# Youngs Moduli (GPa) = 77.60133 29.77488 88.74879
#
# Poissons Ratio (x) = 0.00104 0.48590
# Poissons Ratio (y) = 0.00270 -0.11018
# Poissons Ratio (z) = 0.42487 -0.03697
#
# Static dielectric constant tensor:
#      x y z
#    x 1.697770 0.000000 -0.002890 
#    y 0.000000 1.705240 0.000000 
#    z -0.002890 0.000000 1.634060 
# 
# From -- ./inp_files/236607.got.cif
#   From: 2010.05.17/outbox.cif.g08.bks.cpg/sg12_119_cif.got.tgz:236607.got - 2010.06.03 13:09:07.
