data_PCOD9172760
_publ_section_title
;
Structure prediction by ZEFSAII (Michael W. Deem and Ramdas Pophale) SiO2 
 PCOD9172760
Probable space group: C 2/M
;
_chemical_formula_sum "Si O2"
_cell_formula_units_Z 48
_cell_length_a 24.244250
_cell_length_b 7.430742
_cell_length_c 13.249976
_cell_angle_alpha 90.000000
_cell_angle_beta 90.537283
_cell_angle_gamma 90.000000
_cell_volume 2386.914885
_symmetry_space_group_name_H-M "C 2/M"
_symmetry_group_IT_number 12
_symmetry_cell_setting 'monoclinic'
loop_
_space_group_symop_operation_xyz
x,y,z
-x,y,-z
-x,-y,-z
x,-y,z
1/2+x,1/2+y,z
1/2-x,1/2+y,-z
1/2-x,1/2-y,-z
1/2+x,1/2-y,z
loop_
_atom_site_type_symbol
_atom_site_label
_atom_site_fract_x
_atom_site_fract_y
_atom_site_fract_z
Si Si1 0.365671 0.279769 0.298597
Si Si2 0.434660 0.280843 0.109886
Si Si3 0.127125 0.210987 0.311765
Si Si4 0.749111 0.213247 0.379884
Si Si5 0.563278 0.720005 0.507662
Si Si6 0.061323 0.219541 0.118652
O O1 0.364727 0.500000 0.297659
O O2 0.390956 0.220853 0.192547
O O3 0.304457 0.217251 0.327091
O O4 0.406606 0.224984 0.389363
O O5 0.433945 0.500000 0.110203
O O6 0.497631 0.229222 0.138105
O O7 0.423963 0.222255 0.994731
O O8 0.192336 0.224311 0.328971
O O9 0.097213 0.284329 0.410991
O O10 0.101937 0.283633 0.207328
O O11 0.113152 0.000000 0.310175
O O12 0.750000 0.250000 0.500000
O O13 0.749934 0.000000 0.369280
O O14 0.500000 0.776012 0.500000
O O15 0.564038 0.500000 0.507888
O O16 0.062380 0.000000 0.116418
#
# Coordination Sequence:
#
# PCOD9172760 Si02
#       6
#     8   8   8   8   8   8
#     4   9  16  26  41  63  90 120 155 191 228 274
#     4   8  13  24  42  69  99 122 149 191 240 278
#     4  10  18  30  47  71  98 123 156 193 235 281
#     4  11  21  34  49  67  92 128 164 195 233 278
#     4   9  15  23  40  67  93 115 146 191 234 273
#     4   8  14  24  43  70  99 124 147 188 241 281
#
# _framework density 20.109641
#
# number of rings (size 3 to 8) (size 9 to 14) (size 15 to 20)
#    0.000    2.833    1.667    2.500    0.000    4.000 
#    0.000    0.833    0.000    0.500    0.000    3.500 
#    0.000    0.000    0.000    0.000    0.000    0.000 
#
# Total GULP energy -133940.944239 kJ/mol
# GULP energy per Si atom -5580.872677 kJ/mol
# Density = 2.006387 g / cm^3
# Si number density = 20.109641 Si / 1000 Ang^3
#
#
#
# Elastic Constant Matrix: (Units=GPa)
#
#
# Indices 1 2 3 4 5 6 
#
# 1 149.5509 -9.2566 100.9914 0.0000 -22.3571 0.0000
# 2 -9.2566 58.5179 0.9455 0.0000 -1.5226 0.0000
# 3 100.9914 0.9455 166.0468 0.0000 -19.1968 0.0000
# 4 0.0000 0.0000 0.0000 -21.7540 0.0000 -3.1379
# 5 -22.3571 -1.5226 -19.1968 0.0000 34.9586 0.0000
# 6 0.0000 0.0000 0.0000 -3.1379 0.0000 13.1695
#
#
#
# Elastic Compliance Matrix: (Units=1/GPa)
#
#
# Indices 1 2 3 4 5 6 
#
# 1 0.012073 0.002126 -0.006889 0.000000 0.004031 0.000000
# 2 0.002126 0.017483 -0.001225 0.000000 0.001448 0.000000
# 3 -0.006889 -0.001225 0.010362 0.000000 0.001231 0.000000
# 4 0.000000 0.000000 0.000000 -0.044441 0.000000 -0.010589
# 5 0.004031 0.001448 0.001231 0.000000 0.031922 0.000000
# 6 0.000000 0.000000 0.000000 -0.010589 0.000000 0.073410
#
#
# Mechanical properties :
#
#
# Convention : Reuss Voigt Hill
#
# Bulk Modulus (GPa) = 35.79003 62.16402 48.97702
# Shear Modulus (GPa) = 40.95068 24.03717 32.49392
#
# Velocity S-wave (km/s) = 4.51751 3.46107 4.02411
# Velocity P-wave (km/s) = 6.71168 6.85213 6.78227
#
# Compressibility (1/GPa) = 0.02794075
#
# Stress axis : x y z
#
# Youngs Moduli (GPa) = 82.82950 57.19987 96.50967
#
# Poissons Ratio (x) = -0.12160 0.66486
# Poissons Ratio (y) = -0.17609 0.11824
# Poissons Ratio (z) = 0.57062 0.07008
#
# Static dielectric constant tensor:
#      x y z
#    x 1.666580 0.000000 -0.015940 
#    y 0.000000 1.799040 0.000000 
#    z -0.015940 0.000000 1.688910 
# 
# From -- ./inp_files/164171.got.cif
#   From: 2010.05.17/outbox.cif.g08.bks.cpg/sg12_83_cif.got.tgz:164171.got - 2010.06.03 13:09:07.
