data_PCOD9172790
_publ_section_title
;
Structure prediction by ZEFSAII (Michael W. Deem and Ramdas Pophale) SiO2 
 PCOD9172790
Probable space group: C 2/M
;
_chemical_formula_sum "Si O2"
_cell_formula_units_Z 64
_cell_length_a 25.538999
_cell_length_b 7.450373
_cell_length_c 23.943310
_cell_angle_alpha 90.000000
_cell_angle_beta 131.363566
_cell_angle_gamma 90.000000
_cell_volume 3419.282365
_symmetry_space_group_name_H-M "C 2/M"
_symmetry_group_IT_number 12
_symmetry_cell_setting 'monoclinic'
loop_
_space_group_symop_operation_xyz
x,y,z
-x,y,-z
-x,-y,-z
x,-y,z
1/2+x,1/2+y,z
1/2-x,1/2+y,-z
1/2-x,1/2-y,-z
1/2+x,1/2-y,z
loop_
_atom_site_type_symbol
_atom_site_label
_atom_site_fract_x
_atom_site_fract_y
_atom_site_fract_z
Si Si1 0.831589 0.779582 0.350125
Si Si2 0.060930 0.780351 0.671911
Si Si3 0.689010 0.205215 0.205237
Si Si4 0.217803 0.787883 0.100076
Si Si5 0.964459 0.711976 0.918461
Si Si6 0.907176 0.783223 0.067843
Si Si7 0.944194 0.210815 0.511583
Si Si8 0.127601 0.215872 0.832981
O O1 0.878494 0.728562 0.329384
O O2 0.752813 0.715880 0.285661
O O3 0.872922 0.717656 0.434516
O O4 0.831347 0.000000 0.350335
O O5 0.081774 0.719920 0.748233
O O6 0.986910 0.717151 0.594608
O O7 0.059616 0.000000 0.670654
O O8 0.714743 0.203370 0.159125
O O9 0.611824 0.287937 0.149342
O O10 0.681269 0.000000 0.219614
O O11 0.291907 0.758325 0.123133
O O12 0.208044 0.000000 0.101546
O O13 0.154997 0.720572 0.016777
O O14 0.953087 0.500000 0.921329
O O15 0.019471 0.732625 0.907681
O O16 0.000000 0.786762 0.000000
O O17 0.895373 0.717966 0.122479
O O18 0.903346 0.000000 0.066181
O O19 0.000000 0.221465 0.500000
O O20 0.932045 0.000000 0.514004
O O21 0.121725 0.000000 0.829542
#
# Coordination Sequence:
#
# PCOD9172790 Si02
#       8
#     8   8   8   8   8   8   8   8
#     4   8  12  20  37  62  90 114 137 174 218 257
#     4   8  12  20  38  62  88 115 139 172 215 257
#     4  10  18  30  48  68  88 117 151 182 221 266
#     4  11  21  31  44  66  92 119 148 182 222 262
#     4  10  20  33  50  68  85 112 152 192 227 263
#     4  10  22  35  47  64  88 119 153 187 223 262
#     4   7  10  16  30  59  91 111 133 169 215 256
#     4  10  19  32  48  66  89 120 153 181 216 264
#
# _framework density 18.717376999999999
#
# number of rings (size 3 to 8) (size 9 to 14) (size 15 to 20)
#    0.000    2.750    2.500    2.250    0.000    1.750 
#    0.000    0.000    0.000    0.000    0.000    2.625 
#    0.000    0.000    0.000    0.000    0.000    0.000 
#
# Total GULP energy -178418.807297 kJ/mol
# GULP energy per Si atom -5575.587728 kJ/mol
# Density = 1.867478 g / cm^3
# Si number density = 18.717377 Si / 1000 Ang^3
#
#
#
# Elastic Constant Matrix: (Units=GPa)
#
#
# Indices 1 2 3 4 5 6 
#
# 1 90.0205 -8.8960 58.7268 0.0000 22.8023 0.0000
# 2 -8.8960 57.4437 6.2418 0.0001 2.7839 0.0008
# 3 58.7268 6.2418 166.8599 0.0000 46.2270 0.0001
# 4 0.0000 0.0001 0.0000 -8.1685 0.0000 -4.2218
# 5 22.8023 2.7839 46.2270 0.0000 22.0807 0.0000
# 6 0.0000 0.0008 0.0001 -4.2218 0.0000 11.4000
#
#
#
# Elastic Compliance Matrix: (Units=1/GPa)
#
#
# Indices 1 2 3 4 5 6 
#
# 1 0.016052 0.003328 -0.002537 0.000000 -0.011686 0.000000
# 2 0.003328 0.018206 -0.000629 0.000001 -0.004415 -0.000001
# 3 -0.002537 -0.000629 0.014671 0.000000 -0.028015 0.000000
# 4 0.000000 0.000001 0.000000 -0.102754 -0.000001 -0.038053
# 5 -0.011686 -0.004415 -0.028015 -0.000001 0.116563 0.000001
# 6 0.000000 -0.000001 0.000000 -0.038053 0.000001 0.073626
#
#
# Mechanical properties :
#
#
# Convention : Reuss Voigt Hill
#
# Bulk Modulus (GPa) = 20.30338 47.38546 33.84442
# Shear Modulus (GPa) = 32.79572 22.27920 27.53746
#
# Velocity S-wave (km/s) = 4.19041 3.45381 3.83982
# Velocity P-wave (km/s) = 5.85522 6.42466 6.14654
#
# Compressibility (1/GPa) = 0.04925289
#
# Stress axis : x y z
#
# Youngs Moduli (GPa) = 62.29619 54.92675 68.16330
#
# Poissons Ratio (x) = -0.18279 0.17291
# Poissons Ratio (y) = -0.20732 0.04289
# Poissons Ratio (z) = 0.15803 0.03456
#
# Static dielectric constant tensor:
#      x y z
#    x 1.596560 0.000000 0.020090 
#    y 0.000000 1.702400 0.000000 
#    z 0.020090 0.000000 1.697170 
# 
# From -- ./inp_files/348590.got.cif
#   From: 2010.05.17/outbox.cif.g08.bks.cpg/sg12_175_cif.got.tgz:348590.got - 2010.06.03 13:09:07.
