data_PCOD9172329
_publ_section_title
;
Structure prediction by ZEFSAII (Michael W. Deem and Ramdas Pophale) SiO2 
 PCOD9172329
Probable space group: C 2/M
;
_chemical_formula_sum "Si O2"
_cell_formula_units_Z 64
_cell_length_a 11.003508
_cell_length_b 24.751075
_cell_length_c 12.281500
_cell_angle_alpha 90.000000
_cell_angle_beta 61.110753
_cell_angle_gamma 90.000000
_cell_volume 2928.600821
_symmetry_space_group_name_H-M "C 2/M"
_symmetry_group_IT_number 12
_symmetry_cell_setting 'monoclinic'
loop_
_space_group_symop_operation_xyz
x,y,z
-x,y,-z
-x,-y,-z
x,-y,z
1/2+x,1/2+y,z
1/2-x,1/2+y,-z
1/2-x,1/2-y,-z
1/2+x,1/2-y,z
loop_
_atom_site_type_symbol
_atom_site_label
_atom_site_fract_x
_atom_site_fract_y
_atom_site_fract_z
Si Si1 0.819528 0.662160 0.925985
Si Si2 0.985185 0.764352 0.132781
Si Si3 0.504397 0.057357 0.869958
Si Si4 0.321397 0.438428 0.657551
Si Si5 0.599080 0.352510 0.218600
Si Si6 0.631305 0.157516 0.331348
Si Si7 0.199086 0.636810 0.529915
Si Si8 0.207442 0.775594 0.355154
O O1 0.889372 0.721388 0.902912
O O2 0.926589 0.612712 0.882486
O O3 0.776778 0.658579 0.817764
O O4 0.718550 0.651711 0.072393
O O5 0.983772 0.818187 0.205862
O O6 0.852089 0.731481 0.228366
O O7 0.000000 0.777951 0.000000
O O8 0.663446 0.061860 0.768771
O O9 0.448560 0.000000 0.846565
O O10 0.500000 0.052545 0.000000
O O11 0.364196 0.500000 0.620523
O O12 0.406991 0.410318 0.719386
O O13 0.294186 0.404888 0.557781
O O14 0.626388 0.316427 0.313097
O O15 0.699049 0.124882 0.401511
O O16 0.470468 0.139889 0.376720
O O17 0.632023 0.218371 0.379415
O O18 0.260297 0.694320 0.545575
#
# Coordination Sequence:
#
# PCOD9172329 Si02
#       8
#     8   8   8   8   8   8   8   8
#     4  12  18  32  47  74 113 144 169 206 256 311
#     4  12  21  31  49  79 113 143 172 209 261 321
#     4  10  18  29  48  75 103 134 168 209 257 307
#     4  10  20  36  57  77 102 132 175 226 268 313
#     4  11  21  32  53  82 106 139 176 213 264 317
#     4  11  21  33  49  73 108 146 171 211 256 311
#     4  10  21  35  51  75 104 138 180 214 260 302
#     4  11  19  34  51  73 108 142 175 213 254 309
#
# _framework density 21.853438000000001
#
# number of rings (size 3 to 8) (size 9 to 14) (size 15 to 20)
#    0.000    1.125    6.250    2.625    0.000    0.000 
#    0.000    1.875    0.000    0.375    0.000    3.500 
#    0.000    0.000    0.000    0.000    0.000    0.000 
#
# Total GULP energy -178321.324616 kJ/mol
# GULP energy per Si atom -5572.541394 kJ/mol
# Density = 2.180370 g / cm^3
# Si number density = 21.853438 Si / 1000 Ang^3
#
#
#
# Elastic Constant Matrix: (Units=GPa)
#
#
# Indices 1 2 3 4 5 6 
#
# 1 48.5123 24.2749 30.8913 0.0000 25.6599 0.0000
# 2 24.2749 110.1849 12.6073 0.0000 24.7689 0.0000
# 3 30.8913 12.6073 84.5854 0.0000 30.8712 0.0000
# 4 0.0000 0.0000 0.0000 25.4077 0.0000 4.4691
# 5 25.6599 24.7689 30.8712 0.0000 47.1038 0.0000
# 6 0.0000 0.0000 0.0000 4.4691 0.0000 20.4795
#
#
#
# Elastic Compliance Matrix: (Units=1/GPa)
#
#
# Indices 1 2 3 4 5 6 
#
# 1 0.033251 -0.003970 -0.007496 0.000000 -0.011114 0.000000
# 2 -0.003970 0.010788 0.001476 0.000000 -0.004477 0.000000
# 3 -0.007496 0.001476 0.017262 0.000000 -0.008006 0.000000
# 4 0.000000 0.000000 0.000000 0.040929 0.000000 -0.008932
# 5 -0.011114 -0.004477 -0.008006 0.000000 0.034885 0.000000
# 6 0.000000 0.000000 0.000000 -0.008932 0.000000 0.050778
#
#
# Mechanical properties :
#
#
# Convention : Reuss Voigt Hill
#
# Bulk Modulus (GPa) = 24.20014 42.09219 33.14617
# Shear Modulus (GPa) = 22.55841 30.29880 26.42860
#
# Velocity S-wave (km/s) = 3.21636 3.72755 3.48135
# Velocity P-wave (km/s) = 4.98911 6.15054 5.60002
#
# Compressibility (1/GPa) = 0.04132207
#
# Stress axis : x y z
#
# Youngs Moduli (GPa) = 30.07406 92.69694 57.93123
#
# Poissons Ratio (x) = 0.36798 0.43424
# Poissons Ratio (y) = 0.11938 -0.08551
# Poissons Ratio (z) = 0.22543 -0.13682
#
# Static dielectric constant tensor:
#      x y z
#    x 1.835200 0.000000 -0.001450 
#    y 0.000000 1.818120 0.000000 
#    z -0.001450 0.000000 1.842520 
# 
# From -- ./inp_files/135940.got.cif
#   From: 2010.05.17/outbox.cif.g08.bks.cpg/sg12_68_cif.got.tgz:135940.got - 2010.06.03 13:09:07.
