data_PCOD9172108
_publ_section_title
;
Structure prediction by ZEFSAII (Michael W. Deem and Ramdas Pophale) SiO2 
 PCOD9172108
Probable space group: C 2/M
;
_chemical_formula_sum "Si O2"
_cell_formula_units_Z 56
_cell_length_a 27.688999
_cell_length_b 20.309376
_cell_length_c 18.189700
_cell_angle_alpha 90.000000
_cell_angle_beta 17.946398
_cell_angle_gamma 90.000000
_cell_volume 3151.804644
_symmetry_space_group_name_H-M "C 2/M"
_symmetry_group_IT_number 12
_symmetry_cell_setting 'monoclinic'
loop_
_space_group_symop_operation_xyz
x,y,z
-x,y,-z
-x,-y,-z
x,-y,z
1/2+x,1/2+y,z
1/2-x,1/2+y,-z
1/2-x,1/2-y,-z
1/2+x,1/2-y,z
loop_
_atom_site_type_symbol
_atom_site_label
_atom_site_fract_x
_atom_site_fract_y
_atom_site_fract_z
Si Si1 0.436020 0.072864 0.918376
Si Si2 0.452011 0.750938 0.984860
Si Si3 0.931833 0.073787 0.517385
Si Si4 0.401683 0.192767 0.367143
Si Si5 0.227463 0.572807 0.601648
Si Si6 0.351984 0.681810 0.533712
Si Si7 0.080383 0.117208 0.812690
O O1 0.478861 0.131669 0.801146
O O2 0.554877 0.079647 0.815560
O O3 0.468395 0.000000 0.840081
O O4 0.257166 0.074468 0.202026
O O5 0.574058 0.780872 0.750764
O O6 0.458017 0.672701 0.962703
O O7 0.500000 0.762333 0.000000
O O8 0.285233 0.785997 0.217734
O O9 0.967088 0.135048 0.413360
O O10 0.000000 0.082792 0.500000
O O11 0.979226 0.000000 0.423383
O O12 0.422496 0.255324 0.389260
O O13 0.230008 0.160911 0.622906
O O14 0.236995 0.500000 0.622486
O O15 0.272005 0.631450 0.591455
O O16 0.347993 0.576506 0.357963
O O17 0.000000 0.084084 0.000000
#
# Coordination Sequence:
#
# PCOD9172108 Si02
#       7
#     8   8   8   8   8   8   8
#     4   9  19  34  52  73 103 134 163 205 253 302
#     4  11  18  28  46  76 104 138 167 200 248 303
#     4  10  22  39  55  72  99 134 169 208 262 315
#     4  11  19  30  49  75 105 134 174 212 243 300
#     4  10  21  32  47  78 111 136 170 210 250 303
#     4  12  21  31  55  78 103 134 170 216 255 298
#     4  10  18  29  46  71 107 147 172 192 247 302
#
# _framework density 17.767600000000002
#
# number of rings (size 3 to 8) (size 9 to 14) (size 15 to 20)
#    0.000    1.571    5.714    2.571    0.000    0.286 
#    0.000    2.857    0.000    0.000    0.000    0.000 
#    0.000    0.571    0.000    6.571    0.000    0.000 
#
# Total GULP energy -156061.031251 kJ/mol
# GULP energy per Si atom -5573.608259 kJ/mol
# Density = 1.772716 g / cm^3
# Si number density = 17.767600 Si / 1000 Ang^3
#
#
#
# Elastic Constant Matrix: (Units=GPa)
#
#
# Indices 1 2 3 4 5 6 
#
# 1 51.6887 24.9203 12.2591 -0.0007 3.0421 0.0009
# 2 24.9203 128.0430 -1.9633 0.0021 0.0718 0.0009
# 3 12.2591 -1.9633 42.4200 0.0038 18.7686 0.0005
# 4 -0.0007 0.0021 0.0038 18.4784 0.0002 3.5704
# 5 3.0421 0.0718 18.7686 0.0002 13.7930 -0.0011
# 6 0.0009 0.0009 0.0005 3.5704 -0.0011 19.2642
#
#
#
# Elastic Compliance Matrix: (Units=1/GPa)
#
#
# Indices 1 2 3 4 5 6 
#
# 1 0.023886 -0.004840 -0.012080 0.000004 0.011195 -0.000001
# 2 -0.004840 0.008806 0.003403 -0.000002 -0.003609 0.000000
# 3 -0.012080 0.003403 0.065464 -0.000013 -0.086432 -0.000004
# 4 0.000004 -0.000002 -0.000013 0.056127 0.000015 -0.010403
# 5 0.011195 -0.003609 -0.086432 0.000015 0.187661 0.000010
# 6 -0.000001 0.000000 -0.000004 -0.010403 0.000010 0.053838
#
#
# Mechanical properties :
#
#
# Convention : Reuss Voigt Hill
#
# Bulk Modulus (GPa) = 14.06034 32.50933 23.28484
# Shear Modulus (GPa) = 11.19762 22.76951 16.98356
#
# Velocity S-wave (km/s) = 2.51316 3.58371 3.09507
# Velocity P-wave (km/s) = 4.04375 5.95489 5.08982
#
# Compressibility (1/GPa) = 0.07112204
#
# Stress axis : x y z
#
# Youngs Moduli (GPa) = 41.86475 113.55705 15.27563
#
# Poissons Ratio (x) = 0.54966 0.18453
# Poissons Ratio (y) = 0.20264 -0.05199
# Poissons Ratio (z) = 0.50573 -0.38648
#
# Static dielectric constant tensor:
#      x y z
#    x 1.614210 0.000000 0.026680 
#    y 0.000000 1.702280 0.000000 
#    z 0.026680 0.000000 1.636880 
# 
# From -- ./inp_files/294060.got.cif
#   From: 2010.05.17/outbox.cif.g08.bks.cpg/sg12_148_cif.got.tgz:294060.got - 2010.06.03 13:09:07.
