data_PCOD9172006
_publ_section_title
;
Structure prediction by ZEFSAII (Michael W. Deem and Ramdas Pophale) SiO2 
 PCOD9172006
Probable space group: C 2/M
;
_chemical_formula_sum "Si O2"
_cell_formula_units_Z 48
_cell_length_a 19.469144
_cell_length_b 15.053853
_cell_length_c 9.565628
_cell_angle_alpha 90.000000
_cell_angle_beta 58.823179
_cell_angle_gamma 90.000000
_cell_volume 2398.642206
_symmetry_space_group_name_H-M "C 2/M"
_symmetry_group_IT_number 12
_symmetry_cell_setting 'monoclinic'
loop_
_space_group_symop_operation_xyz
x,y,z
-x,y,-z
-x,-y,-z
x,-y,z
1/2+x,1/2+y,z
1/2-x,1/2+y,-z
1/2-x,1/2-y,-z
1/2+x,1/2-y,z
loop_
_atom_site_type_symbol
_atom_site_label
_atom_site_fract_x
_atom_site_fract_y
_atom_site_fract_z
Si Si1 0.755098 0.108582 0.623113
Si Si2 0.922370 0.608524 0.666657
Si Si3 0.240768 0.392759 0.320153
Si Si4 0.589210 0.392448 0.362957
Si Si5 0.701642 0.339521 0.016614
Si Si6 0.651595 0.901192 0.980157
O O1 0.748066 0.138070 0.471161
O O2 0.841005 0.132195 0.599720
O O3 0.683467 0.140347 0.801983
O O4 0.750667 0.000000 0.629679
O O5 0.924552 0.500000 0.671594
O O6 0.844651 0.632885 0.657430
O O7 0.000000 0.638249 0.500000
O O8 0.909252 0.639184 0.841265
O O9 0.245832 0.500000 0.315120
O O10 0.304050 0.356122 0.141428
O O11 0.500000 0.365448 0.500000
O O12 0.589719 0.500000 0.349227
O O13 0.619935 0.350448 0.186269
O O14 0.765341 0.408182 0.018212
O O15 0.750000 0.250000 0.000000
O O16 0.621368 0.000000 0.978485
#
# Coordination Sequence:
#
# PCOD9172006 Si02
#       6
#     8   8   8   8   8   8
#     4   8  14  26  46  70  91 116 156 201 246 293
#     4   8  13  22  38  60  84 113 151 190 226 267
#     4   9  16  28  46  67  92 122 158 201 244 290
#     4   9  17  32  53  73  95 126 165 207 248 292
#     4  10  18  29  45  68  93 123 158 192 237 300
#     4   8  14  27  44  59  83 120 155 189 232 288
#
# _framework density 20.011322
#
# number of rings (size 3 to 8) (size 9 to 14) (size 15 to 20)
#    0.000    3.333    0.000    3.500    0.000    0.000 
#    0.000    8.333    0.000    9.000    0.000    9.333 
#    0.000    0.000    0.000    0.000    0.000    0.000 
#
# Total GULP energy -133645.118495 kJ/mol
# GULP energy per Si atom -5568.546604 kJ/mol
# Density = 1.996578 g / cm^3
# Si number density = 20.011322 Si / 1000 Ang^3
#
#
#
# Elastic Constant Matrix: (Units=GPa)
#
#
# Indices 1 2 3 4 5 6 
#
# 1 47.8409 6.9834 85.1663 0.0000 2.3887 0.0000
# 2 6.9834 58.1651 17.5988 0.0000 0.9486 0.0000
# 3 85.1663 17.5988 275.4832 0.0000 3.9751 0.0000
# 4 0.0000 0.0000 0.0000 -3.4726 0.0000 -0.1957
# 5 2.3887 0.9486 3.9751 0.0000 44.9091 0.0000
# 6 0.0000 0.0000 0.0000 -0.1957 0.0000 8.8816
#
#
#
# Elastic Compliance Matrix: (Units=1/GPa)
#
#
# Indices 1 2 3 4 5 6 
#
# 1 0.046640 -0.001247 -0.014322 0.000000 -0.001187 0.000000
# 2 -0.001247 0.017568 -0.000733 0.000000 -0.000240 0.000000
# 3 -0.014322 -0.000733 0.008104 0.000000 0.000060 0.000000
# 4 0.000000 0.000000 0.000000 -0.287611 0.000000 -0.006338
# 5 -0.001187 -0.000240 0.000060 0.000000 0.022330 0.000000
# 6 0.000000 0.000000 0.000000 -0.006338 0.000000 0.112453
#
#
# Mechanical properties :
#
#
# Convention : Reuss Voigt Hill
#
# Bulk Modulus (GPa) = 25.18455 66.77622 45.98039
# Shear Modulus (GPa) = -144.19213 28.17967 -58.00623
#
# Velocity S-wave (km/s) = -8.49775 3.75665 -5.38977
# Velocity P-wave (km/s) = 9.14712 7.22899 3.96305
#
# Compressibility (1/GPa) = 0.03970689
#
# Stress axis : x y z
#
# Youngs Moduli (GPa) = 21.44084 56.92186 123.40086
#
# Poissons Ratio (x) = 0.07098 1.76736
# Poissons Ratio (y) = 0.02674 0.09050
# Poissons Ratio (z) = 0.30708 0.04174
#
# Static dielectric constant tensor:
#      x y z
#    x 1.661020 0.000000 -0.002720 
#    y 0.000000 1.784810 0.000000 
#    z -0.002720 0.000000 1.777940 
# 
# From -- ./inp_files/75057.got.cif
#   From: 2010.05.17/outbox.cif.g08.bks.cpg/sg12_38_cif.got.tgz:75057.got - 2010.06.03 13:09:07.
