data_PCOD9172114
_publ_section_title
;
Structure prediction by ZEFSAII (Michael W. Deem and Ramdas Pophale) SiO2 
 PCOD9172114
Probable space group: C 2/M
;
_chemical_formula_sum "Si O2"
_cell_formula_units_Z 48
_cell_length_a 18.455752
_cell_length_b 15.001216
_cell_length_c 23.278230
_cell_angle_alpha 90.000000
_cell_angle_beta 24.597990
_cell_angle_gamma 90.000000
_cell_volume 2682.632975
_symmetry_space_group_name_H-M "C 2/M"
_symmetry_group_IT_number 12
_symmetry_cell_setting 'monoclinic'
loop_
_space_group_symop_operation_xyz
x,y,z
-x,y,-z
-x,-y,-z
x,-y,z
1/2+x,1/2+y,z
1/2-x,1/2+y,-z
1/2-x,1/2-y,-z
1/2+x,1/2-y,z
loop_
_atom_site_type_symbol
_atom_site_label
_atom_site_fract_x
_atom_site_fract_y
_atom_site_fract_z
Si Si1 0.319098 0.217635 0.156250
Si Si2 0.174997 0.106548 0.153001
Si Si3 0.964582 0.396359 0.155638
Si Si4 0.811982 0.902401 0.550030
Si Si5 0.487951 0.789059 0.442102
Si Si6 0.208207 0.155830 0.559950
O O1 0.241473 0.149645 0.164765
O O2 0.366634 0.164169 0.179802
O O3 0.173524 0.289441 0.276775
O O4 0.500000 0.253139 0.000000
O O5 0.987181 0.148044 0.275256
O O6 0.155765 0.000000 0.172693
O O7 0.330085 0.124680 0.995915
O O8 0.948547 0.500000 0.149095
O O9 0.868319 0.388014 0.285706
O O10 0.927696 0.815744 0.481005
O O11 0.784117 0.905389 0.501816
O O12 0.883273 0.000000 0.516685
O O13 0.500000 0.811986 0.500000
O O14 0.349194 0.849433 0.508432
O O15 0.250000 0.250000 0.500000
#
# Coordination Sequence:
#
# PCOD9172114 Si02
#       6
#     8   8   8   8   8   8
#     4  10  18  29  46  72 105 136 162 194 246 302
#     4  10  18  31  50  72 103 137 167 204 247 297
#     4   9  18  29  46  77 106 129 161 202 251 303
#     4  10  19  32  52  76  99 127 166 208 253 295
#     4  11  21  35  49  71 105 137 169 207 244 296
#     4  10  20  33  48  71 101 138 170 203 245 297
#
# _framework density 17.892869000000001
#
# number of rings (size 3 to 8) (size 9 to 14) (size 15 to 20)
#    0.000    2.000    5.000    1.000    0.000    3.000 
#    0.000    5.000    0.000    2.000    0.000    0.000 
#    0.000    6.667    0.000    0.000    0.000    0.000 
#
# Total GULP energy -133712.388351 kJ/mol
# GULP energy per Si atom -5571.349515 kJ/mol
# Density = 1.785214 g / cm^3
# Si number density = 17.892869 Si / 1000 Ang^3
#
#
#
# Elastic Constant Matrix: (Units=GPa)
#
#
# Indices 1 2 3 4 5 6 
#
# 1 81.0427 -9.5327 30.5487 0.0022 -9.6623 -0.0025
# 2 -9.5327 10.5866 3.6742 -0.0057 -6.2133 -0.0009
# 3 30.5487 3.6742 132.9082 -0.0034 -13.9587 -0.0005
# 4 0.0022 -0.0057 -0.0034 23.7111 -0.0021 -5.2180
# 5 -9.6623 -6.2133 -13.9587 -0.0021 27.2484 -0.0026
# 6 -0.0025 -0.0009 -0.0005 -5.2180 -0.0026 1.9260
#
#
#
# Elastic Compliance Matrix: (Units=1/GPa)
#
#
# Indices 1 2 3 4 5 6 
#
# 1 0.017505 0.022600 -0.003652 0.000035 0.009490 0.000141
# 2 0.022600 0.138254 -0.005141 0.000162 0.036906 0.000582
# 3 -0.003652 -0.005141 0.008715 0.000000 0.001998 -0.000002
# 4 0.000035 0.000162 0.000000 0.104451 0.000084 0.282992
# 5 0.009490 0.036906 0.001998 0.000084 0.049503 0.000326
# 6 0.000141 0.000582 -0.000002 0.282992 0.000326 1.285936
#
#
# Mechanical properties :
#
#
# Convention : Reuss Voigt Hill
#
# Bulk Modulus (GPa) = 5.20587 30.43532 17.82060
# Shear Modulus (GPa) = 3.04733 23.90025 13.47379
#
# Velocity S-wave (km/s) = 1.30644 3.65875 2.74711
# Velocity P-wave (km/s) = 2.27849 5.90722 4.47698
#
# Compressibility (1/GPa) = 0.19209087
#
# Stress axis : x y z
#
# Youngs Moduli (GPa) = 57.12494 7.23305 114.74178
#
# Poissons Ratio (x) = -0.16347 0.41900
# Poissons Ratio (y) = -1.29103 0.58983
# Poissons Ratio (z) = 0.20860 0.03718
#
# Static dielectric constant tensor:
#      x y z
#    x 1.613680 0.000000 -0.001620 
#    y 0.000000 1.619280 0.000000 
#    z -0.001620 0.000000 1.659370 
# 
# From -- ./inp_files/284757.got.cif
#   From: 2010.05.17/outbox.cif.g08.bks.cpg/sg12_143_cif.got.tgz:284757.got - 2010.06.03 13:09:07.
