data_PCOD9172102
_publ_section_title
;
Structure prediction by ZEFSAII (Michael W. Deem and Ramdas Pophale) SiO2 
 PCOD9172102
Probable space group: C 2/M
;
_chemical_formula_sum "Si O2"
_cell_formula_units_Z 64
_cell_length_a 25.017671
_cell_length_b 17.865640
_cell_length_c 9.472784
_cell_angle_alpha 90.000000
_cell_angle_beta 93.935191
_cell_angle_gamma 90.000000
_cell_volume 4223.942055
_symmetry_space_group_name_H-M "C 2/M"
_symmetry_group_IT_number 12
_symmetry_cell_setting 'monoclinic'
loop_
_space_group_symop_operation_xyz
x,y,z
-x,y,-z
-x,-y,-z
x,-y,z
1/2+x,1/2+y,z
1/2-x,1/2+y,-z
1/2-x,1/2-y,-z
1/2+x,1/2-y,z
loop_
_atom_site_type_symbol
_atom_site_label
_atom_site_fract_x
_atom_site_fract_y
_atom_site_fract_z
Si Si1 0.944482 0.411020 0.070347
Si Si2 0.945944 0.411108 0.406601
Si Si3 0.843823 0.324624 0.922201
Si Si4 0.736125 0.586001 0.437934
Si Si5 0.745566 0.413196 0.780429
Si Si6 0.799685 0.236866 0.177614
Si Si7 0.340367 0.176156 0.427101
Si Si8 0.313514 0.725448 0.692118
O O1 0.933550 0.500000 0.050842
O O2 0.950049 0.396977 0.239163
O O3 0.895666 0.364271 0.995459
O O4 0.000000 0.394607 0.000000
O O5 0.936311 0.500000 0.423199
O O6 0.896096 0.365079 0.457635
O O7 0.000000 0.392388 0.500000
O O8 0.804733 0.385077 0.838916
O O9 0.855559 0.258264 0.812017
O O10 0.810218 0.284251 0.040083
O O11 0.727333 0.500000 0.400434
O O12 0.738487 0.592990 0.609203
O O13 0.794080 0.614308 0.393566
O O14 0.691936 0.640778 0.361931
O O15 0.737872 0.500000 0.818090
O O16 0.704815 0.352479 0.840610
O O17 0.843030 0.266609 0.297040
O O18 0.743388 0.257420 0.242792
O O19 0.320442 0.224017 0.555663
#
# Coordination Sequence:
#
# PCOD9172102 Si02
#       8
#     8   8   8   8   8   8   8   8
#     4  10  22  38  51  70 100 131 168 210 249 288
#     4  10  22  36  51  73  99 130 168 211 248 282
#     4  11  20  33  50  69  97 135 167 199 244 291
#     4  10  18  29  46  71 100 129 164 200 234 284
#     4  10  18  29  46  71  99 130 166 195 236 290
#     4  10  18  33  47  68  99 130 163 204 241 284
#     4  11  17  33  50  69  99 133 170 195 241 295
#     4  10  19  31  48  71  96 131 169 198 240 289
#
# _framework density 15.151724
#
# number of rings (size 3 to 8) (size 9 to 14) (size 15 to 20)
#    0.000    1.750    5.000    3.000    1.750    0.000 
#    0.000    3.750    0.000    0.000    0.000    0.000 
#    0.000    6.000    0.000    0.000    0.000    0.000 
#
# Total GULP energy -178232.162006 kJ/mol
# GULP energy per Si atom -5569.755063 kJ/mol
# Density = 1.511724 g / cm^3
# Si number density = 15.151724 Si / 1000 Ang^3
#
#
#
# Elastic Constant Matrix: (Units=GPa)
#
#
# Indices 1 2 3 4 5 6 
#
# 1 64.3525 48.8531 27.0618 0.0000 14.7031 0.0000
# 2 48.8531 123.9577 50.1848 0.0000 8.6108 0.0000
# 3 27.0618 50.1848 77.2617 0.0000 13.1563 0.0000
# 4 0.0000 0.0000 0.0000 22.0636 0.0000 5.0681
# 5 14.7031 8.6108 13.1563 0.0000 24.5565 0.0000
# 6 0.0000 0.0000 0.0000 5.0681 0.0000 21.7384
#
#
#
# Elastic Compliance Matrix: (Units=1/GPa)
#
#
# Indices 1 2 3 4 5 6 
#
# 1 0.025239 -0.008632 -0.001294 0.000000 -0.011392 0.000000
# 2 -0.008632 0.013898 -0.006662 0.000000 0.003864 0.000000
# 3 -0.001294 -0.006662 0.018920 0.000000 -0.007026 0.000000
# 4 0.000000 0.000000 0.000000 0.047888 0.000000 -0.011165
# 5 -0.011392 0.003864 -0.007026 0.000000 0.049952 0.000000
# 6 0.000000 0.000000 0.000000 -0.011165 0.000000 0.048604
#
#
# Mechanical properties :
#
#
# Convention : Reuss Voigt Hill
#
# Bulk Modulus (GPa) = 40.18989 57.53014 48.86001
# Shear Modulus (GPa) = 20.32764 22.96985 21.64875
#
# Velocity S-wave (km/s) = 3.66677 3.89779 3.78404
# Velocity P-wave (km/s) = 6.67154 7.63602 7.17002
#
# Compressibility (1/GPa) = 0.02488188
#
# Stress axis : x y z
#
# Youngs Moduli (GPa) = 39.62094 71.95355 52.85513
#
# Poissons Ratio (x) = 0.62110 0.06837
# Poissons Ratio (y) = 0.34201 0.35211
# Poissons Ratio (z) = 0.05125 0.47934
#
# Static dielectric constant tensor:
#      x y z
#    x 1.487050 0.000000 0.016670 
#    y 0.000000 1.521320 0.000000 
#    z 0.016670 0.000000 1.552810 
# 
# From -- ./inp_files/97742.got.cif
#   From: 2010.05.17/outbox.cif.g08.bks.cpg/sg12_49_cif.got.tgz:97742.got - 2010.06.03 13:09:07.
