data_PCOD9172713
_publ_section_title
;
Structure prediction by ZEFSAII (Michael W. Deem and Ramdas Pophale) SiO2 
 PCOD9172713
Probable space group: C 2/M
;
_chemical_formula_sum "Si O2"
_cell_formula_units_Z 64
_cell_length_a 28.728796
_cell_length_b 9.104673
_cell_length_c 21.384107
_cell_angle_alpha 90.000000
_cell_angle_beta 44.521030
_cell_angle_gamma 90.000000
_cell_volume 3921.903007
_symmetry_space_group_name_H-M "C 2/M"
_symmetry_group_IT_number 12
_symmetry_cell_setting 'monoclinic'
loop_
_space_group_symop_operation_xyz
x,y,z
-x,y,-z
-x,-y,-z
x,-y,z
1/2+x,1/2+y,z
1/2-x,1/2+y,-z
1/2-x,1/2-y,-z
1/2+x,1/2-y,z
loop_
_atom_site_type_symbol
_atom_site_label
_atom_site_fract_x
_atom_site_fract_y
_atom_site_fract_z
Si Si1 0.855410 0.330595 0.481322
Si Si2 0.985986 0.331176 0.694075
Si Si3 0.438910 0.178000 0.604689
Si Si4 0.041712 0.177281 0.897893
Si Si5 0.007560 0.167403 0.796332
Si Si6 0.167506 0.830199 0.621117
Si Si7 0.176710 0.825989 0.358951
Si Si8 0.180666 0.324681 0.738304
O O1 0.836032 0.500000 0.510712
O O2 0.821794 0.263488 0.451749
O O3 0.842228 0.232385 0.554157
O O4 0.934710 0.329278 0.393946
O O5 0.965480 0.500000 0.720200
O O6 0.953536 0.271516 0.661492
O O7 0.974424 0.251505 0.770741
O O8 0.500000 0.219933 0.500000
O O9 0.370969 0.242701 0.643158
O O10 0.436644 0.000000 0.606399
O O11 0.003030 0.224821 0.871660
O O12 0.112737 0.256770 0.829507
O O13 0.052147 0.000000 0.882660
O O14 0.000000 0.206466 0.000000
O O15 0.087131 0.168003 0.707443
O O16 0.984318 0.000000 0.817661
O O17 0.193443 0.753611 0.659152
O O18 0.188395 0.000000 0.594811
O O19 0.255610 0.798247 0.278953
O O20 0.165429 0.000000 0.365751
O O21 0.174052 0.500000 0.734834
#
# Coordination Sequence:
#
# PCOD9172713 Si02
#       8
#     8   8   8   8   8   8   8   8
#     4  10  18  30  47  66  91 127 167 207 249 288
#     4   9  17  29  46  67  93 124 161 205 244 284
#     4  10  19  34  50  67  91 125 171 215 253 290
#     4   9  18  34  56  80 103 127 157 193 237 294
#     4   8  15  27  45  71  99 123 150 189 235 286
#     4   9  17  30  47  67  92 125 166 204 240 285
#     4  11  23  34  45  66  95 128 168 209 247 290
#     4  10  21  35  48  68  99 130 161 197 241 294
#
# _framework density 16.318608000000001
#
# number of rings (size 3 to 8) (size 9 to 14) (size 15 to 20)
#    0.000    2.500    1.250    2.250    0.000    7.000 
#    0.000    0.000    0.000    0.000    0.000    0.875 
#    0.000    0.000    0.000    0.000    0.000    0.000 
#
# Total GULP energy -178431.466045 kJ/mol
# GULP energy per Si atom -5575.983314 kJ/mol
# Density = 1.628147 g / cm^3
# Si number density = 16.318608 Si / 1000 Ang^3
#
#
#
# Elastic Constant Matrix: (Units=GPa)
#
#
# Indices 1 2 3 4 5 6 
#
# 1 139.5171 45.2672 43.8742 0.0011 19.0001 -0.0010
# 2 45.2672 48.0128 24.7472 -0.0022 4.7264 0.0020
# 3 43.8742 24.7472 65.6504 -0.0034 18.5566 0.0000
# 4 0.0011 -0.0022 -0.0034 16.1434 0.0025 4.5488
# 5 19.0001 4.7264 18.5566 0.0025 21.2572 0.0010
# 6 -0.0010 0.0020 0.0000 4.5488 0.0010 28.0780
#
#
#
# Elastic Compliance Matrix: (Units=1/GPa)
#
#
# Indices 1 2 3 4 5 6 
#
# 1 0.011829 -0.009146 -0.002713 -0.000002 -0.006171 0.000002
# 2 -0.009146 0.033139 -0.008772 0.000003 0.008464 -0.000004
# 3 -0.002713 -0.008772 0.025377 0.000007 -0.017778 0.000000
# 4 -0.000002 0.000003 0.000007 0.064908 -0.000012 -0.010515
# 5 -0.006171 0.008464 -0.017778 -0.000012 0.066195 -0.000001
# 6 0.000002 -0.000004 0.000000 -0.010515 -0.000001 0.037319
#
#
# Mechanical properties :
#
#
# Convention : Reuss Voigt Hill
#
# Bulk Modulus (GPa) = 34.38571 53.43972 43.91272
# Shear Modulus (GPa) = 17.25783 22.38185 19.81984
#
# Velocity S-wave (km/s) = 3.25554 3.70747 3.48883
# Velocity P-wave (km/s) = 5.93705 7.15164 6.57246
#
# Compressibility (1/GPa) = 0.02908185
#
# Stress axis : x y z
#
# Youngs Moduli (GPa) = 84.53970 30.17572 39.40574
#
# Poissons Ratio (x) = 0.27600 0.10692
# Poissons Ratio (y) = 0.77324 0.34566
# Poissons Ratio (z) = 0.22938 0.26470
#
# Static dielectric constant tensor:
#      x y z
#    x 1.564490 0.000000 -0.002940 
#    y 0.000000 1.553040 0.000000 
#    z -0.002940 0.000000 1.541710 
# 
# From -- ./inp_files/326846.got.cif
#   From: 2010.05.17/outbox.cif.g08.bks.cpg/sg12_164_cif.got.tgz:326846.got - 2010.06.03 13:09:07.
