data_PCOD9172526
_publ_section_title
;
Structure prediction by ZEFSAII (Michael W. Deem and Ramdas Pophale) SiO2 
 PCOD9172526
Probable space group: C 2/M
;
_chemical_formula_sum "Si O2"
_cell_formula_units_Z 44
_cell_length_a 26.309190
_cell_length_b 9.028963
_cell_length_c 20.971265
_cell_angle_alpha 90.000000
_cell_angle_beta 157.909467
_cell_angle_gamma 90.000000
_cell_volume 1873.440985
_symmetry_space_group_name_H-M "C 2/M"
_symmetry_group_IT_number 12
_symmetry_cell_setting 'monoclinic'
loop_
_space_group_symop_operation_xyz
x,y,z
-x,y,-z
-x,-y,-z
x,-y,z
1/2+x,1/2+y,z
1/2-x,1/2+y,-z
1/2-x,1/2-y,-z
1/2+x,1/2-y,z
loop_
_atom_site_type_symbol
_atom_site_label
_atom_site_fract_x
_atom_site_fract_y
_atom_site_fract_z
Si Si1 0.224932 0.666273 0.665374
Si Si2 0.501655 0.825689 0.690045
Si Si3 0.706433 0.666104 0.842033
Si Si4 0.082012 0.822253 0.002830
Si Si5 0.378650 0.827052 0.681222
Si Si6 0.500000 0.750184 0.500000
O O1 0.264564 0.500000 0.691847
O O2 0.137231 0.733120 0.505381
O O3 0.351181 0.730282 0.852386
O O4 0.107967 0.659833 0.583986
O O5 0.630557 0.739807 0.813356
O O6 0.484146 0.816615 0.744934
O O7 0.512303 0.000000 0.684785
O O8 0.756558 0.500000 0.913307
O O9 0.814300 0.768864 0.931602
O O10 0.586525 0.658184 0.650433
O O11 0.075280 0.000000 0.997058
O O12 0.940573 0.753574 0.814976
O O13 0.250000 0.750000 0.500000
O O14 0.354025 0.000000 0.665748
#
# Coordination Sequence:
#
# PCOD9172526 Si02
#       6
#     8   8   8   8   8   4
#     4   8  14  28  52  80 107 138 178 218 257 308
#     4   9  19  36  57  81 109 143 182 221 263 315
#     4  10  18  29  50  82 117 147 176 215 264 317
#     4  10  20  35  57  83 112 145 179 218 264 317
#     4  11  24  42  61  78 102 139 182 228 275 323
#     4   8  14  24  42  74 115 150 173 204 259 318
#
# _framework density 23.486196
#
# number of rings (size 3 to 8) (size 9 to 14) (size 15 to 20)
#    0.000    2.545    0.000    2.182    0.000    6.545 
#    0.000    1.818    0.000    5.455    0.000    0.000 
#    0.000    0.000    0.000    0.000    0.000    0.000 
#
# Total GULP energy -122797.602079 kJ/mol
# GULP energy per Si atom -5581.709185 kJ/mol
# Density = 2.343274 g / cm^3
# Si number density = 23.486196 Si / 1000 Ang^3
#
#
#
# Elastic Constant Matrix: (Units=GPa)
#
#
# Indices 1 2 3 4 5 6 
#
# 1 75.1114 29.2170 31.9814 0.0000 -10.3531 0.0000
# 2 29.2170 91.8379 34.6167 0.0000 -13.9154 0.0000
# 3 31.9814 34.6167 172.8350 0.0000 -41.5818 0.0000
# 4 0.0000 0.0000 0.0000 33.3994 0.0000 -2.4328
# 5 -10.3531 -13.9154 -41.5818 0.0000 44.0213 0.0000
# 6 0.0000 0.0000 0.0000 -2.4328 0.0000 15.9222
#
#
#
# Elastic Compliance Matrix: (Units=1/GPa)
#
#
# Indices 1 2 3 4 5 6 
#
# 1 0.015867 -0.004227 -0.001958 0.000000 0.000546 0.000000
# 2 -0.004227 0.013033 -0.001393 0.000000 0.001810 0.000000
# 3 -0.001958 -0.001393 0.008037 0.000000 0.006691 0.000000
# 4 0.000000 0.000000 0.000000 0.030278 0.000000 0.004626
# 5 0.000546 0.001810 0.006691 0.000000 0.029737 0.000000
# 6 0.000000 0.000000 0.000000 0.004626 0.000000 0.063512
#
#
# Mechanical properties :
#
#
# Convention : Reuss Voigt Hill
#
# Bulk Modulus (GPa) = 45.91177 59.04606 52.47891
# Shear Modulus (GPa) = 27.34050 34.93317 31.13683
#
# Velocity S-wave (km/s) = 3.41561 3.86086 3.64504
# Velocity P-wave (km/s) = 5.92841 6.71344 6.33310
#
# Compressibility (1/GPa) = 0.02178091
#
# Stress axis : x y z
#
# Youngs Moduli (GPa) = 63.02487 76.72991 124.42745
#
# Poissons Ratio (x) = 0.32434 0.24363
# Poissons Ratio (y) = 0.26641 0.17328
# Poissons Ratio (z) = 0.12340 0.10686
#
# Static dielectric constant tensor:
#      x y z
#    x 1.914320 0.000000 0.019740 
#    y 0.000000 1.838310 0.000000 
#    z 0.019740 0.000000 1.995620 
# 
# From -- ./inp_files/353636.got.cif
#   From: 2010.05.17/outbox.cif.g08.bks.cpg/sg12_177_cif.got.tgz:353636.got - 2010.06.03 13:09:07.
