data_PCOD9172500
_publ_section_title
;
Structure prediction by ZEFSAII (Michael W. Deem and Ramdas Pophale) SiO2 
 PCOD9172500
Probable space group: C 2/M
;
_chemical_formula_sum "Si O2"
_cell_formula_units_Z 48
_cell_length_a 29.924999
_cell_length_b 14.799946
_cell_length_c 19.649980
_cell_angle_alpha 90.000000
_cell_angle_beta 164.213727
_cell_angle_gamma 90.000000
_cell_volume 2367.579958
_symmetry_space_group_name_H-M "C 2/M"
_symmetry_group_IT_number 12
_symmetry_cell_setting 'monoclinic'
loop_
_space_group_symop_operation_xyz
x,y,z
-x,y,-z
-x,-y,-z
x,-y,z
1/2+x,1/2+y,z
1/2-x,1/2+y,-z
1/2-x,1/2-y,-z
1/2+x,1/2-y,z
loop_
_atom_site_type_symbol
_atom_site_label
_atom_site_fract_x
_atom_site_fract_y
_atom_site_fract_z
Si Si1 0.826973 0.102167 0.229975
Si Si2 0.388709 0.389870 0.771005
Si Si3 0.467589 0.110597 0.708094
Si Si4 0.907465 0.110213 0.061996
Si Si5 0.428383 0.892822 0.494352
Si Si6 0.783377 0.846764 0.016391
O O1 0.819137 0.096478 0.136537
O O2 0.000000 0.149575 0.500000
O O3 0.834950 0.000000 0.270227
O O4 0.651800 0.141825 0.997491
O O5 0.390960 0.500000 0.776924
O O6 0.198267 0.361384 0.497187
O O7 0.500000 0.361533 0.000000
O O8 0.464608 0.364053 0.809399
O O9 0.439613 0.137979 0.588878
O O10 0.475082 0.000000 0.720716
O O11 0.732793 0.144232 0.776850
O O12 0.908490 0.000000 0.068754
O O13 0.917205 0.146333 0.153309
O O14 0.402951 0.000000 0.459219
O O15 0.608972 0.877582 0.729510
O O16 0.750000 0.750000 0.000000
#
# Coordination Sequence:
#
# PCOD9172500 Si02
#       6
#     8   8   8   8   8   8
#     4   9  18  33  52  68  87 127 178 216 242 275
#     4   9  14  23  44  78 110 127 148 192 253 314
#     4   8  13  24  44  73 102 123 151 196 247 296
#     4  10  18  29  50  78 104 127 153 197 259 312
#     4   9  16  29  50  73  98 123 151 195 253 308
#     4  11  22  32  44  67 101 132 165 204 248 298
#
# _framework density 20.273865000000001
#
# number of rings (size 3 to 8) (size 9 to 14) (size 15 to 20)
#    0.000    2.667    1.667    3.000    0.000    2.667 
#    0.000    0.000    0.000    5.000    0.000    5.833 
#    0.000    0.000    0.000    0.000    0.000    0.667 
#
# Total GULP energy -133652.627116 kJ/mol
# GULP energy per Si atom -5568.859463 kJ/mol
# Density = 2.022772 g / cm^3
# Si number density = 20.273865 Si / 1000 Ang^3
#
#
#
# Elastic Constant Matrix: (Units=GPa)
#
#
# Indices 1 2 3 4 5 6 
#
# 1 139.7837 4.2159 61.6484 -0.0002 42.2934 0.0024
# 2 4.2159 32.1419 -0.2507 -0.0001 -6.2356 0.0033
# 3 61.6484 -0.2507 143.9513 -0.0017 28.3589 0.0045
# 4 -0.0002 -0.0001 -0.0017 -8.9677 -0.0005 12.1481
# 5 42.2934 -6.2356 28.3589 -0.0005 26.0010 0.0024
# 6 0.0024 0.0033 0.0045 12.1481 0.0024 -2.6811
#
#
#
# Elastic Compliance Matrix: (Units=1/GPa)
#
#
# Indices 1 2 3 4 5 6 
#
# 1 0.015905 -0.007073 -0.001774 0.000005 -0.025633 0.000003
# 2 -0.007073 0.036185 -0.001126 -0.000015 0.021411 -0.000010
# 3 -0.001774 -0.001126 0.009157 -0.000001 -0.007371 0.000000
# 4 0.000005 -0.000015 -0.000001 0.021704 -0.000019 0.098339
# 5 -0.025633 0.021411 -0.007371 -0.000019 0.093329 -0.000012
# 6 0.000003 -0.000010 0.000000 0.098339 -0.000012 0.072593
#
#
# Mechanical properties :
#
#
# Convention : Reuss Voigt Hill
#
# Bulk Modulus (GPa) = 24.21256 49.67820 36.94538
# Shear Modulus (GPa) = 17.69379 19.55467 18.62423
#
# Velocity S-wave (km/s) = 2.95742 3.10905 3.03418
# Velocity P-wave (km/s) = 4.86112 6.11923 5.52610
#
# Compressibility (1/GPa) = 0.04130087
#
# Stress axis : x y z
#
# Youngs Moduli (GPa) = 62.87278 27.63606 109.20832
#
# Poissons Ratio (x) = 0.19546 0.19375
# Poissons Ratio (y) = 0.44469 0.12296
# Poissons Ratio (z) = 0.11154 0.03112
#
# Static dielectric constant tensor:
#      x y z
#    x 1.740440 0.000000 0.031130 
#    y 0.000000 1.833610 -0.000010 
#    z 0.031130 -0.000010 1.864480 
# 
# From -- ./inp_files/293765.got.cif
#   From: 2010.05.17/outbox.cif.g08.bks.cpg/sg12_147_cif.got.tgz:293765.got - 2010.06.03 13:09:07.
