data_PCOD9172712
_publ_section_title
;
Structure prediction by ZEFSAII (Michael W. Deem and Ramdas Pophale) SiO2 
 PCOD9172712
Probable space group: C 2/M
;
_chemical_formula_sum "Si O2"
_cell_formula_units_Z 56
_cell_length_a 15.529018
_cell_length_b 29.088617
_cell_length_c 7.060552
_cell_angle_alpha 90.000000
_cell_angle_beta 50.413192
_cell_angle_gamma 90.000000
_cell_volume 2457.924466
_symmetry_space_group_name_H-M "C 2/M"
_symmetry_group_IT_number 12
_symmetry_cell_setting 'monoclinic'
loop_
_space_group_symop_operation_xyz
x,y,z
-x,y,-z
-x,-y,-z
x,-y,z
1/2+x,1/2+y,z
1/2-x,1/2+y,-z
1/2-x,1/2-y,-z
1/2+x,1/2-y,z
loop_
_atom_site_type_symbol
_atom_site_label
_atom_site_fract_x
_atom_site_fract_y
_atom_site_fract_z
Si Si1 0.308475 0.633569 0.959445
Si Si2 0.663618 0.947931 0.106201
Si Si3 0.543415 0.670236 0.724476
Si Si4 0.655282 0.788515 0.117447
Si Si5 0.232907 0.638044 0.510952
Si Si6 0.083403 0.276951 0.648110
Si Si7 0.083547 0.553140 0.658584
O O1 0.431320 0.656088 0.768033
O O2 0.274024 0.583031 0.941749
O O3 0.217956 0.665205 0.983450
O O4 0.273888 0.636883 0.231705
O O5 0.548371 0.934584 0.160178
O O6 0.624239 0.947173 0.381930
O O7 0.689067 0.000000 0.017363
O O8 0.649760 0.637970 0.543118
O O9 0.595126 0.721762 0.640669
O O10 0.500000 0.666228 0.000000
O O11 0.607818 0.789724 0.395918
O O12 0.549651 0.780836 0.131893
O O13 0.750000 0.750000 0.000000
O O14 0.162397 0.685349 0.636195
O O15 0.157099 0.593298 0.647924
O O16 0.096636 0.500000 0.706390
#
# Coordination Sequence:
#
# PCOD9172712 Si02
#       7
#     8   8   8   8   8   8   8
#     4   9  16  27  41  59  87 116 144 180 222 267
#     4   8  13  22  39  61  83 109 141 182 227 266
#     4  10  19  30  42  59  90 128 152 177 212 260
#     4  10  18  30  47  66  87 112 149 189 229 266
#     4   9  17  27  40  60  84 118 152 173 213 270
#     4  10  19  30  46  64  87 121 150 184 227 259
#     4   8  13  23  39  59  83 109 142 183 224 266
#
# _framework density 22.783450999999999
#
# number of rings (size 3 to 8) (size 9 to 14) (size 15 to 20)
#    0.000    2.857    1.429    2.143    0.000    3.429 
#    0.000    0.714    0.000    4.286    0.000    0.000 
#    0.000    4.000    0.000    0.143    0.000    0.000 
#
# Total GULP energy -156221.039962 kJ/mol
# GULP energy per Si atom -5579.322856 kJ/mol
# Density = 2.273159 g / cm^3
# Si number density = 22.783451 Si / 1000 Ang^3
#
#
#
# Elastic Constant Matrix: (Units=GPa)
#
#
# Indices 1 2 3 4 5 6 
#
# 1 103.2770 60.3810 34.3468 0.0000 -46.1541 0.0000
# 2 60.3810 130.4355 46.6132 0.0000 -45.6569 0.0000
# 3 34.3468 46.6132 93.9068 0.0000 -8.0412 0.0000
# 4 0.0000 0.0000 0.0000 18.4698 0.0000 -5.2777
# 5 -46.1541 -45.6569 -8.0412 0.0000 45.2928 0.0000
# 6 0.0000 0.0000 0.0000 -5.2777 0.0000 20.1658
#
#
#
# Elastic Compliance Matrix: (Units=1/GPa)
#
#
# Indices 1 2 3 4 5 6 
#
# 1 0.020525 -0.000890 -0.005434 0.000000 0.019053 0.000000
# 2 -0.000890 0.014663 -0.005854 0.000000 0.012835 0.000000
# 3 -0.005434 -0.005854 0.014787 0.000000 -0.008813 0.000000
# 4 0.000000 0.000000 0.000000 0.058519 0.000000 0.015315
# 5 0.019053 0.012835 -0.008813 0.000000 0.052867 0.000000
# 6 0.000000 0.000000 0.000000 0.015315 0.000000 0.053597
#
#
# Mechanical properties :
#
#
# Convention : Reuss Voigt Hill
#
# Bulk Modulus (GPa) = 39.03201 67.81125 53.42163
# Shear Modulus (GPa) = 20.17311 29.20425 24.68868
#
# Velocity S-wave (km/s) = 2.97884 3.58413 3.29541
# Velocity P-wave (km/s) = 5.38519 6.85245 6.16264
#
# Compressibility (1/GPa) = 0.02562000
#
# Stress axis : x y z
#
# Youngs Moduli (GPa) = 48.72069 68.19741 67.62534
#
# Poissons Ratio (x) = 0.06072 0.36745
# Poissons Ratio (y) = 0.04338 0.39587
# Poissons Ratio (z) = 0.26473 0.39922
#
# Static dielectric constant tensor:
#      x y z
#    x 1.893980 0.000000 0.069640 
#    y 0.000000 1.884050 0.000000 
#    z 0.069640 0.000000 1.891510 
# 
# From -- ./inp_files/80403.got.cif
#   From: 2010.05.17/outbox.cif.g08.bks.cpg/sg12_41_cif.got.tgz:80403.got - 2010.06.03 13:09:07.
