data_PCOD9172167
_publ_section_title
;
Structure prediction by ZEFSAII (Michael W. Deem and Ramdas Pophale) SiO2 
 PCOD9172167
Probable space group: C 2/M
;
_chemical_formula_sum "Si O2"
_cell_formula_units_Z 40
_cell_length_a 20.419998
_cell_length_b 14.154702
_cell_length_c 8.096307
_cell_angle_alpha 90.000000
_cell_angle_beta 56.639066
_cell_angle_gamma 90.000000
_cell_volume 1954.545750
_symmetry_space_group_name_H-M "C 2/M"
_symmetry_group_IT_number 12
_symmetry_cell_setting 'monoclinic'
loop_
_space_group_symop_operation_xyz
x,y,z
-x,y,-z
-x,-y,-z
x,-y,z
1/2+x,1/2+y,z
1/2-x,1/2+y,-z
1/2-x,1/2-y,-z
1/2+x,1/2-y,z
loop_
_atom_site_type_symbol
_atom_site_label
_atom_site_fract_x
_atom_site_fract_y
_atom_site_fract_z
Si Si1 0.315969 0.728826 0.548946
Si Si2 0.593069 0.387707 0.838643
Si Si3 0.899766 0.391935 0.300297
Si Si4 0.832814 0.720093 0.078598
Si Si5 0.055442 0.607048 0.265600
O O1 0.250000 0.750000 0.500000
O O2 0.374992 0.653398 0.382236
O O3 0.361109 0.827303 0.495359
O O4 0.260657 0.704764 0.779838
O O5 0.606647 0.500000 0.829055
O O6 0.640877 0.325802 0.906961
O O7 0.500000 0.370223 0.000000
O O8 0.874606 0.500000 0.345542
O O9 0.870047 0.345984 0.172398
O O10 0.992188 0.387765 0.203880
O O11 0.877462 0.682837 0.857096
O O12 0.087306 0.500000 0.226857
O O13 0.000000 0.620129 0.500000
#
# Coordination Sequence:
#
# PCOD9172167 Si02
#       5
#     8   8   8   8   8
#     4   8  17  27  42  70  94 114 144 184 226 262
#     4   9  16  26  42  65  92 118 144 179 219 259
#     4   9  16  29  49  69  92 119 149 185 224 272
#     4  10  18  29  47  70  92 117 150 187 225 268
#     4  10  20  32  47  68  92 119 151 189 232 272
#
# _framework density 20.465114
#
# number of rings (size 3 to 8) (size 9 to 14) (size 15 to 20)
#    0.000    3.200    0.000    3.600    0.000    9.600 
#    0.000    1.000    0.000    0.600    0.000    0.000 
#    0.000    0.000    0.000    0.000    0.000    0.000 
#
# Total GULP energy -111375.250999 kJ/mol
# GULP energy per Si atom -5568.762550 kJ/mol
# Density = 2.041853 g / cm^3
# Si number density = 20.465114 Si / 1000 Ang^3
#
#
#
# Elastic Constant Matrix: (Units=GPa)
#
#
# Indices 1 2 3 4 5 6 
#
# 1 41.5417 22.9606 17.2295 0.0000 -8.4678 0.0000
# 2 22.9606 152.1018 72.3083 0.0000 -23.3062 0.0000
# 3 17.2295 72.3083 107.0335 0.0000 -33.5586 0.0000
# 4 0.0000 0.0000 0.0000 -166.9778 0.0000 118.9150
# 5 -8.4678 -23.3062 -33.5586 0.0000 31.8720 0.0000
# 6 0.0000 0.0000 0.0000 118.9150 0.0000 -70.2996
#
#
#
# Elastic Compliance Matrix: (Units=1/GPa)
#
#
# Indices 1 2 3 4 5 6 
#
# 1 0.026949 -0.002932 -0.001172 0.000000 0.003783 0.000000
# 2 -0.002932 0.010006 -0.006326 0.000000 -0.000123 0.000000
# 3 -0.001172 -0.006326 0.018298 0.000000 0.014329 0.000000
# 4 0.000000 0.000000 0.000000 0.029263 0.000000 0.049500
# 5 0.003783 -0.000123 0.014329 0.000000 0.047377 0.000000
# 6 0.000000 0.000000 0.000000 0.049500 0.000000 0.069507
#
#
# Mechanical properties :
#
#
# Convention : Reuss Voigt Hill
#
# Bulk Modulus (GPa) = 29.07484 58.40819 43.74152
# Shear Modulus (GPa) = 21.39268 -28.53584 -3.57158
#
# Velocity S-wave (km/s) = 3.23666 -3.73817 -1.32249
# Velocity P-wave (km/s) = 5.31091 3.15760 4.36899
#
# Compressibility (1/GPa) = 0.03439400
#
# Stress axis : x y z
#
# Youngs Moduli (GPa) = 37.10647 99.94359 54.65130
#
# Poissons Ratio (x) = 0.29299 0.06403
# Poissons Ratio (y) = 0.10878 0.34574
# Poissons Ratio (z) = 0.04348 0.63227
#
# Static dielectric constant tensor:
#      x y z
#    x 1.925660 0.000000 0.117610 
#    y 0.000000 1.715410 0.000000 
#    z 0.117610 0.000000 1.933480 
# 
# From -- ./inp_files/85508.got.cif
#   From: 2010.05.17/outbox.cif.g08.bks.cpg/sg12_43_cif.got.tgz:85508.got - 2010.06.03 13:09:07.
