data_PCOD9172101
_publ_section_title
;
Structure prediction by ZEFSAII (Michael W. Deem and Ramdas Pophale) SiO2 
 PCOD9172101
Probable space group: C 2/M
;
_chemical_formula_sum "Si O2"
_cell_formula_units_Z 56
_cell_length_a 19.168652
_cell_length_b 19.002002
_cell_length_c 7.922027
_cell_angle_alpha 90.000000
_cell_angle_beta 108.051800
_cell_angle_gamma 90.000000
_cell_volume 2743.505306
_symmetry_space_group_name_H-M "C 2/M"
_symmetry_group_IT_number 12
_symmetry_cell_setting 'monoclinic'
loop_
_space_group_symop_operation_xyz
x,y,z
-x,y,-z
-x,-y,-z
x,-y,z
1/2+x,1/2+y,z
1/2-x,1/2+y,-z
1/2-x,1/2-y,-z
1/2+x,1/2-y,z
loop_
_atom_site_type_symbol
_atom_site_label
_atom_site_fract_x
_atom_site_fract_y
_atom_site_fract_z
Si Si1 0.181331 0.703451 0.388225
Si Si2 0.955674 0.832376 0.138001
Si Si3 0.599488 0.328284 0.426585
Si Si4 0.226201 0.080982 0.645385
Si Si5 0.668241 0.778285 0.977447
Si Si6 0.358927 0.422061 0.857102
Si Si7 0.706311 0.076097 0.927943
O O1 0.250000 0.750000 0.500000
O O2 0.116911 0.744641 0.439298
O O3 0.213117 0.623867 0.420309
O O4 0.164195 0.713270 0.176893
O O5 0.013371 0.839802 0.331415
O O6 0.893324 0.775596 0.126265
O O7 0.913563 0.902816 0.050515
O O8 0.000000 0.810471 0.000000
O O9 0.650791 0.373222 0.591446
O O10 0.630700 0.363088 0.275632
O O11 0.258578 0.078579 0.858073
O O12 0.215175 0.000000 0.582151
O O13 0.659247 0.853667 0.881821
O O14 0.750000 0.750000 0.000000
O O15 0.376972 0.500000 0.808196
O O16 0.275979 0.419760 0.857978
O O17 0.669717 0.000000 0.878192
#
# Coordination Sequence:
#
# PCOD9172101 Si02
#       7
#     8   8   8   8   8   8   8
#     4   9  17  29  48  68  92 123 161 200 234 272
#     4  10  19  30  47  72  98 127 159 195 249 280
#     4  10  18  31  46  69  97 126 159 200 238 286
#     4   9  18  30  47  69  96 130 160 192 238 288
#     4  11  17  31  53  70  92 128 167 201 234 285
#     4  10  18  29  46  70  96 124 159 193 236 286
#     4   9  18  31  48  71  97 125 160 202 240 279
#
# _framework density 20.411843999999999
#
# number of rings (size 3 to 8) (size 9 to 14) (size 15 to 20)
#    0.000    2.286    4.286    0.429    0.000    3.143 
#    0.000    0.714    0.000    3.857    0.000    0.000 
#    0.000    0.000    0.000   25.429    0.000    2.571 
#
# Total GULP energy -156065.510888 kJ/mol
# GULP energy per Si atom -5573.768246 kJ/mol
# Density = 2.036539 g / cm^3
# Si number density = 20.411844 Si / 1000 Ang^3
#
#
#
# Elastic Constant Matrix: (Units=GPa)
#
#
# Indices 1 2 3 4 5 6 
#
# 1 30.5074 35.5713 8.5283 0.0000 5.2916 0.0000
# 2 35.5713 139.3227 15.9085 0.0000 0.3423 0.0000
# 3 8.5283 15.9085 41.2474 0.0000 0.6676 0.0000
# 4 0.0000 0.0000 0.0000 15.1713 0.0000 0.2273
# 5 5.2916 0.3423 0.6676 0.0000 18.0925 0.0000
# 6 0.0000 0.0000 0.0000 0.2273 0.0000 21.8038
#
#
#
# Elastic Compliance Matrix: (Units=1/GPa)
#
#
# Indices 1 2 3 4 5 6 
#
# 1 0.051381 -0.012445 -0.005588 0.000000 -0.014586 0.000000
# 2 -0.012445 0.010522 -0.001542 0.000000 0.003497 0.000000
# 3 -0.005588 -0.001542 0.025983 0.000000 0.000705 0.000000
# 4 0.000000 0.000000 0.000000 0.065924 0.000000 -0.000687
# 5 -0.014586 0.003497 0.000705 0.000000 0.059445 0.000000
# 6 0.000000 0.000000 0.000000 -0.000687 0.000000 0.045871
#
#
# Mechanical properties :
#
#
# Convention : Reuss Voigt Hill
#
# Bulk Modulus (GPa) = 20.51801 36.78817 28.65309
# Shear Modulus (GPa) = 15.89720 21.08483 18.49101
#
# Velocity S-wave (km/s) = 2.79377 3.21747 3.01308
# Velocity P-wave (km/s) = 4.52556 5.64490 5.11594
#
# Compressibility (1/GPa) = 0.04873766
#
# Stress axis : x y z
#
# Youngs Moduli (GPa) = 19.46236 95.03592 38.48734
#
# Poissons Ratio (x) = 1.18268 0.21506
# Poissons Ratio (y) = 0.24220 0.05934
# Poissons Ratio (z) = 0.10875 0.14653
#
# Static dielectric constant tensor:
#      x y z
#    x 1.754820 0.000000 -0.020150 
#    y 0.000000 1.794340 0.000000 
#    z -0.020150 0.000000 1.831870 
# 
# From -- ./inp_files/87368.got.cif
#   From: 2010.05.17/outbox.cif.g08.bks.cpg/sg12_44_cif.got.tgz:87368.got - 2010.06.03 13:09:07.
