data_PCOD9172238
_publ_section_title
;
Structure prediction by ZEFSAII (Michael W. Deem and Ramdas Pophale) SiO2 
 PCOD9172238
Probable space group: C 2/M
;
_chemical_formula_sum "Si O2"
_cell_formula_units_Z 64
_cell_length_a 29.270947
_cell_length_b 8.541520
_cell_length_c 13.309236
_cell_angle_alpha 90.000000
_cell_angle_beta 54.444622
_cell_angle_gamma 90.000000
_cell_volume 2707.144127
_symmetry_space_group_name_H-M "C 2/M"
_symmetry_group_IT_number 12
_symmetry_cell_setting 'monoclinic'
loop_
_space_group_symop_operation_xyz
x,y,z
-x,y,-z
-x,-y,-z
x,-y,z
1/2+x,1/2+y,z
1/2-x,1/2+y,-z
1/2-x,1/2-y,-z
1/2+x,1/2-y,z
loop_
_atom_site_type_symbol
_atom_site_label
_atom_site_fract_x
_atom_site_fract_y
_atom_site_fract_z
Si Si1 0.237651 0.184138 0.208839
Si Si2 0.456516 0.315622 0.645429
Si Si3 0.632863 0.675261 0.479405
Si Si4 0.031089 0.683542 0.716318
Si Si5 0.857140 0.818041 0.032900
Si Si6 0.693306 0.674389 0.611999
Si Si7 0.341800 0.819381 0.836772
Si Si8 0.409058 0.817753 0.154384
O O1 0.186111 0.230382 0.347249
O O2 0.293670 0.282734 0.153210
O O3 0.209386 0.213761 0.136863
O O4 0.249684 0.000000 0.208326
O O5 0.500000 0.279529 0.500000
O O6 0.445868 0.500000 0.658800
O O7 0.481423 0.271997 0.722901
O O8 0.398308 0.225659 0.704536
O O9 0.614280 0.500000 0.466886
O O10 0.581733 0.788407 0.571346
O O11 0.658037 0.652225 0.556845
O O12 0.018505 0.500000 0.739379
O O13 0.050861 0.735270 0.803669
O O14 0.904415 0.770569 0.054116
O O15 0.862809 0.000000 0.001098
O O16 0.857047 0.715725 0.932270
O O17 0.700360 0.500000 0.649141
O O18 0.750000 0.750000 0.500000
O O19 0.654433 0.792034 0.724023
O O20 0.327179 0.000000 0.841429
O O21 0.420714 0.000000 0.121815
#
# Coordination Sequence:
#
# PCOD9172238 Si02
#       8
#     8   8   8   8   8   8   8   8
#     4  11  22  39  62  90 126 166 208 255 310 367
#     4  11  24  43  68  97 129 163 200 248 307 366
#     4   9  19  33  52  80 117 158 197 242 296 355
#     4  10  21  37  61  92 126 163 205 256 310 366
#     4  12  25  42  64  90 121 162 211 257 308 368
#     4  10  18  29  47  75 111 153 200 247 297 353
#     4  12  26  44  65  91 124 160 204 257 309 366
#     4  10  21  38  58  84 120 161 205 254 309 366
#
# _framework density 23.641151000000001
#
# number of rings (size 3 to 8) (size 9 to 14) (size 15 to 20)
#    0.000    1.375    0.000    6.000    0.000    8.000 
#    0.000    0.625    0.000    3.750    0.000    0.000 
#    0.000    0.000    0.000    0.000    0.000    0.000 
#
# Total GULP energy -178810.684892 kJ/mol
# GULP energy per Si atom -5587.833903 kJ/mol
# Density = 2.358734 g / cm^3
# Si number density = 23.641151 Si / 1000 Ang^3
#
#
#
# Elastic Constant Matrix: (Units=GPa)
#
#
# Indices 1 2 3 4 5 6 
#
# 1 107.1286 21.3369 6.6037 0.0000 17.5216 0.0000
# 2 21.3369 51.7749 -13.9386 0.0000 -3.4807 0.0000
# 3 6.6037 -13.9386 37.2605 0.0000 13.1589 0.0000
# 4 0.0000 0.0000 0.0000 26.5868 0.0000 6.3071
# 5 17.5216 -3.4807 13.1589 0.0000 29.3600 0.0000
# 6 0.0000 0.0000 0.0000 6.3071 0.0000 27.2442
#
#
#
# Elastic Compliance Matrix: (Units=1/GPa)
#
#
# Indices 1 2 3 4 5 6 
#
# 1 0.011721 -0.005780 -0.001815 0.000000 -0.006867 0.000000
# 2 -0.005780 0.024367 0.009387 0.000000 0.002131 0.000000
# 3 -0.001815 0.009387 0.035518 0.000000 -0.013723 0.000000
# 4 0.000000 0.000000 0.000000 0.039798 0.000000 -0.009213
# 5 -0.006867 0.002131 -0.013723 0.000000 0.044561 0.000000
# 6 0.000000 0.000000 0.000000 -0.009213 0.000000 0.038838
#
#
# Mechanical properties :
#
#
# Convention : Reuss Voigt Hill
#
# Bulk Modulus (GPa) = 13.29969 24.90756 19.10362
# Shear Modulus (GPa) = 23.11799 28.78233 25.95016
#
# Velocity S-wave (km/s) = 3.13049 3.49301 3.31670
# Velocity P-wave (km/s) = 4.32486 5.17945 4.77133
#
# Compressibility (1/GPa) = 0.07518971
#
# Stress axis : x y z
#
# Youngs Moduli (GPa) = 85.31817 41.03919 28.15505
#
# Poissons Ratio (x) = 0.23722 0.05109
# Poissons Ratio (y) = 0.49317 -0.26429
# Poissons Ratio (z) = 0.15481 -0.38524
#
# Static dielectric constant tensor:
#      x y z
#    x 1.925640 0.000000 0.017950 
#    y 0.000000 1.821130 0.000000 
#    z 0.017950 0.000000 2.070720 
# 
# From -- ./inp_files/249787.got.cif
#   From: 2010.05.17/outbox.cif.g08.bks.cpg/sg12_125_cif.got.tgz:249787.got - 2010.06.03 13:09:07.
