data_PCOD9172889
_publ_section_title
;
Structure prediction by ZEFSAII (Michael W. Deem and Ramdas Pophale) SiO2 
 PCOD9172889
Probable space group: C 2/M
;
_chemical_formula_sum "Si O2"
_cell_formula_units_Z 64
_cell_length_a 16.417104
_cell_length_b 21.634765
_cell_length_c 18.550488
_cell_angle_alpha 90.000000
_cell_angle_beta 148.478537
_cell_angle_gamma 90.000000
_cell_volume 3444.724876
_symmetry_space_group_name_H-M "C 2/M"
_symmetry_group_IT_number 12
_symmetry_cell_setting 'monoclinic'
loop_
_space_group_symop_operation_xyz
x,y,z
-x,y,-z
-x,-y,-z
x,-y,z
1/2+x,1/2+y,z
1/2-x,1/2+y,-z
1/2-x,1/2-y,-z
1/2+x,1/2-y,z
loop_
_atom_site_type_symbol
_atom_site_label
_atom_site_fract_x
_atom_site_fract_y
_atom_site_fract_z
Si Si1 0.078932 0.129469 0.131441
Si Si2 0.486629 0.795757 0.198249
Si Si3 0.859673 0.269765 0.839041
Si Si4 0.587612 0.380954 0.354546
Si Si5 0.980011 0.813320 0.402591
Si Si6 0.379924 0.184887 0.543276
Si Si7 0.811103 0.568239 0.420149
Si Si8 0.840162 0.837801 0.074854
O O1 0.160975 0.195132 0.175301
O O2 0.199183 0.088966 0.269355
O O3 0.932280 0.148657 0.070780
O O4 0.000000 0.102129 0.000000
O O5 0.594558 0.788235 0.208712
O O6 0.564745 0.816838 0.331972
O O7 0.395324 0.730649 0.141491
O O8 0.343284 0.840956 0.070997
O O9 0.703015 0.301971 0.748116
O O10 0.000000 0.283342 0.000000
O O11 0.558493 0.366334 0.414493
O O12 0.691331 0.321947 0.402911
O O13 0.698267 0.432623 0.405835
O O14 0.420381 0.383246 0.191775
O O15 0.000000 0.827865 0.500000
O O16 0.063452 0.748145 0.448037
O O17 0.424981 0.124870 0.528728
O O18 0.875498 0.500000 0.458563
#
# Coordination Sequence:
#
# PCOD9172889 Si02
#       8
#     8   8   8   8   8   8   8   8
#     4   9  18  31  51  78 107 136 179 217 264 307
#     4  10  18  30  48  76 106 146 171 201 258 326
#     4  10  21  31  47  80 119 140 165 205 263 330
#     4   9  19  34  52  74 102 135 173 217 258 321
#     4  12  21  29  49  81 113 134 166 208 273 325
#     4  10  21  32  52  75 106 139 175 214 265 317
#     4   9  20  37  56  73  98 145 190 228 261 300
#     4   9  17  29  51  69 108 141 167 204 257 316
#
# _framework density 18.579132000000001
#
# number of rings (size 3 to 8) (size 9 to 14) (size 15 to 20)
#    0.750    1.500    1.250    2.625    7.000    0.250 
#    0.000    0.000    0.000    6.750    0.000    0.000 
#    0.000    5.000    0.000    0.000    0.000    0.000 
#
# Total GULP energy -178173.340913 kJ/mol
# GULP energy per Si atom -5567.916904 kJ/mol
# Density = 1.853685 g / cm^3
# Si number density = 18.579132 Si / 1000 Ang^3
#
#
#
# Elastic Constant Matrix: (Units=GPa)
#
#
# Indices 1 2 3 4 5 6 
#
# 1 76.3928 19.9004 23.5129 -0.0023 -17.6240 -0.0005
# 2 19.9004 44.5744 22.2710 -0.0036 -10.5498 -0.0015
# 3 23.5129 22.2710 76.8022 -0.0053 -14.1807 -0.0020
# 4 -0.0023 -0.0036 -0.0053 2.3676 -0.0030 -2.3995
# 5 -17.6240 -10.5498 -14.1807 -0.0030 35.2047 -0.0009
# 6 -0.0005 -0.0015 -0.0020 -2.3995 -0.0009 0.0393
#
#
#
# Elastic Compliance Matrix: (Units=1/GPa)
#
#
# Indices 1 2 3 4 5 6 
#
# 1 0.016444 -0.004668 -0.002614 -0.000001 0.005781 -0.000011
# 2 -0.004668 0.028466 -0.006139 -0.000013 0.003721 -0.000043
# 3 -0.002614 -0.006139 0.016226 -0.000011 0.003388 -0.000039
# 4 -0.000001 -0.000013 -0.000011 -0.006930 -0.000021 -0.423591
# 5 0.005781 0.003721 0.003388 -0.000021 0.033779 -0.000081
# 6 -0.000011 -0.000043 -0.000039 -0.423591 -0.000081 -0.417963
#
#
# Mechanical properties :
#
#
# Convention : Reuss Voigt Hill
#
# Bulk Modulus (GPa) = 29.15692 36.57088 32.86390
# Shear Modulus (GPa) = -17.14053 16.32799 -0.40627
#
# Velocity S-wave (km/s) = -3.04068 2.96773 -0.46813
# Velocity P-wave (km/s) = 1.84386 5.60980 4.17550
#
# Compressibility (1/GPa) = 0.03429717
#
# Stress axis : x y z
#
# Youngs Moduli (GPa) = 60.81179 35.12964 61.62869
#
# Poissons Ratio (x) = 0.16397 0.16107
# Poissons Ratio (y) = 0.28384 0.37831
# Poissons Ratio (z) = 0.15893 0.21564
#
# Static dielectric constant tensor:
#      x y z
#    x 1.689020 0.000000 0.003150 
#    y 0.000000 1.654120 0.000000 
#    z 0.003150 0.000000 1.693090 
# 
# From -- ./inp_files/271732.got.cif
#   From: 2010.05.17/outbox.cif.g08.bks.cpg/sg12_136_cif.got.tgz:271732.got - 2010.06.03 13:09:07.
