data_PCOD9172406
_publ_section_title
;
Structure prediction by ZEFSAII (Michael W. Deem and Ramdas Pophale) SiO2 
 PCOD9172406
Probable space group: C 2/M
;
_chemical_formula_sum "Si O2"
_cell_formula_units_Z 52
_cell_length_a 19.385169
_cell_length_b 8.442875
_cell_length_c 28.118642
_cell_angle_alpha 90.000000
_cell_angle_beta 149.987997
_cell_angle_gamma 90.000000
_cell_volume 2301.875569
_symmetry_space_group_name_H-M "C 2/M"
_symmetry_group_IT_number 12
_symmetry_cell_setting 'monoclinic'
loop_
_space_group_symop_operation_xyz
x,y,z
-x,y,-z
-x,-y,-z
x,-y,z
1/2+x,1/2+y,z
1/2-x,1/2+y,-z
1/2-x,1/2-y,-z
1/2+x,1/2-y,z
loop_
_atom_site_type_symbol
_atom_site_label
_atom_site_fract_x
_atom_site_fract_y
_atom_site_fract_z
Si Si1 0.302055 0.000000 0.294811
Si Si2 0.741989 0.672327 0.615889
Si Si3 0.971335 0.819560 0.189420
Si Si4 0.329905 0.332832 0.317272
Si Si5 0.204905 0.315556 0.095528
Si Si6 0.852136 0.000000 0.886977
Si Si7 0.346332 0.000000 0.428834
Si Si8 0.498737 0.177155 0.890321
O O1 0.383281 0.162190 0.333460
O O2 0.166196 0.000000 0.180776
O O3 0.265307 0.000000 0.328963
O O4 0.718713 0.500000 0.579418
O O5 0.670254 0.665036 0.625338
O O6 0.685618 0.838253 0.562624
O O7 0.904871 0.702704 0.721481
O O8 0.830389 0.795780 0.133504
O O9 0.952721 0.793404 0.122056
O O10 0.012154 0.000000 0.224548
O O11 0.388452 0.500000 0.334660
O O12 0.166729 0.328579 0.207659
O O13 0.206931 0.500000 0.114966
O O14 0.215718 0.165971 0.136736
O O15 0.065292 0.295335 0.981275
O O16 0.000000 0.000000 0.000000
O O17 0.500000 0.000000 0.500000
O O18 0.546145 0.000000 0.904398
#
# Coordination Sequence:
#
# PCOD9172406 Si02
#       8
#     4   8   8   8   8   4   4   8
#     4  10  20  34  52  74 100 142 186 214 258 309
#     4   9  17  30  50  79 112 142 163 200 265 333
#     4  10  18  29  49  75 105 140 178 219 279 328
#     4   8  15  27  46  69  96 131 173 210 254 310
#     4  10  23  36  47  71 103 135 188 237 273 311
#     4  12  26  38  54  74 100 152 199 228 261 303
#     4  10  20  36  58  88 118 138 167 216 268 334
#     4   9  17  28  44  69 101 140 172 221 277 316
#
# _framework density 22.590274999999998
#
# number of rings (size 3 to 8) (size 9 to 14) (size 15 to 20)
#    0.000    2.462    0.769    2.769    6.462    1.231 
#    0.000    0.000    0.000    0.000    0.000    1.077 
#    0.000    0.000    0.000    0.000    0.000    0.000 
#
# Total GULP energy -145033.424515 kJ/mol
# GULP energy per Si atom -5578.208635 kJ/mol
# Density = 2.253886 g / cm^3
# Si number density = 22.590275 Si / 1000 Ang^3
#
#
#
# Elastic Constant Matrix: (Units=GPa)
#
#
# Indices 1 2 3 4 5 6 
#
# 1 44.4001 29.8792 14.1767 -0.0002 -2.6218 0.0000
# 2 29.8792 231.2587 6.1047 -0.0003 5.0476 0.0000
# 3 14.1767 6.1047 64.5833 -0.0010 -0.1093 -0.0002
# 4 -0.0002 -0.0003 -0.0010 -13.8546 -0.0003 1.5272
# 5 -2.6218 5.0476 -0.1093 -0.0003 8.0297 -0.0001
# 6 0.0000 0.0000 -0.0002 1.5272 -0.0001 25.8032
#
#
#
# Elastic Compliance Matrix: (Units=1/GPa)
#
#
# Indices 1 2 3 4 5 6 
#
# 1 0.027438 -0.003640 -0.005660 0.000000 0.011170 0.000000
# 2 -0.003640 0.004878 0.000331 0.000000 -0.004251 0.000000
# 3 -0.005660 0.000331 0.016692 -0.000001 -0.001829 0.000000
# 4 0.000000 0.000000 -0.000001 -0.071711 -0.000003 0.004244
# 5 0.011170 -0.004251 -0.001829 -0.000003 0.130832 0.000000
# 6 0.000000 0.000000 0.000000 0.004244 0.000000 0.038504
#
#
# Mechanical properties :
#
#
# Convention : Reuss Voigt Hill
#
# Bulk Modulus (GPa) = 32.18448 48.95148 40.56798
# Shear Modulus (GPa) = 28.58299 23.33443 25.95871
#
# Velocity S-wave (km/s) = 3.56093 3.21743 3.39353
# Velocity P-wave (km/s) = 5.58435 5.95976 5.77511
#
# Compressibility (1/GPa) = 0.03107087
#
# Stress axis : x y z
#
# Youngs Moduli (GPa) = 36.44515 204.98350 59.90904
#
# Poissons Ratio (x) = 0.74604 0.33909
# Poissons Ratio (y) = 0.13264 -0.01980
# Poissons Ratio (z) = 0.20628 -0.06776
#
# Static dielectric constant tensor:
#      x y z
#    x 1.777690 0.000000 -0.000350 
#    y 0.000000 1.981010 0.000000 
#    z -0.000350 0.000000 1.898450 
# 
# From -- ./inp_files/380478.got.cif
#   From: 2010.05.17/outbox.cif.g08.bks.cpg/sg12_191_cif.got.tgz:380478.got - 2010.06.03 13:09:07.
