data_PCOD9172587
_publ_section_title
;
Structure prediction by ZEFSAII (Michael W. Deem and Ramdas Pophale) SiO2 
 PCOD9172587
Probable space group: C 2/M
;
_chemical_formula_sum "Si O2"
_cell_formula_units_Z 56
_cell_length_a 11.839203
_cell_length_b 26.403362
_cell_length_c 15.235466
_cell_angle_alpha 90.000000
_cell_angle_beta 39.842460
_cell_angle_gamma 90.000000
_cell_volume 3051.250353
_symmetry_space_group_name_H-M "C 2/M"
_symmetry_group_IT_number 12
_symmetry_cell_setting 'monoclinic'
loop_
_space_group_symop_operation_xyz
x,y,z
-x,y,-z
-x,-y,-z
x,-y,z
1/2+x,1/2+y,z
1/2-x,1/2+y,-z
1/2-x,1/2-y,-z
1/2+x,1/2-y,z
loop_
_atom_site_type_symbol
_atom_site_label
_atom_site_fract_x
_atom_site_fract_y
_atom_site_fract_z
Si Si1 0.650808 0.104042 0.611304
Si Si2 0.286105 0.845287 0.838182
Si Si3 0.928620 0.059177 0.323731
Si Si4 0.826036 0.942576 0.665097
Si Si5 0.990426 0.246869 0.262210
Si Si6 0.488123 0.352867 0.151872
Si Si7 0.643221 0.298189 0.482537
O O1 0.447104 0.116779 0.721508
O O2 0.749014 0.064957 0.488594
O O3 0.689547 0.089857 0.689945
O O4 0.758373 0.155689 0.529457
O O5 0.370581 0.792461 0.821959
O O6 0.168434 0.837999 0.821700
O O7 0.156637 0.865282 0.991057
O O8 0.931129 0.099029 0.243649
O O9 0.093432 0.073564 0.289784
O O10 0.947833 0.000000 0.288200
O O11 0.000000 0.944183 0.500000
O O12 0.758878 0.000000 0.713654
O O13 0.033221 0.195561 0.185681
O O14 0.799814 0.267159 0.343048
O O15 0.953491 0.234532 0.386356
O O16 0.500000 0.317766 0.500000
#
# Coordination Sequence:
#
# PCOD9172587 Si02
#       7
#     8   8   8   8   8   8   8
#     4  10  18  34  56  87 114 145 184 237 281 337
#     4  10  24  39  57  81 116 154 198 229 288 346
#     4  10  20  37  62  89 113 149 194 236 289 338
#     4   8  15  30  56  85 113 141 178 232 286 333
#     4  10  20  35  56  82 110 152 189 232 282 343
#     4  11  22  42  58  79 117 160 189 242 281 339
#     4  10  18  29  52  88 115 137 178 233 287 338
#
# _framework density 18.353131999999999
#
# number of rings (size 3 to 8) (size 9 to 14) (size 15 to 20)
#    0.000    2.143    1.429    3.857    0.000    0.571 
#    0.000    5.714    0.000    1.714    0.000    0.000 
#    0.000    0.000    0.000    0.000    0.000    0.000 
#
# Total GULP energy -156046.877380 kJ/mol
# GULP energy per Si atom -5573.102764 kJ/mol
# Density = 1.831136 g / cm^3
# Si number density = 18.353132 Si / 1000 Ang^3
#
#
#
# Elastic Constant Matrix: (Units=GPa)
#
#
# Indices 1 2 3 4 5 6 
#
# 1 74.3262 24.5461 42.3824 0.0000 -5.8955 0.0000
# 2 24.5461 71.2044 30.3619 0.0000 6.7296 0.0000
# 3 42.3824 30.3619 68.8090 0.0000 -5.7791 0.0000
# 4 0.0000 0.0000 0.0000 7.3559 0.0000 3.5745
# 5 -5.8955 6.7296 -5.7791 0.0000 21.6198 0.0000
# 6 0.0000 0.0000 0.0000 3.5745 0.0000 26.2657
#
#
#
# Elastic Compliance Matrix: (Units=1/GPa)
#
#
# Indices 1 2 3 4 5 6 
#
# 1 0.021238 -0.002716 -0.011586 0.000000 0.003540 0.000000
# 2 -0.002716 0.018958 -0.007417 0.000000 -0.008624 0.000000
# 3 -0.011586 -0.007417 0.025442 0.000000 0.005950 0.000000
# 4 0.000000 0.000000 0.000000 0.145572 0.000000 -0.019811
# 5 0.003540 -0.008624 0.005950 0.000000 0.051494 0.000000
# 6 0.000000 0.000000 0.000000 -0.019811 0.000000 0.040769
#
#
# Mechanical properties :
#
#
# Convention : Reuss Voigt Hill
#
# Bulk Modulus (GPa) = 45.04302 45.43560 45.23931
# Shear Modulus (GPa) = 14.11194 18.85154 16.48174
#
# Velocity S-wave (km/s) = 2.77593 3.20841 2.99997
# Velocity P-wave (km/s) = 5.90509 6.20767 6.05827
#
# Compressibility (1/GPa) = 0.02220100
#
# Stress axis : x y z
#
# Youngs Moduli (GPa) = 47.08435 52.74852 39.30549
#
# Poissons Ratio (x) = 0.14325 0.45540
# Poissons Ratio (y) = 0.12786 0.29152
# Poissons Ratio (z) = 0.54552 0.39122
#
# Static dielectric constant tensor:
#      x y z
#    x 1.646340 0.000000 -0.001250 
#    y 0.000000 1.663080 0.000000 
#    z -0.001250 0.000000 1.620740 
# 
# From -- ./inp_files/209083.got.cif
#   From: 2010.05.17/outbox.cif.g08.bks.cpg/sg12_105_cif.got.tgz:209083.got - 2010.06.03 13:09:07.
