data_PCOD9172578
_publ_section_title
;
Structure prediction by ZEFSAII (Michael W. Deem and Ramdas Pophale) SiO2 
 PCOD9172578
Probable space group: C 2/M
;
_chemical_formula_sum "Si O2"
_cell_formula_units_Z 60
_cell_length_a 24.856544
_cell_length_b 20.788958
_cell_length_c 16.067856
_cell_angle_alpha 90.000000
_cell_angle_beta 23.524111
_cell_angle_gamma 90.000000
_cell_volume 3313.989693
_symmetry_space_group_name_H-M "C 2/M"
_symmetry_group_IT_number 12
_symmetry_cell_setting 'monoclinic'
loop_
_space_group_symop_operation_xyz
x,y,z
-x,y,-z
-x,-y,-z
x,-y,z
1/2+x,1/2+y,z
1/2-x,1/2+y,-z
1/2-x,1/2-y,-z
1/2+x,1/2-y,z
loop_
_atom_site_type_symbol
_atom_site_label
_atom_site_fract_x
_atom_site_fract_y
_atom_site_fract_z
Si Si1 0.913441 0.425101 0.857757
Si Si2 0.615823 0.578110 0.532597
Si Si3 0.000000 0.231760 0.500000
Si Si4 0.396677 0.391855 0.714669
Si Si5 0.120310 0.075491 0.712794
Si Si6 0.689819 0.575625 0.791532
Si Si7 0.406319 0.078101 0.055711
Si Si8 0.063511 0.356710 0.494999
O O1 0.953628 0.500000 0.791255
O O2 0.983250 0.382344 0.688475
O O3 0.751241 0.420752 0.076964
O O4 0.948397 0.403655 0.902541
O O5 0.607207 0.500000 0.546118
O O6 0.479441 0.602413 0.682883
O O7 0.637313 0.601915 0.596480
O O8 0.750243 0.596585 0.291456
O O9 0.892060 0.182684 0.692143
O O10 0.945352 0.280193 0.507371
O O11 0.500000 0.422340 0.500000
O O12 0.197246 0.099717 0.685275
O O13 0.157367 0.000000 0.655093
O O14 0.963122 0.078945 0.960089
O O15 0.727635 0.500000 0.740430
O O16 0.786375 0.617915 0.709810
O O17 0.409621 0.000000 0.052426
O O18 0.500000 0.099804 0.000000
O O19 0.000000 0.384264 0.500000
#
# Coordination Sequence:
#
# PCOD9172578 Si02
#       8
#     8   8   4   8   8   8   8   8
#     4  11  22  34  56  88 114 142 177 227 295 337
#     4  10  18  29  52  82 108 134 175 231 289 332
#     4   8  22  42  54  76 102 152 200 226 268 314
#     4  10  20  38  56  76 105 145 182 238 264 321
#     4   8  17  30  50  80 108 146 179 216 277 339
#     4   9  17  33  52  75 113 145 182 225 273 334
#     4   9  18  30  45  74 113 144 171 206 269 351
#     4  10  23  38  52  80 111 153 185 229 269 330
#
# _framework density 18.105065
#
# number of rings (size 3 to 8) (size 9 to 14) (size 15 to 20)
#    0.800    1.733    1.333    1.600    3.733    2.133 
#    0.000    0.000    0.000    0.800   13.867    0.000 
#    0.000    0.000    0.000    0.000    0.000    0.000 
#
# Total GULP energy -167003.280127 kJ/mol
# GULP energy per Si atom -5566.776004 kJ/mol
# Density = 1.806386 g / cm^3
# Si number density = 18.105065 Si / 1000 Ang^3
#
#
#
# Elastic Constant Matrix: (Units=GPa)
#
#
# Indices 1 2 3 4 5 6 
#
# 1 114.2609 21.9909 8.3298 0.0002 6.8258 0.0007
# 2 21.9909 56.8930 13.9210 -0.0005 4.9548 0.0009
# 3 8.3298 13.9210 22.3017 0.0010 3.5117 0.0005
# 4 0.0002 -0.0005 0.0010 12.7537 -0.0001 12.0795
# 5 6.8258 4.9548 3.5117 -0.0001 34.5532 0.0001
# 6 0.0007 0.0009 0.0005 12.0795 0.0001 6.6212
#
#
#
# Elastic Compliance Matrix: (Units=1/GPa)
#
#
# Indices 1 2 3 4 5 6 
#
# 1 0.009552 -0.003254 -0.001334 0.000000 -0.001285 0.000000
# 2 -0.003254 0.021951 -0.012289 -0.000005 -0.001256 0.000007
# 3 -0.001334 -0.012289 0.053547 0.000004 -0.003416 -0.000009
# 4 0.000000 -0.000005 0.000004 -0.107714 -0.000001 0.196511
# 5 -0.001285 -0.001256 -0.003416 -0.000001 0.029722 0.000001
# 6 0.000000 0.000007 -0.000009 0.196511 0.000001 -0.207478
#
#
# Mechanical properties :
#
#
# Convention : Reuss Voigt Hill
#
# Bulk Modulus (GPa) = 19.49486 31.32655 25.41070
# Shear Modulus (GPa) = -33.42975 20.73321 -6.34827
#
# Velocity S-wave (km/s) = -4.30167 3.38769 -1.87456
# Velocity P-wave (km/s) = 3.72579 5.71333 3.06273
#
# Compressibility (1/GPa) = 0.05129558
#
# Stress axis : x y z
#
# Youngs Moduli (GPa) = 104.68827 45.55619 18.67523
#
# Poissons Ratio (x) = 0.14823 0.02492
# Poissons Ratio (y) = 0.34064 0.22950
# Poissons Ratio (z) = 0.13969 0.55984
#
# Static dielectric constant tensor:
#      x y z
#    x 1.663100 0.000000 0.014040 
#    y 0.000000 1.596680 0.000000 
#    z 0.014040 0.000000 1.631670 
# 
# From -- ./inp_files/235629.got.cif
#   From: 2010.05.17/outbox.cif.g08.bks.cpg/sg12_118_cif.got.tgz:235629.got - 2010.06.03 13:09:07.
