data_PCOD9172951
_publ_section_title
;
Structure prediction by ZEFSAII (Michael W. Deem and Ramdas Pophale) SiO2 
 PCOD9172951
Probable space group: C 2/M
;
_chemical_formula_sum "Si O2"
_cell_formula_units_Z 64
_cell_length_a 30.819237
_cell_length_b 9.047769
_cell_length_c 15.362794
_cell_angle_alpha 90.000000
_cell_angle_beta 79.116348
_cell_angle_gamma 90.000000
_cell_volume 4206.788380
_symmetry_space_group_name_H-M "C 2/M"
_symmetry_group_IT_number 12
_symmetry_cell_setting 'monoclinic'
loop_
_space_group_symop_operation_xyz
x,y,z
-x,y,-z
-x,-y,-z
x,-y,z
1/2+x,1/2+y,z
1/2-x,1/2+y,-z
1/2-x,1/2-y,-z
1/2+x,1/2-y,z
loop_
_atom_site_type_symbol
_atom_site_label
_atom_site_fract_x
_atom_site_fract_y
_atom_site_fract_z
Si Si1 0.192972 0.177981 0.879365
Si Si2 0.056693 0.322203 0.065948
Si Si3 0.353263 0.677343 0.920708
Si Si4 0.685980 0.676394 0.573482
Si Si5 0.457503 0.177755 0.130659
Si Si6 0.623852 0.322380 0.752477
Si Si7 0.215874 0.324603 0.389686
Si Si8 0.714256 0.322607 0.205672
O O1 0.157964 0.217187 0.817155
O O2 0.239168 0.257151 0.844429
O O3 0.199506 0.000000 0.873661
O O4 0.172620 0.217742 0.980662
O O5 0.059695 0.500000 0.068909
O O6 0.098769 0.250469 0.094889
O O7 0.008801 0.278975 0.122083
O O8 0.055823 0.281261 0.963602
O O9 0.358289 0.500000 0.919588
O O10 0.323615 0.718520 0.849191
O O11 0.683446 0.500000 0.558443
O O12 0.646600 0.720645 0.652931
O O13 0.732416 0.702540 0.606188
O O14 0.688758 0.762069 0.481824
O O15 0.422925 0.250068 0.208861
O O16 0.455094 0.000000 0.137307
O O17 0.619696 0.500000 0.754930
O O18 0.210048 0.500000 0.382873
O O19 0.205174 0.243244 0.304218
O O20 0.717025 0.500000 0.208601
#
# Coordination Sequence:
#
# PCOD9172951 Si02
#       8
#     8   8   8   8   8   8   8   8
#     4  10  19  33  47  66  98 131 166 202 229 272
#     4   9  18  32  48  68  95 127 161 200 241 280
#     4  10  21  34  48  68  96 129 168 205 235 274
#     4   9  18  32  48  69  96 123 156 198 239 283
#     4   9  18  31  47  70  98 124 158 200 240 285
#     4  10  18  30  49  72  98 129 159 193 238 283
#     4  10  19  33  50  69  93 125 160 199 240 282
#     4  11  22  33  47  69  96 130 167 202 238 278
#
# _framework density 15.213506000000001
#
# number of rings (size 3 to 8) (size 9 to 14) (size 15 to 20)
#    0.000    2.250    2.500    1.875    0.000    3.500 
#    0.000    1.250    0.000    0.000    0.000    0.875 
#    0.000    7.000    0.000    0.000    0.000    0.000 
#
# Total GULP energy -178506.407526 kJ/mol
# GULP energy per Si atom -5578.325235 kJ/mol
# Density = 1.517888 g / cm^3
# Si number density = 15.213506 Si / 1000 Ang^3
#
#
#
# Elastic Constant Matrix: (Units=GPa)
#
#
# Indices 1 2 3 4 5 6 
#
# 1 115.6717 42.3442 78.8319 0.0000 -13.6221 0.0000
# 2 42.3442 27.4190 43.3828 0.0000 -4.0496 0.0000
# 3 78.8319 43.3828 117.2032 0.0000 -13.9218 0.0000
# 4 0.0000 0.0000 0.0000 25.0107 0.0000 -4.5230
# 5 -13.6221 -4.0496 -13.9218 0.0000 25.8491 0.0000
# 6 0.0000 0.0000 0.0000 -4.5230 0.0000 27.4909
#
#
#
# Elastic Compliance Matrix: (Units=1/GPa)
#
#
# Indices 1 2 3 4 5 6 
#
# 1 0.021682 -0.025608 -0.004513 0.000000 0.004984 0.000000
# 2 -0.025608 0.118659 -0.027875 0.000000 -0.009919 0.000000
# 3 -0.004513 -0.027875 0.022525 0.000000 0.005387 0.000000
# 4 0.000000 0.000000 0.000000 0.041209 0.000000 0.006780
# 5 0.004984 -0.009919 0.005387 0.000000 0.042660 0.000000
# 6 0.000000 0.000000 0.000000 0.006780 0.000000 0.037491
#
#
# Mechanical properties :
#
#
# Convention : Reuss Voigt Hill
#
# Bulk Modulus (GPa) = 21.33405 65.49017 43.41211
# Shear Modulus (GPa) = 12.02379 22.05247 17.03813
#
# Velocity S-wave (km/s) = 2.81434 3.81140 3.35017
# Velocity P-wave (km/s) = 4.96127 7.90632 6.60016
#
# Compressibility (1/GPa) = 0.04687342
#
# Stress axis : x y z
#
# Youngs Moduli (GPa) = 46.12145 8.42755 44.39455
#
# Poissons Ratio (x) = 0.21581 0.20033
# Poissons Ratio (y) = 1.18109 1.23752
# Poissons Ratio (z) = 0.20813 0.23492
#
# Static dielectric constant tensor:
#      x y z
#    x 1.484860 0.000000 -0.005770 
#    y 0.000000 1.506310 0.000000 
#    z -0.005770 0.000000 1.495980 
# 
# From -- ./inp_files/244166.got.cif
#   From: 2010.05.17/outbox.cif.g08.bks.cpg/sg12_123_cif.got.tgz:244166.got - 2010.06.03 13:09:07.
