data_PCOD9172432
_publ_section_title
;
Structure prediction by ZEFSAII (Michael W. Deem and Ramdas Pophale) SiO2 
 PCOD9172432
Probable space group: C 2/M
;
_chemical_formula_sum "Si O2"
_cell_formula_units_Z 56
_cell_length_a 20.776529
_cell_length_b 21.784493
_cell_length_c 10.204928
_cell_angle_alpha 90.000000
_cell_angle_beta 136.479925
_cell_angle_gamma 90.000000
_cell_volume 3180.554876
_symmetry_space_group_name_H-M "C 2/M"
_symmetry_group_IT_number 12
_symmetry_cell_setting 'monoclinic'
loop_
_space_group_symop_operation_xyz
x,y,z
-x,y,-z
-x,-y,-z
x,-y,z
1/2+x,1/2+y,z
1/2-x,1/2+y,-z
1/2-x,1/2-y,-z
1/2+x,1/2-y,z
loop_
_atom_site_type_symbol
_atom_site_label
_atom_site_fract_x
_atom_site_fract_y
_atom_site_fract_z
Si Si1 0.059340 0.387032 0.776058
Si Si2 0.856062 0.410130 0.555263
Si Si3 0.218281 0.431737 0.830637
Si Si4 0.602941 0.070248 0.101178
Si Si5 0.994156 0.244372 0.339467
Si Si6 0.808057 0.730608 0.459886
Si Si7 0.702345 0.295937 0.035595
O O1 0.116960 0.418829 0.746224
O O2 0.032647 0.317247 0.701791
O O3 0.963549 0.421944 0.671659
O O4 0.122100 0.389152 0.001832
O O5 0.792844 0.433111 0.343198
O O6 0.837811 0.429393 0.677786
O O7 0.844094 0.337622 0.539329
O O8 0.251121 0.500000 0.922015
O O9 0.271859 0.368145 0.944308
O O10 0.599254 0.000000 0.049897
O O11 0.500000 0.089680 0.000000
O O12 0.000000 0.226047 0.500000
O O13 0.095848 0.233348 0.426972
O O14 0.908522 0.212071 0.140533
O O15 0.750000 0.750000 0.500000
O O16 0.744227 0.726072 0.236309
O O17 0.750000 0.250000 0.000000
#
# Coordination Sequence:
#
# PCOD9172432 Si02
#       7
#     8   8   8   8   8   8   8
#     4  10  18  29  49  77 109 143 191 225 279 347
#     4   9  19  32  47  71 112 150 182 225 283 351
#     4  11  21  33  52  81 111 146 194 240 279 337
#     4   9  17  28  41  64 101 146 177 207 266 333
#     4  11  20  37  60  82 114 159 192 234 302 351
#     4  10  22  35  55  90 116 143 199 246 287 343
#     4  11  21  38  60  83 115 158 193 237 295 348
#
# _framework density 17.60699
#
# number of rings (size 3 to 8) (size 9 to 14) (size 15 to 20)
#    0.000    1.857    2.857    3.000    2.000    2.857 
#    0.000    0.000    0.000    0.429    0.000    9.000 
#    0.000    0.000    0.000    0.000    0.000    0.000 
#
# Total GULP energy -155959.656239 kJ/mol
# GULP energy per Si atom -5569.987723 kJ/mol
# Density = 1.756692 g / cm^3
# Si number density = 17.606990 Si / 1000 Ang^3
#
#
#
# Elastic Constant Matrix: (Units=GPa)
#
#
# Indices 1 2 3 4 5 6 
#
# 1 99.8516 27.9642 50.6333 0.0000 0.0353 0.0000
# 2 27.9642 81.2877 34.2291 0.0000 2.5409 0.0000
# 3 50.6333 34.2291 101.9721 0.0000 -2.9887 0.0000
# 4 0.0000 0.0000 0.0000 -4.4878 0.0000 -9.6329
# 5 0.0353 2.5409 -2.9887 0.0000 30.3024 0.0000
# 6 0.0000 0.0000 0.0000 -9.6329 0.0000 6.6986
#
#
#
# Elastic Compliance Matrix: (Units=1/GPa)
#
#
# Indices 1 2 3 4 5 6 
#
# 1 0.013707 -0.002132 -0.006103 0.000000 -0.000439 0.000000
# 2 -0.002132 0.014744 -0.003938 0.000000 -0.001622 0.000000
# 3 -0.006103 -0.003938 0.014210 0.000000 0.001739 0.000000
# 4 0.000000 0.000000 0.000000 -0.054524 0.000000 -0.078409
# 5 -0.000439 -0.001622 0.001739 0.000000 0.033309 0.000000
# 6 0.000000 0.000000 0.000000 -0.078409 0.000000 0.036529
#
#
# Mechanical properties :
#
#
# Convention : Reuss Voigt Hill
#
# Bulk Modulus (GPa) = 54.60097 56.52940 55.56519
# Shear Modulus (GPa) = 56.54415 17.85497 37.19956
#
# Velocity S-wave (km/s) = 5.67312 3.18792 4.60148
# Velocity P-wave (km/s) = 8.60179 6.76213 7.73683
#
# Compressibility (1/GPa) = 0.01831469
#
# Stress axis : x y z
#
# Youngs Moduli (GPa) = 72.95574 67.82235 70.37214
#
# Poissons Ratio (x) = 0.14457 0.42951
# Poissons Ratio (y) = 0.15551 0.27715
# Poissons Ratio (z) = 0.44528 0.26711
#
# Static dielectric constant tensor:
#      x y z
#    x 1.618470 0.000000 -0.021180 
#    y 0.000000 1.633480 0.000000 
#    z -0.021180 0.000000 1.662090 
# 
# From -- ./inp_files/90447.got.cif
#   From: 2010.05.17/outbox.cif.g08.bks.cpg/sg12_46_cif.got.tgz:90447.got - 2010.06.03 13:09:07.
