data_PCOD9172290
_publ_section_title
;
Structure prediction by ZEFSAII (Michael W. Deem and Ramdas Pophale) SiO2 
 PCOD9172290
Probable space group: C 2/M
;
_chemical_formula_sum "Si O2"
_cell_formula_units_Z 64
_cell_length_a 19.468634
_cell_length_b 9.456133
_cell_length_c 33.200413
_cell_angle_alpha 90.000000
_cell_angle_beta 145.311821
_cell_angle_gamma 90.000000
_cell_volume 3478.473282
_symmetry_space_group_name_H-M "C 2/M"
_symmetry_group_IT_number 12
_symmetry_cell_setting 'monoclinic'
loop_
_space_group_symop_operation_xyz
x,y,z
-x,y,-z
-x,-y,-z
x,-y,z
1/2+x,1/2+y,z
1/2-x,1/2+y,-z
1/2-x,1/2-y,-z
1/2+x,1/2-y,z
loop_
_atom_site_type_symbol
_atom_site_label
_atom_site_fract_x
_atom_site_fract_y
_atom_site_fract_z
Si Si1 0.129161 0.666077 0.818464
Si Si2 0.502779 0.332967 0.688763
Si Si3 0.586142 0.163966 0.219804
Si Si4 0.779650 0.334273 0.435489
Si Si5 0.563139 0.337419 0.912234
Si Si6 0.715266 0.836478 0.045611
Si Si7 0.164567 0.163617 0.615286
Si Si8 0.556807 0.664699 0.430248
O O1 0.156841 0.500000 0.827306
O O2 0.235082 0.750870 0.892154
O O3 0.089922 0.739458 0.758095
O O4 0.013270 0.677035 0.792621
O O5 0.533335 0.500000 0.707204
O O6 0.364448 0.314714 0.636604
O O7 0.497303 0.294253 0.639053
O O8 0.545988 0.264641 0.164266
O O9 0.716508 0.195283 0.301090
O O10 0.583999 0.000000 0.205384
O O11 0.805057 0.500000 0.449527
O O12 0.837387 0.263520 0.424061
O O13 0.834230 0.258266 0.500848
O O14 0.539543 0.500000 0.911617
O O15 0.674607 0.336894 0.933907
O O16 0.607406 0.245350 0.971328
O O17 0.687292 0.000000 0.041115
O O18 0.048445 0.175009 0.587396
O O19 0.174210 0.000000 0.605953
O O20 0.594550 0.500000 0.444891
#
# Coordination Sequence:
#
# PCOD9172290 Si02
#       8
#     8   8   8   8   8   8   8   8
#     4  10  18  29  48  72  98 130 167 208 249 296
#     4  10  21  36  52  74 101 133 169 208 254 303
#     4   9  17  29  46  69  96 127 165 204 246 294
#     4  11  22  35  54  77 102 129 164 211 260 306
#     4   9  16  25  40  65  97 131 165 201 245 293
#     4   9  16  26  41  64  98 134 165 202 246 293
#     4  10  20  36  55  75  99 133 172 209 250 301
#     4  10  22  38  55  73  99 133 171 210 251 303
#
# _framework density 18.398875
#
# number of rings (size 3 to 8) (size 9 to 14) (size 15 to 20)
#    0.000    2.250    1.250    2.250    0.000    7.000 
#    0.000    0.000    0.000    0.000    0.000    0.875 
#    0.000    7.000    0.000    0.000    0.000    0.000 
#
# Total GULP energy -178617.579284 kJ/mol
# GULP energy per Si atom -5581.799353 kJ/mol
# Density = 1.835700 g / cm^3
# Si number density = 18.398875 Si / 1000 Ang^3
#
#
#
# Elastic Constant Matrix: (Units=GPa)
#
#
# Indices 1 2 3 4 5 6 
#
# 1 26.4595 30.9941 20.8351 0.0000 -18.9539 0.0000
# 2 30.9941 130.3753 93.6770 0.0000 -31.7321 0.0000
# 3 20.8351 93.6770 113.6354 0.0000 -34.4323 0.0000
# 4 0.0000 0.0000 0.0000 37.7438 0.0000 -7.5056
# 5 -18.9539 -31.7321 -34.4323 0.0000 25.2350 0.0000
# 6 0.0000 0.0000 0.0000 -7.5056 0.0000 12.4415
#
#
#
# Elastic Compliance Matrix: (Units=1/GPa)
#
#
# Indices 1 2 3 4 5 6 
#
# 1 0.104693 -0.021899 0.024448 0.000000 0.084455 0.000000
# 2 -0.021899 0.023667 -0.019540 0.000000 -0.013350 0.000000
# 3 0.024448 -0.019540 0.031616 0.000000 0.036931 0.000000
# 4 0.000000 0.000000 0.000000 0.030106 0.000000 0.018162
# 5 0.084455 -0.013350 0.036931 0.000000 0.136665 0.000000
# 6 0.000000 0.000000 0.000000 0.018162 0.000000 0.091333
#
#
# Mechanical properties :
#
#
# Convention : Reuss Voigt Hill
#
# Bulk Modulus (GPa) = 7.93696 62.38694 35.16195
# Shear Modulus (GPa) = 10.12023 23.41500 16.76762
#
# Velocity S-wave (km/s) = 2.34785 3.57127 3.02211
# Velocity P-wave (km/s) = 3.41659 7.14051 5.59732
#
# Compressibility (1/GPa) = 0.12599283
#
# Stress axis : x y z
#
# Youngs Moduli (GPa) = 9.55175 42.25303 31.62969
#
# Poissons Ratio (x) = 0.92532 -0.77329
# Poissons Ratio (y) = 0.20918 0.61805
# Poissons Ratio (z) = -0.23352 0.82563
#
# Static dielectric constant tensor:
#      x y z
#    x 1.623800 0.000000 -0.001060 
#    y 0.000000 1.619920 0.000000 
#    z -0.001060 0.000000 1.619180 
# 
# From -- ./inp_files/378394.got.cif
#   From: 2010.05.17/outbox.cif.g08.bks.cpg/sg12_190_cif.got.tgz:378394.got - 2010.06.03 13:09:07.
