data_PCOD9172502
_publ_section_title
;
Structure prediction by ZEFSAII (Michael W. Deem and Ramdas Pophale) SiO2 
 PCOD9172502
Probable space group: C 2/M
;
_chemical_formula_sum "Si O2"
_cell_formula_units_Z 64
_cell_length_a 24.618575
_cell_length_b 9.101410
_cell_length_c 21.651882
_cell_angle_alpha 90.000000
_cell_angle_beta 127.854191
_cell_angle_gamma 90.000000
_cell_volume 3830.545373
_symmetry_space_group_name_H-M "C 2/M"
_symmetry_group_IT_number 12
_symmetry_cell_setting 'monoclinic'
loop_
_space_group_symop_operation_xyz
x,y,z
-x,y,-z
-x,-y,-z
x,-y,z
1/2+x,1/2+y,z
1/2-x,1/2+y,-z
1/2-x,1/2-y,-z
1/2+x,1/2-y,z
loop_
_atom_site_type_symbol
_atom_site_label
_atom_site_fract_x
_atom_site_fract_y
_atom_site_fract_z
Si Si1 0.989173 0.174917 0.209070
Si Si2 0.640413 0.173953 0.937152
Si Si3 0.267973 0.823512 0.368937
Si Si4 0.823798 0.676420 0.272801
Si Si5 0.631936 0.824790 0.326411
Si Si6 0.392552 0.175195 0.546576
Si Si7 0.249187 0.825386 0.095128
Si Si8 0.034401 0.174376 0.661777
O O1 0.063113 0.249938 0.251973
O O2 0.930736 0.244061 0.125340
O O3 0.968017 0.203767 0.265927
O O4 0.993697 0.000000 0.204018
O O5 0.689442 0.199107 0.911489
O O6 0.629836 0.000000 0.935849
O O7 0.683435 0.238194 0.024370
O O8 0.287705 0.789160 0.312288
O O9 0.199835 0.742205 0.343727
O O10 0.332436 0.783315 0.457511
O O11 0.258026 0.000000 0.367347
O O12 0.833843 0.500000 0.276528
O O13 0.776881 0.718849 0.181492
O O14 0.897632 0.752436 0.318205
O O15 0.631234 0.794173 0.399727
O O16 0.629098 0.000000 0.316282
O O17 0.464248 0.257754 0.586053
O O18 0.404399 0.000000 0.549708
O O19 0.234371 0.000000 0.084833
O O20 0.035561 0.000000 0.653606
#
# Coordination Sequence:
#
# PCOD9172502 Si02
#       8
#     8   8   8   8   8   8   8   8
#     4  10  19  32  52  77 105 134 168 211 256 303
#     4  10  18  29  50  78 106 133 166 207 251 299
#     4  10  21  36  54  75  99 135 178 213 252 302
#     4  10  20  35  53  72 103 142 174 206 247 305
#     4  10  20  34  54  77 102 132 169 216 263 301
#     4   9  19  35  54  75 101 133 170 214 260 306
#     4   9  18  31  48  73 105 138 168 202 246 301
#     4  10  20  32  50  76 104 135 170 211 257 301
#
# _framework density 16.707803999999999
#
# number of rings (size 3 to 8) (size 9 to 14) (size 15 to 20)
#    0.000    2.250    1.250    1.875    0.000    4.000 
#    0.000    2.500    0.000    0.750    0.000    5.250 
#    0.000    0.000    0.000    0.000    0.000    0.000 
#
# Total GULP energy -178601.869451 kJ/mol
# GULP energy per Si atom -5581.308420 kJ/mol
# Density = 1.666978 g / cm^3
# Si number density = 16.707804 Si / 1000 Ang^3
#
#
#
# Elastic Constant Matrix: (Units=GPa)
#
#
# Indices 1 2 3 4 5 6 
#
# 1 62.9945 46.8703 84.0160 0.0000 -2.4981 0.0000
# 2 46.8703 47.1306 66.4151 0.0000 6.1049 0.0000
# 3 84.0160 66.4151 146.3798 0.0000 23.5562 0.0000
# 4 0.0000 0.0000 0.0000 26.6741 0.0000 8.7607
# 5 -2.4981 6.1049 23.5562 0.0000 10.5441 0.0000
# 6 0.0000 0.0000 0.0000 8.7607 0.0000 28.2129
#
#
#
# Elastic Compliance Matrix: (Units=1/GPa)
#
#
# Indices 1 2 3 4 5 6 
#
# 1 -0.042472 -0.006483 0.044238 0.000000 -0.105140 0.000000
# 2 -0.006483 0.071021 -0.033784 0.000000 0.032820 0.000000
# 3 0.044238 -0.033784 -0.012592 0.000000 0.058174 0.000000
# 4 0.000000 0.000000 0.000000 0.041747 0.000000 -0.012963
# 5 -0.105140 0.032820 0.058174 0.000000 -0.079035 0.000000
# 6 0.000000 0.000000 0.000000 -0.012963 0.000000 0.039470
#
#
# Mechanical properties :
#
#
# Convention : Reuss Voigt Hill
#
# Bulk Modulus (GPa) = 41.84283 72.34528 57.09406
# Shear Modulus (GPa) = 275.29511 17.03312 146.16412
#
# Velocity S-wave (km/s) = 12.85022 3.19638 9.36336
# Velocity P-wave (km/s) = 15.66107 7.55094 12.29402
#
# Compressibility (1/GPa) = 0.02389895
#
# Stress axis : x y z
#
# Youngs Moduli (GPa) = -23.54475 14.08034 -79.41281
#
# Poissons Ratio (x) = 0.09128 3.51308
# Poissons Ratio (y) = -0.15263 -2.68291
# Poissons Ratio (z) = 1.04158 0.47569
#
# Static dielectric constant tensor:
#      x y z
#    x 1.530360 0.000000 -0.009790 
#    y 0.000000 1.551180 0.000000 
#    z -0.009790 0.000000 1.552690 
# 
# From -- ./inp_files/324149.got.cif
#   From: 2010.05.17/outbox.cif.g08.bks.cpg/sg12_163_cif.got.tgz:324149.got - 2010.06.03 13:09:07.
