data_PCOD9172517
_publ_section_title
;
Structure prediction by ZEFSAII (Michael W. Deem and Ramdas Pophale) SiO2 
 PCOD9172517
Probable space group: C 2/M
;
_chemical_formula_sum "Si O2"
_cell_formula_units_Z 44
_cell_length_a 9.002395
_cell_length_b 27.849764
_cell_length_c 11.468446
_cell_angle_alpha 90.000000
_cell_angle_beta 133.699237
_cell_angle_gamma 90.000000
_cell_volume 2078.778644
_symmetry_space_group_name_H-M "C 2/M"
_symmetry_group_IT_number 12
_symmetry_cell_setting 'monoclinic'
loop_
_space_group_symop_operation_xyz
x,y,z
-x,y,-z
-x,-y,-z
x,-y,z
1/2+x,1/2+y,z
1/2-x,1/2+y,-z
1/2-x,1/2-y,-z
1/2+x,1/2-y,z
loop_
_atom_site_type_symbol
_atom_site_label
_atom_site_fract_x
_atom_site_fract_y
_atom_site_fract_z
Si Si1 0.239290 0.943948 0.671892
Si Si2 0.299910 0.685988 0.710440
Si Si3 0.383319 0.443240 0.149462
Si Si4 0.182065 0.406093 0.520814
Si Si5 0.000000 0.116465 0.000000
Si Si6 0.485118 0.730933 0.614848
O O1 0.253358 0.927546 0.813369
O O2 0.353970 0.914859 0.634513
O O3 0.000000 0.941615 0.500000
O O4 0.298942 0.000000 0.699538
O O5 0.203279 0.650282 0.561133
O O6 0.359061 0.650862 0.846352
O O7 0.500427 0.705466 0.748428
O O8 0.150871 0.727178 0.680288
O O9 0.355639 0.500000 0.118945
O O10 0.612706 0.432078 0.322004
O O11 0.371635 0.415816 0.021318
O O12 0.000000 0.425885 0.500000
O O13 0.500000 0.701623 0.500000
O O14 0.250000 0.750000 0.500000
#
# Coordination Sequence:
#
# PCOD9172517 Si02
#       6
#     8   8   8   8   4   8
#     4   8  15  28  47  74 104 135 171 211 258 304
#     4  10  21  35  53  77 105 138 175 213 262 322
#     4   9  18  33  52  74 105 144 180 211 250 307
#     4  10  18  29  50  81 109 129 168 225 270 306
#     4  10  21  34  52  78 106 142 184 216 249 302
#     4   9  18  35  57  78  99 127 164 217 278 320
#
# _framework density 21.166276
#
# number of rings (size 3 to 8) (size 9 to 14) (size 15 to 20)
#    0.000    2.727    0.000    3.545    0.000    5.818 
#    0.000    0.000    0.000   13.091    0.000   11.455 
#    0.000    0.000    0.000    0.000    0.000    0.000 
#
# Total GULP energy -122527.213334 kJ/mol
# GULP energy per Si atom -5569.418788 kJ/mol
# Density = 2.111810 g / cm^3
# Si number density = 21.166276 Si / 1000 Ang^3
#
#
#
# Elastic Constant Matrix: (Units=GPa)
#
#
# Indices 1 2 3 4 5 6 
#
# 1 182.4974 65.9180 56.4134 0.0000 -57.4293 0.0000
# 2 65.9180 67.3206 39.6709 0.0000 -36.3861 0.0000
# 3 56.4134 39.6709 49.7176 0.0000 -36.4123 0.0000
# 4 0.0000 0.0000 0.0000 42.5148 0.0000 -15.8315
# 5 -57.4293 -36.3861 -36.4123 0.0000 44.0826 0.0000
# 6 0.0000 0.0000 0.0000 -15.8315 0.0000 19.4783
#
#
#
# Elastic Compliance Matrix: (Units=1/GPa)
#
#
# Indices 1 2 3 4 5 6 
#
# 1 0.010261 -0.004447 -0.002512 0.000000 0.007622 0.000000
# 2 -0.004447 0.032622 -0.013939 0.000000 0.009619 0.000000
# 3 -0.002512 -0.013939 0.058886 0.000000 0.033862 0.000000
# 4 0.000000 0.000000 0.000000 0.033730 0.000000 0.027415
# 5 0.007622 0.009619 0.033862 0.000000 0.068524 0.000000
# 6 0.000000 0.000000 0.000000 0.027415 0.000000 0.073622
#
#
# Mechanical properties :
#
#
# Convention : Reuss Voigt Hill
#
# Bulk Modulus (GPa) = 16.67428 69.28222 42.97825
# Shear Modulus (GPa) = 14.73054 30.38401 22.55728
#
# Velocity S-wave (km/s) = 2.64094 3.79290 3.26807
# Velocity P-wave (km/s) = 4.14660 7.21005 5.88129
#
# Compressibility (1/GPa) = 0.05997260
#
# Stress axis : x y z
#
# Youngs Moduli (GPa) = 97.45754 30.65443 16.98194
#
# Poissons Ratio (x) = 0.13633 0.04266
# Poissons Ratio (y) = 0.43342 0.23670
# Poissons Ratio (z) = 0.24484 0.42728
#
# Static dielectric constant tensor:
#      x y z
#    x 1.837330 0.000000 -0.021640 
#    y 0.000000 1.820950 0.000000 
#    z -0.021640 0.000000 1.846720 
# 
# From -- ./inp_files/124470.got.cif
#   From: 2010.05.17/outbox.cif.g08.bks.cpg/sg12_63_cif.got.tgz:124470.got - 2010.06.03 13:09:07.
