data_PCOD9172160
_publ_section_title
;
Structure prediction by ZEFSAII (Michael W. Deem and Ramdas Pophale) SiO2 
 PCOD9172160
Probable space group: C 2/M
;
_chemical_formula_sum "Si O2"
_cell_formula_units_Z 64
_cell_length_a 28.775695
_cell_length_b 8.766260
_cell_length_c 15.290856
_cell_angle_alpha 90.000000
_cell_angle_beta 91.609595
_cell_angle_gamma 90.000000
_cell_volume 3855.676353
_symmetry_space_group_name_H-M "C 2/M"
_symmetry_group_IT_number 12
_symmetry_cell_setting 'monoclinic'
loop_
_space_group_symop_operation_xyz
x,y,z
-x,y,-z
-x,-y,-z
x,-y,z
1/2+x,1/2+y,z
1/2-x,1/2+y,-z
1/2-x,1/2-y,-z
1/2+x,1/2-y,z
loop_
_atom_site_type_symbol
_atom_site_label
_atom_site_fract_x
_atom_site_fract_y
_atom_site_fract_z
Si Si1 0.991910 0.315465 0.097115
Si Si2 0.168224 0.321406 0.672046
Si Si3 0.940649 0.681719 0.742498
Si Si4 0.257692 0.180170 0.597444
Si Si5 0.984774 0.178955 0.374244
Si Si6 0.100519 0.821054 0.528505
Si Si7 0.354186 0.677779 0.659188
Si Si8 0.083005 0.683203 0.772990
O O1 0.995861 0.500000 0.094022
O O2 0.941032 0.284097 0.135532
O O3 0.030185 0.264899 0.170784
O O4 0.000000 0.256047 0.000000
O O5 0.179806 0.500000 0.671529
O O6 0.214280 0.226969 0.655629
O O7 0.132978 0.282731 0.590756
O O8 0.137133 0.287839 0.756483
O O9 0.937427 0.500000 0.744855
O O10 0.889675 0.752085 0.730869
O O11 0.971519 0.728790 0.659740
O O12 0.250000 0.250000 0.500000
O O13 0.305218 0.240443 0.642228
O O14 0.259642 0.000000 0.587147
O O15 0.953783 0.216061 0.458273
O O16 0.946194 0.216573 0.297294
O O17 0.997171 0.000000 0.377506
O O18 0.118836 0.808421 0.431849
O O19 0.105946 0.000000 0.554972
O O20 0.346285 0.500000 0.676312
O O21 0.075461 0.500000 0.754505
#
# Coordination Sequence:
#
# PCOD9172160 Si02
#       8
#     8   8   8   8   8   8   8   8
#     4   8  14  28  52  78 102 128 158 193 234 288
#     4  10  18  29  47  69  96 128 162 206 249 284
#     4  10  20  33  47  68  97 127 160 199 242 291
#     4  12  23  35  50  70  94 126 169 212 249 284
#     4   9  16  28  45  64  89 124 162 198 236 278
#     4   9  18  30  45  64  88 123 166 205 239 280
#     4  11  22  35  49  66  92 127 166 206 247 287
#     4   8  15  27  45  72 100 125 158 197 239 287
#
# _framework density 16.598903
#
# number of rings (size 3 to 8) (size 9 to 14) (size 15 to 20)
#    0.000    2.375    1.250    3.375    0.000    2.000 
#    0.000    2.500    0.000    9.375    0.000    0.875 
#    0.000    0.000    0.000    0.000    0.000    0.000 
#
# Total GULP energy -178333.815379 kJ/mol
# GULP energy per Si atom -5572.931731 kJ/mol
# Density = 1.656112 g / cm^3
# Si number density = 16.598903 Si / 1000 Ang^3
#
#
#
# Elastic Constant Matrix: (Units=GPa)
#
#
# Indices 1 2 3 4 5 6 
#
# 1 134.2625 52.1791 42.9842 0.0000 0.9429 0.0000
# 2 52.1791 64.7691 27.5315 0.0000 0.5349 0.0000
# 3 42.9842 27.5315 68.0769 0.0000 -10.2381 0.0000
# 4 0.0000 0.0000 0.0000 10.1559 0.0000 1.8122
# 5 0.9429 0.5349 -10.2381 0.0000 17.5013 0.0000
# 6 0.0000 0.0000 0.0000 1.8122 0.0000 30.1223
#
#
#
# Elastic Compliance Matrix: (Units=1/GPa)
#
#
# Indices 1 2 3 4 5 6 
#
# 1 0.012002 -0.007492 -0.005056 0.000000 -0.003375 0.000000
# 2 -0.007492 0.023810 -0.005425 0.000000 -0.003497 0.000000
# 3 -0.005056 -0.005425 0.022084 0.000000 0.013357 0.000000
# 4 0.000000 0.000000 0.000000 0.099533 0.000000 -0.005988
# 5 -0.003375 -0.003497 0.013357 0.000000 0.065241 0.000000
# 6 0.000000 0.000000 0.000000 -0.005988 0.000000 0.033558
#
#
# Mechanical properties :
#
#
# Convention : Reuss Voigt Hill
#
# Bulk Modulus (GPa) = 45.55579 56.94424 51.25001
# Shear Modulus (GPa) = 16.69496 21.18346 18.93921
#
# Velocity S-wave (km/s) = 3.17485 3.57626 3.38152
# Velocity P-wave (km/s) = 6.39877 7.17171 6.79624
#
# Compressibility (1/GPa) = 0.02195111
#
# Stress axis : x y z
#
# Youngs Moduli (GPa) = 83.31824 41.99913 45.28136
#
# Poissons Ratio (x) = 0.31467 0.22894
# Poissons Ratio (y) = 0.62424 0.24563
# Poissons Ratio (z) = 0.42125 0.22783
#
# Static dielectric constant tensor:
#      x y z
#    x 1.591450 0.000000 -0.010340 
#    y 0.000000 1.559860 0.000000 
#    z -0.010340 0.000000 1.575180 
# 
# From -- ./inp_files/244119.got.cif
#   From: 2010.05.17/outbox.cif.g08.bks.cpg/sg12_123_cif.got.tgz:244119.got - 2010.06.03 13:09:07.
