data_PCOD9172972
_publ_section_title
;
Structure prediction by ZEFSAII (Michael W. Deem and Ramdas Pophale) SiO2 
 PCOD9172972
Probable space group: C 2/M
;
_chemical_formula_sum "Si O2"
_cell_formula_units_Z 64
_cell_length_a 14.227353
_cell_length_b 14.356949
_cell_length_c 17.966334
_cell_angle_alpha 90.000000
_cell_angle_beta 86.592399
_cell_angle_gamma 90.000000
_cell_volume 3663.339767
_symmetry_space_group_name_H-M "C 2/M"
_symmetry_group_IT_number 12
_symmetry_cell_setting 'monoclinic'
loop_
_space_group_symop_operation_xyz
x,y,z
-x,y,-z
-x,-y,-z
x,-y,z
1/2+x,1/2+y,z
1/2-x,1/2+y,-z
1/2-x,1/2-y,-z
1/2+x,1/2-y,z
loop_
_atom_site_type_symbol
_atom_site_label
_atom_site_fract_x
_atom_site_fract_y
_atom_site_fract_z
Si Si1 0.853990 0.249792 0.164412
Si Si2 0.193644 0.109341 0.126636
Si Si3 0.607721 0.607770 0.969653
Si Si4 0.219107 0.285550 0.300738
Si Si5 0.785910 0.888041 0.440199
Si Si6 0.955366 0.229365 0.773111
Si Si7 0.013611 0.108379 0.630928
Si Si8 0.800518 0.108294 0.603519
O O1 0.788503 0.336380 0.144199
O O2 0.862525 0.177978 0.096027
O O3 0.800301 0.201032 0.236275
O O4 0.959548 0.274335 0.185355
O O5 0.107852 0.161131 0.172848
O O6 0.195881 0.000000 0.146296
O O7 0.172213 0.117093 0.039821
O O8 0.611600 0.500000 0.943829
O O9 0.500000 0.625699 0.000000
O O10 0.228056 0.345972 0.374619
O O11 0.119876 0.296349 0.263414
O O12 0.226627 0.178594 0.329844
O O13 0.894594 0.861632 0.418595
O O14 0.759286 0.861297 0.525726
O O15 0.780465 0.000000 0.439016
O O16 0.000609 0.168633 0.705128
O O17 0.914395 0.113927 0.592497
O O18 0.026621 0.000000 0.650452
O O19 0.777269 0.000000 0.619758
#
# Coordination Sequence:
#
# PCOD9172972 Si02
#       8
#     8   8   8   8   8   8   8   8
#     4  11  21  35  56  83 112 145 181 225 273 323
#     4  10  21  37  58  84 111 147 188 224 268 323
#     4  10  20  35  59  88 113 141 177 223 273 322
#     4  10  21  33  50  77 107 141 178 218 268 323
#     4  10  18  30  49  73 103 138 175 220 273 322
#     4  10  19  33  52  78 112 142 183 221 271 317
#     4   9  16  27  47  75 104 131 167 220 276 322
#     4   9  18  32  51  74 101 133 175 225 272 321
#
# _framework density 17.470396000000001
#
# number of rings (size 3 to 8) (size 9 to 14) (size 15 to 20)
#    0.000    2.125    2.500    1.500    0.000    5.500 
#    0.000    0.625    0.000    1.125    0.000    1.750 
#    0.000    0.000    0.000    0.000    0.000    0.000 
#
# Total GULP energy -178415.456775 kJ/mol
# GULP energy per Si atom -5575.483024 kJ/mol
# Density = 1.743063 g / cm^3
# Si number density = 17.470396 Si / 1000 Ang^3
#
#
#
# Elastic Constant Matrix: (Units=GPa)
#
#
# Indices 1 2 3 4 5 6 
#
# 1 88.4756 28.3654 35.3994 0.0000 14.4636 0.0000
# 2 28.3654 31.0468 22.2543 0.0000 3.6563 0.0000
# 3 35.3994 22.2543 77.4998 0.0000 8.1845 0.0000
# 4 0.0000 0.0000 0.0000 19.0228 0.0000 -0.8677
# 5 14.4636 3.6563 8.1845 0.0000 27.7815 0.0000
# 6 0.0000 0.0000 0.0000 -0.8677 0.0000 17.8754
#
#
#
# Elastic Compliance Matrix: (Units=1/GPa)
#
#
# Indices 1 2 3 4 5 6 
#
# 1 0.018076 -0.012995 -0.003831 0.000000 -0.006572 0.000000
# 2 -0.012995 0.050004 -0.008714 0.000000 0.002751 0.000000
# 3 -0.003831 -0.008714 0.017364 0.000000 -0.001974 0.000000
# 4 0.000000 0.000000 0.000000 0.052685 0.000000 0.002557
# 5 -0.006572 0.002751 -0.001974 0.000000 0.039636 0.000000
# 6 0.000000 0.000000 0.000000 0.002557 0.000000 0.056067
#
#
# Mechanical properties :
#
#
# Convention : Reuss Voigt Hill
#
# Bulk Modulus (GPa) = 29.09976 41.00671 35.05324
# Shear Modulus (GPa) = 16.87112 20.33616 18.60364
#
# Velocity S-wave (km/s) = 3.11094 3.41550 3.26677
# Velocity P-wave (km/s) = 5.44028 6.25118 5.85977
#
# Compressibility (1/GPa) = 0.03436454
#
# Stress axis : x y z
#
# Youngs Moduli (GPa) = 55.32288 19.99855 57.59120
#
# Poissons Ratio (x) = 0.25987 0.22063
# Poissons Ratio (y) = 0.71890 0.50184
# Poissons Ratio (z) = 0.21194 0.17426
#
# Static dielectric constant tensor:
#      x y z
#    x 1.604480 0.000000 0.025460 
#    y 0.000000 1.582950 0.000000 
#    z 0.025460 0.000000 1.610090 
# 
# From -- ./inp_files/269840.got.cif
#   From: 2010.05.17/outbox.cif.g08.bks.cpg/sg12_135_cif.got.tgz:269840.got - 2010.06.03 13:09:07.
