data_PCOD9172278
_publ_section_title
;
Structure prediction by ZEFSAII (Michael W. Deem and Ramdas Pophale) SiO2 
 PCOD9172278
Probable space group: C 2/M
;
_chemical_formula_sum "Si O2"
_cell_formula_units_Z 64
_cell_length_a 25.759813
_cell_length_b 8.727889
_cell_length_c 24.326592
_cell_angle_alpha 90.000000
_cell_angle_beta 133.647240
_cell_angle_gamma 90.000000
_cell_volume 3957.615219
_symmetry_space_group_name_H-M "C 2/M"
_symmetry_group_IT_number 12
_symmetry_cell_setting 'monoclinic'
loop_
_space_group_symop_operation_xyz
x,y,z
-x,y,-z
-x,-y,-z
x,-y,z
1/2+x,1/2+y,z
1/2-x,1/2+y,-z
1/2-x,1/2-y,-z
1/2+x,1/2-y,z
loop_
_atom_site_type_symbol
_atom_site_label
_atom_site_fract_x
_atom_site_fract_y
_atom_site_fract_z
Si Si1 0.083570 0.316098 0.419543
Si Si2 0.308982 0.184071 0.310243
Si Si3 0.533327 0.683709 0.583759
Si Si4 0.115102 0.185067 0.325519
Si Si5 0.775157 0.314075 0.410854
Si Si6 0.943282 0.677403 0.009273
Si Si7 0.169499 0.684149 0.158204
Si Si8 0.058541 0.817954 0.165467
O O1 0.080458 0.500000 0.419690
O O2 0.084273 0.259735 0.357634
O O3 0.158424 0.264988 0.502888
O O4 0.018836 0.247264 0.407480
O O5 0.387299 0.247674 0.354106
O O6 0.288457 0.233651 0.357605
O O7 0.247425 0.247128 0.225408
O O8 0.309511 0.000000 0.309310
O O9 0.500000 0.727344 0.500000
O O10 0.536489 0.500000 0.588813
O O11 0.197722 0.235626 0.376307
O O12 0.072147 0.224351 0.238580
O O13 0.114462 0.000000 0.330814
O O14 0.774142 0.500000 0.409946
O O15 0.935731 0.500000 0.020444
O O16 0.981192 0.770955 0.085134
O O17 0.869924 0.732725 0.927285
O O18 0.000000 0.680944 0.000000
O O19 0.171470 0.500000 0.159843
O O20 0.118458 0.738882 0.170894
O O21 0.068680 0.000000 0.167710
#
# Coordination Sequence:
#
# PCOD9172278 Si02
#       8
#     8   8   8   8   8   8   8   8
#     4  11  22  36  54  75  98 135 178 217 257 301
#     4  11  20  34  55  77 102 134 172 216 258 302
#     4  11  23  38  55  76 100 132 172 215 262 308
#     4  10  20  35  50  72 106 139 171 213 257 302
#     4   9  18  33  51  72 102 134 168 209 257 299
#     4   8  16  29  44  66 101 137 166 205 252 300
#     4  10  19  31  47  72 105 136 169 209 255 307
#     4  10  18  29  48  72 101 138 174 208 252 304
#
# _framework density 16.171354999999998
#
# number of rings (size 3 to 8) (size 9 to 14) (size 15 to 20)
#    0.000    2.000    2.500    3.000    0.000    4.250 
#    0.000    0.625    0.000    0.000    0.000    0.875 
#    0.000    0.000    0.000    0.000    0.000    0.000 
#
# Total GULP energy -178547.126513 kJ/mol
# GULP energy per Si atom -5579.597704 kJ/mol
# Density = 1.613455 g / cm^3
# Si number density = 16.171355 Si / 1000 Ang^3
#
#
#
# Elastic Constant Matrix: (Units=GPa)
#
#
# Indices 1 2 3 4 5 6 
#
# 1 109.2910 34.8695 72.1939 0.0000 0.9382 0.0000
# 2 34.8695 45.0136 45.7444 0.0000 4.2326 0.0000
# 3 72.1939 45.7444 144.3302 0.0000 19.6045 0.0000
# 4 0.0000 0.0000 0.0000 26.4340 0.0000 2.0839
# 5 0.9382 4.2326 19.6045 0.0000 17.3366 0.0000
# 6 0.0000 0.0000 0.0000 2.0839 0.0000 19.5165
#
#
#
# Elastic Compliance Matrix: (Units=1/GPa)
#
#
# Indices 1 2 3 4 5 6 
#
# 1 0.015632 -0.005577 -0.007233 0.000000 0.008694 0.000000
# 2 -0.005577 0.035050 -0.008504 0.000000 0.001361 0.000000
# 3 -0.007233 -0.008504 0.015249 0.000000 -0.014776 0.000000
# 4 0.000000 0.000000 0.000000 0.038151 0.000000 -0.004074
# 5 0.008694 0.001361 -0.014776 0.000000 0.073587 0.000000
# 6 0.000000 0.000000 0.000000 -0.004074 0.000000 0.051674
#
#
# Mechanical properties :
#
#
# Convention : Reuss Voigt Hill
#
# Bulk Modulus (GPa) = 42.91221 67.13895 55.02558
# Shear Modulus (GPa) = 17.87388 22.37921 20.12654
#
# Velocity S-wave (km/s) = 3.32818 3.72409 3.53169
# Velocity P-wave (km/s) = 6.43138 7.75236 7.12256
#
# Compressibility (1/GPa) = 0.02330339
#
# Stress axis : x y z
#
# Youngs Moduli (GPa) = 63.97058 28.53084 65.57964
#
# Poissons Ratio (x) = 0.15911 0.47431
# Poissons Ratio (y) = 0.35676 0.55770
# Poissons Ratio (z) = 0.46268 0.24263
#
# Static dielectric constant tensor:
#      x y z
#    x 1.505680 0.000000 0.010630 
#    y 0.000000 1.542850 0.000000 
#    z 0.010630 0.000000 1.560560 
# 
# From -- ./inp_files/324324.got.cif
#   From: 2010.05.17/outbox.cif.g08.bks.cpg/sg12_163_cif.got.tgz:324324.got - 2010.06.03 13:09:07.
