data_PCOD9172233
_publ_section_title
;
Structure prediction by ZEFSAII (Michael W. Deem and Ramdas Pophale) SiO2 
 PCOD9172233
Probable space group: C 2/M
;
_chemical_formula_sum "Si O2"
_cell_formula_units_Z 64
_cell_length_a 31.999146
_cell_length_b 8.497940
_cell_length_c 15.842209
_cell_angle_alpha 90.000000
_cell_angle_beta 56.546423
_cell_angle_gamma 90.000000
_cell_volume 3594.240026
_symmetry_space_group_name_H-M "C 2/M"
_symmetry_group_IT_number 12
_symmetry_cell_setting 'monoclinic'
loop_
_space_group_symop_operation_xyz
x,y,z
-x,y,-z
-x,-y,-z
x,-y,z
1/2+x,1/2+y,z
1/2-x,1/2+y,-z
1/2-x,1/2-y,-z
1/2+x,1/2-y,z
loop_
_atom_site_type_symbol
_atom_site_label
_atom_site_fract_x
_atom_site_fract_y
_atom_site_fract_z
Si Si1 0.542507 0.683420 0.147445
Si Si2 0.054207 0.313004 0.830413
Si Si3 0.350046 0.311129 0.368204
Si Si4 0.987593 0.683640 0.640561
Si Si5 0.576399 0.312835 0.440801
Si Si6 0.113567 0.311063 0.934693
Si Si7 0.321932 0.691393 0.589269
Si Si8 0.209413 0.309145 0.725339
O O1 0.543130 0.500000 0.166067
O O2 0.496056 0.724377 0.137957
O O3 0.532680 0.775548 0.244828
O O4 0.592249 0.733186 0.042135
O O5 0.044788 0.500000 0.839396
O O6 0.097603 0.268756 0.715675
O O7 0.077096 0.271903 0.896274
O O8 0.356145 0.500000 0.359721
O O9 0.332233 0.262645 0.480880
O O10 0.310605 0.260000 0.340538
O O11 0.999286 0.500000 0.621373
O O12 0.947094 0.729577 0.614455
O O13 0.037841 0.778478 0.560228
O O14 0.577112 0.500000 0.424847
O O15 0.631616 0.256924 0.405086
O O16 0.112218 0.500000 0.945997
O O17 0.169015 0.264760 0.841829
O O18 0.322602 0.500000 0.590080
O O19 0.266348 0.740844 0.677940
O O20 0.207711 0.500000 0.720062
#
# Coordination Sequence:
#
# PCOD9172233 Si02
#       8
#     8   8   8   8   8   8   8   8
#     4  12  23  34  52  76 101 131 170 214 257 301
#     4  10  20  34  51  73 104 139 172 206 251 306
#     4  10  18  29  47  75 108 139 173 209 247 291
#     4  11  22  37  55  77 106 136 167 203 251 310
#     4  10  19  35  57  81 108 134 165 207 255 302
#     4   9  19  34  51  71 100 137 173 209 249 297
#     4   9  18  31  51  76 102 135 171 208 251 300
#     4   9  18  34  51  70 101 140 176 208 249 296
#
# _framework density 17.806266999999998
#
# number of rings (size 3 to 8) (size 9 to 14) (size 15 to 20)
#    0.000    2.000    0.000    6.375    0.000    5.000 
#    0.000    3.750    0.000    0.750    0.000    0.000 
#    0.000    0.000    0.000    0.000    0.000    0.000 
#
# Total GULP energy -178699.763629 kJ/mol
# GULP energy per Si atom -5584.367613 kJ/mol
# Density = 1.776574 g / cm^3
# Si number density = 17.806267 Si / 1000 Ang^3
#
#
#
# Elastic Constant Matrix: (Units=GPa)
#
#
# Indices 1 2 3 4 5 6 
#
# 1 68.0681 -6.3136 21.1849 0.0000 -22.7057 0.0000
# 2 -6.3136 19.6449 -5.1380 0.0001 3.1875 0.0000
# 3 21.1849 -5.1380 70.7537 0.0000 -7.5102 0.0000
# 4 0.0000 0.0001 0.0000 34.2320 0.0000 1.5637
# 5 -22.7057 3.1875 -7.5102 0.0000 16.1415 0.0000
# 6 0.0000 0.0000 0.0000 1.5637 0.0000 19.8239
#
#
#
# Elastic Compliance Matrix: (Units=1/GPa)
#
#
# Indices 1 2 3 4 5 6 
#
# 1 0.029097 0.001937 -0.004489 0.000000 0.038458 0.000000
# 2 0.001937 0.053273 0.002589 0.000000 -0.006591 0.000000
# 3 -0.004489 0.002589 0.015717 0.000000 0.000487 0.000000
# 4 0.000000 0.000000 0.000000 0.029318 0.000000 -0.002313
# 5 0.038458 -0.006591 0.000487 0.000000 0.117577 0.000000
# 6 0.000000 0.000000 0.000000 -0.002313 0.000000 0.050626
#
#
# Mechanical properties :
#
#
# Convention : Reuss Voigt Hill
#
# Bulk Modulus (GPa) = 10.18739 19.77036 14.97887
# Shear Modulus (GPa) = 15.23204 23.95504 19.59354
#
# Velocity S-wave (km/s) = 2.92795 3.67183 3.32079
# Velocity P-wave (km/s) = 4.14297 5.39478 4.80977
#
# Compressibility (1/GPa) = 0.09816058
#
# Stress axis : x y z
#
# Youngs Moduli (GPa) = 34.36830 18.77125 63.62391
#
# Poissons Ratio (x) = -0.03636 0.28562
# Poissons Ratio (y) = -0.06657 -0.16473
# Poissons Ratio (z) = 0.15429 -0.04860
#
# Static dielectric constant tensor:
#      x y z
#    x 1.603950 0.000000 -0.016590 
#    y 0.000000 1.605050 0.000000 
#    z -0.016590 0.000000 1.607760 
# 
# From -- ./inp_files/249041.got.cif
#   From: 2010.05.17/outbox.cif.g08.bks.cpg/sg12_125_cif.got.tgz:249041.got - 2010.06.03 13:09:07.
