data_PCOD9172501
_publ_section_title
;
Structure prediction by ZEFSAII (Michael W. Deem and Ramdas Pophale) SiO2 
 PCOD9172501
Probable space group: C 2/M
;
_chemical_formula_sum "Si O2"
_cell_formula_units_Z 56
_cell_length_a 16.044650
_cell_length_b 19.042125
_cell_length_c 10.245564
_cell_angle_alpha 90.000000
_cell_angle_beta 118.243134
_cell_angle_gamma 90.000000
_cell_volume 2757.601672
_symmetry_space_group_name_H-M "C 2/M"
_symmetry_group_IT_number 12
_symmetry_cell_setting 'monoclinic'
loop_
_space_group_symop_operation_xyz
x,y,z
-x,y,-z
-x,-y,-z
x,-y,z
1/2+x,1/2+y,z
1/2-x,1/2+y,-z
1/2-x,1/2-y,-z
1/2+x,1/2-y,z
loop_
_atom_site_type_symbol
_atom_site_label
_atom_site_fract_x
_atom_site_fract_y
_atom_site_fract_z
Si Si1 0.557102 0.419206 0.364665
Si Si2 0.770907 0.773061 0.823045
Si Si3 0.053017 0.175589 0.900662
Si Si4 0.260975 0.423763 0.688046
Si Si5 0.596767 0.787710 0.298111
Si Si6 0.557734 0.922110 0.410559
Si Si7 0.106729 0.213639 0.562974
O O1 0.541833 0.500000 0.391071
O O2 0.467400 0.386215 0.219650
O O3 0.644049 0.417833 0.326412
O O4 0.593130 0.367032 0.506256
O O5 0.752048 0.852644 0.761406
O O6 0.832820 0.725526 0.768840
O O7 0.671084 0.732629 0.733835
O O8 0.843475 0.792389 0.993280
O O9 0.990149 0.237787 0.797767
O O10 0.000000 0.155637 0.000000
O O11 0.264767 0.500000 0.761393
O O12 0.168022 0.425869 0.530429
O O13 0.556230 0.864091 0.298055
O O14 0.643841 0.757272 0.465374
O O15 0.500000 0.903927 0.500000
O O16 0.524963 0.000000 0.346842
O O17 0.000000 0.239978 0.500000
#
# Coordination Sequence:
#
# PCOD9172501 Si02
#       7
#     8   8   8   8   8   8   8
#     4  10  20  35  54  79 109 140 178 220 266 322
#     4  11  19  34  55  78 110 137 171 224 263 315
#     4   9  18  32  52  82 103 135 171 214 272 311
#     4  10  18  29  50  78 105 132 170 215 266 310
#     4  10  18  33  53  76 104 133 174 220 258 311
#     4  10  20  32  50  77 106 137 174 219 264 309
#     4  11  21  33  54  79 104 145 179 216 264 311
#
# _framework density 20.307500999999998
#
# number of rings (size 3 to 8) (size 9 to 14) (size 15 to 20)
#    0.000    1.857    5.714    1.714    0.000    1.143 
#    0.000    2.857    0.000    4.714    0.000    0.000 
#    0.000    0.000    0.000    0.000    0.000    0.143 
#
# Total GULP energy -155960.761373 kJ/mol
# GULP energy per Si atom -5570.027192 kJ/mol
# Density = 2.026128 g / cm^3
# Si number density = 20.307501 Si / 1000 Ang^3
#
#
#
# Elastic Constant Matrix: (Units=GPa)
#
#
# Indices 1 2 3 4 5 6 
#
# 1 57.1010 20.7212 36.8133 0.0000 14.0368 0.0000
# 2 20.7212 162.6506 33.7016 0.0000 -10.9002 0.0000
# 3 36.8133 33.7016 95.5035 0.0000 10.4218 0.0000
# 4 0.0000 0.0000 0.0000 15.5325 0.0000 13.0250
# 5 14.0368 -10.9002 10.4218 0.0000 33.5641 0.0000
# 6 0.0000 0.0000 0.0000 13.0250 0.0000 3.3973
#
#
#
# Elastic Compliance Matrix: (Units=1/GPa)
#
#
# Indices 1 2 3 4 5 6 
#
# 1 0.025789 -0.002188 -0.008192 0.000000 -0.008952 0.000000
# 2 -0.002188 0.007120 -0.002092 0.000000 0.003877 0.000000
# 3 -0.008192 -0.002092 0.014560 0.000000 -0.001775 0.000000
# 4 0.000000 0.000000 0.000000 -0.029066 0.000000 0.111436
# 5 -0.008952 0.003877 -0.001775 0.000000 0.035348 0.000000
# 6 0.000000 0.000000 0.000000 0.111436 0.000000 -0.132889
#
#
# Mechanical properties :
#
#
# Convention : Reuss Voigt Hill
#
# Bulk Modulus (GPa) = 44.39423 55.30302 49.84862
# Shear Modulus (GPa) = -107.09976 25.43337 -40.83319
#
# Velocity S-wave (km/s) = -7.27004 3.54278 -4.48900
# Velocity P-wave (km/s) = 6.96871 6.63529 1.50597
#
# Compressibility (1/GPa) = 0.02252545
#
# Stress axis : x y z
#
# Youngs Moduli (GPa) = 38.77670 140.44456 68.67930
#
# Poissons Ratio (x) = 0.30729 0.56260
# Poissons Ratio (y) = 0.08484 0.14370
# Poissons Ratio (z) = 0.31765 0.29385
#
# Static dielectric constant tensor:
#      x y z
#    x 1.796850 0.000000 -0.021260 
#    y 0.000000 1.763710 0.000000 
#    z -0.021260 0.000000 1.770860 
# 
# From -- ./inp_files/158337.got.cif
#   From: 2010.05.17/outbox.cif.g08.bks.cpg/sg12_80_cif.got.tgz:158337.got - 2010.06.03 13:09:07.
