data_PCOD9172888
_publ_section_title
;
Structure prediction by ZEFSAII (Michael W. Deem and Ramdas Pophale) SiO2 
 PCOD9172888
Probable space group: C 2/M
;
_chemical_formula_sum "Si O2"
_cell_formula_units_Z 48
_cell_length_a 9.421794
_cell_length_b 22.582563
_cell_length_c 14.835329
_cell_angle_alpha 90.000000
_cell_angle_beta 138.885107
_cell_angle_gamma 90.000000
_cell_volume 2075.614682
_symmetry_space_group_name_H-M "C 2/M"
_symmetry_group_IT_number 12
_symmetry_cell_setting 'monoclinic'
loop_
_space_group_symop_operation_xyz
x,y,z
-x,y,-z
-x,-y,-z
x,-y,z
1/2+x,1/2+y,z
1/2-x,1/2+y,-z
1/2-x,1/2-y,-z
1/2+x,1/2-y,z
loop_
_atom_site_type_symbol
_atom_site_label
_atom_site_fract_x
_atom_site_fract_y
_atom_site_fract_z
Si Si1 0.255861 0.935618 0.421625
Si Si2 0.068346 0.881463 0.167238
Si Si3 0.438481 0.751013 0.821664
Si Si4 0.490936 0.901281 0.699081
Si Si5 0.575934 0.119169 0.937066
Si Si6 0.486447 0.236379 0.647326
O O1 0.500000 0.933828 0.500000
O O2 0.131708 0.886869 0.303858
O O3 0.302597 0.930179 0.549886
O O4 0.159710 0.000000 0.355030
O O5 0.060097 0.812884 0.130772
O O6 0.259258 0.917205 0.207607
O O7 0.822685 0.900631 0.041831
O O8 0.545018 0.808811 0.915779
O O9 0.540419 0.740772 0.772935
O O10 0.182403 0.761044 0.681887
O O11 0.457165 0.903498 0.789739
O O12 0.489378 0.834152 0.660835
O O13 0.500000 0.100901 0.000000
O O14 0.250000 0.250000 0.500000
#
# Coordination Sequence:
#
# PCOD9172888 Si02
#       6
#     8   8   8   8   8   8
#     4   9  18  36  63  89 108 134 184 246 296 334
#     4  10  19  35  57  82 111 145 185 230 281 333
#     4  10  20  31  48  76 111 149 183 218 265 324
#     4   9  20  35  55  81 110 144 182 232 285 328
#     4  11  22  35  52  80 117 155 189 220 263 332
#     4  10  18  30  48  75 110 145 180 220 268 324
#
# _framework density 23.125679000000002
#
# number of rings (size 3 to 8) (size 9 to 14) (size 15 to 20)
#    0.000    2.167    0.000    3.500    0.000    5.333 
#    0.000    3.333    0.000    7.000    0.000    0.000 
#    0.000    0.000    0.000    0.000    0.000    0.000 
#
# Total GULP energy -133786.491980 kJ/mol
# GULP energy per Si atom -5574.437166 kJ/mol
# Density = 2.307304 g / cm^3
# Si number density = 23.125679 Si / 1000 Ang^3
#
#
#
# Elastic Constant Matrix: (Units=GPa)
#
#
# Indices 1 2 3 4 5 6 
#
# 1 73.6333 3.8030 41.1965 0.0000 -29.6156 0.0000
# 2 3.8030 43.9518 14.8536 0.0000 -4.2727 0.0000
# 3 41.1965 14.8536 122.3137 -0.0001 -21.0176 -0.0001
# 4 0.0000 0.0000 -0.0001 12.3234 0.0000 -4.2798
# 5 -29.6156 -4.2727 -21.0176 0.0000 44.0599 0.0000
# 6 0.0000 0.0000 -0.0001 -4.2798 0.0000 6.0791
#
#
#
# Elastic Compliance Matrix: (Units=1/GPa)
#
#
# Indices 1 2 3 4 5 6 
#
# 1 0.021236 0.001089 -0.005244 0.000000 0.011878 0.000000
# 2 0.001089 0.023823 -0.002982 0.000000 0.001620 0.000000
# 3 -0.005244 -0.002982 0.010510 0.000000 0.001200 0.000000
# 4 0.000000 0.000000 0.000000 0.107408 0.000000 0.075617
# 5 0.011878 0.001620 0.001200 0.000000 0.031410 0.000001
# 6 0.000000 0.000000 0.000000 0.075617 0.000001 0.217734
#
#
# Mechanical properties :
#
#
# Convention : Reuss Voigt Hill
#
# Bulk Modulus (GPa) = 24.21466 39.95612 32.08539
# Shear Modulus (GPa) = 11.35956 24.49552 17.92754
#
# Velocity S-wave (km/s) = 2.21873 3.25812 2.78730
# Velocity P-wave (km/s) = 4.13005 5.60973 4.92577
#
# Compressibility (1/GPa) = 0.04129730
#
# Stress axis : x y z
#
# Youngs Moduli (GPa) = 47.09032 41.97608 95.14704
#
# Poissons Ratio (x) = -0.04573 0.49892
# Poissons Ratio (y) = -0.05130 0.28369
# Poissons Ratio (z) = 0.24692 0.12515
#
# Static dielectric constant tensor:
#      x y z
#    x 1.935180 0.000000 -0.021100 
#    y 0.000000 1.922900 0.000000 
#    z -0.021100 0.000000 1.898190 
# 
# From -- ./inp_files/200211.got.cif
#   From: 2010.05.17/outbox.cif.g08.bks.cpg/sg12_101_cif.got.tgz:200211.got - 2010.06.03 13:09:07.
