data_PCOD9172557
_publ_section_title
;
Structure prediction by ZEFSAII (Michael W. Deem and Ramdas Pophale) SiO2 
 PCOD9172557
Probable space group: C 2/M
;
_chemical_formula_sum "Si O2"
_cell_formula_units_Z 64
_cell_length_a 21.331833
_cell_length_b 17.259032
_cell_length_c 19.864556
_cell_angle_alpha 90.000000
_cell_angle_beta 151.205250
_cell_angle_gamma 90.000000
_cell_volume 3522.703684
_symmetry_space_group_name_H-M "C 2/M"
_symmetry_group_IT_number 12
_symmetry_cell_setting 'monoclinic'
loop_
_space_group_symop_operation_xyz
x,y,z
-x,y,-z
-x,-y,-z
x,-y,z
1/2+x,1/2+y,z
1/2-x,1/2+y,-z
1/2-x,1/2-y,-z
1/2+x,1/2-y,z
loop_
_atom_site_type_symbol
_atom_site_label
_atom_site_fract_x
_atom_site_fract_y
_atom_site_fract_z
Si Si1 0.108683 0.266592 0.332977
Si Si2 0.266347 0.245155 0.354851
Si Si3 0.240560 0.589871 0.115226
Si Si4 0.864812 0.275881 0.906349
Si Si5 0.203676 0.657533 0.813988
Si Si6 0.921851 0.411083 0.174174
Si Si7 0.847101 0.412751 0.373347
Si Si8 0.017207 0.799331 0.662229
O O1 0.250000 0.250000 0.500000
O O2 0.140879 0.253207 0.285083
O O3 0.042090 0.350800 0.280908
O O4 0.013956 0.211750 0.287700
O O5 0.237159 0.268760 0.251069
O O6 0.309106 0.154933 0.389462
O O7 0.381360 0.297829 0.494211
O O8 0.249864 0.500000 0.140939
O O9 0.146857 0.638578 0.075691
O O10 0.381108 0.631516 0.251020
O O11 0.174101 0.597937 0.979619
O O12 0.827891 0.214408 0.929768
O O13 0.000000 0.257226 0.000000
O O14 0.164706 0.608122 0.841671
O O15 0.216027 0.606555 0.758523
O O16 0.088272 0.721412 0.702766
O O17 0.967591 0.500000 0.220160
O O18 0.816361 0.500000 0.367135
O O19 0.000000 0.408736 0.500000
#
# Coordination Sequence:
#
# PCOD9172557 Si02
#       8
#     8   8   8   8   8   8   8   8
#     4   9  19  35  55  81 108 140 180 221 263 323
#     4  10  19  35  54  77 112 144 178 221 272 322
#     4  10  22  37  54  78 106 140 186 234 275 317
#     4  10  21  34  55  80 107 144 183 221 268 328
#     4   9  18  32  54  80 108 135 177 217 264 323
#     4  10  20  36  58  81 109 142 180 230 274 313
#     4  10  18  29  51  81 110 137 170 216 263 315
#     4   9  18  35  55  77 104 140 179 225 269 323
#
# _framework density 18.167864000000002
#
# number of rings (size 3 to 8) (size 9 to 14) (size 15 to 20)
#    0.000    2.375    1.250    1.125    0.000    5.750 
#    0.000    5.000    0.000   10.875    0.000    0.000 
#    0.000    0.000    0.000    0.000    0.000    0.000 
#
# Total GULP energy -178181.646409 kJ/mol
# GULP energy per Si atom -5568.176450 kJ/mol
# Density = 1.812651 g / cm^3
# Si number density = 18.167864 Si / 1000 Ang^3
#
#
#
# Elastic Constant Matrix: (Units=GPa)
#
#
# Indices 1 2 3 4 5 6 
#
# 1 85.4545 24.4539 6.7234 -0.0005 9.8837 -0.0003
# 2 24.4539 106.7670 28.2239 -0.0003 1.0666 -0.0003
# 3 6.7234 28.2239 44.6484 0.0002 5.5982 0.0000
# 4 -0.0005 -0.0003 0.0002 14.9537 -0.0002 -7.3874
# 5 9.8837 1.0666 5.5982 -0.0002 26.6092 -0.0002
# 6 -0.0003 -0.0003 0.0000 -7.3874 -0.0002 17.2623
#
#
#
# Elastic Compliance Matrix: (Units=1/GPa)
#
#
# Indices 1 2 3 4 5 6 
#
# 1 0.013109 -0.003114 0.000605 0.000000 -0.004872 0.000000
# 2 -0.003114 0.012015 -0.007406 0.000000 0.002233 0.000000
# 3 0.000605 -0.007406 0.027710 -0.000001 -0.005758 0.000000
# 4 0.000000 0.000000 -0.000001 0.084801 0.000001 0.036291
# 5 -0.004872 0.002233 -0.005758 0.000001 0.040512 0.000001
# 6 0.000000 0.000000 0.000000 0.036291 0.000001 0.073460
#
#
# Mechanical properties :
#
#
# Convention : Reuss Voigt Hill
#
# Bulk Modulus (GPa) = 30.29933 39.51914 34.90923
# Shear Modulus (GPa) = 17.70296 23.59630 20.64963
#
# Velocity S-wave (km/s) = 3.12494 3.60779 3.37501
# Velocity P-wave (km/s) = 5.45289 6.25734 5.86891
#
# Compressibility (1/GPa) = 0.03300404
#
# Stress axis : x y z
#
# Youngs Moduli (GPa) = 76.28326 83.23002 36.08840
#
# Poissons Ratio (x) = 0.25916 -0.02184
# Poissons Ratio (y) = 0.23753 0.26728
# Poissons Ratio (z) = -0.04616 0.61642
#
# Static dielectric constant tensor:
#      x y z
#    x 1.651120 0.000000 -0.013020 
#    y 0.000000 1.616810 0.000000 
#    z -0.013020 0.000000 1.664700 
# 
# From -- ./inp_files/322452.got.cif
#   From: 2010.05.17/outbox.cif.g08.bks.cpg/sg12_162_cif.got.tgz:322452.got - 2010.06.03 13:09:07.
