data_PCOD9172505
_publ_section_title
;
Structure prediction by ZEFSAII (Michael W. Deem and Ramdas Pophale) SiO2 
 PCOD9172505
Probable space group: C 2/M
;
_chemical_formula_sum "Si O2"
_cell_formula_units_Z 40
_cell_length_a 16.012407
_cell_length_b 12.199005
_cell_length_c 10.839505
_cell_angle_alpha 90.000000
_cell_angle_beta 124.653548
_cell_angle_gamma 90.000000
_cell_volume 1741.734633
_symmetry_space_group_name_H-M "C 2/M"
_symmetry_group_IT_number 12
_symmetry_cell_setting 'monoclinic'
loop_
_space_group_symop_operation_xyz
x,y,z
-x,y,-z
-x,-y,-z
x,-y,z
1/2+x,1/2+y,z
1/2-x,1/2+y,-z
1/2-x,1/2-y,-z
1/2+x,1/2-y,z
loop_
_atom_site_type_symbol
_atom_site_label
_atom_site_fract_x
_atom_site_fract_y
_atom_site_fract_z
Si Si1 0.832835 0.622851 0.510549
Si Si2 0.705134 0.797483 0.089684
Si Si3 0.099574 0.200609 0.633447
Si Si4 0.488928 0.197118 0.195754
Si Si5 0.628801 0.626577 0.225811
O O1 0.851786 0.500000 0.477406
O O2 0.869237 0.715101 0.447121
O O3 0.904209 0.636043 0.690346
O O4 0.710514 0.633610 0.408187
O O5 0.798369 0.858825 0.234840
O O6 0.677090 0.695786 0.155164
O O7 0.750000 0.750000 0.000000
O O8 0.597828 0.852695 0.964339
O O9 0.000000 0.138324 0.500000
O O10 0.062690 0.276484 0.716631
O O11 0.524906 0.314439 0.173790
O O12 0.615988 0.500000 0.184504
#
# Coordination Sequence:
#
# PCOD9172505 Si02
#       5
#     8   8   8   8   8
#     4   9  18  33  54  79 105 137 176 212 252 307
#     4   9  18  32  48  71 103 137 169 207 256 306
#     4   8  16  30  49  72 100 136 172 206 249 303
#     4  10  18  29  50  78 108 135 166 215 264 303
#     4  10  20  34  54  79 105 136 175 215 256 306
#
# _framework density 22.965610000000002
#
# number of rings (size 3 to 8) (size 9 to 14) (size 15 to 20)
#    0.000    2.800    0.000    1.200    0.000    5.200 
#    0.000    5.000    0.000   10.200    0.000   14.000 
#    0.000    0.000    0.000    0.000    0.000    0.000 
#
# Total GULP energy -111394.963011 kJ/mol
# GULP energy per Si atom -5569.748151 kJ/mol
# Density = 2.291334 g / cm^3
# Si number density = 22.965610 Si / 1000 Ang^3
#
#
#
# Elastic Constant Matrix: (Units=GPa)
#
#
# Indices 1 2 3 4 5 6 
#
# 1 55.1158 21.2016 32.9987 0.0000 13.4859 0.0000
# 2 21.2016 45.1856 7.0999 0.0000 -10.6505 0.0000
# 3 32.9987 7.0999 197.8812 0.0000 64.1146 0.0000
# 4 0.0000 0.0000 0.0000 9.4963 0.0000 1.5001
# 5 13.4859 -10.6505 64.1146 0.0000 53.6789 0.0000
# 6 0.0000 0.0000 0.0000 1.5001 0.0000 -5.5284
#
#
#
# Elastic Compliance Matrix: (Units=1/GPa)
#
#
# Indices 1 2 3 4 5 6 
#
# 1 0.026191 -0.013885 -0.001378 0.000000 -0.007689 0.000000
# 2 -0.013885 0.032465 -0.003371 0.000000 0.013957 0.000000
# 3 -0.001378 -0.003371 0.008987 0.000000 -0.011056 0.000000
# 4 0.000000 0.000000 0.000000 0.100976 0.000000 0.027399
# 5 -0.007689 0.013957 -0.011056 0.000000 0.036536 0.000000
# 6 0.000000 0.000000 0.000000 0.027399 0.000000 -0.173450
#
#
# Mechanical properties :
#
#
# Convention : Reuss Voigt Hill
#
# Bulk Modulus (GPa) = 32.92289 46.75367 39.83828
# Shear Modulus (GPa) = 63.21146 27.32152 45.26649
#
# Velocity S-wave (km/s) = 5.25206 3.45290 4.44447
# Velocity P-wave (km/s) = 7.15162 6.02487 6.61229
#
# Compressibility (1/GPa) = 0.03037400
#
# Stress axis : x y z
#
# Youngs Moduli (GPa) = 38.18059 30.80206 111.27546
#
# Poissons Ratio (x) = 0.42769 0.15336
# Poissons Ratio (y) = 0.53014 0.37516
# Poissons Ratio (z) = 0.05262 0.10385
#
# Static dielectric constant tensor:
#      x y z
#    x 1.887340 0.000000 0.052620 
#    y 0.000000 1.828970 0.000000 
#    z 0.052620 0.000000 2.034000 
# 
# From -- ./inp_files/155093.got.cif
#   From: 2010.05.17/outbox.cif.g08.bks.cpg/sg12_78_cif.got.tgz:155093.got - 2010.06.03 13:09:07.
