data_PCOD9172303
_publ_section_title
;
Structure prediction by ZEFSAII (Michael W. Deem and Ramdas Pophale) SiO2 
 PCOD9172303
Probable space group: C 2/M
;
_chemical_formula_sum "Si O2"
_cell_formula_units_Z 64
_cell_length_a 24.449901
_cell_length_b 11.078168
_cell_length_c 12.218447
_cell_angle_alpha 90.000000
_cell_angle_beta 96.342694
_cell_angle_gamma 90.000000
_cell_volume 3289.232226
_symmetry_space_group_name_H-M "C 2/M"
_symmetry_group_IT_number 12
_symmetry_cell_setting 'monoclinic'
loop_
_space_group_symop_operation_xyz
x,y,z
-x,y,-z
-x,-y,-z
x,-y,z
1/2+x,1/2+y,z
1/2-x,1/2+y,-z
1/2-x,1/2-y,-z
1/2+x,1/2-y,z
loop_
_atom_site_type_symbol
_atom_site_label
_atom_site_fract_x
_atom_site_fract_y
_atom_site_fract_z
Si Si1 0.440376 0.293134 0.003912
Si Si2 0.127260 0.640076 0.182699
Si Si3 0.064329 0.644734 0.376269
Si Si4 0.737329 0.142119 0.584641
Si Si5 0.959317 0.644094 0.216662
Si Si6 0.677593 0.368854 0.939595
Si Si7 0.234845 0.776807 0.166078
Si Si8 0.390741 0.143175 0.393610
O O1 0.456627 0.192459 0.095397
O O2 0.387147 0.356899 0.046501
O O3 0.500000 0.356956 0.000000
O O4 0.413662 0.227714 0.892715
O O5 0.113941 0.500000 0.157177
O O6 0.116624 0.662052 0.308942
O O7 0.189602 0.669834 0.164569
O O8 0.057114 0.500000 0.385962
O O9 0.073778 0.695741 0.498569
O O10 0.011763 0.687736 0.297696
O O11 0.750000 0.250000 0.500000
O O12 0.761990 0.165933 0.712172
O O13 0.672206 0.153048 0.590005
O O14 0.749071 0.000000 0.554769
O O15 0.961595 0.500000 0.210179
O O16 0.907854 0.686905 0.278343
O O17 0.687550 0.500000 0.892647
O O18 0.706904 0.271172 0.867462
O O19 0.709414 0.358287 0.063448
O O20 0.403241 0.000000 0.392968
#
# Coordination Sequence:
#
# PCOD9172303 Si02
#       8
#     8   8   8   8   8   8   8   8
#     4  11  21  33  50  77 110 147 191 232 289 354
#     4  10  19  31  52  81 114 147 183 237 295 353
#     4   9  16  27  45  71 104 140 176 218 278 343
#     4  11  23  39  60  87 121 157 198 247 298 357
#     4  10  18  29  48  73 107 143 177 225 285 343
#     4  10  22  39  59  82 112 151 197 249 298 354
#     4  10  21  38  60  85 113 150 198 243 298 357
#     4   9  18  31  48  74 105 141 184 229 286 346
#
# _framework density 19.457428
#
# number of rings (size 3 to 8) (size 9 to 14) (size 15 to 20)
#    0.000    2.000    1.250    3.000    0.000    4.250 
#    0.000    3.750    0.000    0.000    0.000    0.000 
#    0.000    4.000    0.000    0.000    0.000    0.000 
#
# Total GULP energy -178147.064185 kJ/mol
# GULP energy per Si atom -5567.095756 kJ/mol
# Density = 1.941314 g / cm^3
# Si number density = 19.457428 Si / 1000 Ang^3
#
#
#
# Elastic Constant Matrix: (Units=GPa)
#
#
# Indices 1 2 3 4 5 6 
#
# 1 103.2909 23.7230 16.2221 0.0000 -5.4631 0.0000
# 2 23.7230 52.6489 10.6942 0.0000 -7.4829 0.0000
# 3 16.2221 10.6942 77.0283 0.0000 -1.9217 0.0000
# 4 0.0000 0.0000 0.0000 14.6958 0.0000 -5.2695
# 5 -5.4631 -7.4829 -1.9217 0.0000 30.9884 0.0000
# 6 0.0000 0.0000 0.0000 -5.2695 0.0000 15.1127
#
#
#
# Elastic Compliance Matrix: (Units=1/GPa)
#
#
# Indices 1 2 3 4 5 6 
#
# 1 0.011022 -0.004520 -0.001675 0.000000 0.000748 0.000000
# 2 -0.004520 0.022063 -0.002001 0.000000 0.004407 0.000000
# 3 -0.001675 -0.002001 0.013615 0.000000 0.000066 0.000000
# 4 0.000000 0.000000 0.000000 0.077770 0.000000 0.027117
# 5 0.000748 0.004407 0.000066 0.000000 0.033470 0.000000
# 6 0.000000 0.000000 0.000000 0.027117 0.000000 0.075625
#
#
# Mechanical properties :
#
#
# Convention : Reuss Voigt Hill
#
# Bulk Modulus (GPa) = 32.99540 37.13853 35.06696
# Shear Modulus (GPa) = 19.22634 24.31463 21.77048
#
# Velocity S-wave (km/s) = 3.14685 3.53885 3.34859
# Velocity P-wave (km/s) = 5.49528 5.98552 5.74563
#
# Compressibility (1/GPa) = 0.03030726
#
# Stress axis : x y z
#
# Youngs Moduli (GPa) = 90.72666 45.32427 73.45106
#
# Poissons Ratio (x) = 0.20486 0.12304
# Poissons Ratio (y) = 0.41008 0.14700
# Poissons Ratio (z) = 0.15197 0.09071
#
# Static dielectric constant tensor:
#      x y z
#    x 1.739850 0.000000 -0.009000 
#    y 0.000000 1.675210 0.000000 
#    z -0.009000 0.000000 1.699060 
# 
# From -- ./inp_files/174618.got.cif
#   From: 2010.05.17/outbox.cif.g08.bks.cpg/sg12_88_cif.got.tgz:174618.got - 2010.06.03 13:09:07.
