data_PCOD9172413
_publ_section_title
;
Structure prediction by ZEFSAII (Michael W. Deem and Ramdas Pophale) SiO2 
 PCOD9172413
Probable space group: C 2/M
;
_chemical_formula_sum "Si O2"
_cell_formula_units_Z 64
_cell_length_a 21.043569
_cell_length_b 7.619006
_cell_length_c 25.478005
_cell_angle_alpha 90.000000
_cell_angle_beta 127.520659
_cell_angle_gamma 90.000000
_cell_volume 3239.884920
_symmetry_space_group_name_H-M "C 2/M"
_symmetry_group_IT_number 12
_symmetry_cell_setting 'monoclinic'
loop_
_space_group_symop_operation_xyz
x,y,z
-x,y,-z
-x,-y,-z
x,-y,z
1/2+x,1/2+y,z
1/2-x,1/2+y,-z
1/2-x,1/2-y,-z
1/2+x,1/2-y,z
loop_
_atom_site_type_symbol
_atom_site_label
_atom_site_fract_x
_atom_site_fract_y
_atom_site_fract_z
Si Si1 0.783753 0.790348 0.958895
Si Si2 0.131066 0.288708 0.821208
Si Si3 0.032031 0.705312 0.961754
Si Si4 0.988039 0.284201 0.826579
Si Si5 0.278738 0.288829 0.455770
Si Si6 0.038924 0.785182 0.465184
Si Si7 0.369960 0.795629 0.681927
Si Si8 0.489093 0.707453 0.326507
O O1 0.718178 0.726403 0.883424
O O2 0.790066 0.000000 0.957633
O O3 0.750000 0.750000 0.000000
O O4 0.872102 0.716249 0.994862
O O5 0.132660 0.500000 0.823370
O O6 0.093332 0.238139 0.746344
O O7 0.066409 0.231152 0.832628
O O8 0.009156 0.500000 0.950446
O O9 0.995324 0.779251 0.889530
O O10 0.000000 0.783268 0.000000
O O11 0.988125 0.500000 0.826474
O O12 0.911429 0.222131 0.754977
O O13 0.280491 0.500000 0.451411
O O14 0.250000 0.250000 0.500000
O O15 0.368902 0.226432 0.492360
O O16 0.211536 0.218075 0.382072
O O17 0.000000 0.726235 0.500000
O O18 0.994000 0.730654 0.389015
O O19 0.038082 0.000000 0.465368
O O20 0.438846 0.787640 0.671806
O O21 0.354063 0.000000 0.684813
O O22 0.504584 0.500000 0.334444
#
# Coordination Sequence:
#
# PCOD9172413 Si02
#       8
#     8   8   8   8   8   8   8   8
#     4  11  21  35  56  80 107 138 178 224 265 316
#     4   9  18  33  52  73 102 136 168 212 261 310
#     4  10  20  35  54  77 110 144 176 218 263 314
#     4   8  14  29  48  70  99 131 167 203 252 306
#     4  10  18  30  50  73  96 127 167 210 248 294
#     4   9  18  32  48  71 105 138 165 203 256 304
#     4   9  17  29  48  71  98 130 166 207 253 309
#     4  10  18  29  49  76 102 128 165 213 254 299
#
# _framework density 19.753789999999999
#
# number of rings (size 3 to 8) (size 9 to 14) (size 15 to 20)
#    0.000    2.500    2.500    1.500    0.000    1.250 
#    0.000    1.250    0.000    7.875    0.000    0.000 
#    0.000    0.000    0.000    0.000    0.000    0.000 
#
# Total GULP energy -178490.214941 kJ/mol
# GULP energy per Si atom -5577.819217 kJ/mol
# Density = 1.970883 g / cm^3
# Si number density = 19.753790 Si / 1000 Ang^3
#
#
#
# Elastic Constant Matrix: (Units=GPa)
#
#
# Indices 1 2 3 4 5 6 
#
# 1 109.0488 -8.4583 85.6812 0.0000 -17.1658 0.0000
# 2 -8.4583 40.3338 -1.7822 0.0000 -3.2158 0.0001
# 3 85.6812 -1.7822 221.5455 0.0000 -16.8742 0.0000
# 4 0.0000 0.0000 0.0000 15.6592 0.0000 -0.5493
# 5 -17.1658 -3.2158 -16.8742 0.0000 26.5204 0.0000
# 6 0.0000 0.0001 0.0000 -0.5493 0.0000 10.8957
#
#
#
# Elastic Compliance Matrix: (Units=1/GPa)
#
#
# Indices 1 2 3 4 5 6 
#
# 1 0.014428 0.003322 -0.005056 0.000000 0.006524 0.000000
# 2 0.003322 0.025844 -0.000709 0.000000 0.004833 0.000000
# 3 -0.005056 -0.000709 0.006524 0.000000 0.000792 0.000000
# 4 0.000000 0.000000 0.000000 0.063973 0.000000 0.003225
# 5 0.006524 0.004833 0.000792 0.000000 0.043020 0.000000
# 6 0.000000 0.000000 0.000000 0.003225 0.000000 0.091942
#
#
# Mechanical properties :
#
#
# Convention : Reuss Voigt Hill
#
# Bulk Modulus (GPa) = 23.86068 57.97883 40.91976
# Shear Modulus (GPa) = 18.89748 30.31423 24.60585
#
# Velocity S-wave (km/s) = 3.09633 3.92165 3.53317
# Velocity P-wave (km/s) = 4.98882 7.06543 6.11590
#
# Compressibility (1/GPa) = 0.04190995
#
# Stress axis : x y z
#
# Youngs Moduli (GPa) = 69.31174 38.69392 153.28484
#
# Poissons Ratio (x) = -0.12855 0.77502
# Poissons Ratio (y) = -0.23028 0.10866
# Poissons Ratio (z) = 0.35045 0.02743
#
# Static dielectric constant tensor:
#      x y z
#    x 1.655050 0.000000 0.002820 
#    y 0.000000 1.761240 0.000000 
#    z 0.002820 0.000000 1.736380 
# 
# From -- ./inp_files/365215.got.cif
#   From: 2010.05.17/outbox.cif.g08.bks.cpg/sg12_183_cif.got.tgz:365215.got - 2010.06.03 13:09:07.
