data_PCOD9172739
_publ_section_title
;
Structure prediction by ZEFSAII (Michael W. Deem and Ramdas Pophale) SiO2 
 PCOD9172739
Probable space group: C 2/M
;
_chemical_formula_sum "Si O2"
_cell_formula_units_Z 48
_cell_length_a 19.973332
_cell_length_b 7.606433
_cell_length_c 21.448824
_cell_angle_alpha 90.000000
_cell_angle_beta 47.689583
_cell_angle_gamma 90.000000
_cell_volume 2409.785302
_symmetry_space_group_name_H-M "C 2/M"
_symmetry_group_IT_number 12
_symmetry_cell_setting 'monoclinic'
loop_
_space_group_symop_operation_xyz
x,y,z
-x,y,-z
-x,-y,-z
x,-y,z
1/2+x,1/2+y,z
1/2-x,1/2+y,-z
1/2-x,1/2-y,-z
1/2+x,1/2-y,z
loop_
_atom_site_type_symbol
_atom_site_label
_atom_site_fract_x
_atom_site_fract_y
_atom_site_fract_z
Si Si1 0.757056 0.703620 0.285657
Si Si2 0.947818 0.297131 0.591338
Si Si3 0.951107 0.709895 0.968268
Si Si4 0.059734 0.284802 0.264571
Si Si5 0.443762 0.215784 0.220237
Si Si6 0.735123 0.709618 0.860671
O O1 0.742559 0.500000 0.310522
O O2 0.660043 0.794001 0.352277
O O3 0.840624 0.773179 0.273559
O O4 0.785679 0.714455 0.194917
O O5 0.978241 0.500000 0.576432
O O6 0.961837 0.221481 0.651860
O O7 0.000000 0.216026 0.500000
O O8 0.964294 0.500000 0.959981
O O9 0.996540 0.774949 0.876382
O O10 0.844612 0.743805 0.042262
O O11 0.000000 0.780686 0.000000
O O12 0.058983 0.500000 0.266066
O O13 0.163546 0.232677 0.184860
O O14 0.990550 0.227872 0.254860
O O15 0.442729 0.000000 0.220479
O O16 0.737152 0.500000 0.852194
#
# Coordination Sequence:
#
# PCOD9172739 Si02
#       6
#     8   8   8   8   8   8
#     4  10  18  31  52  74  96 126 164 200 238 283
#     4   9  18  34  55  76  98 125 156 193 240 294
#     4  10  18  30  47  69  96 129 170 205 236 278
#     4   8  16  31  49  69  95 128 162 194 239 292
#     4   9  17  30  48  69  96 130 164 200 240 281
#     4  10  19  31  48  71  98 130 167 203 240 282
#
# _framework density 19.918787999999999
#
# number of rings (size 3 to 8) (size 9 to 14) (size 15 to 20)
#    0.000    2.667    1.667    2.000    0.000    1.333 
#    0.000    0.833    0.000   14.000    0.000    0.000 
#    0.000    0.000    0.000    0.000    0.000    0.000 
#
# Total GULP energy -133877.187759 kJ/mol
# GULP energy per Si atom -5578.216157 kJ/mol
# Density = 1.987345 g / cm^3
# Si number density = 19.918788 Si / 1000 Ang^3
#
#
#
# Elastic Constant Matrix: (Units=GPa)
#
#
# Indices 1 2 3 4 5 6 
#
# 1 170.3720 -0.0395 63.2855 0.0002 13.5608 0.0010
# 2 -0.0395 41.0965 -1.7714 0.0001 6.3326 0.0010
# 3 63.2855 -1.7714 122.8357 0.0000 11.0732 0.0001
# 4 0.0002 0.0001 0.0000 14.3582 0.0000 -8.6546
# 5 13.5608 6.3326 11.0732 0.0000 14.8627 0.0002
# 6 0.0010 0.0010 0.0001 -8.6546 0.0002 11.9788
#
#
#
# Elastic Compliance Matrix: (Units=1/GPa)
#
#
# Indices 1 2 3 4 5 6 
#
# 1 0.007513 0.000554 -0.003455 -0.000001 -0.004516 -0.000001
# 2 0.000554 0.026335 0.001234 -0.000003 -0.012646 -0.000004
# 3 -0.003455 0.001234 0.010401 0.000000 -0.005122 0.000000
# 4 -0.000001 -0.000003 0.000000 0.123375 0.000000 0.089137
# 5 -0.004516 -0.012646 -0.005122 0.000000 0.080607 0.000000
# 6 -0.000001 -0.000004 0.000000 0.089137 0.000000 0.147881
#
#
# Mechanical properties :
#
#
# Convention : Reuss Voigt Hill
#
# Bulk Modulus (GPa) = 24.44107 50.80594 37.62350
# Shear Modulus (GPa) = 12.10405 26.42857 19.26631
#
# Velocity S-wave (km/s) = 2.46777 3.64650 3.11343
# Velocity P-wave (km/s) = 4.51850 6.57960 5.64394
#
# Compressibility (1/GPa) = 0.04091475
#
# Stress axis : x y z
#
# Youngs Moduli (GPa) = 133.10876 37.97176 96.14706
#
# Poissons Ratio (x) = -0.02104 0.33223
# Poissons Ratio (y) = -0.07377 -0.11867
# Poissons Ratio (z) = 0.45995 -0.04687
#
# Static dielectric constant tensor:
#      x y z
#    x 1.695350 0.000000 0.000150 
#    y 0.000000 1.746280 0.000000 
#    z 0.000150 0.000000 1.688740 
# 
# From -- ./inp_files/280543.got.cif
#   From: 2010.05.17/outbox.cif.g08.bks.cpg/sg12_141_cif.got.tgz:280543.got - 2010.06.03 13:09:07.
