data_PCOD9172538
_publ_section_title
;
Structure prediction by ZEFSAII (Michael W. Deem and Ramdas Pophale) SiO2 
 PCOD9172538
Probable space group: C 2/M
;
_chemical_formula_sum "Si O2"
_cell_formula_units_Z 48
_cell_length_a 13.579733
_cell_length_b 11.689937
_cell_length_c 16.310452
_cell_angle_alpha 90.000000
_cell_angle_beta 68.530705
_cell_angle_gamma 90.000000
_cell_volume 2409.566446
_symmetry_space_group_name_H-M "C 2/M"
_symmetry_group_IT_number 12
_symmetry_cell_setting 'monoclinic'
loop_
_space_group_symop_operation_xyz
x,y,z
-x,y,-z
-x,-y,-z
x,-y,z
1/2+x,1/2+y,z
1/2-x,1/2+y,-z
1/2-x,1/2-y,-z
1/2+x,1/2-y,z
loop_
_atom_site_type_symbol
_atom_site_label
_atom_site_fract_x
_atom_site_fract_y
_atom_site_fract_z
Si Si1 0.626821 0.868771 0.963617
Si Si2 0.603966 0.128861 0.148730
Si Si3 0.077599 0.133171 0.357163
Si Si4 0.762477 0.228997 0.213319
Si Si5 0.588256 0.762833 0.695191
Si Si6 0.733175 0.369164 0.455071
O O1 0.670162 0.793392 0.876507
O O2 0.666172 0.000000 0.943121
O O3 0.500000 0.870003 0.000000
O O4 0.648041 0.824304 0.049386
O O5 0.696027 0.132545 0.187866
O O6 0.503815 0.192386 0.217257
O O7 0.570067 0.000000 0.141439
O O8 0.173167 0.183499 0.273350
O O9 0.126104 0.144237 0.433774
O O10 0.972146 0.198124 0.359810
O O11 0.061657 0.000000 0.346483
O O12 0.833180 0.192235 0.269255
O O13 0.663675 0.861636 0.635902
O O14 0.731148 0.500000 0.491695
O O15 0.750000 0.250000 0.500000
#
# Coordination Sequence:
#
# PCOD9172538 Si02
#       6
#     8   8   8   8   8   8
#     4  10  18  29  51  77 102 141 187 227 269 319
#     4  10  20  33  51  77 106 141 184 228 274 321
#     4   9  20  37  58  83 112 148 185 222 276 339
#     4  10  19  33  53  77 109 143 183 230 272 318
#     4  10  20  36  57  81 109 144 183 226 274 330
#     4  10  22  41  63  87 115 148 185 229 281 340
#
# _framework density 19.920594999999999
#
# number of rings (size 3 to 8) (size 9 to 14) (size 15 to 20)
#    0.000    2.167    1.667    1.500    0.000    3.333 
#    0.000   10.000    0.000    0.500    0.000    0.000 
#    0.000    0.000    0.000    0.000    0.000    0.000 
#
# Total GULP energy -133657.585573 kJ/mol
# GULP energy per Si atom -5569.066066 kJ/mol
# Density = 1.987526 g / cm^3
# Si number density = 19.920595 Si / 1000 Ang^3
#
#
#
# Elastic Constant Matrix: (Units=GPa)
#
#
# Indices 1 2 3 4 5 6 
#
# 1 135.4848 36.9248 20.2494 0.0000 14.2440 0.0000
# 2 36.9248 74.6345 25.2137 0.0000 14.5040 0.0000
# 3 20.2494 25.2137 62.4338 0.0000 5.8899 0.0000
# 4 0.0000 0.0000 0.0000 18.5629 0.0000 12.1787
# 5 14.2440 14.5040 5.8899 0.0000 27.6371 0.0000
# 6 0.0000 0.0000 0.0000 12.1787 0.0000 13.2588
#
#
#
# Elastic Compliance Matrix: (Units=1/GPa)
#
#
# Indices 1 2 3 4 5 6 
#
# 1 0.008760 -0.003447 -0.001218 0.000000 -0.002446 0.000000
# 2 -0.003447 0.018299 -0.005647 0.000000 -0.006623 0.000000
# 3 -0.001218 -0.005647 0.018730 0.000000 -0.000400 0.000000
# 4 0.000000 0.000000 0.000000 0.135570 0.000000 -0.124526
# 5 -0.002446 -0.006623 -0.000400 0.000000 0.041005 0.000000
# 6 0.000000 0.000000 0.000000 -0.124526 0.000000 0.189804
#
#
# Mechanical properties :
#
#
# Convention : Reuss Voigt Hill
#
# Bulk Modulus (GPa) = 39.73881 48.59210 44.16546
# Shear Modulus (GPa) = 11.33324 24.56945 17.95135
#
# Velocity S-wave (km/s) = 2.38779 3.51575 3.00516
# Velocity P-wave (km/s) = 5.25300 6.39738 5.85322
#
# Compressibility (1/GPa) = 0.02516432
#
# Stress axis : x y z
#
# Youngs Moduli (GPa) = 114.16138 54.64843 53.38899
#
# Poissons Ratio (x) = 0.18836 0.06504
# Poissons Ratio (y) = 0.39349 0.30150
# Poissons Ratio (z) = 0.13908 0.30861
#
# Static dielectric constant tensor:
#      x y z
#    x 1.721020 0.000000 0.032610 
#    y 0.000000 1.676340 0.000000 
#    z 0.032610 0.000000 1.768620 
# 
# From -- ./inp_files/262089.got.cif
#   From: 2010.05.17/outbox.cif.g08.bks.cpg/sg12_132_cif.got.tgz:262089.got - 2010.06.03 13:09:07.
