data_PCOD9172986
_publ_section_title
;
Structure prediction by ZEFSAII (Michael W. Deem and Ramdas Pophale) SiO2 
 PCOD9172986
Probable space group: C 2/M
;
_chemical_formula_sum "Si O2"
_cell_formula_units_Z 56
_cell_length_a 27.796696
_cell_length_b 8.619393
_cell_length_c 17.966866
_cell_angle_alpha 90.000000
_cell_angle_beta 125.868287
_cell_angle_gamma 90.000000
_cell_volume 3488.377193
_symmetry_space_group_name_H-M "C 2/M"
_symmetry_group_IT_number 12
_symmetry_cell_setting 'monoclinic'
loop_
_space_group_symop_operation_xyz
x,y,z
-x,y,-z
-x,-y,-z
x,-y,z
1/2+x,1/2+y,z
1/2-x,1/2+y,-z
1/2-x,1/2-y,-z
1/2+x,1/2-y,z
loop_
_atom_site_type_symbol
_atom_site_label
_atom_site_fract_x
_atom_site_fract_y
_atom_site_fract_z
Si Si1 0.790644 0.185831 0.218393
Si Si2 0.342625 0.687638 0.108942
Si Si3 0.595843 0.812915 0.603301
Si Si4 0.671410 0.313915 0.069072
Si Si5 0.960548 0.314319 0.035026
Si Si6 0.019720 0.185057 0.789074
Si Si7 0.514632 0.813072 0.393491
O O1 0.813020 0.245544 0.157476
O O2 0.840448 0.242541 0.320885
O O3 0.724223 0.248820 0.167257
O O4 0.789582 0.000000 0.216824
O O5 0.338403 0.500000 0.106042
O O6 0.412207 0.727549 0.170126
O O7 0.317577 0.741250 0.006694
O O8 0.567208 0.769402 0.497971
O O9 0.546897 0.764764 0.621133
O O10 0.599433 0.000000 0.609193
O O11 0.672265 0.500000 0.070614
O O12 0.605399 0.257670 0.029018
O O13 0.955019 0.500000 0.031303
O O14 0.990183 0.258958 0.139168
O O15 0.000000 0.268554 0.000000
O O16 0.981462 0.243335 0.684967
O O17 0.016257 0.000000 0.792409
O O18 0.513494 0.000000 0.387575
#
# Coordination Sequence:
#
# PCOD9172986 Si02
#       7
#     8   8   8   8   8   8   8
#     4  11  19  29  44  66  97 132 168 200 237 280
#     4   8  16  28  41  63  93 126 161 194 228 274
#     4   9  18  30  44  65  95 133 172 206 239 277
#     4  10  20  33  48  68  95 126 162 198 239 289
#     4  10  21  37  55  75  97 122 156 198 245 293
#     4  10  18  30  49  73  99 127 163 200 242 289
#     4   9  17  30  46  66  95 131 170 206 241 280
#
# _framework density 16.05331
#
# number of rings (size 3 to 8) (size 9 to 14) (size 15 to 20)
#    0.000    2.429    1.429    3.857    0.000    1.714 
#    0.000    2.857    0.000    0.000    0.000    1.000 
#    0.000    0.000    0.000    0.000    0.000    0.000 
#
# Total GULP energy -156096.437636 kJ/mol
# GULP energy per Si atom -5574.872773 kJ/mol
# Density = 1.601677 g / cm^3
# Si number density = 16.053310 Si / 1000 Ang^3
#
#
#
# Elastic Constant Matrix: (Units=GPa)
#
#
# Indices 1 2 3 4 5 6 
#
# 1 56.4690 23.2156 58.1390 0.0000 -2.2954 0.0000
# 2 23.2156 37.3925 38.5102 0.0000 1.7853 0.0000
# 3 58.1390 38.5102 140.2460 0.0000 9.3581 0.0000
# 4 0.0000 0.0000 0.0000 25.9278 0.0000 3.1662
# 5 -2.2954 1.7853 9.3581 0.0000 22.8838 0.0000
# 6 0.0000 0.0000 0.0000 3.1662 0.0000 17.6609
#
#
#
# Elastic Compliance Matrix: (Units=1/GPa)
#
#
# Indices 1 2 3 4 5 6 
#
# 1 0.034713 -0.009114 -0.012509 0.000000 0.009308 0.000000
# 2 -0.009114 0.039720 -0.007053 0.000000 -0.001129 0.000000
# 3 -0.012509 -0.007053 0.014701 0.000000 -0.006716 0.000000
# 4 0.000000 0.000000 0.000000 0.039432 0.000000 -0.007069
# 5 0.009308 -0.001129 -0.006716 0.000000 0.047467 0.000000
# 6 0.000000 0.000000 0.000000 -0.007069 0.000000 0.057890
#
#
# Mechanical properties :
#
#
# Convention : Reuss Voigt Hill
#
# Bulk Modulus (GPa) = 31.46452 52.64854 42.05653
# Shear Modulus (GPa) = 16.56360 20.91069 18.73715
#
# Velocity S-wave (km/s) = 3.21563 3.61304 3.42011
# Velocity P-wave (km/s) = 5.78183 7.09032 6.46925
#
# Compressibility (1/GPa) = 0.03178183
#
# Stress axis : x y z
#
# Youngs Moduli (GPa) = 28.80800 25.17649 68.02393
#
# Poissons Ratio (x) = 0.22945 0.85089
# Poissons Ratio (y) = 0.26254 0.47979
# Poissons Ratio (z) = 0.36035 0.17758
#
# Static dielectric constant tensor:
#      x y z
#    x 1.519830 0.000000 0.003320 
#    y 0.000000 1.537580 0.000000 
#    z 0.003320 0.000000 1.558520 
# 
# From -- ./inp_files/244283.got.cif
#   From: 2010.05.17/outbox.cif.g08.bks.cpg/sg12_123_cif.got.tgz:244283.got - 2010.06.03 13:09:07.
