data_PCOD9172053
_publ_section_title
;
Structure prediction by ZEFSAII (Michael W. Deem and Ramdas Pophale) SiO2 
 PCOD9172053
Probable space group: C 2/M
;
_chemical_formula_sum "Si O2"
_cell_formula_units_Z 64
_cell_length_a 17.312558
_cell_length_b 14.010902
_cell_length_c 16.001722
_cell_angle_alpha 90.000000
_cell_angle_beta 89.039321
_cell_angle_gamma 90.000000
_cell_volume 3880.904964
_symmetry_space_group_name_H-M "C 2/M"
_symmetry_group_IT_number 12
_symmetry_cell_setting 'monoclinic'
loop_
_space_group_symop_operation_xyz
x,y,z
-x,y,-z
-x,-y,-z
x,-y,z
1/2+x,1/2+y,z
1/2-x,1/2+y,-z
1/2-x,1/2-y,-z
1/2+x,1/2-y,z
loop_
_atom_site_type_symbol
_atom_site_label
_atom_site_fract_x
_atom_site_fract_y
_atom_site_fract_z
Si Si1 0.330392 0.890258 0.427878
Si Si2 0.507633 0.892364 0.661721
Si Si3 0.572742 0.392687 0.354971
Si Si4 0.644360 0.200754 0.402264
Si Si5 0.055478 0.202520 0.745889
Si Si6 0.975834 0.114514 0.907020
Si Si7 0.675861 0.391728 0.182943
Si Si8 0.772818 0.259056 0.280746
O O1 0.421782 0.886814 0.405189
O O2 0.317401 0.833817 0.513239
O O3 0.290343 0.840127 0.350187
O O4 0.306146 0.000000 0.435211
O O5 0.427600 0.866661 0.618968
O O6 0.525378 0.810205 0.728875
O O7 0.506833 0.000000 0.695337
O O8 0.573019 0.500000 0.389505
O O9 0.609176 0.308075 0.409348
O O10 0.488260 0.360312 0.324104
O O11 0.624400 0.392891 0.269201
O O12 0.704843 0.198808 0.324915
O O13 0.026825 0.165459 0.835576
O O14 0.147558 0.204105 0.735564
O O15 0.885879 0.133736 0.887356
O O16 0.985563 0.000000 0.896863
O O17 0.000000 0.140789 0.000000
O O18 0.704916 0.500000 0.169864
O O19 0.741211 0.314188 0.200103
#
# Coordination Sequence:
#
# PCOD9172053 Si02
#       8
#     8   8   8   8   8   8   8   8
#     4  10  19  31  47  65  89 122 164 210 240 264
#     4   9  18  32  50  67  85 120 166 201 227 262
#     4   8  15  29  48  65  85 121 163 199 232 270
#     4  10  18  29  46  67  92 121 161 206 243 274
#     4   9  17  30  49  71  96 121 150 188 230 281
#     4   9  17  32  56  79  94 115 151 191 226 265
#     4   8  14  27  47  68  89 115 152 191 222 264
#     4  10  19  29  43  67  97 127 152 184 237 290
#
# _framework density 16.490998000000001
#
# number of rings (size 3 to 8) (size 9 to 14) (size 15 to 20)
#    0.000    2.875    0.000    3.375    0.000    2.000 
#    0.000    3.125    0.000   16.875    0.000    0.000 
#    0.000    0.000    0.000    0.000    0.000    0.000 
#
# Total GULP energy -178303.251251 kJ/mol
# GULP energy per Si atom -5571.976602 kJ/mol
# Density = 1.645346 g / cm^3
# Si number density = 16.490998 Si / 1000 Ang^3
#
#
#
# Elastic Constant Matrix: (Units=GPa)
#
#
# Indices 1 2 3 4 5 6 
#
# 1 56.6043 -7.6140 -4.1402 0.0000 1.4108 0.0000
# 2 -7.6140 34.3913 5.5232 0.0000 -6.9755 0.0000
# 3 -4.1402 5.5232 52.9489 0.0000 8.2995 0.0000
# 4 0.0000 0.0000 0.0000 17.6938 0.0000 -1.0596
# 5 1.4108 -6.9755 8.2995 0.0000 10.8664 0.0000
# 6 0.0000 0.0000 0.0000 -1.0596 0.0000 15.2954
#
#
#
# Elastic Compliance Matrix: (Units=1/GPa)
#
#
# Indices 1 2 3 4 5 6 
#
# 1 0.018270 0.003665 0.001192 0.000000 -0.000930 0.000000
# 2 0.003665 0.037248 -0.008261 0.000000 0.029745 0.000000
# 3 0.001192 -0.008261 0.023511 0.000000 -0.023416 0.000000
# 4 0.000000 0.000000 0.000000 0.056752 0.000000 0.003932
# 5 -0.000930 0.029745 -0.023416 0.000000 0.129127 0.000000
# 6 0.000000 0.000000 0.000000 0.003932 0.000000 0.065651
#
#
# Mechanical properties :
#
#
# Convention : Reuss Voigt Hill
#
# Bulk Modulus (GPa) = 13.84647 14.60917 14.22782
# Shear Modulus (GPa) = 13.83347 18.78282 16.30814
#
# Velocity S-wave (km/s) = 2.89943 3.37853 3.14811
# Velocity P-wave (km/s) = 4.42985 4.90891 4.67552
#
# Compressibility (1/GPa) = 0.07222060
#
# Stress axis : x y z
#
# Youngs Moduli (GPa) = 54.73508 26.84682 42.53263
#
# Poissons Ratio (x) = -0.09839 -0.05070
# Poissons Ratio (y) = -0.20059 0.35137
# Poissons Ratio (z) = -0.06524 0.22179
#
# Static dielectric constant tensor:
#      x y z
#    x 1.586890 0.000000 0.018690 
#    y 0.000000 1.571560 0.000000 
#    z 0.018690 0.000000 1.536640 
# 
# From -- ./inp_files/224787.got.cif
#   From: 2010.05.17/outbox.cif.g08.bks.cpg/sg12_113_cif.got.tgz:224787.got - 2010.06.03 13:09:07.
