data_PCOD9172346
_publ_section_title
;
Structure prediction by ZEFSAII (Michael W. Deem and Ramdas Pophale) SiO2 
 PCOD9172346
Probable space group: C 2/M
;
_chemical_formula_sum "Si O2"
_cell_formula_units_Z 48
_cell_length_a 18.549548
_cell_length_b 20.748867
_cell_length_c 5.360187
_cell_angle_alpha 90.000000
_cell_angle_beta 65.572878
_cell_angle_gamma 90.000000
_cell_volume 1878.373228
_symmetry_space_group_name_H-M "C 2/M"
_symmetry_group_IT_number 12
_symmetry_cell_setting 'monoclinic'
loop_
_space_group_symop_operation_xyz
x,y,z
-x,y,-z
-x,-y,-z
x,-y,z
1/2+x,1/2+y,z
1/2-x,1/2+y,-z
1/2-x,1/2-y,-z
1/2+x,1/2-y,z
loop_
_atom_site_type_symbol
_atom_site_label
_atom_site_fract_x
_atom_site_fract_y
_atom_site_fract_z
Si Si1 0.909023 0.255991 0.705786
Si Si2 0.073732 0.425419 0.544221
Si Si3 0.343302 0.756545 0.315259
Si Si4 0.830345 0.425820 0.098345
Si Si5 0.592751 0.390870 0.810674
Si Si6 0.339997 0.388217 0.778788
O O1 0.873228 0.291967 0.520116
O O2 0.869696 0.185138 0.769614
O O3 0.000000 0.247155 0.500000
O O4 0.879384 0.285084 0.008456
O O5 0.047557 0.500000 0.631003
O O6 0.109371 0.407769 0.764367
O O7 0.000000 0.392448 0.500000
O O8 0.136587 0.426266 0.229799
O O9 0.250000 0.750000 0.500000
O O10 0.381982 0.684622 0.256804
O O11 0.807619 0.500000 0.190060
O O12 0.748831 0.387012 0.196380
O O13 0.610316 0.419880 0.515185
O O14 0.500000 0.393992 0.000000
O O15 0.643703 0.417095 0.970927
#
# Coordination Sequence:
#
# PCOD9172346 Si02
#       6
#     8   8   8   8   8   8
#     4  10  19  33  51  72  98 132 169 200 237 289
#     4   9  17  30  47  68  94 122 155 199 251 302
#     4  10  18  29  48  77 101 118 150 205 253 284
#     4  10  19  30  47  73 100 126 162 211 257 289
#     4  10  19  33  52  72  95 129 169 202 237 288
#     4  10  18  30  49  71  97 129 163 206 245 287
#
# _framework density 25.554024999999999
#
# number of rings (size 3 to 8) (size 9 to 14) (size 15 to 20)
#    0.000    2.167    0.000    7.000    0.000    2.000 
#    0.000    0.000    0.000    5.500    0.000   88.667 
#    0.000    0.000    0.000    0.000    0.000    0.000 
#
# Total GULP energy -134037.167523 kJ/mol
# GULP energy per Si atom -5584.881980 kJ/mol
# Density = 2.549586 g / cm^3
# Si number density = 25.554025 Si / 1000 Ang^3
#
#
#
# Elastic Constant Matrix: (Units=GPa)
#
#
# Indices 1 2 3 4 5 6 
#
# 1 173.4736 20.2050 56.3608 0.0000 18.9892 0.0000
# 2 20.2050 81.9332 13.4514 0.0000 6.4349 0.0000
# 3 56.3608 13.4514 167.2287 0.0000 50.1639 0.0000
# 4 0.0000 0.0000 0.0000 10.1745 0.0000 12.1306
# 5 18.9892 6.4349 50.1639 0.0000 72.7296 0.0000
# 6 0.0000 0.0000 0.0000 12.1306 0.0000 52.8294
#
#
#
# Elastic Compliance Matrix: (Units=1/GPa)
#
#
# Indices 1 2 3 4 5 6 
#
# 1 0.006605 -0.001275 -0.002068 0.000000 -0.000185 0.000000
# 2 -0.001275 0.012630 -0.000442 0.000000 -0.000479 0.000000
# 3 -0.002068 -0.000442 0.008244 0.000000 -0.005107 0.000000
# 4 0.000000 0.000000 0.000000 0.135334 0.000000 -0.031075
# 5 -0.000185 -0.000479 -0.005107 0.000000 0.017363 0.000000
# 6 0.000000 0.000000 0.000000 -0.031075 0.000000 0.026064
#
#
# Mechanical properties :
#
#
# Convention : Reuss Voigt Hill
#
# Bulk Modulus (GPa) = 50.22861 66.96334 58.59598
# Shear Modulus (GPa) = 22.68111 49.32127 36.00119
#
# Velocity S-wave (km/s) = 2.98245 4.39803 3.75751
# Velocity P-wave (km/s) = 5.61770 7.21469 6.46569
#
# Compressibility (1/GPa) = 0.01990897
#
# Stress axis : x y z
#
# Youngs Moduli (GPa) = 151.39536 79.17832 121.29353
#
# Poissons Ratio (x) = 0.10094 0.25083
# Poissons Ratio (y) = 0.19300 0.05366
# Poissons Ratio (z) = 0.31308 0.03503
#
# Static dielectric constant tensor:
#      x y z
#    x 2.047070 0.000000 0.026730 
#    y 0.000000 4.715790 0.000000 
#    z 0.026730 0.000000 2.191730 
# 
# From -- ./inp_files/17314.got.cif
#   From: 2010.05.17/outbox.cif.g08.bks.cpg/sg12_9_cif.got.tgz:17314.got - 2010.06.03 13:09:07.
