data_PCOD9172503
_publ_section_title
;
Structure prediction by ZEFSAII (Michael W. Deem and Ramdas Pophale) SiO2 
 PCOD9172503
Probable space group: C 2/M
;
_chemical_formula_sum "Si O2"
_cell_formula_units_Z 48
_cell_length_a 28.527888
_cell_length_b 8.838978
_cell_length_c 11.519970
_cell_angle_alpha 90.000000
_cell_angle_beta 78.075614
_cell_angle_gamma 90.000000
_cell_volume 2842.162115
_symmetry_space_group_name_H-M "C 2/M"
_symmetry_group_IT_number 12
_symmetry_cell_setting 'monoclinic'
loop_
_space_group_symop_operation_xyz
x,y,z
-x,y,-z
-x,-y,-z
x,-y,z
1/2+x,1/2+y,z
1/2-x,1/2+y,-z
1/2-x,1/2-y,-z
1/2+x,1/2-y,z
loop_
_atom_site_type_symbol
_atom_site_label
_atom_site_fract_x
_atom_site_fract_y
_atom_site_fract_z
Si Si1 0.223238 0.179099 0.336181
Si Si2 0.493451 0.325693 0.863220
Si Si3 0.678016 0.819497 0.581777
Si Si4 0.591524 0.180194 0.791313
Si Si5 0.889087 0.182405 0.965955
Si Si6 0.793704 0.319650 0.904633
O O1 0.277199 0.209262 0.354695
O O2 0.188816 0.230634 0.458480
O O3 0.212730 0.269556 0.225018
O O4 0.218772 0.000000 0.316832
O O5 0.498268 0.500000 0.822932
O O6 0.537132 0.228964 0.791867
O O7 0.438740 0.274022 0.875377
O O8 0.500000 0.324107 0.000000
O O9 0.629106 0.778425 0.671829
O O10 0.677913 0.000000 0.557845
O O11 0.593994 0.000000 0.807313
O O12 0.606673 0.260025 0.903807
O O13 0.843009 0.253118 0.929619
O O14 0.886692 0.000000 0.967672
O O15 0.793351 0.500000 0.915768
O O16 0.750000 0.250000 0.000000
#
# Coordination Sequence:
#
# PCOD9172503 Si02
#       6
#     8   8   8   8   8   8
#     4  10  20  35  54  75 101 134 171 207 248 297
#     4   8  16  30  47  70 101 134 168 209 254 300
#     4   9  19  34  51  74 103 133 167 208 250 295
#     4  10  18  29  50  78 106 135 170 211 254 301
#     4  10  20  34  51  73 104 138 171 209 254 301
#     4  12  24  37  54  76 104 135 168 205 248 301
#
# _framework density 16.888552000000001
#
# number of rings (size 3 to 8) (size 9 to 14) (size 15 to 20)
#    0.000    2.167    0.000    5.000    0.000    7.000 
#    0.000    0.000    0.000    1.000    0.000    7.000 
#    0.000    0.000    0.000    0.000    0.000    0.000 
#
# Total GULP energy -133919.557203 kJ/mol
# GULP energy per Si atom -5579.981550 kJ/mol
# Density = 1.685011 g / cm^3
# Si number density = 16.888552 Si / 1000 Ang^3
#
#
#
# Elastic Constant Matrix: (Units=GPa)
#
#
# Indices 1 2 3 4 5 6 
#
# 1 140.5063 63.8684 68.5613 0.0000 -22.8078 0.0000
# 2 63.8684 84.1116 49.2800 0.0000 -11.3491 0.0000
# 3 68.5613 49.2800 80.7461 0.0000 -17.9194 0.0000
# 4 0.0000 0.0000 0.0000 29.6548 0.0000 -1.7711
# 5 -22.8078 -11.3491 -17.9194 0.0000 29.3832 0.0000
# 6 0.0000 0.0000 0.0000 -1.7711 0.0000 29.8188
#
#
#
# Elastic Compliance Matrix: (Units=1/GPa)
#
#
# Indices 1 2 3 4 5 6 
#
# 1 0.014056 -0.005698 -0.007546 0.000000 0.004108 0.000000
# 2 -0.005698 0.020818 -0.008170 0.000000 -0.001365 0.000000
# 3 -0.007546 -0.008170 0.025187 0.000000 0.006347 0.000000
# 4 0.000000 0.000000 0.000000 0.033841 0.000000 0.002010
# 5 0.004108 -0.001365 0.006347 0.000000 0.040565 0.000000
# 6 0.000000 0.000000 0.000000 0.002010 0.000000 0.033655
#
#
# Mechanical properties :
#
#
# Convention : Reuss Voigt Hill
#
# Bulk Modulus (GPa) = 58.02864 74.30926 66.16895
# Shear Modulus (GPa) = 23.07384 26.01498 24.54441
#
# Velocity S-wave (km/s) = 3.70028 3.92904 3.81637
# Velocity P-wave (km/s) = 7.25882 8.04229 7.66058
#
# Compressibility (1/GPa) = 0.01723287
#
# Stress axis : x y z
#
# Youngs Moduli (GPa) = 71.14395 48.03455 39.70351
#
# Poissons Ratio (x) = 0.27369 0.29960
# Poissons Ratio (y) = 0.40537 0.32439
# Poissons Ratio (z) = 0.53684 0.39246
#
# Static dielectric constant tensor:
#      x y z
#    x 1.581890 0.000000 -0.013430 
#    y 0.000000 1.566030 0.000000 
#    z -0.013430 0.000000 1.539530 
# 
# From -- ./inp_files/179190.got.cif
#   From: 2010.05.17/outbox.cif.g08.bks.cpg/sg12_90_cif.got.tgz:179190.got - 2010.06.03 13:09:07.
