data_PCOD9172403
_publ_section_title
;
Structure prediction by ZEFSAII (Michael W. Deem and Ramdas Pophale) SiO2 
 PCOD9172403
Probable space group: C 2/M
;
_chemical_formula_sum "Si O2"
_cell_formula_units_Z 56
_cell_length_a 19.661848
_cell_length_b 8.951565
_cell_length_c 29.121785
_cell_angle_alpha 90.000000
_cell_angle_beta 38.840445
_cell_angle_gamma 90.000000
_cell_volume 3214.514176
_symmetry_space_group_name_H-M "C 2/M"
_symmetry_group_IT_number 12
_symmetry_cell_setting 'monoclinic'
loop_
_space_group_symop_operation_xyz
x,y,z
-x,y,-z
-x,-y,-z
x,-y,z
1/2+x,1/2+y,z
1/2-x,1/2+y,-z
1/2-x,1/2-y,-z
1/2+x,1/2-y,z
loop_
_atom_site_type_symbol
_atom_site_label
_atom_site_fract_x
_atom_site_fract_y
_atom_site_fract_z
Si Si1 0.342791 0.677736 0.301041
Si Si2 0.594811 0.178476 0.415381
Si Si3 0.524022 0.821605 0.265554
Si Si4 0.626951 0.821802 0.814451
Si Si5 0.681145 0.821563 0.099017
Si Si6 0.411521 0.322546 0.944877
Si Si7 0.874187 0.178283 0.699318
O O1 0.361077 0.500000 0.289517
O O2 0.214260 0.705249 0.373607
O O3 0.414898 0.750371 0.302612
O O4 0.375971 0.750198 0.234895
O O5 0.500000 0.223242 0.500000
O O6 0.590928 0.262237 0.368933
O O7 0.585790 0.000000 0.411794
O O8 0.618039 0.786428 0.178732
O O9 0.558362 0.754730 0.295998
O O10 0.513473 0.000000 0.273734
O O11 0.524775 0.757327 0.895536
O O12 0.745681 0.785163 0.771864
O O13 0.617788 0.000000 0.815102
O O14 0.628267 0.734297 0.084231
O O15 0.669357 0.000000 0.096359
O O16 0.809518 0.788280 0.031502
O O17 0.427704 0.500000 0.935311
O O18 0.885477 0.000000 0.695327
#
# Coordination Sequence:
#
# PCOD9172403 Si02
#       7
#     8   8   8   8   8   8   8
#     4  10  19  32  55  83 107 136 176 216 257 313
#     4   9  19  38  62  86 111 138 170 211 260 315
#     4  11  21  35  54  77 109 144 178 219 268 317
#     4  10  19  33  51  74 104 139 179 224 268 312
#     4   9  19  32  47  72 105 139 176 223 273 315
#     4  10  18  29  49  75 101 135 180 227 271 314
#     4  10  22  37  55  79 109 142 178 219 263 314
#
# _framework density 17.420985000000002
#
# number of rings (size 3 to 8) (size 9 to 14) (size 15 to 20)
#    0.000    2.143    1.429    2.143    0.000    3.714 
#    0.000    1.429    0.000    4.286    0.000    0.000 
#    0.000    0.000    0.000    0.000    0.000    0.000 
#
# Total GULP energy -156265.644859 kJ/mol
# GULP energy per Si atom -5580.915888 kJ/mol
# Density = 1.738133 g / cm^3
# Si number density = 17.420985 Si / 1000 Ang^3
#
#
#
# Elastic Constant Matrix: (Units=GPa)
#
#
# Indices 1 2 3 4 5 6 
#
# 1 118.4515 50.4986 41.7453 0.0000 -5.5486 0.0003
# 2 50.4986 57.2340 42.5670 0.0001 -5.1034 0.0006
# 3 41.7453 42.5670 102.1167 0.0000 -10.8588 0.0000
# 4 0.0000 0.0001 0.0000 23.6447 0.0000 -2.7883
# 5 -5.5486 -5.1034 -10.8588 0.0000 15.7682 0.0000
# 6 0.0003 0.0006 0.0000 -2.7883 0.0000 25.6545
#
#
#
# Elastic Compliance Matrix: (Units=1/GPa)
#
#
# Indices 1 2 3 4 5 6 
#
# 1 0.013583 -0.011376 -0.000749 0.000000 0.000582 0.000000
# 2 -0.011376 0.034865 -0.009828 0.000000 0.000513 -0.000001
# 3 -0.000749 -0.009828 0.014922 0.000000 0.006832 0.000000
# 4 0.000000 0.000000 0.000000 0.042842 0.000000 0.004656
# 5 0.000582 0.000513 0.006832 0.000000 0.068494 0.000000
# 6 0.000000 -0.000001 0.000000 0.004656 0.000000 0.039486
#
#
# Mechanical properties :
#
#
# Convention : Reuss Voigt Hill
#
# Bulk Modulus (GPa) = 51.37682 60.82492 56.10087
# Shear Modulus (GPa) = 18.89746 22.54623 20.72184
#
# Velocity S-wave (km/s) = 3.29713 3.60140 3.45262
# Velocity P-wave (km/s) = 6.63703 7.23077 6.94025
#
# Compressibility (1/GPa) = 0.01946403
#
# Stress axis : x y z
#
# Youngs Moduli (GPa) = 73.61996 28.68245 67.01420
#
# Poissons Ratio (x) = 0.32629 0.05019
# Poissons Ratio (y) = 0.83749 0.65863
# Poissons Ratio (z) = 0.05514 0.28190
#
# Static dielectric constant tensor:
#      x y z
#    x 1.563260 0.000000 -0.028880 
#    y 0.000000 1.578950 0.000000 
#    z -0.028880 0.000000 1.601390 
# 
# From -- ./inp_files/342029.got.cif
#   From: 2010.05.17/outbox.cif.g08.bks.cpg/sg12_172_cif.got.tgz:342029.got - 2010.06.03 13:09:07.
