data_PCOD9172894
_publ_section_title
;
Structure prediction by ZEFSAII (Michael W. Deem and Ramdas Pophale) SiO2 
 PCOD9172894
Probable space group: C 2/M
;
_chemical_formula_sum "Si O2"
_cell_formula_units_Z 64
_cell_length_a 23.001306
_cell_length_b 16.847442
_cell_length_c 19.084993
_cell_angle_alpha 90.000000
_cell_angle_beta 31.453954
_cell_angle_gamma 90.000000
_cell_volume 3859.166401
_symmetry_space_group_name_H-M "C 2/M"
_symmetry_group_IT_number 12
_symmetry_cell_setting 'monoclinic'
loop_
_space_group_symop_operation_xyz
x,y,z
-x,y,-z
-x,-y,-z
x,-y,z
1/2+x,1/2+y,z
1/2-x,1/2+y,-z
1/2-x,1/2-y,-z
1/2+x,1/2-y,z
loop_
_atom_site_type_symbol
_atom_site_label
_atom_site_fract_x
_atom_site_fract_y
_atom_site_fract_z
Si Si1 0.102559 0.092500 0.674408
Si Si2 0.689806 0.909255 0.939125
Si Si3 0.660489 0.251383 0.890266
Si Si4 0.190165 0.677753 0.151216
Si Si5 0.374080 0.346041 0.845309
Si Si6 0.810145 0.328761 0.410520
Si Si7 0.408049 0.723904 0.196023
Si Si8 0.023436 0.591712 0.242028
O O1 0.213728 0.105925 0.513916
O O2 0.114174 0.147145 0.732239
O O3 0.995654 0.125260 0.741858
O O4 0.087319 0.000000 0.706564
O O5 0.678669 0.841462 0.891735
O O6 0.809167 0.898969 0.854872
O O7 0.674288 0.000000 0.931543
O O8 0.600637 0.892334 0.093632
O O9 0.759226 0.299763 0.826320
O O10 0.649424 0.273410 0.820587
O O11 0.540671 0.271726 0.047689
O O12 0.133356 0.756809 0.177027
O O13 0.099138 0.610651 0.231502
O O14 0.296375 0.655760 0.994039
O O15 0.750000 0.250000 0.500000
O O16 0.863766 0.301614 0.282382
O O17 0.913762 0.355470 0.351037
O O18 0.992022 0.500000 0.271881
#
# Coordination Sequence:
#
# PCOD9172894 Si02
#       8
#     8   8   8   8   8   8   8   8
#     4  11  21  34  53  77 105 137 172 218 257 294
#     4   9  17  29  50  78 105 130 161 218 270 303
#     4  10  18  33  54  73 107 142 168 204 258 319
#     4   9  16  29  51  76 100 136 165 207 261 312
#     4   9  16  28  51  75 102 128 173 209 257 308
#     4  10  20  34  54  72  99 137 179 212 253 300
#     4  10  20  35  51  75 104 141 174 207 247 321
#     4  10  18  30  48  78 107 128 168 223 266 297
#
# _framework density 16.583891999999999
#
# number of rings (size 3 to 8) (size 9 to 14) (size 15 to 20)
#    0.000    2.250    2.500    3.000    0.000    0.500 
#    0.000    4.375    0.000   12.000    0.000    8.750 
#    0.000    0.000    0.000    0.000    0.000    0.000 
#
# Total GULP energy -178203.330081 kJ/mol
# GULP energy per Si atom -5568.854065 kJ/mol
# Density = 1.654615 g / cm^3
# Si number density = 16.583892 Si / 1000 Ang^3
#
#
#
# Elastic Constant Matrix: (Units=GPa)
#
#
# Indices 1 2 3 4 5 6 
#
# 1 107.3718 39.0964 45.8004 0.0000 -19.1681 0.0000
# 2 39.0964 47.6482 19.7527 0.0000 -6.2678 0.0000
# 3 45.8004 19.7527 57.4624 0.0000 -14.6023 0.0000
# 4 0.0000 0.0000 0.0000 17.4888 0.0000 -2.1255
# 5 -19.1681 -6.2678 -14.6023 0.0000 21.3440 0.0000
# 6 0.0000 0.0000 0.0000 -2.1255 0.0000 13.1904
#
#
#
# Elastic Compliance Matrix: (Units=1/GPa)
#
#
# Indices 1 2 3 4 5 6 
#
# 1 0.018222 -0.010199 -0.009224 0.000000 0.007059 0.000000
# 2 -0.010199 0.030236 -0.002827 0.000000 -0.002214 0.000000
# 3 -0.009224 -0.002827 0.028337 0.000000 0.010272 0.000000
# 4 0.000000 0.000000 0.000000 0.058322 0.000000 0.009398
# 5 0.007059 -0.002214 0.010272 0.000000 0.059568 0.000000
# 6 0.000000 0.000000 0.000000 0.009398 0.000000 0.077327
#
#
# Mechanical properties :
#
#
# Convention : Reuss Voigt Hill
#
# Bulk Modulus (GPa) = 30.96514 46.86460 38.91487
# Shear Modulus (GPa) = 15.27754 17.59352 16.43553
#
# Velocity S-wave (km/s) = 3.03847 3.26065 3.15152
# Velocity P-wave (km/s) = 5.56974 6.51891 6.06293
#
# Compressibility (1/GPa) = 0.03229438
#
# Stress axis : x y z
#
# Youngs Moduli (GPa) = 54.87928 33.07269 35.28950
#
# Poissons Ratio (x) = 0.33731 0.32551
# Poissons Ratio (y) = 0.55971 0.09978
# Poissons Ratio (z) = 0.50621 0.09351
#
# Static dielectric constant tensor:
#      x y z
#    x 1.554670 0.000000 -0.008590 
#    y 0.000000 1.587600 0.000000 
#    z -0.008590 0.000000 1.565310 
# 
# From -- ./inp_files/285196.got.cif
#   From: 2010.05.17/outbox.cif.g08.bks.cpg/sg12_143_cif.got.tgz:285196.got - 2010.06.03 13:09:07.
