data_PCOD9172439
_publ_section_title
;
Structure prediction by ZEFSAII (Michael W. Deem and Ramdas Pophale) SiO2 
 PCOD9172439
Probable space group: C 2/M
;
_chemical_formula_sum "Si O2"
_cell_formula_units_Z 56
_cell_length_a 24.830003
_cell_length_b 14.894511
_cell_length_c 23.809438
_cell_angle_alpha 90.000000
_cell_angle_beta 159.846977
_cell_angle_gamma 90.000000
_cell_volume 3033.733709
_symmetry_space_group_name_H-M "C 2/M"
_symmetry_group_IT_number 12
_symmetry_cell_setting 'monoclinic'
loop_
_space_group_symop_operation_xyz
x,y,z
-x,y,-z
-x,-y,-z
x,-y,z
1/2+x,1/2+y,z
1/2-x,1/2+y,-z
1/2-x,1/2-y,-z
1/2+x,1/2-y,z
loop_
_atom_site_type_symbol
_atom_site_label
_atom_site_fract_x
_atom_site_fract_y
_atom_site_fract_z
Si Si1 0.411744 0.731317 0.855470
Si Si2 0.009568 0.268847 0.689730
Si Si3 0.752890 0.604547 0.388459
Si Si4 0.829189 0.599750 0.067385
Si Si5 0.810328 0.401840 0.809044
Si Si6 0.041021 0.898486 0.291828
Si Si7 0.200442 0.326423 0.082044
O O1 0.329404 0.648205 0.745881
O O2 0.292574 0.813900 0.752885
O O3 0.500000 0.708299 0.000000
O O4 0.546726 0.769890 0.947104
O O5 0.074557 0.324489 0.806578
O O6 0.157096 0.235487 0.798260
O O7 0.900468 0.334479 0.548131
O O8 0.922933 0.180356 0.628861
O O9 0.790810 0.500000 0.417797
O O10 0.637433 0.611790 0.329189
O O11 0.882536 0.500000 0.135927
O O12 0.645222 0.608942 0.901954
O O13 0.837753 0.611940 0.008798
O O14 0.754742 0.500000 0.735223
O O15 0.754658 0.380233 0.817597
O O16 0.000000 0.407014 0.000000
O O17 0.068562 0.000000 0.340618
#
# Coordination Sequence:
#
# PCOD9172439 Si02
#       7
#     8   8   8   8   8   8   8
#     4   9  19  36  56  75  97 130 172 211 252 302
#     4  11  20  32  50  76 109 135 166 207 250 296
#     4  11  22  36  52  71 100 136 172 212 256 297
#     4  10  18  29  49  78 108 139 172 200 236 293
#     4   8  15  30  54  81 103 123 157 206 252 295
#     4   9  19  34  52  74 103 139 172 202 242 299
#     4   9  17  31  53  77 104 134 164 203 249 296
#
# _framework density 18.459102000000001
#
# number of rings (size 3 to 8) (size 9 to 14) (size 15 to 20)
#    0.000    2.714    0.000    4.714    0.000    1.429 
#    0.000    4.286    0.000    6.000    0.000    0.000 
#    0.000    0.000    0.000    0.000    0.000    0.000 
#
# Total GULP energy -156105.796202 kJ/mol
# GULP energy per Si atom -5575.207007 kJ/mol
# Density = 1.841709 g / cm^3
# Si number density = 18.459102 Si / 1000 Ang^3
#
#
#
# Elastic Constant Matrix: (Units=GPa)
#
#
# Indices 1 2 3 4 5 6 
#
# 1 82.9047 51.9349 21.9346 -0.0014 4.5686 -0.0009
# 2 51.9349 158.1248 41.5595 0.0000 -13.7899 -0.0008
# 3 21.9346 41.5595 26.4223 0.0030 -8.7047 0.0008
# 4 -0.0014 0.0000 0.0030 19.5205 0.0004 -9.1543
# 5 4.5686 -13.7899 -8.7047 0.0004 8.2596 -0.0002
# 6 -0.0009 -0.0008 0.0008 -9.1543 -0.0002 21.7124
#
#
#
# Elastic Compliance Matrix: (Units=1/GPa)
#
#
# Indices 1 2 3 4 5 6 
#
# 1 0.028140 -0.005355 -0.035251 0.000012 -0.061655 0.000007
# 2 -0.005355 0.011800 -0.010185 0.000002 0.011928 0.000001
# 3 -0.035251 -0.010185 0.128602 -0.000034 0.138025 -0.000020
# 4 0.000012 0.000002 -0.000034 0.063853 -0.000042 0.026922
# 5 -0.061655 0.011928 0.138025 -0.000042 0.320552 -0.000022
# 6 0.000007 0.000001 -0.000020 0.026922 -0.000022 0.057407
#
#
# Mechanical properties :
#
#
# Convention : Reuss Voigt Hill
#
# Bulk Modulus (GPa) = 14.93395 55.36776 35.15086
# Shear Modulus (GPa) = 6.80961 20.03334 13.42148
#
# Velocity S-wave (km/s) = 1.92277 3.29794 2.69939
# Velocity P-wave (km/s) = 3.61071 6.67546 5.36652
#
# Compressibility (1/GPa) = 0.06696152
#
# Stress axis : x y z
#
# Youngs Moduli (GPa) = 35.53610 84.74555 7.77593
#
# Poissons Ratio (x) = 0.45378 0.27411
# Poissons Ratio (y) = 0.19028 0.07920
# Poissons Ratio (z) = 1.25267 0.86316
#
# Static dielectric constant tensor:
#      x y z
#    x 1.627150 0.000000 0.003310 
#    y 0.000000 1.672580 0.000000 
#    z 0.003310 0.000000 1.629450 
# 
# From -- ./inp_files/349794.got.cif
#   From: 2010.05.17/outbox.cif.g08.bks.cpg/sg12_175_cif.got.tgz:349794.got - 2010.06.03 13:09:07.
