data_PCOD9172305
_publ_section_title
;
Structure prediction by ZEFSAII (Michael W. Deem and Ramdas Pophale) SiO2 
 PCOD9172305
Probable space group: C 2/M
;
_chemical_formula_sum "Si O2"
_cell_formula_units_Z 64
_cell_length_a 26.114250
_cell_length_b 17.972475
_cell_length_c 26.934528
_cell_angle_alpha 90.000000
_cell_angle_beta 164.564333
_cell_angle_gamma 90.000000
_cell_volume 3364.584484
_symmetry_space_group_name_H-M "C 2/M"
_symmetry_group_IT_number 12
_symmetry_cell_setting 'monoclinic'
loop_
_space_group_symop_operation_xyz
x,y,z
-x,y,-z
-x,-y,-z
x,-y,z
1/2+x,1/2+y,z
1/2-x,1/2+y,-z
1/2-x,1/2-y,-z
1/2+x,1/2-y,z
loop_
_atom_site_type_symbol
_atom_site_label
_atom_site_fract_x
_atom_site_fract_y
_atom_site_fract_z
Si Si1 0.865981 0.416084 0.148881
Si Si2 0.044405 0.080011 0.598679
Si Si3 0.065611 0.578872 0.984577
Si Si4 0.330485 0.616920 0.138317
Si Si5 0.807845 0.786352 0.424062
Si Si6 0.980967 0.259781 0.923668
Si Si7 0.227198 0.585598 0.421011
Si Si8 0.342849 0.224799 0.193440
O O1 0.846302 0.500000 0.149746
O O2 0.814679 0.352838 0.139947
O O3 0.084525 0.404284 0.333931
O O4 0.738614 0.408200 0.979941
O O5 0.269660 0.080834 0.819915
O O6 0.000000 0.079996 0.500000
O O7 0.954118 0.153707 0.536879
O O8 0.977211 0.000000 0.557460
O O9 0.962129 0.500000 0.889168
O O10 0.187276 0.586189 0.047214
O O11 0.946439 0.651508 0.884396
O O12 0.548109 0.592277 0.354381
O O13 0.321796 0.706102 0.135827
O O14 0.691676 0.737169 0.275209
O O15 0.687581 0.844759 0.346549
O O16 0.944314 0.734187 0.584766
O O17 0.000000 0.241946 0.000000
O O18 0.180863 0.238360 0.084043
O O19 0.188311 0.500000 0.367367
#
# Coordination Sequence:
#
# PCOD9172305 Si02
#       8
#     8   8   8   8   8   8   8   8
#     4  11  23  37  58  83 109 142 182 229 283 331
#     4  10  18  29  48  73 109 154 190 223 260 299
#     4  10  18  32  49  75 117 154 185 224 262 306
#     4  10  19  34  56  79 113 154 181 219 265 317
#     4  11  21  33  57  77 109 152 181 223 272 316
#     4  11  23  37  56  80 105 142 191 231 275 330
#     4  10  19  32  52  81 111 147 190 218 255 323
#     4  10  23  40  54  81 114 142 181 231 273 330
#
# _framework density 19.021666
#
# number of rings (size 3 to 8) (size 9 to 14) (size 15 to 20)
#    0.000    1.625    3.750    4.125    0.000    5.250 
#    0.000    0.000    0.000    0.375    0.000    0.875 
#    0.000    0.000    0.000    0.000    0.000    0.000 
#
# Total GULP energy -178589.447613 kJ/mol
# GULP energy per Si atom -5580.920238 kJ/mol
# Density = 1.897837 g / cm^3
# Si number density = 19.021666 Si / 1000 Ang^3
#
#
#
# Elastic Constant Matrix: (Units=GPa)
#
#
# Indices 1 2 3 4 5 6 
#
# 1 67.3239 41.5185 15.2304 -0.0118 -9.3877 0.0000
# 2 41.5185 90.1648 12.7458 0.0095 -12.3110 0.0045
# 3 15.2304 12.7458 82.4856 -0.0158 -13.2881 0.0051
# 4 -0.0118 0.0095 -0.0158 4.3644 0.0202 4.6227
# 5 -9.3877 -12.3110 -13.2881 0.0202 26.4509 0.0009
# 6 0.0000 0.0045 0.0051 4.6227 0.0009 4.2050
#
#
#
# Elastic Compliance Matrix: (Units=1/GPa)
#
#
# Indices 1 2 3 4 5 6 
#
# 1 0.021333 -0.009218 -0.002161 -0.000286 0.002196 0.000326
# 2 -0.009218 0.015907 -0.000098 0.000365 0.004082 -0.000419
# 3 -0.002161 -0.000098 0.013499 -0.000207 0.005969 0.000210
# 4 -0.000286 0.000365 -0.000207 -1.393386 0.000979 1.531818
# 5 0.002196 0.004082 0.005969 0.000979 0.043483 -0.001097
# 6 0.000326 -0.000419 0.000210 1.531818 -0.001097 -1.446190
#
#
# Mechanical properties :
#
#
# Convention : Reuss Voigt Hill
#
# Bulk Modulus (GPa) = 35.99124 42.10710 39.04917
# Shear Modulus (GPa) = -1.84288 18.36936 8.26324
#
# Velocity S-wave (km/s) = -0.98536 3.11095 2.08652
# Velocity P-wave (km/s) = 4.20329 5.92355 5.13596
#
# Compressibility (1/GPa) = 0.02778454
#
# Stress axis : x y z
#
# Youngs Moduli (GPa) = 46.87491 62.86637 74.07936
#
# Poissons Ratio (x) = 0.57951 0.16009
# Poissons Ratio (y) = 0.43210 0.00727
# Poissons Ratio (z) = 0.10130 0.00617
#
# Static dielectric constant tensor:
#      x y z
#    x 1.686020 -0.000010 -0.012620 
#    y -0.000010 1.676860 -0.000040 
#    z -0.012620 -0.000040 1.716920 
# 
# From -- ./inp_files/350031.got.cif
#   From: 2010.05.17/outbox.cif.g08.bks.cpg/sg12_176_cif.got.tgz:350031.got - 2010.06.03 13:09:07.
