data_PCOD9172259
_publ_section_title
;
Structure prediction by ZEFSAII (Michael W. Deem and Ramdas Pophale) SiO2 
 PCOD9172259
Probable space group: C 2/M
;
_chemical_formula_sum "Si O2"
_cell_formula_units_Z 56
_cell_length_a 18.345423
_cell_length_b 7.982866
_cell_length_c 30.308486
_cell_angle_alpha 90.000000
_cell_angle_beta 140.247409
_cell_angle_gamma 90.000000
_cell_volume 2838.399664
_symmetry_space_group_name_H-M "C 2/M"
_symmetry_group_IT_number 12
_symmetry_cell_setting 'monoclinic'
loop_
_space_group_symop_operation_xyz
x,y,z
-x,y,-z
-x,-y,-z
x,-y,z
1/2+x,1/2+y,z
1/2-x,1/2+y,-z
1/2-x,1/2-y,-z
1/2+x,1/2-y,z
loop_
_atom_site_type_symbol
_atom_site_label
_atom_site_fract_x
_atom_site_fract_y
_atom_site_fract_z
Si Si1 0.303621 0.197135 0.201551
Si Si2 0.379828 0.297436 0.069735
Si Si3 0.522868 0.301938 0.652516
Si Si4 0.340669 0.704530 0.643545
Si Si5 0.658398 0.199981 0.495235
Si Si6 0.521943 0.302047 0.792433
Si Si7 0.954633 0.795112 0.931211
O O1 0.360021 0.223264 0.275900
O O2 0.384046 0.281342 0.202276
O O3 0.174679 0.259271 0.137871
O O4 0.304455 0.000000 0.192121
O O5 0.383972 0.500000 0.072792
O O6 0.428470 0.232151 0.139022
O O7 0.460398 0.239273 0.067541
O O8 0.250000 0.250000 0.000000
O O9 0.535077 0.500000 0.661709
O O10 0.429731 0.247638 0.646143
O O11 0.464110 0.261758 0.578552
O O12 0.338274 0.500000 0.643856
O O13 0.216949 0.759696 0.568199
O O14 0.402287 0.765011 0.716763
O O15 0.750000 0.250000 0.500000
O O16 0.653172 0.000000 0.494087
O O17 0.504284 0.500000 0.791152
O O18 0.954389 0.000000 0.930806
O O19 0.000000 0.741509 0.000000
#
# Coordination Sequence:
#
# PCOD9172259 Si02
#       7
#     8   8   8   8   8   8   8
#     4  10  18  29  48  70  93 124 160 195 233 283
#     4  10  20  34  52  72  95 124 156 192 234 281
#     4   9  16  26  39  59  91 124 155 195 238 279
#     4   7  12  22  36  56  84 116 147 184 229 273
#     4   9  14  21  35  57  87 122 157 193 237 286
#     4   9  17  30  47  68  95 124 154 192 240 284
#     4   9  18  32  49  70  96 124 154 190 233 281
#
# _framework density 19.729427999999999
#
# number of rings (size 3 to 8) (size 9 to 14) (size 15 to 20)
#    0.000    3.000    0.000    3.857    0.000    1.714 
#    0.000    2.143    0.000    3.857    0.000    1.000 
#    0.000    8.000    0.000    0.000    0.000    0.000 
#
# Total GULP energy -155907.684161 kJ/mol
# GULP energy per Si atom -5568.131577 kJ/mol
# Density = 1.968452 g / cm^3
# Si number density = 19.729428 Si / 1000 Ang^3
#
#
#
# Elastic Constant Matrix: (Units=GPa)
#
#
# Indices 1 2 3 4 5 6 
#
# 1 49.0643 -5.1554 64.0496 0.0000 -6.6031 0.0001
# 2 -5.1554 15.8055 3.2121 0.0000 -2.1071 0.0002
# 3 64.0496 3.2121 243.5322 0.0000 -12.3858 0.0000
# 4 0.0000 0.0000 0.0000 23.8749 0.0000 1.4123
# 5 -6.6031 -2.1071 -12.3858 0.0000 19.4764 0.0000
# 6 0.0001 0.0002 0.0000 1.4123 0.0000 3.1404
#
#
#
# Elastic Compliance Matrix: (Units=1/GPa)
#
#
# Indices 1 2 3 4 5 6 
#
# 1 0.034438 0.014041 -0.008858 0.000000 0.007561 -0.000002
# 2 0.014041 0.069981 -0.004122 0.000000 0.009710 -0.000004
# 3 -0.008858 -0.004122 0.006526 0.000000 0.000701 0.000000
# 4 0.000000 0.000000 0.000000 0.043030 0.000000 -0.019351
# 5 0.007561 0.009710 0.000701 0.000000 0.055404 -0.000001
# 6 -0.000002 -0.000004 0.000000 -0.019351 -0.000001 0.327136
#
#
# Mechanical properties :
#
#
# Convention : Reuss Voigt Hill
#
# Bulk Modulus (GPa) = 8.84432 48.06829 28.45631
# Shear Modulus (GPa) = 8.74002 25.71803 17.22902
#
# Velocity S-wave (km/s) = 2.10703 3.61437 2.95831
# Velocity P-wave (km/s) = 3.22676 6.46799 5.11111
#
# Compressibility (1/GPa) = 0.11306691
#
# Stress axis : x y z
#
# Youngs Moduli (GPa) = 29.03811 14.28954 153.23616
#
# Poissons Ratio (x) = -0.20064 1.35733
# Poissons Ratio (y) = -0.40772 0.63164
# Poissons Ratio (z) = 0.25721 0.05890
#
# Static dielectric constant tensor:
#      x y z
#    x 1.665070 0.000000 -0.017240 
#    y 0.000000 1.715260 0.000000 
#    z -0.017240 0.000000 1.771500 
# 
# From -- ./inp_files/377730.got.cif
#   From: 2010.05.17/outbox.cif.g08.bks.cpg/sg12_189_cif.got.tgz:377730.got - 2010.06.03 13:09:07.
