data_PCOD9172943
_publ_section_title
;
Structure prediction by ZEFSAII (Michael W. Deem and Ramdas Pophale) SiO2 
 PCOD9172943
Probable space group: C 2/M
;
_chemical_formula_sum "Si O2"
_cell_formula_units_Z 64
_cell_length_a 25.452944
_cell_length_b 9.005070
_cell_length_c 24.141580
_cell_angle_alpha 90.000000
_cell_angle_beta 133.402041
_cell_angle_gamma 90.000000
_cell_volume 4020.281180
_symmetry_space_group_name_H-M "C 2/M"
_symmetry_group_IT_number 12
_symmetry_cell_setting 'monoclinic'
loop_
_space_group_symop_operation_xyz
x,y,z
-x,y,-z
-x,-y,-z
x,-y,z
1/2+x,1/2+y,z
1/2-x,1/2+y,-z
1/2-x,1/2-y,-z
1/2+x,1/2-y,z
loop_
_atom_site_type_symbol
_atom_site_label
_atom_site_fract_x
_atom_site_fract_y
_atom_site_fract_z
Si Si1 0.724780 0.821707 0.591929
Si Si2 0.025068 0.177793 0.581135
Si Si3 0.452379 0.823337 0.837371
Si Si4 0.889745 0.178207 0.683308
Si Si5 0.560188 0.329040 0.994557
Si Si6 0.165065 0.677275 0.151199
Si Si7 0.411652 0.177910 0.581678
Si Si8 0.189898 0.178858 0.684999
O O1 0.805491 0.779615 0.631973
O O2 0.664329 0.780748 0.502985
O O3 0.705257 0.748260 0.636218
O O4 0.722936 0.000000 0.597148
O O5 0.109553 0.218018 0.646621
O O6 0.000000 0.209117 0.500000
O O7 0.974880 0.263757 0.587597
O O8 0.017285 0.000000 0.584134
O O9 0.434254 0.741944 0.767296
O O10 0.524709 0.763016 0.919089
O O11 0.386840 0.792695 0.833364
O O12 0.456040 0.000000 0.832204
O O13 0.915204 0.247144 0.644079
O O14 0.894587 0.000000 0.685403
O O15 0.571221 0.500000 0.986875
O O16 0.500000 0.324981 0.000000
O O17 0.630843 0.258854 0.073793
O O18 0.162818 0.500000 0.140173
O O19 0.245744 0.722535 0.226842
O O20 0.414500 0.000000 0.588676
O O21 0.192669 0.000000 0.681173
#
# Coordination Sequence:
#
# PCOD9172943 Si02
#       8
#     8   8   8   8   8   8   8   8
#     4  10  21  34  50  73 101 133 169 211 256 301
#     4  10  20  35  55  75  98 131 172 215 259 301
#     4  10  18  30  49  72 101 134 167 203 248 300
#     4  11  22  35  51  73 102 135 172 211 253 304
#     4   9  17  28  44  68 100 135 167 200 243 296
#     4   9  17  29  46  71 101 132 167 205 247 297
#     4  11  23  37  52  72  99 134 175 216 257 300
#     4  10  19  32  52  76 101 134 171 209 254 303
#
# _framework density 15.919286
#
# number of rings (size 3 to 8) (size 9 to 14) (size 15 to 20)
#    0.000    2.000    2.500    1.875    0.000    4.250 
#    0.000    0.000    0.000    0.000    0.000    0.875 
#    0.000    0.000    0.000    0.000    0.000    0.000 
#
# Total GULP energy -178575.876830 kJ/mol
# GULP energy per Si atom -5580.496151 kJ/mol
# Density = 1.588305 g / cm^3
# Si number density = 15.919286 Si / 1000 Ang^3
#
#
#
# Elastic Constant Matrix: (Units=GPa)
#
#
# Indices 1 2 3 4 5 6 
#
# 1 72.2118 40.4097 62.6551 0.0000 -10.2338 0.0000
# 2 40.4097 50.5888 58.2157 0.0000 -5.1185 0.0000
# 3 62.6551 58.2157 151.8786 0.0000 6.2456 0.0000
# 4 0.0000 0.0000 0.0000 29.3760 0.0000 -4.4272
# 5 -10.2338 -5.1185 6.2456 0.0000 17.4952 0.0000
# 6 0.0000 0.0000 0.0000 -4.4272 0.0000 21.0087
#
#
#
# Elastic Compliance Matrix: (Units=1/GPa)
#
#
# Indices 1 2 3 4 5 6 
#
# 1 0.031085 -0.013442 -0.008380 0.000000 0.017242 0.000000
# 2 -0.013442 0.045812 -0.012425 0.000000 0.009976 0.000000
# 3 -0.008380 -0.012425 0.015381 0.000000 -0.014028 0.000000
# 4 0.000000 0.000000 0.000000 0.035158 0.000000 0.007409
# 5 0.017242 0.009976 -0.014028 0.000000 0.075170 0.000000
# 6 0.000000 0.000000 0.000000 0.007409 0.000000 0.049161
#
#
# Mechanical properties :
#
#
# Convention : Reuss Voigt Hill
#
# Bulk Modulus (GPa) = 42.04627 66.36004 54.20316
# Shear Modulus (GPa) = 15.23514 21.13590 18.18552
#
# Velocity S-wave (km/s) = 3.09694 3.64770 3.38355
# Velocity P-wave (km/s) = 6.26558 7.71471 7.02760
#
# Compressibility (1/GPa) = 0.02378332
#
# Stress axis : x y z
#
# Youngs Moduli (GPa) = 32.16977 21.82843 65.01669
#
# Poissons Ratio (x) = 0.29342 0.54486
# Poissons Ratio (y) = 0.43243 0.80782
# Poissons Ratio (z) = 0.26959 0.27121
#
# Static dielectric constant tensor:
#      x y z
#    x 1.502050 0.000000 0.019290 
#    y 0.000000 1.528360 0.000000 
#    z 0.019290 0.000000 1.526860 
# 
# From -- ./inp_files/324191.got.cif
#   From: 2010.05.17/outbox.cif.g08.bks.cpg/sg12_163_cif.got.tgz:324191.got - 2010.06.03 13:09:07.
