data_PCOD9172862
_publ_section_title
;
Structure prediction by ZEFSAII (Michael W. Deem and Ramdas Pophale) SiO2 
 PCOD9172862
Probable space group: C 2/M
;
_chemical_formula_sum "Si O2"
_cell_formula_units_Z 48
_cell_length_a 20.062426
_cell_length_b 7.877481
_cell_length_c 28.576614
_cell_angle_alpha 90.000000
_cell_angle_beta 33.497918
_cell_angle_gamma 90.000000
_cell_volume 2492.569256
_symmetry_space_group_name_H-M "C 2/M"
_symmetry_group_IT_number 12
_symmetry_cell_setting 'monoclinic'
loop_
_space_group_symop_operation_xyz
x,y,z
-x,y,-z
-x,-y,-z
x,-y,z
1/2+x,1/2+y,z
1/2-x,1/2+y,-z
1/2-x,1/2-y,-z
1/2+x,1/2-y,z
loop_
_atom_site_type_symbol
_atom_site_label
_atom_site_fract_x
_atom_site_fract_y
_atom_site_fract_z
Si Si1 0.636338 0.199829 0.269950
Si Si2 0.125987 0.797366 0.597344
Si Si3 0.839081 0.792379 0.220906
Si Si4 0.799298 0.196851 0.871616
Si Si5 0.064299 0.207927 0.737477
Si Si6 0.031681 0.800453 0.032656
O O1 0.493609 0.227313 0.357881
O O2 0.715139 0.257852 0.267943
O O3 0.679950 0.287322 0.196488
O O4 0.660327 0.000000 0.249109
O O5 0.250000 0.750000 0.500000
O O6 0.118542 0.737930 0.655806
O O7 0.114657 0.000000 0.604396
O O8 0.863281 0.734410 0.259449
O O9 0.947269 0.733517 0.123425
O O10 0.840360 0.000000 0.222082
O O11 0.923884 0.263485 0.820947
O O12 0.787734 0.000000 0.890821
O O13 0.673742 0.282595 0.958174
O O14 0.062427 0.000000 0.738281
O O15 0.001989 0.000000 0.047489
O O16 0.000000 0.726002 0.000000
#
# Coordination Sequence:
#
# PCOD9172862 Si02
#       6
#     8   8   8   8   8   8
#     4  10  18  32  55  78 100 132 171 208 251 299
#     4  10  20  36  58  81 103 129 164 204 249 305
#     4   9  17  31  51  73 101 135 171 212 252 295
#     4  10  19  31  48  72 103 138 175 214 252 296
#     4   8  17  33  51  73 101 132 167 208 253 300
#     4  10  18  30  48  73 100 134 179 217 249 291
#
# _framework density 19.257238999999998
#
# number of rings (size 3 to 8) (size 9 to 14) (size 15 to 20)
#    0.000    2.500    1.667    2.500    0.000    1.000 
#    0.000    0.833    0.000   22.000    0.000    0.000 
#    0.000    0.000    0.000    0.000    0.000    0.000 
#
# Total GULP energy -133870.165756 kJ/mol
# GULP energy per Si atom -5577.923573 kJ/mol
# Density = 1.921341 g / cm^3
# Si number density = 19.257239 Si / 1000 Ang^3
#
#
#
# Elastic Constant Matrix: (Units=GPa)
#
#
# Indices 1 2 3 4 5 6 
#
# 1 161.7495 -1.1635 70.2376 0.0024 -18.2740 -0.0032
# 2 -1.1635 19.5085 -8.0157 0.0050 2.9446 0.0015
# 3 70.2376 -8.0157 129.7128 0.0013 -11.8795 -0.0022
# 4 0.0024 0.0050 0.0013 24.4311 -0.0017 -5.1873
# 5 -18.2740 2.9446 -11.8795 -0.0017 18.9456 0.0033
# 6 -0.0032 0.0015 -0.0022 -5.1873 0.0033 13.0231
#
#
#
# Elastic Compliance Matrix: (Units=1/GPa)
#
#
# Indices 1 2 3 4 5 6 
#
# 1 0.008717 -0.002160 -0.004300 0.000000 0.006048 0.000000
# 2 -0.002160 0.053898 0.003758 -0.000014 -0.008104 -0.000009
# 3 -0.004300 0.003758 0.010436 -0.000001 0.001812 -0.000001
# 4 0.000000 -0.000014 -0.000001 0.044713 0.000003 0.017810
# 5 0.006048 -0.008104 0.001812 0.000003 0.061012 -0.000012
# 6 0.000000 -0.000009 -0.000001 0.017810 -0.000012 0.083881
#
#
# Mechanical properties :
#
#
# Convention : Reuss Voigt Hill
#
# Bulk Modulus (GPa) = 14.78241 48.12084 31.45162
# Shear Modulus (GPa) = 17.20522 27.94077 22.57300
#
# Velocity S-wave (km/s) = 2.99229 3.81323 3.42743
# Velocity P-wave (km/s) = 4.43073 6.66561 5.65958
#
# Compressibility (1/GPa) = 0.06764796
#
# Stress axis : x y z
#
# Youngs Moduli (GPa) = 114.71457 18.55354 95.82373
#
# Poissons Ratio (x) = 0.04007 0.41203
# Poissons Ratio (y) = 0.24774 -0.36010
# Poissons Ratio (z) = 0.49326 -0.06972
#
# Static dielectric constant tensor:
#      x y z
#    x 1.683030 0.000000 -0.007890 
#    y 0.000000 1.731290 -0.000010 
#    z -0.007890 -0.000010 1.649260 
# 
# From -- ./inp_files/273595.got.cif
#   From: 2010.05.17/outbox.cif.g08.bks.cpg/sg12_137_cif.got.tgz:273595.got - 2010.06.03 13:09:07.
