data_PCOD9172945
_publ_section_title
;
Structure prediction by ZEFSAII (Michael W. Deem and Ramdas Pophale) SiO2 
 PCOD9172945
Probable space group: C 2/M
;
_chemical_formula_sum "Si O2"
_cell_formula_units_Z 48
_cell_length_a 15.678921
_cell_length_b 8.451815
_cell_length_c 15.670296
_cell_angle_alpha 90.000000
_cell_angle_beta 121.466811
_cell_angle_gamma 90.000000
_cell_volume 1771.182049
_symmetry_space_group_name_H-M "C 2/M"
_symmetry_group_IT_number 12
_symmetry_cell_setting 'monoclinic'
loop_
_space_group_symop_operation_xyz
x,y,z
-x,y,-z
-x,-y,-z
x,-y,z
1/2+x,1/2+y,z
1/2-x,1/2+y,-z
1/2-x,1/2-y,-z
1/2+x,1/2-y,z
loop_
_atom_site_type_symbol
_atom_site_label
_atom_site_fract_x
_atom_site_fract_y
_atom_site_fract_z
Si Si1 0.567562 0.500000 0.783223
Si Si2 0.637369 0.500000 0.253928
Si Si3 0.075712 0.000000 0.459650
Si Si4 0.226639 0.683554 0.289097
Si Si5 0.880484 0.333679 0.950643
Si Si6 0.110578 0.320734 0.744594
Si Si7 0.119794 0.000000 0.048509
Si Si8 0.920644 0.666161 0.537048
O O1 0.482010 0.500000 0.807849
O O2 0.500267 0.500000 0.660515
O O3 0.624145 0.667096 0.811354
O O4 0.675466 0.332087 0.311112
O O5 0.664292 0.500000 0.168008
O O6 0.133517 0.834141 0.492392
O O7 0.000000 0.000000 0.500000
O O8 0.234391 0.500000 0.323462
O O9 0.163230 0.667178 0.168002
O O10 0.329469 0.762079 0.308250
O O11 0.852843 0.500000 0.978793
O O12 0.850810 0.167069 0.976192
O O13 0.000000 0.332555 0.000000
O O14 0.137020 0.500000 0.785419
O O15 0.994153 0.331916 0.657266
O O16 0.000000 0.000000 0.000000
O O17 0.863935 0.500000 0.505723
O O18 0.000000 0.662077 0.500000
#
# Coordination Sequence:
#
# PCOD9172945 Si02
#       8
#     4   4   4   8   8   8   4   8
#     4  10  20  32  48  76 106 130 163 210 261 298
#     4  10  20  32  48  76 106 130 163 210 261 298
#     4   8  14  26  44  66  90 120 159 200 233 284
#     4  10  18  30  49  72 103 132 167 207 250 300
#     4   8  14  24  40  65  93 114 156 205 240 271
#     4  10  18  30  49  72 103 132 167 207 250 300
#     4   8  14  26  44  66  90 120 159 200 233 284
#     4   8  14  24  40  65  93 114 156 205 240 271
#
# _framework density 27.100546000000001
#
# number of rings (size 3 to 8) (size 9 to 14) (size 15 to 20)
#    0.000    3.000    1.667    0.000    0.000    0.667 
#    0.000    0.000    0.000    0.000    0.000   37.333 
#    0.000    0.000    0.000    0.000    0.000    0.000 
#
# Total GULP energy -133888.053815 kJ/mol
# GULP energy per Si atom -5578.668909 kJ/mol
# Density = 2.703886 g / cm^3
# Si number density = 27.100546 Si / 1000 Ang^3
#
#
#
# Elastic Constant Matrix: (Units=GPa)
#
#
# Indices 1 2 3 4 5 6 
#
# 1 63.3391 41.1586 11.2424 0.0000 0.6533 0.0000
# 2 41.1586 423.9896 12.7664 0.0000 9.0925 0.0000
# 3 11.2424 12.7664 89.1400 0.0000 4.2523 0.0000
# 4 0.0000 0.0000 0.0000 13.8972 0.0000 21.7161
# 5 0.6533 9.0925 4.2523 0.0000 36.1312 0.0000
# 6 0.0000 0.0000 0.0000 21.7161 0.0000 18.2429
#
#
#
# Elastic Compliance Matrix: (Units=1/GPa)
#
#
# Indices 1 2 3 4 5 6 
#
# 1 0.017181 -0.001616 -0.001951 0.000000 0.000326 0.000000
# 2 -0.001616 0.002532 -0.000131 0.000000 -0.000593 0.000000
# 3 -0.001951 -0.000131 0.011545 0.000000 -0.001291 0.000000
# 4 0.000000 0.000000 0.000000 -0.083659 0.000000 0.099587
# 5 0.000326 -0.000593 -0.001291 0.000000 0.027972 0.000000
# 6 0.000000 0.000000 0.000000 0.099587 0.000000 -0.063731
#
#
# Mechanical properties :
#
#
# Convention : Reuss Voigt Hill
#
# Bulk Modulus (GPa) = 41.90659 78.53373 60.22016
# Shear Modulus (GPa) = -68.67162 47.74101 -10.46530
#
# Velocity S-wave (km/s) = -5.03930 4.20173 -1.96724
# Velocity P-wave (km/s) = 4.28515 7.25127 4.13633
#
# Compressibility (1/GPa) = 0.02386259
#
# Stress axis : x y z
#
# Youngs Moduli (GPa) = 58.20341 394.93396 86.62036
#
# Poissons Ratio (x) = 0.63825 0.16899
# Poissons Ratio (y) = 0.09406 0.01131
# Poissons Ratio (z) = 0.11355 0.05156
#
# Static dielectric constant tensor:
#      x y z
#    x 2.364130 0.000000 0.085830 
#    y 0.000000 2.235710 0.000000 
#    z 0.085830 0.000000 2.142810 
# 
# From -- ./inp_files/267769.got.cif
#   From: 2010.05.17/outbox.cif.g08.bks.cpg/sg12_134_cif.got.tgz:267769.got - 2010.06.03 13:09:07.
