data_PCOD9172858
_publ_section_title
;
Structure prediction by ZEFSAII (Michael W. Deem and Ramdas Pophale) SiO2 
 PCOD9172858
Probable space group: C 2/M
;
_chemical_formula_sum "Si O2"
_cell_formula_units_Z 48
_cell_length_a 24.733163
_cell_length_b 8.539280
_cell_length_c 24.767511
_cell_angle_alpha 90.000000
_cell_angle_beta 32.727917
_cell_angle_gamma 90.000000
_cell_volume 2828.132211
_symmetry_space_group_name_H-M "C 2/M"
_symmetry_group_IT_number 12
_symmetry_cell_setting 'monoclinic'
loop_
_space_group_symop_operation_xyz
x,y,z
-x,y,-z
-x,-y,-z
x,-y,z
1/2+x,1/2+y,z
1/2-x,1/2+y,-z
1/2-x,1/2-y,-z
1/2+x,1/2-y,z
loop_
_atom_site_type_symbol
_atom_site_label
_atom_site_fract_x
_atom_site_fract_y
_atom_site_fract_z
Si Si1 0.137362 0.182617 0.237024
Si Si2 0.001474 0.309807 0.859067
Si Si3 0.142405 0.811883 0.111422
Si Si4 0.628744 0.182796 0.931697
Si Si5 0.902793 0.313330 0.613909
Si Si6 0.813540 0.310598 0.232663
O O1 0.119014 0.243929 0.192128
O O2 0.257195 0.189269 0.144132
O O3 0.092634 0.266916 0.326822
O O4 0.107722 0.000000 0.264495
O O5 0.993733 0.500000 0.862609
O O6 0.116687 0.269113 0.775242
O O7 0.945565 0.240307 0.854676
O O8 0.939928 0.252250 0.963447
O O9 0.149682 0.000000 0.107117
O O10 0.250000 0.750000 0.000000
O O11 0.631920 0.247326 0.868383
O O12 0.599739 0.000000 0.951249
O O13 0.898942 0.500000 0.613256
O O14 0.799677 0.247818 0.675488
O O15 0.000000 0.255548 0.500000
O O16 0.810518 0.500000 0.231881
#
# Coordination Sequence:
#
# PCOD9172858 Si02
#       6
#     8   8   8   8   8   8
#     4   9  18  33  52  73  99 135 175 208 244 295
#     4  10  18  30  48  72 104 140 172 204 244 294
#     4  11  21  33  49  72 105 143 178 209 243 288
#     4   8  13  26  46  68  97 132 166 199 236 286
#     4  10  21  36  55  78 102 126 158 213 273 308
#     4   9  18  31  50  74 101 134 169 205 249 304
#
# _framework density 16.972332000000002
#
# number of rings (size 3 to 8) (size 9 to 14) (size 15 to 20)
#    0.000    2.500    1.667    2.500    0.000    5.333 
#    0.000    0.000    0.000    4.000    0.000    0.000 
#    0.000    0.000    0.000    0.000    0.000    0.000 
#
# Total GULP energy -133705.041053 kJ/mol
# GULP energy per Si atom -5571.043377 kJ/mol
# Density = 1.693370 g / cm^3
# Si number density = 16.972332 Si / 1000 Ang^3
#
#
#
# Elastic Constant Matrix: (Units=GPa)
#
#
# Indices 1 2 3 4 5 6 
#
# 1 160.4022 26.7402 65.7476 -0.0006 -1.2928 0.0001
# 2 26.7402 23.8721 21.7509 -0.0029 -0.0133 0.0032
# 3 65.7476 21.7509 97.0821 -0.0014 9.4497 0.0018
# 4 -0.0006 -0.0029 -0.0014 19.0858 0.0008 1.0436
# 5 -1.2928 -0.0133 9.4497 0.0008 8.3805 -0.0012
# 6 0.0001 0.0032 0.0018 1.0436 -0.0012 25.0098
#
#
#
# Elastic Compliance Matrix: (Units=1/GPa)
#
#
# Indices 1 2 3 4 5 6 
#
# 1 0.009736 -0.005195 -0.006263 -0.000001 0.008555 0.000002
# 2 -0.005195 0.057148 -0.010352 0.000008 0.010962 -0.000006
# 3 -0.006263 -0.010352 0.019047 0.000001 -0.022460 -0.000001
# 4 -0.000001 0.000008 0.000001 0.052515 -0.000006 -0.002191
# 5 0.008555 0.010962 -0.022460 -0.000006 0.145986 0.000008
# 6 0.000002 -0.000006 -0.000001 -0.002191 0.000008 0.040076
#
#
# Mechanical properties :
#
#
# Convention : Reuss Voigt Hill
#
# Bulk Modulus (GPa) = 23.63441 56.64820 40.14130
# Shear Modulus (GPa) = 13.08105 21.63640 17.35872
#
# Velocity S-wave (km/s) = 2.77921 3.57431 3.20154
# Velocity P-wave (km/s) = 4.92485 7.10518 6.11301
#
# Compressibility (1/GPa) = 0.04231119
#
# Stress axis : x y z
#
# Youngs Moduli (GPa) = 102.70793 17.49846 52.50061
#
# Poissons Ratio (x) = 0.09091 0.32879
# Poissons Ratio (y) = 0.53359 0.54351
# Poissons Ratio (z) = 0.64322 0.18115
#
# Static dielectric constant tensor:
#      x y z
#    x 1.600940 0.000000 0.004580 
#    y 0.000000 1.589430 0.000000 
#    z 0.004580 0.000000 1.566010 
# 
# From -- ./inp_files/348763.got.cif
#   From: 2010.05.17/outbox.cif.g08.bks.cpg/sg12_175_cif.got.tgz:348763.got - 2010.06.03 13:09:07.
