data_PCOD9172145
_publ_section_title
;
Structure prediction by ZEFSAII (Michael W. Deem and Ramdas Pophale) SiO2 
 PCOD9172145
Probable space group: C 2/M
;
_chemical_formula_sum "Si O2"
_cell_formula_units_Z 56
_cell_length_a 20.161231
_cell_length_b 9.609199
_cell_length_c 15.414222
_cell_angle_alpha 90.000000
_cell_angle_beta 63.251318
_cell_angle_gamma 90.000000
_cell_volume 2666.687322
_symmetry_space_group_name_H-M "C 2/M"
_symmetry_group_IT_number 12
_symmetry_cell_setting 'monoclinic'
loop_
_space_group_symop_operation_xyz
x,y,z
-x,y,-z
-x,-y,-z
x,-y,z
1/2+x,1/2+y,z
1/2-x,1/2+y,-z
1/2-x,1/2-y,-z
1/2+x,1/2-y,z
loop_
_atom_site_type_symbol
_atom_site_label
_atom_site_fract_x
_atom_site_fract_y
_atom_site_fract_z
Si Si1 0.355896 0.840845 0.599671
Si Si2 0.344953 0.338284 0.876717
Si Si3 0.540769 0.655643 0.352374
Si Si4 0.761227 0.160542 0.172233
Si Si5 0.467966 0.669287 0.926374
Si Si6 0.136807 0.162127 0.566989
Si Si7 0.879167 0.169638 0.234438
O O1 0.427370 0.767672 0.600123
O O2 0.294924 0.838558 0.712094
O O3 0.333190 0.754650 0.528467
O O4 0.370099 0.000000 0.567605
O O5 0.323496 0.500000 0.899554
O O6 0.408989 0.334701 0.763989
O O7 0.277393 0.247764 0.880463
O O8 0.388376 0.285558 0.936639
O O9 0.554495 0.500000 0.380454
O O10 0.453515 0.667890 0.386073
O O11 0.836041 0.215253 0.173486
O O12 0.771873 0.000000 0.138864
O O13 0.463421 0.500000 0.931047
O O14 0.534781 0.708273 0.822504
O O15 0.500000 0.714049 0.000000
O O16 0.154561 0.212721 0.653822
O O17 0.158547 0.000000 0.545476
O O18 0.875652 0.000000 0.235783
#
# Coordination Sequence:
#
# PCOD9172145 Si02
#       7
#     8   8   8   8   8   8   8
#     4  10  20  30  41  65  98 131 166 201 238 283
#     4   9  16  30  52  76 100 126 160 204 247 287
#     4   9  16  28  46  67  92 124 164 204 243 285
#     4   9  19  34  50  68  99 140 170 193 235 296
#     4   9  16  29  54  84 103 118 155 210 253 284
#     4  10  18  29  47  68  92 125 167 208 243 280
#     4   9  17  32  51  71  97 131 167 201 242 294
#
# _framework density 20.999836999999999
#
# number of rings (size 3 to 8) (size 9 to 14) (size 15 to 20)
#    0.000    2.714    1.429    0.857    0.000    3.429 
#    0.000    1.429    0.000    1.286    0.000    0.000 
#    0.000    0.000    0.000    0.000    0.000    0.000 
#
# Total GULP energy -156278.424981 kJ/mol
# GULP energy per Si atom -5581.372321 kJ/mol
# Density = 2.095204 g / cm^3
# Si number density = 20.999837 Si / 1000 Ang^3
#
#
#
# Elastic Constant Matrix: (Units=GPa)
#
#
# Indices 1 2 3 4 5 6 
#
# 1 128.6090 41.4228 26.8444 0.0000 29.5820 0.0000
# 2 41.4228 59.2772 30.1700 0.0000 19.3588 0.0000
# 3 26.8444 30.1700 91.1589 0.0000 27.6917 0.0000
# 4 0.0000 0.0000 0.0000 8.7646 0.0000 6.5203
# 5 29.5820 19.3588 27.6917 0.0000 42.6158 0.0000
# 6 0.0000 0.0000 0.0000 6.5203 0.0000 13.9213
#
#
#
# Elastic Compliance Matrix: (Units=1/GPa)
#
#
# Indices 1 2 3 4 5 6 
#
# 1 0.010812 -0.006113 0.000343 0.000000 -0.004951 0.000000
# 2 -0.006113 0.025076 -0.005392 0.000000 -0.003644 0.000000
# 3 0.000343 -0.005392 0.014928 0.000000 -0.007489 0.000000
# 4 0.000000 0.000000 0.000000 0.175111 0.000000 -0.082016
# 5 -0.004951 -0.003644 -0.007489 0.000000 0.033424 0.000000
# 6 0.000000 0.000000 0.000000 -0.082016 0.000000 0.110246
#
#
# Mechanical properties :
#
#
# Convention : Reuss Voigt Hill
#
# Bulk Modulus (GPa) = 35.09664 52.87994 43.98829
# Shear Modulus (GPa) = 12.45585 25.10087 18.77836
#
# Velocity S-wave (km/s) = 2.43809 3.46105 2.99359
# Velocity P-wave (km/s) = 4.96737 6.41931 5.73944
#
# Compressibility (1/GPa) = 0.02849276
#
# Stress axis : x y z
#
# Youngs Moduli (GPa) = 92.49395 39.87874 66.98655
#
# Poissons Ratio (x) = 0.24377 -0.02300
# Poissons Ratio (y) = 0.56540 0.36120
# Poissons Ratio (z) = -0.03176 0.21503
#
# Static dielectric constant tensor:
#      x y z
#    x 1.783380 0.000000 -0.009850 
#    y 0.000000 1.697840 0.000000 
#    z -0.009850 0.000000 1.833800 
# 
# From -- ./inp_files/280233.got.cif
#   From: 2010.05.17/outbox.cif.g08.bks.cpg/sg12_141_cif.got.tgz:280233.got - 2010.06.03 13:09:07.
