data_PCOD9172927
_publ_section_title
;
Structure prediction by ZEFSAII (Michael W. Deem and Ramdas Pophale) SiO2 
 PCOD9172927
Probable space group: C 2/M
;
_chemical_formula_sum "Si O2"
_cell_formula_units_Z 64
_cell_length_a 19.946788
_cell_length_b 7.668382
_cell_length_c 22.753443
_cell_angle_alpha 90.000000
_cell_angle_beta 67.419021
_cell_angle_gamma 90.000000
_cell_volume 3213.545271
_symmetry_space_group_name_H-M "C 2/M"
_symmetry_group_IT_number 12
_symmetry_cell_setting 'monoclinic'
loop_
_space_group_symop_operation_xyz
x,y,z
-x,y,-z
-x,-y,-z
x,-y,z
1/2+x,1/2+y,z
1/2-x,1/2+y,-z
1/2-x,1/2-y,-z
1/2+x,1/2-y,z
loop_
_atom_site_type_symbol
_atom_site_label
_atom_site_fract_x
_atom_site_fract_y
_atom_site_fract_z
Si Si1 0.403236 0.788467 0.653273
Si Si2 0.930139 0.289908 0.390286
Si Si3 0.187577 0.792478 0.201919
Si Si4 0.911892 0.703325 0.522908
Si Si5 0.346091 0.796780 0.169475
Si Si6 0.905082 0.206643 0.269837
Si Si7 0.441366 0.714049 0.835167
Si Si8 0.001999 0.798458 0.934548
O O1 0.485562 0.729570 0.640624
O O2 0.349048 0.734661 0.722397
O O3 0.383863 0.723251 0.594152
O O4 0.404794 0.000000 0.650645
O O5 0.932309 0.500000 0.393876
O O6 0.897019 0.222718 0.463081
O O7 0.891573 0.244564 0.342500
O O8 0.269226 0.722737 0.174486
O O9 0.131000 0.724181 0.172689
O O10 0.193375 0.000000 0.190709
O O11 0.889816 0.500000 0.529015
O O12 0.000000 0.706631 0.500000
O O13 0.352828 0.784084 0.237912
O O14 0.416304 0.706650 0.118076
O O15 0.351415 0.000000 0.151560
O O16 0.986917 0.267660 0.225607
O O17 0.903085 0.000000 0.262061
O O18 0.441171 0.500000 0.835253
O O19 0.453318 0.775521 0.897917
O O20 0.978762 0.000000 0.948799
O O21 0.000000 0.717724 0.000000
#
# Coordination Sequence:
#
# PCOD9172927 Si02
#       8
#     8   8   8   8   8   8   8   8
#     4   9  16  26  44  69  96 128 164 202 243 290
#     4   9  15  25  44  69  96 125 162 205 248 295
#     4  10  19  32  48  69 100 133 162 200 249 290
#     4   7  12  23  38  61  94 127 157 196 248 296
#     4  10  21  34  50  72 100 131 163 200 242 289
#     4  10  18  30  49  70  96 128 163 207 251 291
#     4   8  15  29  49  71  95 126 159 191 233 284
#     4   9  18  35  58  79 100 129 162 196 235 282
#
# _framework density 19.915697999999999
#
# number of rings (size 3 to 8) (size 9 to 14) (size 15 to 20)
#    0.000    3.000    1.250    3.000    0.000    1.250 
#    0.000    1.250    0.000    3.000    0.000    0.000 
#    0.000    0.000    0.000    0.000    0.000    0.000 
#
# Total GULP energy -178295.406864 kJ/mol
# GULP energy per Si atom -5571.731464 kJ/mol
# Density = 1.987037 g / cm^3
# Si number density = 19.915698 Si / 1000 Ang^3
#
#
#
# Elastic Constant Matrix: (Units=GPa)
#
#
# Indices 1 2 3 4 5 6 
#
# 1 108.8890 -0.3863 51.3556 -0.0002 20.7991 0.0019
# 2 -0.3863 37.8935 -7.3326 -0.0002 1.2019 0.0025
# 3 51.3556 -7.3326 117.2218 -0.0001 41.9027 0.0003
# 4 -0.0002 -0.0002 -0.0001 11.5065 -0.0002 1.4224
# 5 20.7991 1.2019 41.9027 -0.0002 26.7831 0.0009
# 6 0.0019 0.0025 0.0003 1.4224 0.0009 21.8479
#
#
#
# Elastic Compliance Matrix: (Units=1/GPa)
#
#
# Indices 1 2 3 4 5 6 
#
# 1 0.011659 -0.000656 -0.004363 0.000000 -0.002199 -0.000001
# 2 -0.000656 0.027664 0.005172 0.000001 -0.008824 -0.000003
# 3 -0.004363 0.005172 0.021867 0.000000 -0.031055 0.000001
# 4 0.000000 0.000001 0.000000 0.087613 0.000001 -0.005704
# 5 -0.002199 -0.008824 -0.031055 0.000001 0.088027 -0.000002
# 6 -0.000001 -0.000003 0.000001 -0.005704 -0.000002 0.046142
#
#
# Mechanical properties :
#
#
# Convention : Reuss Voigt Hill
#
# Bulk Modulus (GPa) = 16.26108 39.03084 27.64596
# Shear Modulus (GPa) = 16.49275 26.71868 21.60571
#
# Velocity S-wave (km/s) = 2.88084 3.66674 3.29729
# Velocity P-wave (km/s) = 4.38730 6.12921 5.32990
#
# Compressibility (1/GPa) = 0.06149652
#
# Stress axis : x y z
#
# Youngs Moduli (GPa) = 85.77045 36.14835 45.73115
#
# Poissons Ratio (x) = 0.02370 0.19952
# Poissons Ratio (y) = 0.05623 -0.23652
# Poissons Ratio (z) = 0.37421 -0.18696
#
# Static dielectric constant tensor:
#      x y z
#    x 1.705540 0.000000 0.039730 
#    y 0.000000 1.750830 0.000000 
#    z 0.039730 0.000000 1.718960 
# 
# From -- ./inp_files/319867.got.cif
#   From: 2010.05.17/outbox.cif.g08.bks.cpg/sg12_160_cif.got.tgz:319867.got - 2010.06.03 13:09:07.
