data_PCOD9172434
_publ_section_title
;
Structure prediction by ZEFSAII (Michael W. Deem and Ramdas Pophale) SiO2 
 PCOD9172434
Probable space group: C 2/M
;
_chemical_formula_sum "Si O2"
_cell_formula_units_Z 64
_cell_length_a 25.451219
_cell_length_b 7.332712
_cell_length_c 15.834381
_cell_angle_alpha 90.000000
_cell_angle_beta 78.369037
_cell_angle_gamma 90.000000
_cell_volume 2894.435444
_symmetry_space_group_name_H-M "C 2/M"
_symmetry_group_IT_number 12
_symmetry_cell_setting 'monoclinic'
loop_
_space_group_symop_operation_xyz
x,y,z
-x,y,-z
-x,-y,-z
x,-y,z
1/2+x,1/2+y,z
1/2-x,1/2+y,-z
1/2-x,1/2-y,-z
1/2+x,1/2-y,z
loop_
_atom_site_type_symbol
_atom_site_label
_atom_site_fract_x
_atom_site_fract_y
_atom_site_fract_z
Si Si1 0.445332 0.222889 0.798203
Si Si2 0.743621 0.284232 0.223520
Si Si3 0.061090 0.722433 0.499877
Si Si4 0.803863 0.783947 0.932089
Si Si5 0.365222 0.218271 0.678099
Si Si6 0.088408 0.703398 0.013297
Si Si7 0.633069 0.776420 0.822323
Si Si8 0.439380 0.778287 0.310510
O O1 0.396128 0.283372 0.753694
O O2 0.500448 0.275024 0.735108
O O3 0.443279 0.000000 0.803033
O O4 0.443756 0.286049 0.896651
O O5 0.749375 0.500000 0.207827
O O6 0.711106 0.208705 0.154282
O O7 0.698079 0.261332 0.309143
O O8 0.804658 0.216078 0.204888
O O9 0.061896 0.500000 0.498674
O O10 0.101048 0.783626 0.413517
O O11 0.074662 0.781001 0.590483
O O12 0.000000 0.776130 0.500000
O O13 0.815436 0.000000 0.925163
O O14 0.750000 0.750000 0.000000
O O15 0.852880 0.693071 0.963210
O O16 0.369823 0.000000 0.678582
O O17 0.066312 0.500000 0.005320
O O18 0.101526 0.785393 0.917216
O O19 0.601414 0.721340 0.749020
O O20 0.633272 0.000000 0.826747
O O21 0.439190 0.000000 0.311084
#
# Coordination Sequence:
#
# PCOD9172434 Si02
#       8
#     8   8   8   8   8   8   8   8
#     4   9  16  25  44  74 102 123 152 202 253 288
#     4  10  20  33  47  68 100 135 166 198 239 290
#     4   9  15  26  47  75 103 123 151 202 256 299
#     4  11  20  30  47  70  97 129 168 207 243 281
#     4  10  18  29  49  78 102 121 154 207 257 289
#     4  10  18  30  46  71 104 130 162 203 241 288
#     4   9  18  31  45  63  97 139 170 195 235 294
#     4   9  16  28  46  71 100 130 161 199 252 300
#
# _framework density 22.111395000000002
#
# number of rings (size 3 to 8) (size 9 to 14) (size 15 to 20)
#    0.000    2.375    3.750    0.375    0.000    1.000 
#    0.000    3.125    0.000    0.375    0.000    5.250 
#    0.000    0.000    0.000    0.000    0.000    0.000 
#
# Total GULP energy -178536.810964 kJ/mol
# GULP energy per Si atom -5579.275343 kJ/mol
# Density = 2.206107 g / cm^3
# Si number density = 22.111395 Si / 1000 Ang^3
#
#
#
# Elastic Constant Matrix: (Units=GPa)
#
#
# Indices 1 2 3 4 5 6 
#
# 1 78.2485 -1.2775 62.2481 0.0000 -0.2021 0.0000
# 2 -1.2775 93.7743 2.2163 0.0000 4.4650 0.0000
# 3 62.2481 2.2163 183.9411 0.0000 -6.3424 0.0000
# 4 0.0000 0.0000 0.0000 -1.7705 0.0000 -2.4596
# 5 -0.2021 4.4650 -6.3424 0.0000 39.3958 0.0000
# 6 0.0000 0.0000 0.0000 -2.4596 0.0000 8.2070
#
#
#
# Elastic Compliance Matrix: (Units=1/GPa)
#
#
# Indices 1 2 3 4 5 6 
#
# 1 0.017534 0.000424 -0.005971 0.000000 -0.000919 0.000000
# 2 0.000424 0.010737 -0.000316 0.000000 -0.001266 0.000000
# 3 -0.005971 -0.000316 0.007503 0.000000 0.001213 0.000000
# 4 0.000000 0.000000 0.000000 -0.398787 0.000000 -0.119516
# 5 -0.000919 -0.001266 0.001213 0.000000 0.025717 0.000000
# 6 0.000000 0.000000 0.000000 -0.119516 0.000000 0.086029
#
#
# Mechanical properties :
#
#
# Convention : Reuss Voigt Hill
#
# Bulk Modulus (GPa) = 41.58404 53.59308 47.58856
# Shear Modulus (GPa) = -21.59597 28.68493 3.54448
#
# Velocity S-wave (km/s) = -3.12859 3.60570 1.26747
# Velocity P-wave (km/s) = 2.40762 6.45176 4.86938
#
# Compressibility (1/GPa) = 0.02404769
#
# Stress axis : x y z
#
# Youngs Moduli (GPa) = 57.03198 93.13219 133.28569
#
# Poissons Ratio (x) = -0.03947 0.79579
# Poissons Ratio (y) = -0.02417 0.04218
# Poissons Ratio (z) = 0.34051 0.02947
#
# Static dielectric constant tensor:
#      x y z
#    x 1.786040 0.000000 -0.042390 
#    y 0.000000 1.879080 0.000000 
#    z -0.042390 0.000000 1.877790 
# 
# From -- ./inp_files/243973.got.cif
#   From: 2010.05.17/outbox.cif.g08.bks.cpg/sg12_122_cif.got.tgz:243973.got - 2010.06.03 13:09:07.
