data_PCOD9172236
_publ_section_title
;
Structure prediction by ZEFSAII (Michael W. Deem and Ramdas Pophale) SiO2 
 PCOD9172236
Probable space group: C 2/M
;
_chemical_formula_sum "Si O2"
_cell_formula_units_Z 56
_cell_length_a 21.498223
_cell_length_b 22.565164
_cell_length_c 9.104649
_cell_angle_alpha 90.000000
_cell_angle_beta 47.630884
_cell_angle_gamma 90.000000
_cell_volume 3263.188374
_symmetry_space_group_name_H-M "C 2/M"
_symmetry_group_IT_number 12
_symmetry_cell_setting 'monoclinic'
loop_
_space_group_symop_operation_xyz
x,y,z
-x,y,-z
-x,-y,-z
x,-y,z
1/2+x,1/2+y,z
1/2-x,1/2+y,-z
1/2-x,1/2-y,-z
1/2+x,1/2-y,z
loop_
_atom_site_type_symbol
_atom_site_label
_atom_site_fract_x
_atom_site_fract_y
_atom_site_fract_z
Si Si1 0.843156 0.430299 0.914443
Si Si2 0.733003 0.352362 0.281019
Si Si3 0.098167 0.225093 0.328520
Si Si4 0.796826 0.190783 0.366291
Si Si5 0.345562 0.149503 0.621655
Si Si6 0.498853 0.125794 0.171401
Si Si7 0.607779 0.237572 0.986808
O O1 0.843130 0.500000 0.889878
O O2 0.834216 0.394254 0.776740
O O3 0.931262 0.409452 0.847381
O O4 0.769500 0.410197 0.143894
O O5 0.659047 0.322043 0.306716
O O6 0.702114 0.353693 0.498431
O O7 0.813767 0.308125 0.149742
O O8 0.117087 0.289099 0.372422
O O9 0.000000 0.211256 0.500000
O O10 0.117508 0.230468 0.126097
O O11 0.750000 0.250000 0.500000
O O12 0.740291 0.164746 0.325716
O O13 0.882756 0.216072 0.160567
O O14 0.410782 0.124155 0.396918
O O15 0.500000 0.105306 0.000000
O O16 0.527535 0.194833 0.120173
#
# Coordination Sequence:
#
# PCOD9172236 Si02
#       7
#     8   8   8   8   8   8   8
#     4  11  24  40  57  74 102 151 199 233 260 305
#     4  10  20  35  52  78 107 139 183 224 273 321
#     4  12  19  30  52  83 113 140 169 215 280 337
#     4  10  19  31  53  77 109 149 171 218 271 332
#     4  12  19  35  53  81 115 143 184 218 273 324
#     4  11  22  33  51  79 115 149 181 223 270 320
#     4  10  18  29  47  75 109 147 171 210 264 328
#
# _framework density 17.161131000000001
#
# number of rings (size 3 to 8) (size 9 to 14) (size 15 to 20)
#    0.000    1.143    7.143    4.286    0.000    1.429 
#    0.000    2.143    0.000    0.429    0.000    0.000 
#    0.000    2.286    0.000    0.000    0.000    0.000 
#
# Total GULP energy -156253.247812 kJ/mol
# GULP energy per Si atom -5580.473136 kJ/mol
# Density = 1.712207 g / cm^3
# Si number density = 17.161131 Si / 1000 Ang^3
#
#
#
# Elastic Constant Matrix: (Units=GPa)
#
#
# Indices 1 2 3 4 5 6 
#
# 1 40.1653 28.3551 4.5103 0.0000 19.5301 0.0000
# 2 28.3551 60.6499 17.4266 0.0000 -2.7059 0.0000
# 3 4.5103 17.4266 69.7816 0.0000 18.1864 0.0000
# 4 0.0000 0.0000 0.0000 9.6506 0.0000 -1.5140
# 5 19.5301 -2.7059 18.1864 0.0000 27.0584 0.0000
# 6 0.0000 0.0000 0.0000 -1.5140 0.0000 6.0789
#
#
#
# Elastic Compliance Matrix: (Units=1/GPa)
#
#
# Indices 1 2 3 4 5 6 
#
# 1 0.229375 -0.141122 0.081522 0.000000 -0.234463 0.000000
# 2 -0.141122 0.105362 -0.056354 0.000000 0.150272 0.000000
# 3 0.081522 -0.056354 0.048420 0.000000 -0.097020 0.000000
# 4 0.000000 0.000000 0.000000 0.107834 0.000000 0.026857
# 5 -0.234463 0.150272 -0.097020 0.000000 0.286424 0.000000
# 6 0.000000 0.000000 0.000000 0.026857 0.000000 0.171192
#
#
# Mechanical properties :
#
#
# Convention : Reuss Voigt Hill
#
# Bulk Modulus (GPa) = 6.61164 30.13120 18.37142
# Shear Modulus (GPa) = 4.06196 16.57789 10.31993
#
# Velocity S-wave (km/s) = 1.54016 3.11145 2.45491
# Velocity P-wave (km/s) = 2.65025 5.52305 4.33174
#
# Compressibility (1/GPa) = 0.15124837
#
# Stress axis : x y z
#
# Youngs Moduli (GPa) = 4.35968 9.49106 20.65268
#
# Poissons Ratio (x) = 1.33940 -1.68365
# Poissons Ratio (y) = 0.61525 1.16387
# Poissons Ratio (z) = -0.35541 0.53486
#
# Static dielectric constant tensor:
#      x y z
#    x 1.587400 0.000000 0.012680 
#    y 0.000000 1.561060 0.000000 
#    z 0.012680 0.000000 1.626980 
# 
# From -- ./inp_files/89486.got.cif
#   From: 2010.05.17/outbox.cif.g08.bks.cpg/sg12_45_cif.got.tgz:89486.got - 2010.06.03 13:09:07.
