data_PCOD9172548
_publ_section_title
;
Structure prediction by ZEFSAII (Michael W. Deem and Ramdas Pophale) SiO2 
 PCOD9172548
Probable space group: C 2/M
;
_chemical_formula_sum "Si O2"
_cell_formula_units_Z 64
_cell_length_a 20.218178
_cell_length_b 8.065460
_cell_length_c 21.434183
_cell_angle_alpha 90.000000
_cell_angle_beta 45.203189
_cell_angle_gamma 90.000000
_cell_volume 2480.263321
_symmetry_space_group_name_H-M "C 2/M"
_symmetry_group_IT_number 12
_symmetry_cell_setting 'monoclinic'
loop_
_space_group_symop_operation_xyz
x,y,z
-x,y,-z
-x,-y,-z
x,-y,z
1/2+x,1/2+y,z
1/2-x,1/2+y,-z
1/2-x,1/2-y,-z
1/2+x,1/2-y,z
loop_
_atom_site_type_symbol
_atom_site_label
_atom_site_fract_x
_atom_site_fract_y
_atom_site_fract_z
Si Si1 0.750770 0.806035 0.428294
Si Si2 0.627632 0.307451 0.093268
Si Si3 0.370757 0.691997 0.597213
Si Si4 0.771910 0.195296 0.855579
Si Si5 0.049943 0.687254 0.719803
Si Si6 0.011714 0.203225 0.062499
Si Si7 0.029727 0.194686 0.349401
Si Si8 0.808552 0.807303 0.212696
O O1 0.750000 0.750000 0.500000
O O2 0.658570 0.765864 0.449664
O O3 0.842801 0.723427 0.337570
O O4 0.766331 0.000000 0.415972
O O5 0.651936 0.500000 0.069755
O O6 0.702313 0.235650 0.092704
O O7 0.527582 0.300926 0.196047
O O8 0.598119 0.233718 0.046067
O O9 0.391764 0.500000 0.574147
O O10 0.447680 0.757909 0.595536
O O11 0.273895 0.708170 0.700286
O O12 0.870976 0.203502 0.752834
O O13 0.704098 0.292041 0.854069
O O14 0.747497 0.000000 0.874600
O O15 0.024867 0.500000 0.752829
O O16 0.037773 0.711619 0.652996
O O17 0.912626 0.248021 0.159038
O O18 0.016248 0.000000 0.058731
O O19 0.000000 0.262752 0.000000
O O20 0.003388 0.000000 0.369806
O O21 0.796983 0.000000 0.237799
#
# Coordination Sequence:
#
# PCOD9172548 Si02
#       8
#     8   8   8   8   8   8   8   8
#     4  12  25  41  58  78 109 144 180 219 261 310
#     4   9  17  32  54  76  99 133 175 215 260 312
#     4  10  20  36  58  83 110 139 174 216 265 317
#     4   8  15  28  47  72 102 133 165 208 261 314
#     4  11  21  34  56  84 111 139 175 218 263 312
#     4   9  18  32  49  70  97 132 176 221 261 307
#     4   8  16  32  54  80 109 139 171 212 262 313
#     4  10  18  29  51  79 103 132 171 216 263 310
#
# _framework density 25.803709999999999
#
# number of rings (size 3 to 8) (size 9 to 14) (size 15 to 20)
#    0.000    2.375    0.000    5.250    0.000    6.000 
#    0.000    1.875    0.000    7.125    0.000    0.000 
#    0.000    0.000    0.000    0.000    0.000    0.000 
#
# Total GULP energy -179003.473700 kJ/mol
# GULP energy per Si atom -5593.858553 kJ/mol
# Density = 2.574498 g / cm^3
# Si number density = 25.803710 Si / 1000 Ang^3
#
#
#
# Elastic Constant Matrix: (Units=GPa)
#
#
# Indices 1 2 3 4 5 6 
#
# 1 193.0954 4.4820 32.8125 0.0001 17.6892 -0.0001
# 2 4.4820 54.6297 2.3078 0.0001 -1.1284 0.0003
# 3 32.8125 2.3078 93.4761 0.0000 21.8004 0.0000
# 4 0.0001 0.0001 0.0000 20.1514 -0.0001 6.6639
# 5 17.6892 -1.1284 21.8004 -0.0001 59.7630 0.0000
# 6 -0.0001 0.0003 0.0000 6.6639 0.0000 27.2145
#
#
#
# Elastic Compliance Matrix: (Units=1/GPa)
#
#
# Indices 1 2 3 4 5 6 
#
# 1 0.005573 -0.000407 -0.001705 0.000000 -0.001035 0.000000
# 2 -0.000407 0.018371 -0.000459 0.000000 0.000635 0.000000
# 3 -0.001705 -0.000459 0.012233 0.000000 -0.003966 0.000000
# 4 0.000000 0.000000 0.000000 0.053997 0.000000 -0.013222
# 5 -0.001035 0.000635 -0.003966 0.000000 0.018498 0.000000
# 6 0.000000 0.000000 0.000000 -0.013222 0.000000 0.039983
#
#
# Mechanical properties :
#
#
# Convention : Reuss Voigt Hill
#
# Bulk Modulus (GPa) = 32.22052 46.71176 39.46614
# Shear Modulus (GPa) = 30.46194 41.53238 35.99716
#
# Velocity S-wave (km/s) = 3.43961 4.01627 3.73907
# Velocity P-wave (km/s) = 5.31868 6.29677 5.82828
#
# Compressibility (1/GPa) = 0.03103613
#
# Stress axis : x y z
#
# Youngs Moduli (GPa) = 179.44487 54.43393 81.74832
#
# Poissons Ratio (x) = 0.02213 0.13936
# Poissons Ratio (y) = 0.07296 0.03751
# Poissons Ratio (z) = 0.30590 0.02498
#
# Static dielectric constant tensor:
#      x y z
#    x 2.047000 0.000000 0.048270 
#    y 0.000000 1.885440 0.000000 
#    z 0.048270 0.000000 2.159960 
# 
# From -- ./inp_files/319919.got.cif
#   From: 2010.05.17/outbox.cif.g08.bks.cpg/sg12_160_cif.got.tgz:319919.got - 2010.06.03 13:09:07.
