data_PCOD9172014
_publ_section_title
;
Structure prediction by ZEFSAII (Michael W. Deem and Ramdas Pophale) SiO2 
 PCOD9172014
Probable space group: C 2/M
;
_chemical_formula_sum "Si O2"
_cell_formula_units_Z 58
_cell_length_a 20.481954
_cell_length_b 7.772473
_cell_length_c 17.301725
_cell_angle_alpha 90.000000
_cell_angle_beta 55.703837
_cell_angle_gamma 90.000000
_cell_volume 2275.472427
_symmetry_space_group_name_H-M "C 2/M"
_symmetry_group_IT_number 12
_symmetry_cell_setting 'monoclinic'
loop_
_space_group_symop_operation_xyz
x,y,z
-x,y,-z
-x,-y,-z
x,-y,z
1/2+x,1/2+y,z
1/2-x,1/2+y,-z
1/2-x,1/2-y,-z
1/2+x,1/2-y,z
loop_
_atom_site_type_symbol
_atom_site_label
_atom_site_fract_x
_atom_site_fract_y
_atom_site_fract_z
Si Si1 0.381058 0.292258 0.421528
Si Si2 0.806800 0.203032 0.175164
Si Si3 0.500000 0.000000 0.000000
Si Si4 0.838575 0.305082 0.609270
Si Si5 0.094743 0.799848 0.760675
Si Si6 0.573112 0.807010 0.091890
Si Si7 0.694724 0.801380 0.124404
Si Si8 0.940865 0.804057 0.669791
O O1 0.378672 0.500000 0.420608
O O2 0.325896 0.235213 0.528172
O O3 0.370208 0.226180 0.341671
O O4 0.470231 0.237613 0.385202
O O5 0.739006 0.210600 0.286583
O O6 0.877394 0.285607 0.177752
O O7 0.766692 0.281964 0.125595
O O8 0.824345 0.000000 0.146038
O O9 0.450044 0.849228 0.981376
O O10 0.865941 0.500000 0.597073
O O11 0.905951 0.196634 0.606651
O O12 0.000488 0.792898 0.823041
O O13 0.118503 0.000000 0.747864
O O14 0.655294 0.733096 0.071378
O O15 0.569210 0.000000 0.128891
O O16 0.622200 0.792397 0.234390
O O17 0.716259 0.000000 0.097530
O O18 0.941939 0.000000 0.697422
#
# Coordination Sequence:
#
# PCOD9172014 Si02
#       8
#     8   8   2   8   8   8   8   8
#     4  10  20  30  43  67  99 136 175 223 275 303
#     4   8  17  32  49  72 100 137 181 218 256 296
#     4   8  20  36  58  88 112 134 150 206 266 312
#     4  10  20  32  45  65  98 140 187 226 262 302
#     4  10  19  34  54  76 104 137 176 214 256 311
#     4   9  18  34  57  82 108 132 162 203 256 309
#     4   9  16  30  53  77  98 133 175 210 248 311
#     4  10  18  29  45  69 100 133 173 225 275 305
#
# _framework density 25.489212999999999
#
# number of rings (size 3 to 8) (size 9 to 14) (size 15 to 20)
#    0.414    2.207    1.379    2.069    0.000    3.862 
#    0.000    3.793    0.000    0.828    0.000    0.000 
#    0.000    0.000    0.000    0.000    0.000    0.000 
#
# Total GULP energy -161494.401093 kJ/mol
# GULP energy per Si atom -5568.772451 kJ/mol
# Density = 2.543120 g / cm^3
# Si number density = 25.489213 Si / 1000 Ang^3
#
#
#
# Elastic Constant Matrix: (Units=GPa)
#
#
# Indices 1 2 3 4 5 6 
#
# 1 142.4468 13.3355 22.7253 0.0003 51.4345 -0.0004
# 2 13.3355 42.7867 12.0814 0.0004 -0.5152 -0.0008
# 3 22.7253 12.0814 140.1302 -0.0002 40.7175 0.0000
# 4 0.0003 0.0004 -0.0002 14.6688 0.0000 6.1584
# 5 51.4345 -0.5152 40.7175 0.0000 43.6547 0.0002
# 6 -0.0004 -0.0008 0.0000 6.1584 0.0002 13.5667
#
#
#
# Elastic Compliance Matrix: (Units=1/GPa)
#
#
# Indices 1 2 3 4 5 6 
#
# 1 0.014586 -0.006030 0.004347 0.000000 -0.021311 0.000001
# 2 -0.006030 0.026744 -0.004779 -0.000001 0.011878 0.000002
# 3 0.004347 -0.004779 0.011451 0.000000 -0.015859 0.000000
# 4 0.000000 -0.000001 0.000000 0.084222 0.000001 -0.038231
# 5 -0.021311 0.011878 -0.015859 0.000001 0.062948 -0.000001
# 6 0.000001 0.000002 0.000000 -0.038231 -0.000001 0.091064
#
#
# Mechanical properties :
#
#
# Convention : Reuss Voigt Hill
#
# Bulk Modulus (GPa) = 25.09018 46.84977 35.96998
# Shear Modulus (GPa) = 15.76162 32.85948 24.31055
#
# Velocity S-wave (km/s) = 2.48939 3.59437 3.09165
# Velocity P-wave (km/s) = 4.25765 5.97044 5.18525
#
# Compressibility (1/GPa) = 0.03985622
#
# Stress axis : x y z
#
# Youngs Moduli (GPa) = 68.55791 37.39205 87.32574
#
# Poissons Ratio (x) = 0.22548 -0.37958
# Poissons Ratio (y) = 0.41341 0.41734
# Poissons Ratio (z) = -0.29800 0.17870
#
# Static dielectric constant tensor:
#      x y z
#    x 2.120600 0.000000 0.055110 
#    y 0.000000 1.933820 0.000000 
#    z 0.055110 0.000000 2.069250 
# 
# From -- ./inp_files/287472.got.cif
#   From: 2010.05.17/outbox.cif.g08.bks.cpg/sg12_144_cif.got.tgz:287472.got - 2010.06.03 13:09:07.
