data_PCOD9172689
_publ_section_title
;
Structure prediction by ZEFSAII (Michael W. Deem and Ramdas Pophale) SiO2 
 PCOD9172689
Probable space group: C 2/M
;
_chemical_formula_sum "Si O2"
_cell_formula_units_Z 64
_cell_length_a 19.054448
_cell_length_b 14.819965
_cell_length_c 26.729582
_cell_angle_alpha 90.000000
_cell_angle_beta 28.770026
_cell_angle_gamma 90.000000
_cell_volume 3632.847966
_symmetry_space_group_name_H-M "C 2/M"
_symmetry_group_IT_number 12
_symmetry_cell_setting 'monoclinic'
loop_
_space_group_symop_operation_xyz
x,y,z
-x,y,-z
-x,-y,-z
x,-y,z
1/2+x,1/2+y,z
1/2-x,1/2+y,-z
1/2-x,1/2-y,-z
1/2+x,1/2-y,z
loop_
_atom_site_type_symbol
_atom_site_label
_atom_site_fract_x
_atom_site_fract_y
_atom_site_fract_z
Si Si1 0.668586 0.222248 0.688503
Si Si2 0.620483 0.397280 0.380365
Si Si3 0.875691 0.175725 0.465247
Si Si4 0.585393 0.103313 0.199383
Si Si5 0.869944 0.891247 0.223134
Si Si6 0.048946 0.395620 0.417376
Si Si7 0.419044 0.609449 0.999988
Si Si8 0.600171 0.135201 0.590273
O O1 0.752497 0.169362 0.680761
O O2 0.780821 0.214960 0.571457
O O3 0.524924 0.166540 0.762409
O O4 0.628043 0.323653 0.730784
O O5 0.500000 0.399070 0.500000
O O6 0.673440 0.500000 0.340765
O O7 0.524586 0.364504 0.393331
O O8 0.760084 0.110453 0.510446
O O9 0.908151 0.256132 0.406681
O O10 0.750990 0.137509 0.099256
O O11 0.519142 0.100508 0.296752
O O12 0.584028 0.000000 0.180728
O O13 0.710032 0.868280 0.300115
O O14 0.880649 0.000000 0.227228
O O15 0.989589 0.868376 0.106793
O O16 0.070199 0.500000 0.415414
O O17 0.000000 0.349549 0.500000
O O18 0.935170 0.390397 0.444104
O O19 0.416008 0.500000 0.005289
O O20 0.500000 0.641626 0.000000
#
# Coordination Sequence:
#
# PCOD9172689 Si02
#       8
#     8   8   8   8   8   8   8   8
#     4  10  19  32  51  74 103 132 168 212 250 299
#     4   9  17  30  48  70 100 136 168 201 245 292
#     4   9  19  30  45  70 101 135 169 206 245 295
#     4  10  20  33  52  76 100 129 167 212 258 301
#     4  10  20  33  50  72 100 134 166 203 257 309
#     4  10  19  29  45  69  94 123 160 196 236 293
#     4   9  18  33  51  73 100 128 164 210 257 306
#     4  10  18  30  46  67  99 131 163 202 249 293
#
# _framework density 17.617031999999998
#
# number of rings (size 3 to 8) (size 9 to 14) (size 15 to 20)
#    0.000    2.375    0.000    3.000    0.000    7.000 
#    0.000    0.625    0.000    4.500    0.000    0.000 
#    0.000    3.500    0.000    0.000    0.000    0.000 
#
# Total GULP energy -178192.842640 kJ/mol
# GULP energy per Si atom -5568.526332 kJ/mol
# Density = 1.757694 g / cm^3
# Si number density = 17.617032 Si / 1000 Ang^3
#
#
#
# Elastic Constant Matrix: (Units=GPa)
#
#
# Indices 1 2 3 4 5 6 
#
# 1 98.9210 24.2278 43.5872 -0.0020 -15.7221 -0.0003
# 2 24.2278 75.6809 28.4966 -0.0002 -3.8755 -0.0009
# 3 43.5872 28.4966 90.5028 -0.0001 -17.0845 -0.0011
# 4 -0.0020 -0.0002 -0.0001 15.0274 -0.0003 0.0281
# 5 -15.7221 -3.8755 -17.0845 -0.0003 21.5249 -0.0005
# 6 -0.0003 -0.0009 -0.0011 0.0281 -0.0005 16.4112
#
#
#
# Elastic Compliance Matrix: (Units=1/GPa)
#
#
# Indices 1 2 3 4 5 6 
#
# 1 0.013698 -0.002288 -0.004782 0.000002 0.005798 0.000000
# 2 -0.002288 0.015400 -0.004163 0.000000 -0.002202 0.000000
# 3 -0.004782 -0.004163 0.016306 0.000000 0.008699 0.000001
# 4 0.000002 0.000000 0.000000 0.066545 0.000002 -0.000114
# 5 0.005798 -0.002202 0.008699 0.000002 0.057201 0.000002
# 6 0.000000 0.000000 0.000001 -0.000114 0.000002 0.060934
#
#
# Mechanical properties :
#
#
# Convention : Reuss Voigt Hill
#
# Bulk Modulus (GPa) = 43.59595 50.85865 47.22730
# Shear Modulus (GPa) = 19.21623 21.84557 20.53090
#
# Velocity S-wave (km/s) = 3.30627 3.52522 3.41750
# Velocity P-wave (km/s) = 6.27499 6.74546 6.51447
#
# Compressibility (1/GPa) = 0.02293791
#
# Stress axis : x y z
#
# Youngs Moduli (GPa) = 73.00306 64.93299 61.32819
#
# Poissons Ratio (x) = 0.14854 0.29330
# Poissons Ratio (y) = 0.16700 0.25532
# Poissons Ratio (z) = 0.34913 0.27033
#
# Static dielectric constant tensor:
#      x y z
#    x 1.636680 0.000000 -0.016300 
#    y 0.000000 1.653350 0.000000 
#    z -0.016300 0.000000 1.599450 
# 
# From -- ./inp_files/364277.got.cif
#   From: 2010.05.17/outbox.cif.g08.bks.cpg/sg12_183_cif.got.tgz:364277.got - 2010.06.03 13:09:07.
