data_PCOD9172002
_publ_section_title
;
Structure prediction by ZEFSAII (Michael W. Deem and Ramdas Pophale) SiO2 
 PCOD9172002
Probable space group: C 2/M
;
_chemical_formula_sum "Si O2"
_cell_formula_units_Z 48
_cell_length_a 23.468255
_cell_length_b 7.896552
_cell_length_c 17.814145
_cell_angle_alpha 90.000000
_cell_angle_beta 49.210885
_cell_angle_gamma 90.000000
_cell_volume 2499.467697
_symmetry_space_group_name_H-M "C 2/M"
_symmetry_group_IT_number 12
_symmetry_cell_setting 'monoclinic'
loop_
_space_group_symop_operation_xyz
x,y,z
-x,y,-z
-x,-y,-z
x,-y,z
1/2+x,1/2+y,z
1/2-x,1/2+y,-z
1/2-x,1/2-y,-z
1/2+x,1/2-y,z
loop_
_atom_site_type_symbol
_atom_site_label
_atom_site_fract_x
_atom_site_fract_y
_atom_site_fract_z
Si Si1 0.931845 0.293982 0.002478
Si Si2 0.796615 0.693387 0.888479
Si Si3 0.010375 0.701990 0.613101
Si Si4 0.272278 0.191719 0.198772
Si Si5 0.877985 0.798260 0.612546
Si Si6 0.035468 0.303199 0.192882
O O1 0.922599 0.500000 0.003002
O O2 0.953059 0.230058 0.900562
O O3 0.853137 0.231456 0.106426
O O4 0.000000 0.260377 0.000000
O O5 0.778485 0.500000 0.882538
O O6 0.772965 0.810616 0.840707
O O7 0.882314 0.697860 0.840206
O O8 0.750000 0.750000 0.000000
O O9 0.010862 0.500000 0.619244
O O10 0.079118 0.754805 0.500980
O O11 0.934390 0.744112 0.631324
O O12 0.012483 0.772309 0.696569
O O13 0.207268 0.271938 0.307109
O O14 0.287801 0.000000 0.212556
O O15 0.872048 0.000000 0.622847
O O16 0.011470 0.500000 0.202333
#
# Coordination Sequence:
#
# PCOD9172002 Si02
#       6
#     8   8   8   8   8   8
#     4   9  17  31  51  72  93 121 160 208 248 277
#     4  11  19  29  45  70 102 129 156 192 239 293
#     4  10  18  29  45  67  98 130 160 188 228 284
#     4  10  19  31  48  72  99 126 160 199 240 292
#     4  10  19  29  43  68 101 128 157 191 232 284
#     4   9  17  28  45  70  97 122 157 197 231 282
#
# _framework density 19.204089
#
# number of rings (size 3 to 8) (size 9 to 14) (size 15 to 20)
#    0.000    2.167    3.333    2.500    0.000    0.667 
#    0.000    0.000    0.000    1.500    0.000    0.000 
#    0.000    0.000    0.000    0.000    0.000    1.333 
#
# Total GULP energy -133622.896888 kJ/mol
# GULP energy per Si atom -5567.620704 kJ/mol
# Density = 1.916038 g / cm^3
# Si number density = 19.204089 Si / 1000 Ang^3
#
#
#
# Elastic Constant Matrix: (Units=GPa)
#
#
# Indices 1 2 3 4 5 6 
#
# 1 60.8766 5.4796 58.4191 -0.0026 -4.4489 -0.0009
# 2 5.4796 38.9367 6.5076 0.0028 -0.0960 0.0003
# 3 58.4191 6.5076 201.7037 -0.0003 -6.4916 0.0002
# 4 -0.0026 0.0028 -0.0003 4.2620 -0.0009 1.4093
# 5 -4.4489 -0.0960 -6.4916 -0.0009 10.9666 0.0038
# 6 -0.0009 0.0003 0.0002 1.4093 0.0038 8.6497
#
#
#
# Elastic Compliance Matrix: (Units=1/GPa)
#
#
# Indices 1 2 3 4 5 6 
#
# 1 0.023253 -0.002175 -0.006485 0.000017 0.005576 -0.000003
# 2 -0.002175 0.026026 -0.000235 -0.000019 -0.000794 0.000002
# 3 -0.006485 -0.000235 0.006890 -0.000003 0.001446 -0.000001
# 4 0.000017 -0.000019 -0.000003 0.247992 0.000040 -0.040406
# 5 0.005576 -0.000794 0.001446 0.000040 0.094297 -0.000047
# 6 -0.000003 0.000002 -0.000001 -0.040406 -0.000047 0.122195
#
#
# Mechanical properties :
#
#
# Convention : Reuss Voigt Hill
#
# Bulk Modulus (GPa) = 26.05602 49.14773 37.60188
# Shear Modulus (GPa) = 9.07050 20.18304 14.62677
#
# Velocity S-wave (km/s) = 2.17565 3.24539 2.76279
# Velocity P-wave (km/s) = 4.46192 6.30010 5.45894
#
# Compressibility (1/GPa) = 0.03837885
#
# Stress axis : x y z
#
# Youngs Moduli (GPa) = 43.00468 38.42291 145.13406
#
# Poissons Ratio (x) = 0.08356 0.94122
# Poissons Ratio (y) = 0.09353 0.03416
# Poissons Ratio (z) = 0.27889 0.00904
#
# Static dielectric constant tensor:
#      x y z
#    x 1.600820 0.000000 -0.008070 
#    y 0.000000 1.872250 0.000010 
#    z -0.008070 0.000010 1.781810 
# 
# From -- ./inp_files/287254.got.cif
#   From: 2010.05.17/outbox.cif.g08.bks.cpg/sg12_144_cif.got.tgz:287254.got - 2010.06.03 13:09:07.
