data_PCOD9172518
_publ_section_title
;
Structure prediction by ZEFSAII (Michael W. Deem and Ramdas Pophale) SiO2 
 PCOD9172518
Probable space group: C 2/M
;
_chemical_formula_sum "Si O2"
_cell_formula_units_Z 64
_cell_length_a 23.638817
_cell_length_b 9.388483
_cell_length_c 26.829500
_cell_angle_alpha 90.000000
_cell_angle_beta 33.362780
_cell_angle_gamma 90.000000
_cell_volume 3274.520446
_symmetry_space_group_name_H-M "C 2/M"
_symmetry_group_IT_number 12
_symmetry_cell_setting 'monoclinic'
loop_
_space_group_symop_operation_xyz
x,y,z
-x,y,-z
-x,-y,-z
x,-y,z
1/2+x,1/2+y,z
1/2-x,1/2+y,-z
1/2-x,1/2-y,-z
1/2+x,1/2-y,z
loop_
_atom_site_type_symbol
_atom_site_label
_atom_site_fract_x
_atom_site_fract_y
_atom_site_fract_z
Si Si1 0.544886 0.835656 0.164527
Si Si2 0.531795 0.331443 0.872983
Si Si3 0.163297 0.834864 0.158479
Si Si4 0.069903 0.170494 0.336747
Si Si5 0.135253 0.668619 0.525215
Si Si6 0.282973 0.164120 0.226878
Si Si7 0.616781 0.840813 0.956885
Si Si8 0.167483 0.337529 0.618762
O O1 0.528215 0.739523 0.128695
O O2 0.626910 0.768477 0.141879
O O3 0.435714 0.831643 0.273568
O O4 0.568620 0.000000 0.134635
O O5 0.535301 0.500000 0.867364
O O6 0.645803 0.264343 0.792427
O O7 0.466422 0.276465 0.968444
O O8 0.107839 0.799811 0.252019
O O9 0.284367 0.826275 0.080161
O O10 0.137853 0.000000 0.165295
O O11 0.164872 0.207047 0.303510
O O12 0.964594 0.253534 0.422986
O O13 0.054853 0.000000 0.351110
O O14 0.130096 0.500000 0.521181
O O15 0.138101 0.696354 0.583060
O O16 0.243141 0.734244 0.428055
O O17 0.335606 0.165336 0.133279
O O18 0.285591 0.000000 0.242936
O O19 0.571472 0.000000 0.997324
O O20 0.207534 0.500000 0.589644
#
# Coordination Sequence:
#
# PCOD9172518 Si02
#       8
#     8   8   8   8   8   8   8   8
#     4  11  22  37  55  74 105 145 180 215 257 314
#     4  12  25  37  52  77 105 139 180 221 267 311
#     4   9  18  33  54  80 107 136 172 215 263 310
#     4   9  17  31  54  81 109 138 169 212 263 313
#     4  10  18  29  50  81 111 138 171 211 257 306
#     4   9  19  37  59  80 103 137 178 218 263 312
#     4   9  19  37  59  80 104 136 174 218 266 315
#     4   9  19  33  49  75 107 141 176 209 253 310
#
# _framework density 19.544847000000001
#
# number of rings (size 3 to 8) (size 9 to 14) (size 15 to 20)
#    0.000    2.250    1.250    3.750    0.000    5.000 
#    0.000    2.500    0.000    0.750    0.000    5.250 
#    0.000    0.000    0.000    0.000    0.000    0.000 
#
# Total GULP energy -178682.763192 kJ/mol
# GULP energy per Si atom -5583.836350 kJ/mol
# Density = 1.950036 g / cm^3
# Si number density = 19.544847 Si / 1000 Ang^3
#
#
#
# Elastic Constant Matrix: (Units=GPa)
#
#
# Indices 1 2 3 4 5 6 
#
# 1 64.3310 45.8185 10.3771 0.0000 -27.4068 -0.0002
# 2 45.8185 93.1894 19.6544 0.0001 -27.5483 -0.0006
# 3 10.3771 19.6544 33.1154 0.0000 -23.6633 -0.0002
# 4 0.0000 0.0001 0.0000 24.3955 0.0000 -11.3077
# 5 -27.4068 -27.5483 -23.6633 0.0000 31.7951 0.0001
# 6 -0.0002 -0.0006 -0.0002 -11.3077 0.0001 26.2088
#
#
#
# Elastic Compliance Matrix: (Units=1/GPa)
#
#
# Indices 1 2 3 4 5 6 
#
# 1 0.036307 -0.011281 0.022848 0.000000 0.038526 0.000000
# 2 -0.011281 0.017940 -0.006309 0.000000 0.001125 0.000000
# 3 0.022848 -0.006309 0.078920 0.000000 0.072963 0.000000
# 4 0.000000 0.000000 0.000000 0.051238 0.000000 0.022107
# 5 0.038526 0.001125 0.072963 0.000000 0.119936 0.000000
# 6 0.000000 0.000000 0.000000 0.022107 0.000000 0.047693
#
#
# Mechanical properties :
#
#
# Convention : Reuss Voigt Hill
#
# Bulk Modulus (GPa) = 6.95983 38.03730 22.49856
# Shear Modulus (GPa) = 12.83983 24.13226 18.48604
#
# Velocity S-wave (km/s) = 2.56587 3.51766 3.07877
# Velocity P-wave (km/s) = 3.51382 6.00020 4.91677
#
# Compressibility (1/GPa) = 0.14368173
#
# Stress axis : x y z
#
# Youngs Moduli (GPa) = 27.54312 55.74001 12.67111
#
# Poissons Ratio (x) = 0.62879 -0.28950
# Poissons Ratio (y) = 0.31071 0.07995
# Poissons Ratio (z) = -0.62929 0.35168
#
# Static dielectric constant tensor:
#      x y z
#    x 1.707330 0.000000 0.014220 
#    y 0.000000 1.658400 0.000000 
#    z 0.014220 0.000000 1.693950 
# 
# From -- ./inp_files/287749.got.cif
#   From: 2010.05.17/outbox.cif.g08.bks.cpg/sg12_144_cif.got.tgz:287749.got - 2010.06.03 13:09:07.
