data_PCOD9172616
_publ_section_title
;
Structure prediction by ZEFSAII (Michael W. Deem and Ramdas Pophale) SiO2 
 PCOD9172616
Probable space group: C 2/M
;
_chemical_formula_sum "Si O2"
_cell_formula_units_Z 36
_cell_length_a 22.645378
_cell_length_b 5.651701
_cell_length_c 13.130793
_cell_angle_alpha 90.000000
_cell_angle_beta 115.372281
_cell_angle_gamma 90.000000
_cell_volume 1518.442633
_symmetry_space_group_name_H-M "C 2/M"
_symmetry_group_IT_number 12
_symmetry_cell_setting 'monoclinic'
loop_
_space_group_symop_operation_xyz
x,y,z
-x,y,-z
-x,-y,-z
x,-y,z
1/2+x,1/2+y,z
1/2-x,1/2+y,-z
1/2-x,1/2-y,-z
1/2+x,1/2-y,z
loop_
_atom_site_type_symbol
_atom_site_label
_atom_site_fract_x
_atom_site_fract_y
_atom_site_fract_z
Si Si1 0.313956 0.750251 0.619955
Si Si2 0.429346 0.500000 0.891211
Si Si3 0.076345 0.750185 0.474446
Si Si4 0.533378 0.000000 0.135781
Si Si5 0.462615 0.000000 0.295580
Si Si6 0.826213 0.500000 0.112925
Si Si7 0.177397 0.000000 0.012640
O O1 0.312946 0.500000 0.676335
O O2 0.250000 0.750000 0.500000
O O3 0.374112 0.750947 0.584531
O O4 0.311523 0.000000 0.675536
O O5 0.428755 0.250440 0.830919
O O6 0.374681 0.500000 0.936363
O O7 0.500000 0.500000 0.000000
O O8 0.088246 0.500000 0.537952
O O9 0.003031 0.717163 0.376072
O O10 0.085389 0.000000 0.534021
O O11 0.482849 0.000000 0.191002
O O12 0.500000 0.000000 0.000000
O O13 0.385566 0.000000 0.235169
O O14 0.752983 0.500000 0.102840
O O15 0.832002 0.249889 0.055124
#
# Coordination Sequence:
#
# PCOD9172616 Si02
#       7
#     8   4   8   4   4   4   4
#     4   8  12  20  32  47  68  96 128 152 172 212
#     4  10  18  30  44  58  75  95 124 163 196 232
#     4   8  16  24  35  53  75 100 126 160 182 227
#     4  10  20  28  42  58  74 102 128 164 199 229
#     4  10  20  28  44  58  84  99 138 161 205 233
#     4  10  20  30  48  60  78 103 120 168 205 242
#     4  10  20  34  44  62  77  95 134 162 207 248
#
# _framework density 23.708504000000001
#
# number of rings (size 3 to 8) (size 9 to 14) (size 15 to 20)
#    0.667    2.222    0.000    3.333    3.111    0.000 
#    0.000    0.000    0.000    0.000    0.000    0.000 
#    0.000    0.000    0.000    0.000    0.000    6.667 
#
# Total GULP energy -100376.620469 kJ/mol
# GULP energy per Si atom -5576.478915 kJ/mol
# Density = 2.365454 g / cm^3
# Si number density = 23.708504 Si / 1000 Ang^3
#
#
#
# Elastic Constant Matrix: (Units=GPa)
#
#
# Indices 1 2 3 4 5 6 
#
# 1 120.7963 28.7102 52.3782 0.0000 20.6549 0.0000
# 2 28.7102 273.4940 38.3742 0.0000 6.0031 0.0000
# 3 52.3782 38.3742 89.2106 0.0000 15.8318 0.0000
# 4 0.0000 0.0000 0.0000 30.2437 0.0000 4.8364
# 5 20.6549 6.0031 15.8318 0.0000 36.6006 0.0000
# 6 0.0000 0.0000 0.0000 4.8364 0.0000 28.2017
#
#
#
# Elastic Compliance Matrix: (Units=1/GPa)
#
#
# Indices 1 2 3 4 5 6 
#
# 1 0.011619 -0.000292 -0.006002 0.000000 -0.003913 0.000000
# 2 -0.000292 0.003899 -0.001540 0.000000 0.000191 0.000000
# 3 -0.006002 -0.001540 0.015976 0.000000 -0.003271 0.000000
# 4 0.000000 0.000000 0.000000 0.033997 0.000000 -0.005830
# 5 -0.003913 0.000191 -0.003271 0.000000 0.030914 0.000000
# 6 0.000000 0.000000 0.000000 -0.005830 0.000000 0.036459
#
#
# Mechanical properties :
#
#
# Convention : Reuss Voigt Hill
#
# Bulk Modulus (GPa) = 63.18212 80.26956 71.72584
# Shear Modulus (GPa) = 32.50824 43.27842 37.89333
#
# Velocity S-wave (km/s) = 3.70694 4.27715 4.00221
# Velocity P-wave (km/s) = 6.71039 7.63691 7.18859
#
# Compressibility (1/GPa) = 0.01582726
#
# Stress axis : x y z
#
# Youngs Moduli (GPa) = 86.06279 256.48530 62.59271
#
# Poissons Ratio (x) = 0.07481 0.37569
# Poissons Ratio (y) = 0.02510 0.09638
# Poissons Ratio (z) = 0.51657 0.39493
#
# Static dielectric constant tensor:
#      x y z
#    x 1.883100 0.000000 -0.024340 
#    y 0.000000 2.000770 0.000000 
#    z -0.024340 0.000000 1.551360 
# 
# From -- ./inp_files/236153.got.cif
#   From: 2010.05.17/outbox.cif.g08.bks.cpg/sg12_119_cif.got.tgz:236153.got - 2010.06.03 13:09:07.
