data_PCOD9172281
_publ_section_title
;
Structure prediction by ZEFSAII (Michael W. Deem and Ramdas Pophale) SiO2 
 PCOD9172281
Probable space group: C 2/M
;
_chemical_formula_sum "Si O2"
_cell_formula_units_Z 64
_cell_length_a 20.455496
_cell_length_b 7.369091
_cell_length_c 21.361490
_cell_angle_alpha 90.000000
_cell_angle_beta 135.183223
_cell_angle_gamma 90.000000
_cell_volume 2269.589020
_symmetry_space_group_name_H-M "C 2/M"
_symmetry_group_IT_number 12
_symmetry_cell_setting 'monoclinic'
loop_
_space_group_symop_operation_xyz
x,y,z
-x,y,-z
-x,-y,-z
x,-y,z
1/2+x,1/2+y,z
1/2-x,1/2+y,-z
1/2-x,1/2-y,-z
1/2+x,1/2-y,z
loop_
_atom_site_type_symbol
_atom_site_label
_atom_site_fract_x
_atom_site_fract_y
_atom_site_fract_z
Si Si1 0.870997 0.789132 0.536116
Si Si2 0.559301 0.217892 0.103443
Si Si3 0.766030 0.707263 0.338847
Si Si4 0.944234 0.718457 0.399512
Si Si5 0.095196 0.209139 0.798047
Si Si6 0.391803 0.277105 0.686403
Si Si7 0.385250 0.219348 0.054031
Si Si8 0.768828 0.279010 0.851981
O O1 0.823326 0.699673 0.444030
O O2 0.846527 0.724355 0.588946
O O3 0.983422 0.771625 0.605027
O O4 0.849164 0.000000 0.516607
O O5 0.490815 0.285994 0.110886
O O6 0.663819 0.279510 0.158896
O O7 0.563249 0.000000 0.111239
O O8 0.500000 0.255085 0.000000
O O9 0.750544 0.500000 0.310969
O O10 0.839765 0.790667 0.340101
O O11 0.669036 0.790022 0.296514
O O12 0.939064 0.500000 0.396307
O O13 0.000000 0.776169 0.500000
O O14 0.146272 0.211263 0.900263
O O15 0.164568 0.289325 0.793558
O O16 0.996354 0.291027 0.748994
O O17 0.079638 0.000000 0.770547
O O18 0.391802 0.500000 0.689070
O O19 0.385480 0.000000 0.055980
O O20 0.324278 0.272649 0.952957
O O21 0.765887 0.500000 0.848888
#
# Coordination Sequence:
#
# PCOD9172281 Si02
#       8
#     8   8   8   8   8   8   8   8
#     4  10  18  29  48  72  94 114 143 188 231 261
#     4   7  11  22  42  66  88 111 143 182 219 256
#     4   9  17  32  51  67  87 118 153 183 215 265
#     4   8  15  28  47  69  90 115 147 180 217 266
#     4  10  19  31  46  64  90 123 153 180 219 271
#     4   9  19  33  46  63  90 123 154 183 218 263
#     4   9  16  28  47  70  92 113 146 191 227 257
#     4   8  14  26  47  70  88 114 152 186 218 263
#
# _framework density 28.198937999999998
#
# number of rings (size 3 to 8) (size 9 to 14) (size 15 to 20)
#    0.000    3.250    0.000    3.375    0.000    2.250 
#    0.000    3.750    0.000    5.625    0.000    0.000 
#    0.000    0.000    0.000    0.000    0.000    0.000 
#
# Total GULP energy -179046.567601 kJ/mol
# GULP energy per Si atom -5595.205238 kJ/mol
# Density = 2.813476 g / cm^3
# Si number density = 28.198938 Si / 1000 Ang^3
#
#
#
# Elastic Constant Matrix: (Units=GPa)
#
#
# Indices 1 2 3 4 5 6 
#
# 1 268.7330 10.9563 44.6915 0.0000 18.7097 0.0000
# 2 10.9563 124.3792 16.3658 0.0000 3.4695 0.0000
# 3 44.6915 16.3658 90.2204 0.0000 16.3373 0.0000
# 4 0.0000 0.0000 0.0000 23.9236 0.0000 -10.3646
# 5 18.7097 3.4695 16.3373 0.0000 70.9523 0.0000
# 6 0.0000 0.0000 0.0000 -10.3646 0.0000 10.0951
#
#
#
# Elastic Compliance Matrix: (Units=1/GPa)
#
#
# Indices 1 2 3 4 5 6 
#
# 1 0.004084 -0.000093 -0.001891 0.000000 -0.000637 0.000000
# 2 -0.000093 0.008239 -0.001440 0.000000 -0.000047 0.000000
# 3 -0.001891 -0.001440 0.012709 0.000000 -0.002357 0.000000
# 4 0.000000 0.000000 0.000000 0.075288 0.000000 0.077297
# 5 -0.000637 -0.000047 -0.002357 0.000000 0.014807 0.000000
# 6 0.000000 0.000000 0.000000 0.077297 0.000000 0.178418
#
#
# Mechanical properties :
#
#
# Convention : Reuss Voigt Hill
#
# Bulk Modulus (GPa) = 54.99423 69.70665 62.35044
# Shear Modulus (GPa) = 16.31572 48.41546 32.36559
#
# Velocity S-wave (km/s) = 2.40801 4.14807 3.39153
# Velocity P-wave (km/s) = 5.22263 6.90763 6.12336
#
# Compressibility (1/GPa) = 0.01818373
#
# Stress axis : x y z
#
# Youngs Moduli (GPa) = 244.87368 121.37533 78.68696
#
# Poissons Ratio (x) = 0.01131 0.14877
# Poissons Ratio (y) = 0.02282 0.11330
# Poissons Ratio (z) = 0.46298 0.17477
#
# Static dielectric constant tensor:
#      x y z
#    x 2.185920 0.000000 0.060110 
#    y 0.000000 1.997380 0.000000 
#    z 0.060110 0.000000 2.308240 
# 
# From -- ./inp_files/365245.got.cif
#   From: 2010.05.17/outbox.cif.g08.bks.cpg/sg12_183_cif.got.tgz:365245.got - 2010.06.03 13:09:07.
