data_PCOD9172640
_publ_section_title
;
Structure prediction by ZEFSAII (Michael W. Deem and Ramdas Pophale) SiO2 
 PCOD9172640
Probable space group: C 2/M
;
_chemical_formula_sum "Si O2"
_cell_formula_units_Z 40
_cell_length_a 21.559950
_cell_length_b 13.130894
_cell_length_c 21.874576
_cell_angle_alpha 90.000000
_cell_angle_beta 160.678985
_cell_angle_gamma 90.000000
_cell_volume 2048.927828
_symmetry_space_group_name_H-M "C 2/M"
_symmetry_group_IT_number 12
_symmetry_cell_setting 'monoclinic'
loop_
_space_group_symop_operation_xyz
x,y,z
-x,y,-z
-x,-y,-z
x,-y,z
1/2+x,1/2+y,z
1/2-x,1/2+y,-z
1/2-x,1/2-y,-z
1/2+x,1/2-y,z
loop_
_atom_site_type_symbol
_atom_site_label
_atom_site_fract_x
_atom_site_fract_y
_atom_site_fract_z
Si Si1 0.442607 0.380555 0.046753
Si Si2 0.323504 0.111680 0.080519
Si Si3 0.285223 0.183625 0.435217
Si Si4 0.887686 0.617627 0.339231
Si Si5 0.025100 0.183420 0.299846
O O1 0.493479 0.500000 0.083950
O O2 0.306950 0.380219 0.980147
O O3 0.310315 0.341707 0.869058
O O4 0.628061 0.318585 0.236340
O O5 0.463830 0.206086 0.214256
O O6 0.409941 0.000000 0.158838
O O7 0.171040 0.124860 0.884283
O O8 0.462382 0.121078 0.576284
O O9 0.375037 0.288633 0.543971
O O10 0.173694 0.138588 0.389948
O O11 0.849527 0.500000 0.319619
O O12 0.000000 0.666302 0.500000
#
# Coordination Sequence:
#
# PCOD9172640 Si02
#       5
#     8   8   8   8   8
#     4   9  17  28  45  67  92 131 165 191 234 284
#     4   9  16  29  48  70 100 131 160 196 241 293
#     4  10  18  30  45  65  95 127 161 202 235 276
#     4  10  20  32  46  67  97 134 171 200 233 285
#     4   9  18  29  46  73  96 130 166 196 243 291
#
# _framework density 19.522404999999999
#
# number of rings (size 3 to 8) (size 9 to 14) (size 15 to 20)
#    0.000    2.600    2.000    0.600    0.000    2.400 
#    0.000    6.000    0.000    0.000    0.000    0.000 
#    0.000    4.800    0.000    0.000    0.000    0.000 
#
# Total GULP energy -111349.182727 kJ/mol
# GULP energy per Si atom -5567.459136 kJ/mol
# Density = 1.947797 g / cm^3
# Si number density = 19.522405 Si / 1000 Ang^3
#
#
#
# Elastic Constant Matrix: (Units=GPa)
#
#
# Indices 1 2 3 4 5 6 
#
# 1 36.7146 10.0275 33.1804 -0.0006 -3.1741 -0.0004
# 2 10.0275 48.3952 14.8511 0.0004 -3.7109 -0.0007
# 3 33.1804 14.8511 177.8967 0.0017 -30.6809 -0.0002
# 4 -0.0006 0.0004 0.0017 21.6636 0.0004 -6.6267
# 5 -3.1741 -3.7109 -30.6809 0.0004 36.6019 -0.0002
# 6 -0.0004 -0.0007 -0.0002 -6.6267 -0.0002 4.5994
#
#
#
# Elastic Compliance Matrix: (Units=1/GPa)
#
#
# Indices 1 2 3 4 5 6 
#
# 1 0.034280 -0.005349 -0.006462 0.000004 -0.002986 0.000007
# 2 -0.005349 0.022060 -0.000629 0.000001 0.001245 0.000004
# 3 -0.006462 -0.000629 0.007916 -0.000002 0.006011 -0.000002
# 4 0.000004 0.000001 -0.000002 0.082535 -0.000001 0.118914
# 5 -0.002986 0.001245 0.006011 -0.000001 0.032227 -0.000001
# 6 0.000007 0.000004 -0.000002 0.118914 -0.000001 0.388749
#
#
# Mechanical properties :
#
#
# Convention : Reuss Voigt Hill
#
# Bulk Modulus (GPa) = 25.39662 42.12496 33.76079
# Shear Modulus (GPa) = 8.25393 26.23614 17.24503
#
# Velocity S-wave (km/s) = 2.05842 3.66990 2.97534
# Velocity P-wave (km/s) = 4.32281 6.29143 5.39763
#
# Compressibility (1/GPa) = 0.03937532
#
# Stress axis : x y z
#
# Youngs Moduli (GPa) = 29.17152 45.33084 126.33003
#
# Poissons Ratio (x) = 0.24246 0.81638
# Poissons Ratio (y) = 0.15603 0.07949
# Poissons Ratio (z) = 0.18851 0.02852
#
# Static dielectric constant tensor:
#      x y z
#    x 1.760160 0.000000 -0.051360 
#    y 0.000000 1.667680 0.000000 
#    z -0.051360 0.000000 1.798650 
# 
# From -- ./inp_files/95272.got.cif
#   From: 2010.05.17/outbox.cif.g08.bks.cpg/sg12_48_cif.got.tgz:95272.got - 2010.06.03 13:09:07.
