data_PCOD9172028
_publ_section_title
;
Structure prediction by ZEFSAII (Michael W. Deem and Ramdas Pophale) SiO2 
 PCOD9172028
Probable space group: C 2/M
;
_chemical_formula_sum "Si O2"
_cell_formula_units_Z 56
_cell_length_a 24.617202
_cell_length_b 21.057911
_cell_length_c 18.534844
_cell_angle_alpha 90.000000
_cell_angle_beta 20.744744
_cell_angle_gamma 90.000000
_cell_volume 3403.281768
_symmetry_space_group_name_H-M "C 2/M"
_symmetry_group_IT_number 12
_symmetry_cell_setting 'monoclinic'
loop_
_space_group_symop_operation_xyz
x,y,z
-x,y,-z
-x,-y,-z
x,-y,z
1/2+x,1/2+y,z
1/2-x,1/2+y,-z
1/2-x,1/2-y,-z
1/2+x,1/2-y,z
loop_
_atom_site_type_symbol
_atom_site_label
_atom_site_fract_x
_atom_site_fract_y
_atom_site_fract_z
Si Si1 0.293905 0.324279 0.442136
Si Si2 0.919622 0.157273 0.020085
Si Si3 0.940270 0.658565 0.383017
Si Si4 0.735997 0.684291 0.061572
Si Si5 0.397826 0.311984 0.464497
Si Si6 0.820265 0.229587 0.709203
Si Si7 0.857947 0.425339 0.622304
O O1 0.250000 0.250000 0.500000
O O2 0.161184 0.356420 0.560764
O O3 0.310409 0.341042 0.505380
O O4 0.449817 0.333650 0.202701
O O5 0.797584 0.214714 0.164267
O O6 0.810683 0.096493 0.141887
O O7 0.000000 0.156426 0.000000
O O8 0.916507 0.734497 0.429676
O O9 0.886415 0.617096 0.516528
O O10 0.117283 0.646036 0.146116
O O11 0.567869 0.659128 0.253300
O O12 0.737519 0.699488 0.144574
O O13 0.750000 0.750000 0.000000
O O14 0.326614 0.316510 0.632225
O O15 0.000000 0.249745 0.500000
O O16 0.858480 0.500000 0.606033
O O17 0.000000 0.412434 0.500000
#
# Coordination Sequence:
#
# PCOD9172028 Si02
#       7
#     8   8   8   8   8   8   8
#     4  10  19  31  44  72 100 128 169 200 246 313
#     4  12  20  32  50  70  96 141 168 211 257 297
#     4  10  18  34  46  67  98 129 168 208 256 293
#     4   9  18  26  46  72  93 136 165 202 243 312
#     4   9  17  28  46  72  98 131 163 201 247 314
#     4  10  18  29  45  73 105 133 169 197 246 311
#     4  11  25  39  53  72  97 135 187 227 253 296
#
# _framework density 16.454705000000001
#
# number of rings (size 3 to 8) (size 9 to 14) (size 15 to 20)
#    0.000    1.857    2.857    3.857    6.000    0.286 
#    0.000    0.000    0.000    0.000    0.000    0.000 
#    0.000    8.571    0.000    0.000    0.000    0.000 
#
# Total GULP energy -155949.654867 kJ/mol
# GULP energy per Si atom -5569.630531 kJ/mol
# Density = 1.641725 g / cm^3
# Si number density = 16.454705 Si / 1000 Ang^3
#
#
#
# Elastic Constant Matrix: (Units=GPa)
#
#
# Indices 1 2 3 4 5 6 
#
# 1 123.0190 17.1485 24.5543 -0.0004 -0.4056 0.0004
# 2 17.1485 30.6477 18.5972 0.0010 -5.1476 -0.0001
# 3 24.5543 18.5972 71.5256 0.0010 4.4165 -0.0016
# 4 -0.0004 0.0010 0.0010 13.0707 -0.0006 -2.3314
# 5 -0.4056 -5.1476 4.4165 -0.0006 32.3567 0.0000
# 6 0.0004 -0.0001 -0.0016 -2.3314 0.0000 12.5446
#
#
#
# Elastic Compliance Matrix: (Units=1/GPa)
#
#
# Indices 1 2 3 4 5 6 
#
# 1 0.009084 -0.003839 -0.002107 0.000001 -0.000209 0.000000
# 2 -0.003839 0.042311 -0.010182 -0.000002 0.008073 -0.000001
# 3 -0.002107 -0.010182 0.017602 0.000000 -0.004049 0.000002
# 4 0.000001 -0.000002 0.000000 0.079130 0.000001 0.014706
# 5 -0.000209 0.008073 -0.004049 0.000001 0.032740 0.000000
# 6 0.000000 -0.000001 0.000002 0.014706 0.000000 0.082448
#
#
# Mechanical properties :
#
#
# Convention : Reuss Voigt Hill
#
# Bulk Modulus (GPa) = 27.21794 38.42135 32.81965
# Shear Modulus (GPa) = 16.24332 22.58723 19.41528
#
# Velocity S-wave (km/s) = 3.14531 3.70900 3.43873
# Velocity P-wave (km/s) = 5.45598 6.46086 5.97957
#
# Compressibility (1/GPa) = 0.03674047
#
# Stress axis : x y z
#
# Youngs Moduli (GPa) = 110.08460 23.63434 56.81253
#
# Poissons Ratio (x) = 0.09074 0.11972
# Poissons Ratio (y) = 0.42264 0.57845
# Poissons Ratio (z) = 0.23198 0.24064
#
# Static dielectric constant tensor:
#      x y z
#    x 1.599150 0.000000 -0.010060 
#    y 0.000000 1.526820 0.000000 
#    z -0.010060 0.000000 1.595360 
# 
# From -- ./inp_files/99605.got.cif
#   From: 2010.05.17/outbox.cif.g08.bks.cpg/sg12_50_cif.got.tgz:99605.got - 2010.06.03 13:09:07.
