data_PCOD9172872
_publ_section_title
;
Structure prediction by ZEFSAII (Michael W. Deem and Ramdas Pophale) SiO2 
 PCOD9172872
Probable space group: C 2/M
;
_chemical_formula_sum "Si O2"
_cell_formula_units_Z 50
_cell_length_a 17.325743
_cell_length_b 9.473848
_cell_length_c 14.381068
_cell_angle_alpha 90.000000
_cell_angle_beta 106.716904
_cell_angle_gamma 90.000000
_cell_volume 2260.767969
_symmetry_space_group_name_H-M "C 2/M"
_symmetry_group_IT_number 12
_symmetry_cell_setting 'monoclinic'
loop_
_space_group_symop_operation_xyz
x,y,z
-x,y,-z
-x,-y,-z
x,-y,z
1/2+x,1/2+y,z
1/2-x,1/2+y,-z
1/2-x,1/2-y,-z
1/2+x,1/2-y,z
loop_
_atom_site_type_symbol
_atom_site_label
_atom_site_fract_x
_atom_site_fract_y
_atom_site_fract_z
Si Si1 0.604892 0.662850 0.781124
Si Si2 0.588154 0.840132 0.058331
Si Si3 0.259721 0.337904 0.867052
Si Si4 0.208494 0.159553 0.346195
Si Si5 0.847210 0.149693 0.420062
Si Si6 0.558663 0.840849 0.267245
Si Si7 0.500000 0.500000 0.500000
O O1 0.597800 0.500000 0.810993
O O2 0.678693 0.747620 0.852220
O O3 0.625542 0.656365 0.678545
O O4 0.522096 0.747946 0.760530
O O5 0.663347 0.740759 0.062569
O O6 0.584490 0.852345 0.168295
O O7 0.596828 0.000000 0.022486
O O8 0.500000 0.784221 0.000000
O O9 0.251771 0.500000 0.894996
O O10 0.275727 0.340637 0.760346
O O11 0.289378 0.221670 0.418973
O O12 0.132783 0.259219 0.339348
O O13 0.191624 0.000000 0.368471
O O14 0.200004 0.000000 0.588538
O O15 0.931347 0.121121 0.499208
O O16 0.544898 0.000000 0.297955
#
# Coordination Sequence:
#
# PCOD9172872 Si02
#       7
#     8   8   8   8   8   8   2
#     4  10  18  30  48  73  98 124 156 202 243 279
#     4   9  18  33  50  68  94 129 165 201 244 292
#     4   9  17  29  47  70  97 123 159 205 242 282
#     4   9  16  28  47  73  97 122 161 203 236 273
#     4   8  16  30  51  73  94 127 155 191 234 283
#     4  10  19  30  48  73  98 126 161 203 244 285
#     4   8  16  32  54  76  96 128 158 186 232 292
#
# _framework density 22.116377
#
# number of rings (size 3 to 8) (size 9 to 14) (size 15 to 20)
#    0.480    2.400    0.000    1.920    0.000    5.440 
#    0.000    1.200    0.000    0.960    0.000    0.000 
#    0.000    0.000    0.000    0.000    0.000    0.000 
#
# Total GULP energy -139226.403992 kJ/mol
# GULP energy per Si atom -5569.056160 kJ/mol
# Density = 2.206604 g / cm^3
# Si number density = 22.116377 Si / 1000 Ang^3
#
#
#
# Elastic Constant Matrix: (Units=GPa)
#
#
# Indices 1 2 3 4 5 6 
#
# 1 69.7017 64.2352 47.8140 0.0000 24.4338 0.0000
# 2 64.2352 197.4303 57.4490 0.0000 61.7936 0.0000
# 3 47.8140 57.4490 78.4248 0.0000 45.0241 0.0000
# 4 0.0000 0.0000 0.0000 26.6814 0.0000 9.4882
# 5 24.4338 61.7936 45.0241 0.0000 63.6223 0.0000
# 6 0.0000 0.0000 0.0000 9.4882 0.0000 22.6440
#
#
#
# Elastic Compliance Matrix: (Units=1/GPa)
#
#
# Indices 1 2 3 4 5 6 
#
# 1 0.030428 -0.007189 -0.017828 0.000000 0.007913 0.000000
# 2 -0.007189 0.009196 0.002003 0.000000 -0.007589 0.000000
# 3 -0.017828 0.002003 0.032573 0.000000 -0.018150 0.000000
# 4 0.000000 0.000000 0.000000 0.044042 0.000000 -0.018454
# 5 0.007913 -0.007589 -0.018150 0.000000 0.032894 0.000000
# 6 0.000000 0.000000 0.000000 -0.018454 0.000000 0.051894
#
#
# Mechanical properties :
#
#
# Convention : Reuss Voigt Hill
#
# Bulk Modulus (GPa) = 38.21279 76.06148 57.13713
# Shear Modulus (GPa) = 19.54821 34.32679 26.93750
#
# Velocity S-wave (km/s) = 2.97624 3.94394 3.49376
# Velocity P-wave (km/s) = 5.39687 7.43005 6.49353
#
# Compressibility (1/GPa) = 0.02616925
#
# Stress axis : x y z
#
# Youngs Moduli (GPa) = 32.86484 108.73849 30.70014
#
# Poissons Ratio (x) = 0.78171 0.54732
# Poissons Ratio (y) = 0.23626 -0.06149
# Poissons Ratio (z) = 0.58591 -0.21779
#
# Static dielectric constant tensor:
#      x y z
#    x 1.820150 0.000000 -0.072930 
#    y 0.000000 1.513810 0.000000 
#    z -0.072930 0.000000 1.862280 
# 
# From -- ./inp_files/362824.got.cif
#   From: 2010.05.17/outbox.cif.g08.bks.cpg/sg12_182_cif.got.tgz:362824.got - 2010.06.03 13:09:07.
