data_PCOD9172284
_publ_section_title
;
Structure prediction by ZEFSAII (Michael W. Deem and Ramdas Pophale) SiO2 
 PCOD9172284
Probable space group: C 2/M
;
_chemical_formula_sum "Si O2"
_cell_formula_units_Z 64
_cell_length_a 30.232756
_cell_length_b 7.647684
_cell_length_c 16.346900
_cell_angle_alpha 90.000000
_cell_angle_beta 118.054797
_cell_angle_gamma 90.000000
_cell_volume 3335.468964
_symmetry_space_group_name_H-M "C 2/M"
_symmetry_group_IT_number 12
_symmetry_cell_setting 'monoclinic'
loop_
_space_group_symop_operation_xyz
x,y,z
-x,y,-z
-x,-y,-z
x,-y,z
1/2+x,1/2+y,z
1/2-x,1/2+y,-z
1/2-x,1/2-y,-z
1/2+x,1/2-y,z
loop_
_atom_site_type_symbol
_atom_site_label
_atom_site_fract_x
_atom_site_fract_y
_atom_site_fract_z
Si Si1 0.543247 0.794549 0.864861
Si Si2 0.931204 0.798746 0.762345
Si Si3 0.193689 0.710628 0.071723
Si Si4 0.299054 0.797037 0.238772
Si Si5 0.827098 0.789391 0.606749
Si Si6 0.859504 0.714279 0.140912
Si Si7 0.272229 0.210384 0.392249
Si Si8 0.409008 0.788537 0.928004
O O1 0.485798 0.776053 0.791364
O O2 0.585064 0.726761 0.838191
O O3 0.554338 0.000000 0.881061
O O4 0.555031 0.726744 0.966680
O O5 0.881865 0.719720 0.677066
O O6 0.922112 0.786206 0.851646
O O7 0.933918 0.000000 0.740054
O O8 0.198498 0.500000 0.076405
O O9 0.245290 0.789116 0.147371
O O10 0.147233 0.754754 0.091081
O O11 0.177140 0.764029 0.966025
O O12 0.338867 0.720470 0.209385
O O13 0.291335 0.719146 0.322202
O O14 0.313103 0.000000 0.263089
O O15 0.782875 0.723932 0.628504
O O16 0.809028 0.749277 0.499530
O O17 0.828532 0.000000 0.617104
O O18 0.858656 0.500000 0.143186
O O19 0.268016 0.000000 0.381399
O O20 0.412930 0.000000 0.923824
#
# Coordination Sequence:
#
# PCOD9172284 Si02
#       8
#     8   8   8   8   8   8   8   8
#     4   9  18  33  49  65  91 128 164 191 220 265
#     4  11  21  31  47  71  95 119 152 194 238 277
#     4   9  17  29  45  68  97 128 160 186 217 271
#     4  10  18  29  48  72  96 121 152 193 237 272
#     4   9  19  34  48  66  95 122 143 179 232 282
#     4   8  16  31  48  66  93 128 160 191 225 264
#     4   9  18  32  50  71  92 116 148 184 225 276
#     4   9  18  31  46  66  95 129 160 188 220 267
#
# _framework density 19.187707
#
# number of rings (size 3 to 8) (size 9 to 14) (size 15 to 20)
#    0.000    2.750    0.000    3.375    0.000    5.000 
#    0.000    5.000    0.000    0.750    0.000    5.250 
#    0.000    0.000    0.000    0.000    0.000    0.000 
#
# Total GULP energy -178506.869668 kJ/mol
# GULP energy per Si atom -5578.339677 kJ/mol
# Density = 1.914403 g / cm^3
# Si number density = 19.187707 Si / 1000 Ang^3
#
#
#
# Elastic Constant Matrix: (Units=GPa)
#
#
# Indices 1 2 3 4 5 6 
#
# 1 109.6706 -6.5107 85.4221 0.0000 -7.1060 0.0000
# 2 -6.5107 29.3476 -7.5398 0.0000 -2.3895 0.0000
# 3 85.4221 -7.5398 95.5427 0.0000 -5.4193 0.0000
# 4 0.0000 0.0000 0.0000 7.9650 0.0000 12.7680
# 5 -7.1060 -2.3895 -5.4193 0.0000 32.7820 0.0000
# 6 0.0000 0.0000 0.0000 12.7680 0.0000 6.4646
#
#
#
# Elastic Compliance Matrix: (Units=1/GPa)
#
#
# Indices 1 2 3 4 5 6 
#
# 1 0.030175 -0.000036 -0.026863 0.000000 0.002097 0.000000
# 2 -0.000036 0.035078 0.002973 0.000000 0.003040 0.000000
# 3 -0.026863 0.002973 0.034726 0.000000 0.000135 0.000000
# 4 0.000000 0.000000 0.000000 -0.057962 0.000000 0.114479
# 5 0.002097 0.003040 0.000135 0.000000 0.031203 0.000000
# 6 0.000000 0.000000 0.000000 0.114479 0.000000 -0.071415
#
#
# Mechanical properties :
#
#
# Convention : Reuss Voigt Hill
#
# Bulk Modulus (GPa) = 19.18390 41.92270 30.55330
# Shear Modulus (GPa) = 74.59007 20.32160 47.45583
#
# Velocity S-wave (km/s) = 6.24166 3.25790 4.97856
# Velocity P-wave (km/s) = 7.87173 6.00401 7.00043
#
# Compressibility (1/GPa) = 0.05212705
#
# Stress axis : x y z
#
# Youngs Moduli (GPa) = 33.13960 28.50812 28.79677
#
# Poissons Ratio (x) = 0.00104 0.77356
# Poissons Ratio (y) = 0.00120 -0.08562
# Poissons Ratio (z) = 0.89022 -0.08476
#
# Static dielectric constant tensor:
#      x y z
#    x 1.686480 0.000000 -0.003610 
#    y 0.000000 1.718990 0.000000 
#    z -0.003610 0.000000 1.652750 
# 
# From -- ./inp_files/249226.got.cif
#   From: 2010.05.17/outbox.cif.g08.bks.cpg/sg12_125_cif.got.tgz:249226.got - 2010.06.03 13:09:07.
