data_PCOD9172088
_publ_section_title
;
Structure prediction by ZEFSAII (Michael W. Deem and Ramdas Pophale) SiO2 
 PCOD9172088
Probable space group: C 2/M
;
_chemical_formula_sum "Si O2"
_cell_formula_units_Z 56
_cell_length_a 28.624279
_cell_length_b 8.877895
_cell_length_c 14.125949
_cell_angle_alpha 90.000000
_cell_angle_beta 96.901552
_cell_angle_gamma 90.000000
_cell_volume 3563.722494
_symmetry_space_group_name_H-M "C 2/M"
_symmetry_group_IT_number 12
_symmetry_cell_setting 'monoclinic'
loop_
_space_group_symop_operation_xyz
x,y,z
-x,y,-z
-x,-y,-z
x,-y,z
1/2+x,1/2+y,z
1/2-x,1/2+y,-z
1/2-x,1/2-y,-z
1/2+x,1/2-y,z
loop_
_atom_site_type_symbol
_atom_site_label
_atom_site_fract_x
_atom_site_fract_y
_atom_site_fract_z
Si Si1 0.662152 0.681304 0.325578
Si Si2 0.458111 0.319777 0.416681
Si Si3 0.516113 0.820325 0.778259
Si Si4 0.762335 0.319495 0.401470
Si Si5 0.446800 0.673525 0.028875
Si Si6 0.587928 0.179836 0.165411
Si Si7 0.862902 0.681343 0.474949
O O1 0.657822 0.500000 0.328339
O O2 0.717601 0.722103 0.326154
O O3 0.629379 0.746757 0.235970
O O4 0.645679 0.749784 0.422535
O O5 0.500000 0.282900 0.500000
O O6 0.453159 0.500000 0.412062
O O7 0.471453 0.257179 0.317159
O O8 0.410113 0.246542 0.442211
O O9 0.548972 0.759026 0.870760
O O10 0.462034 0.786577 0.794929
O O11 0.520722 0.000000 0.771732
O O12 0.761310 0.500000 0.408777
O O13 0.750000 0.250000 0.500000
O O14 0.816874 0.278447 0.399842
O O15 0.432798 0.500000 0.038411
O O16 0.500000 0.674954 0.000000
O O17 0.415955 0.754070 0.941220
O O18 0.592930 0.000000 0.163275
O O19 0.865812 0.500000 0.483500
#
# Coordination Sequence:
#
# PCOD9172088 Si02
#       7
#     8   8   8   8   8   8   8
#     4  10  18  29  46  69  96 123 152 188 232 276
#     4  11  23  35  47  66  93 125 160 194 227 267
#     4  10  20  33  48  66  92 125 158 192 228 269
#     4   8  16  29  45  65  89 118 151 188 229 274
#     4   9  17  30  48  68  91 120 153 189 230 274
#     4  10  19  30  46  70  97 123 153 189 230 273
#     4  10  19  32  48  66  91 123 158 193 230 272
#
# _framework density 15.713905
#
# number of rings (size 3 to 8) (size 9 to 14) (size 15 to 20)
#    0.000    2.286    0.000    3.429    0.000    8.000 
#    0.000    0.000    0.000    0.000    0.000    1.000 
#    0.000    0.000    0.000    0.000    0.000    0.000 
#
# Total GULP energy -156069.705050 kJ/mol
# GULP energy per Si atom -5573.918037 kJ/mol
# Density = 1.567814 g / cm^3
# Si number density = 15.713905 Si / 1000 Ang^3
#
#
#
# Elastic Constant Matrix: (Units=GPa)
#
#
# Indices 1 2 3 4 5 6 
#
# 1 110.8885 54.9083 68.3002 0.0000 25.9708 0.0000
# 2 54.9083 62.7100 54.2088 0.0000 15.4797 0.0000
# 3 68.3002 54.2088 132.7620 0.0000 26.2412 0.0000
# 4 0.0000 0.0000 0.0000 29.9992 0.0000 2.1974
# 5 25.9708 15.4797 26.2412 0.0000 26.8296 0.0000
# 6 0.0000 0.0000 0.0000 2.1974 0.0000 17.3905
#
#
#
# Elastic Compliance Matrix: (Units=1/GPa)
#
#
# Indices 1 2 3 4 5 6 
#
# 1 0.018637 -0.011445 -0.003290 0.000000 -0.008219 0.000000
# 2 -0.011445 0.032328 -0.007209 0.000000 -0.000523 0.000000
# 3 -0.003290 -0.007209 0.013285 0.000000 -0.005650 0.000000
# 4 0.000000 0.000000 0.000000 0.033646 0.000000 -0.004251
# 5 -0.008219 -0.000523 -0.005650 0.000000 0.051056 0.000000
# 6 0.000000 0.000000 0.000000 -0.004251 0.000000 0.058040
#
#
# Mechanical properties :
#
#
# Convention : Reuss Voigt Hill
#
# Bulk Modulus (GPa) = 49.11130 73.46612 61.28871
# Shear Modulus (GPa) = 19.40491 23.44006 21.42249
#
# Velocity S-wave (km/s) = 3.51791 3.86641 3.69627
# Velocity P-wave (km/s) = 6.91536 8.17227 7.56995
#
# Compressibility (1/GPa) = 0.02036191
#
# Stress axis : x y z
#
# Youngs Moduli (GPa) = 53.65731 30.93253 75.27315
#
# Poissons Ratio (x) = 0.35404 0.24764
# Poissons Ratio (y) = 0.61413 0.54262
# Poissons Ratio (z) = 0.17653 0.22298
#
# Static dielectric constant tensor:
#      x y z
#    x 1.531980 0.000000 0.027290 
#    y 0.000000 1.523760 0.000000 
#    z 0.027290 0.000000 1.502980 
# 
# From -- ./inp_files/186842.got.cif
#   From: 2010.05.17/outbox.cif.g08.bks.cpg/sg12_94_cif.got.tgz:186842.got - 2010.06.03 13:09:07.
