data_PCOD9172669
_publ_section_title
;
Structure prediction by ZEFSAII (Michael W. Deem and Ramdas Pophale) SiO2 
 PCOD9172669
Probable space group: C 2/M
;
_chemical_formula_sum "Si O2"
_cell_formula_units_Z 64
_cell_length_a 14.651474
_cell_length_b 18.413112
_cell_length_c 15.461738
_cell_angle_alpha 90.000000
_cell_angle_beta 40.328874
_cell_angle_gamma 90.000000
_cell_volume 2699.528473
_symmetry_space_group_name_H-M "C 2/M"
_symmetry_group_IT_number 12
_symmetry_cell_setting 'monoclinic'
loop_
_space_group_symop_operation_xyz
x,y,z
-x,y,-z
-x,-y,-z
x,-y,z
1/2+x,1/2+y,z
1/2-x,1/2+y,-z
1/2-x,1/2-y,-z
1/2+x,1/2-y,z
loop_
_atom_site_type_symbol
_atom_site_label
_atom_site_fract_x
_atom_site_fract_y
_atom_site_fract_z
Si Si1 0.278451 0.263919 0.581267
Si Si2 0.687261 0.420582 0.198809
Si Si3 0.464330 0.231477 0.850018
Si Si4 0.171459 0.390472 0.270719
Si Si5 0.659648 0.077175 0.091951
Si Si6 0.358721 0.580540 0.481610
Si Si7 0.260909 0.265234 0.844076
Si Si8 0.848704 0.391788 0.528670
O O1 0.250000 0.250000 0.500000
O O2 0.334943 0.345278 0.552504
O O3 0.372816 0.194163 0.529023
O O4 0.127632 0.252934 0.734750
O O5 0.738894 0.500000 0.193704
O O6 0.520577 0.418385 0.334298
O O7 0.749811 0.344966 0.189759
O O8 0.730143 0.418757 0.066319
O O9 0.441122 0.146120 0.846528
O O10 0.386097 0.269833 0.825979
O O11 0.379081 0.249195 0.998306
O O12 0.227985 0.418341 0.137671
O O13 0.199462 0.304044 0.240721
O O14 0.216898 0.416727 0.332567
O O15 0.006639 0.414414 0.390587
O O16 0.583989 0.000000 0.138825
O O17 0.334468 0.500000 0.538787
O O18 0.254896 0.589310 0.474399
#
# Coordination Sequence:
#
# PCOD9172669 Si02
#       8
#     8   8   8   8   8   8   8   8
#     4  10  18  30  46  65  90 118 146 187 234 265
#     4   9  17  29  48  72  93 116 150 192 232 263
#     4   9  17  26  45  70  87 113 153 190 226 261
#     4  10  20  32  47  65  88 127 160 180 222 270
#     4   9  17  30  47  69  96 121 149 186 224 267
#     4  10  19  31  49  71  93 118 149 187 231 273
#     4   9  15  29  47  65  89 115 151 192 220 262
#     4  10  21  33  45  66  94 121 154 189 221 269
#
# _framework density 23.707844000000001
#
# number of rings (size 3 to 8) (size 9 to 14) (size 15 to 20)
#    0.000    2.500    0.000    6.000    0.000    2.500 
#    0.000    3.750    0.000    3.000    0.000    3.500 
#    0.000    5.000    0.000    0.000    0.000    0.000 
#
# Total GULP energy -178549.452908 kJ/mol
# GULP energy per Si atom -5579.670403 kJ/mol
# Density = 2.365388 g / cm^3
# Si number density = 23.707844 Si / 1000 Ang^3
#
#
#
# Elastic Constant Matrix: (Units=GPa)
#
#
# Indices 1 2 3 4 5 6 
#
# 1 32.7784 -8.3795 19.6172 -0.0001 16.9714 0.0000
# 2 -8.3795 176.7140 17.2868 0.0000 1.2442 0.0000
# 3 19.6172 17.2868 86.0680 0.0000 8.4106 -0.0001
# 4 -0.0001 0.0000 0.0000 16.2869 -0.0002 -7.6920
# 5 16.9714 1.2442 8.4106 -0.0002 34.2319 0.0000
# 6 0.0000 0.0000 -0.0001 -7.6920 0.0000 -2.6229
#
#
#
# Elastic Compliance Matrix: (Units=1/GPa)
#
#
# Indices 1 2 3 4 5 6 
#
# 1 0.048366 0.003384 -0.009578 0.000000 -0.021748 0.000000
# 2 0.003384 0.006009 -0.001837 0.000000 -0.001445 0.000000
# 3 -0.009578 -0.001837 0.014037 0.000000 0.001366 0.000000
# 4 0.000000 0.000000 0.000000 0.025743 0.000000 -0.075497
# 5 -0.021748 -0.001445 0.001366 0.000000 0.039712 0.000000
# 6 0.000000 0.000000 0.000000 -0.075497 0.000000 -0.159856
#
#
# Mechanical properties :
#
#
# Convention : Reuss Voigt Hill
#
# Bulk Modulus (GPa) = 19.10261 39.17880 29.14071
# Shear Modulus (GPa) = 664.56345 27.38158 345.97252
#
# Velocity S-wave (km/s) = 16.76074 3.40216 12.09332
# Velocity P-wave (km/s) = 19.56114 5.65636 14.39848
#
# Compressibility (1/GPa) = 0.05234886
#
# Stress axis : x y z
#
# Youngs Moduli (GPa) = 20.67585 166.41222 71.23901
#
# Poissons Ratio (x) = -0.56306 0.68234
# Poissons Ratio (y) = -0.06996 0.13086
# Poissons Ratio (z) = 0.19804 0.30570
#
# Static dielectric constant tensor:
#      x y z
#    x 1.922420 0.000000 0.059410 
#    y 0.000000 2.062510 0.000000 
#    z 0.059410 0.000000 1.864240 
# 
# From -- ./inp_files/322429.got.cif
#   From: 2010.05.17/outbox.cif.g08.bks.cpg/sg12_162_cif.got.tgz:322429.got - 2010.06.03 13:09:07.
