data_PCOD9172369
_publ_section_title
;
Structure prediction by ZEFSAII (Michael W. Deem and Ramdas Pophale) SiO2 
 PCOD9172369
Probable space group: C 2/M
;
_chemical_formula_sum "Si O2"
_cell_formula_units_Z 52
_cell_length_a 16.399587
_cell_length_b 14.586601
_cell_length_c 8.043154
_cell_angle_alpha 90.000000
_cell_angle_beta 91.083075
_cell_angle_gamma 90.000000
_cell_volume 1923.693158
_symmetry_space_group_name_H-M "C 2/M"
_symmetry_group_IT_number 12
_symmetry_cell_setting 'monoclinic'
loop_
_space_group_symop_operation_xyz
x,y,z
-x,y,-z
-x,-y,-z
x,-y,z
1/2+x,1/2+y,z
1/2-x,1/2+y,-z
1/2-x,1/2-y,-z
1/2+x,1/2-y,z
loop_
_atom_site_type_symbol
_atom_site_label
_atom_site_fract_x
_atom_site_fract_y
_atom_site_fract_z
Si Si1 0.870372 0.000000 0.527402
Si Si2 0.690124 0.860602 0.702397
Si Si3 0.666730 0.649047 0.715719
Si Si4 0.421548 0.863903 0.605630
Si Si5 0.471550 0.344341 0.712121
Si Si6 0.664935 0.353492 0.072141
Si Si7 0.904031 0.344843 0.971272
O O1 0.817815 0.920249 0.428786
O O2 0.933239 0.920701 0.595326
O O3 0.699344 0.750409 0.689807
O O4 0.650585 0.884995 0.525810
O O5 0.777144 0.891162 0.779740
O O6 0.627586 0.883711 0.853138
O O7 0.568114 0.659545 0.730729
O O8 0.693651 0.611918 0.896137
O O9 0.500000 0.893481 0.500000
O O10 0.438580 0.754502 0.644247
O O11 0.405184 0.896641 0.793889
O O12 0.427074 0.373394 0.880646
O O13 0.656396 0.242793 0.054036
O O14 0.000000 0.319110 0.000000
#
# Coordination Sequence:
#
# PCOD9172369 Si02
#       7
#     4   8   8   8   8   8   8
#     4  12  23  34  56  78 104 148 204 238 252 315
#     4  11  20  35  51  76 110 145 186 226 276 339
#     4  11  19  35  54  74 107 149 187 228 274 310
#     4  11  17  31  52  73 105 146 178 217 272 314
#     4  11  20  34  52  79 106 145 194 225 266 320
#     4  10  22  34  49  74 107 146 183 229 277 331
#     4  10  18  29  49  72 100 141 180 210 260 325
#
# _framework density 27.031338999999999
#
# number of rings (size 3 to 8) (size 9 to 14) (size 15 to 20)
#    0.000    1.231    4.615    6.462    0.000    3.077 
#    2.769    1.538    0.000    0.000    0.000    0.000 
#    0.000    0.000    0.000  104.538    0.000    0.000 
#
# Total GULP energy -144811.839834 kJ/mol
# GULP energy per Si atom -5569.686147 kJ/mol
# Density = 2.696981 g / cm^3
# Si number density = 27.031339 Si / 1000 Ang^3
#
#
#
# Elastic Constant Matrix: (Units=GPa)
#
#
# Indices 1 2 3 4 5 6 
#
# 1 149.0238 1.6172 31.2516 0.0000 25.1992 0.0000
# 2 1.6172 109.0743 8.6045 0.0000 4.2751 0.0000
# 3 31.2516 8.6045 202.6409 0.0000 26.3722 0.0000
# 4 0.0000 0.0000 0.0000 -12.8530 0.0000 0.4530
# 5 25.1992 4.2751 26.3722 0.0000 50.8855 0.0000
# 6 0.0000 0.0000 0.0000 0.4530 0.0000 -12.7367
#
#
#
# Elastic Compliance Matrix: (Units=1/GPa)
#
#
# Indices 1 2 3 4 5 6 
#
# 1 0.007419 0.000076 -0.000717 0.000000 -0.003309 0.000000
# 2 0.000076 0.009217 -0.000319 0.000000 -0.000647 0.000000
# 3 -0.000717 -0.000319 0.005372 0.000000 -0.002402 0.000000
# 4 0.000000 0.000000 0.000000 -0.077900 0.000000 -0.002771
# 5 -0.003309 -0.000647 -0.002402 0.000000 0.022590 0.000000
# 6 0.000000 0.000000 0.000000 -0.002771 0.000000 -0.078612
#
#
# Mechanical properties :
#
#
# Convention : Reuss Voigt Hill
#
# Bulk Modulus (GPa) = 49.77774 60.40952 55.09363
# Shear Modulus (GPa) = -48.40357 33.01019 -7.69669
#
# Velocity S-wave (km/s) = -4.23619 3.49833 -1.68923
# Velocity P-wave (km/s) = 2.33930 6.22208 4.07688
#
# Compressibility (1/GPa) = 0.02008930
#
# Stress axis : x y z
#
# Youngs Moduli (GPa) = 134.78210 108.48995 186.16610
#
# Poissons Ratio (x) = -0.00827 0.13345
# Poissons Ratio (y) = -0.01028 0.05938
# Poissons Ratio (z) = 0.09661 0.03460
#
# Static dielectric constant tensor:
#      x y z
#    x 2.138100 0.000000 -0.110560 
#    y 0.000000 2.332810 0.000000 
#    z -0.110560 0.000000 2.250680 
# 
# From -- ./inp_files/75330.got.cif
#   From: 2010.05.17/outbox.cif.g08.bks.cpg/sg12_38_cif.got.tgz:75330.got - 2010.06.03 13:09:07.
