data_PCOD9172963
_publ_section_title
;
Structure prediction by ZEFSAII (Michael W. Deem and Ramdas Pophale) SiO2 
 PCOD9172963
Probable space group: C 2/M
;
_chemical_formula_sum "Si O2"
_cell_formula_units_Z 56
_cell_length_a 32.314797
_cell_length_b 13.777575
_cell_length_c 12.424373
_cell_angle_alpha 90.000000
_cell_angle_beta 142.097030
_cell_angle_gamma 90.000000
_cell_volume 3398.190064
_symmetry_space_group_name_H-M "C 2/M"
_symmetry_group_IT_number 12
_symmetry_cell_setting 'monoclinic'
loop_
_space_group_symop_operation_xyz
x,y,z
-x,y,-z
-x,-y,-z
x,-y,z
1/2+x,1/2+y,z
1/2-x,1/2+y,-z
1/2-x,1/2-y,-z
1/2+x,1/2-y,z
loop_
_atom_site_type_symbol
_atom_site_label
_atom_site_fract_x
_atom_site_fract_y
_atom_site_fract_z
Si Si1 0.042067 0.111981 0.479297
Si Si2 0.577417 0.109940 0.199689
Si Si3 0.922599 0.388241 0.378092
Si Si4 0.306904 0.611247 0.119577
Si Si5 0.538066 0.795282 0.326418
Si Si6 0.609440 0.116362 0.027724
Si Si7 0.313725 0.791436 0.002040
O O1 0.119846 0.115174 0.674963
O O2 0.030159 0.187250 0.358127
O O3 0.000000 0.140090 0.500000
O O4 0.024507 0.000000 0.416745
O O5 0.577399 0.187339 0.295545
O O6 0.593427 0.000000 0.271075
O O7 0.500000 0.106406 0.000000
O O8 0.617555 0.131118 0.172517
O O9 0.902675 0.500000 0.327363
O O10 0.922272 0.352675 0.499405
O O11 0.874154 0.326210 0.204163
O O12 0.000000 0.379145 0.500000
O O13 0.290405 0.500000 0.062421
O O14 0.306350 0.677662 0.011730
O O15 0.253006 0.656458 0.091108
O O16 0.464244 0.843471 0.158453
O O17 0.664355 0.172554 0.069867
O O18 0.610912 0.000000 0.009776
#
# Coordination Sequence:
#
# PCOD9172963 Si02
#       7
#     8   8   8   8   8   8   8
#     4  10  20  34  50  69  95 128 167 205 242 286
#     4   8  16  28  44  69  99 130 157 189 236 287
#     4  11  19  26  43  75 106 126 148 194 246 289
#     4  10  21  35  48  69  99 130 163 195 238 295
#     4  11  17  28  47  70 100 127 157 196 241 284
#     4  10  18  30  49  73 101 130 159 193 236 292
#     4  11  20  32  50  72  99 130 161 193 239 292
#
# _framework density 16.479361000000001
#
# number of rings (size 3 to 8) (size 9 to 14) (size 15 to 20)
#    0.000    1.857    2.857    4.714    0.000    0.000 
#    0.000    0.000    0.000    5.571    0.000    0.000 
#    0.000    0.000    0.000    0.000    0.000    0.000 
#
# Total GULP energy -156135.169048 kJ/mol
# GULP energy per Si atom -5576.256037 kJ/mol
# Density = 1.644185 g / cm^3
# Si number density = 16.479361 Si / 1000 Ang^3
#
#
#
# Elastic Constant Matrix: (Units=GPa)
#
#
# Indices 1 2 3 4 5 6 
#
# 1 115.3391 43.8289 21.9553 0.0000 -20.8562 0.0000
# 2 43.8289 118.3605 11.5217 0.0000 -20.3964 0.0000
# 3 21.9553 11.5217 23.9493 0.0000 -4.9006 0.0000
# 4 0.0000 0.0000 0.0000 -10.3051 0.0000 -3.5328
# 5 -20.8562 -20.3964 -4.9006 0.0000 27.8702 0.0000
# 6 0.0000 0.0000 0.0000 -3.5328 0.0000 24.1906
#
#
#
# Elastic Compliance Matrix: (Units=1/GPa)
#
#
# Indices 1 2 3 4 5 6 
#
# 1 0.012451 -0.002755 -0.008916 0.000000 0.005734 0.000000
# 2 -0.002755 0.010539 -0.001440 0.000000 0.005398 0.000000
# 3 -0.008916 -0.001440 0.050871 0.000000 0.001219 0.000000
# 4 0.000000 0.000000 0.000000 -0.092413 0.000000 -0.013496
# 5 0.005734 0.005398 0.001219 0.000000 0.044336 0.000000
# 6 0.000000 0.000000 0.000000 -0.013496 0.000000 0.039367
#
#
# Mechanical properties :
#
#
# Convention : Reuss Voigt Hill
#
# Bulk Modulus (GPa) = 20.99112 45.80677 33.39894
# Shear Modulus (GPa) = 46.61872 20.37399 33.49636
#
# Velocity S-wave (km/s) = 5.32453 3.51997 4.51335
# Velocity P-wave (km/s) = 7.11099 6.66161 6.88997
#
# Compressibility (1/GPa) = 0.04763919
#
# Stress axis : x y z
#
# Youngs Moduli (GPa) = 80.31632 94.88315 19.65774
#
# Poissons Ratio (x) = 0.26136 0.17526
# Poissons Ratio (y) = 0.22124 0.02832
# Poissons Ratio (z) = 0.71607 0.13668
#
# Static dielectric constant tensor:
#      x y z
#    x 1.588660 0.000000 0.004940 
#    y 0.000000 1.585240 0.000000 
#    z 0.004940 0.000000 1.534650 
# 
# From -- ./inp_files/189227.got.cif
#   From: 2010.05.17/outbox.cif.g08.bks.cpg/sg12_95_cif.got.tgz:189227.got - 2010.06.03 13:09:07.
