data_PCOD9172171
_publ_section_title
;
Structure prediction by ZEFSAII (Michael W. Deem and Ramdas Pophale) SiO2 
 PCOD9172171
Probable space group: C 2/M
;
_chemical_formula_sum "Si O2"
_cell_formula_units_Z 64
_cell_length_a 25.578134
_cell_length_b 9.233257
_cell_length_c 17.949927
_cell_angle_alpha 90.000000
_cell_angle_beta 76.743843
_cell_angle_gamma 90.000000
_cell_volume 4126.269263
_symmetry_space_group_name_H-M "C 2/M"
_symmetry_group_IT_number 12
_symmetry_cell_setting 'monoclinic'
loop_
_space_group_symop_operation_xyz
x,y,z
-x,y,-z
-x,-y,-z
x,-y,z
1/2+x,1/2+y,z
1/2-x,1/2+y,-z
1/2-x,1/2-y,-z
1/2+x,1/2-y,z
loop_
_atom_site_type_symbol
_atom_site_label
_atom_site_fract_x
_atom_site_fract_y
_atom_site_fract_z
Si Si1 0.433144 0.172375 0.411877
Si Si2 0.619601 0.327158 0.430062
Si Si3 0.410600 0.328111 0.154566
Si Si4 0.458763 0.673438 0.677129
Si Si5 0.849258 0.327479 0.304767
Si Si6 0.241686 0.826146 0.423462
Si Si7 0.063479 0.333282 0.000592
Si Si8 0.535505 0.671960 0.154549
O O1 0.410649 0.242474 0.494585
O O2 0.489162 0.244639 0.370686
O O3 0.390187 0.199302 0.359912
O O4 0.439180 0.000000 0.418522
O O5 0.614365 0.500000 0.445753
O O6 0.590983 0.296498 0.361007
O O7 0.682621 0.291087 0.412046
O O8 0.403294 0.500000 0.151368
O O9 0.370094 0.258154 0.226547
O O10 0.471483 0.302076 0.164928
O O11 0.407697 0.254388 0.074568
O O12 0.469328 0.500000 0.672036
O O13 0.449385 0.713062 0.766307
O O14 0.850167 0.500000 0.289148
O O15 0.790073 0.285713 0.352402
O O16 0.250000 0.750000 0.500000
O O17 0.244959 0.000000 0.433041
O O18 0.080718 0.500000 0.996877
O O19 0.066102 0.258408 0.080167
O O20 0.000000 0.330607 0.000000
O O21 0.544132 0.500000 0.141349
#
# Coordination Sequence:
#
# PCOD9172171 Si02
#       8
#     8   8   8   8   8   8   8   8
#     4  11  21  32  48  70  98 129 162 201 245 288
#     4  10  21  35  52  69  92 128 169 205 242 288
#     4  10  18  29  47  70  95 125 160 193 232 283
#     4  10  20  34  49  70  98 130 165 200 237 285
#     4  10  20  32  47  69  97 126 159 200 245 286
#     4  10  20  35  52  70  92 124 164 207 249 288
#     4   9  17  28  44  67  97 128 155 186 230 283
#     4   9  17  29  45  66  95 126 157 191 229 279
#
# _framework density 15.510379
#
# number of rings (size 3 to 8) (size 9 to 14) (size 15 to 20)
#    0.000    2.125    2.500    1.500    0.000    5.500 
#    0.000    0.000    0.000    0.000    0.000    0.875 
#    0.000    0.000    0.000    0.000    0.000    0.000 
#
# Total GULP energy -178516.983637 kJ/mol
# GULP energy per Si atom -5578.655739 kJ/mol
# Density = 1.547508 g / cm^3
# Si number density = 15.510379 Si / 1000 Ang^3
#
#
#
# Elastic Constant Matrix: (Units=GPa)
#
#
# Indices 1 2 3 4 5 6 
#
# 1 82.0547 47.5082 79.1352 0.0000 7.5142 0.0000
# 2 47.5082 55.0643 79.3382 0.0000 -4.5853 0.0000
# 3 79.1352 79.3382 170.7166 0.0000 -12.9047 0.0000
# 4 0.0000 0.0000 0.0000 30.5536 0.0000 -4.8376
# 5 7.5142 -4.5853 -12.9047 0.0000 15.4360 0.0000
# 6 0.0000 0.0000 0.0000 -4.8376 0.0000 14.4047
#
#
#
# Elastic Compliance Matrix: (Units=1/GPa)
#
#
# Indices 1 2 3 4 5 6 
#
# 1 0.035884 -0.018709 -0.010333 0.000000 -0.031664 0.000000
# 2 -0.018709 0.065140 -0.020762 0.000000 0.011100 0.000000
# 3 -0.010333 -0.020762 0.021573 0.000000 0.016898 0.000000
# 4 0.000000 0.000000 0.000000 0.034567 0.000000 0.011609
# 5 -0.031664 0.011100 0.016898 0.000000 0.097622 0.000000
# 6 0.000000 0.000000 0.000000 0.011609 0.000000 0.073321
#
#
# Mechanical properties :
#
#
# Convention : Reuss Voigt Hill
#
# Bulk Modulus (GPa) = 43.49448 79.97765 61.73607
# Shear Modulus (GPa) = 11.48430 18.86912 15.17671
#
# Velocity S-wave (km/s) = 2.72403 3.49169 3.13147
# Velocity P-wave (km/s) = 6.16416 8.24207 7.27766
#
# Compressibility (1/GPa) = 0.02299142
#
# Stress axis : x y z
#
# Youngs Moduli (GPa) = 27.86787 15.35146 46.35339
#
# Poissons Ratio (x) = 0.28721 0.47895
# Poissons Ratio (y) = 0.52137 0.96237
# Poissons Ratio (z) = 0.28795 0.31872
#
# Static dielectric constant tensor:
#      x y z
#    x 1.497290 0.000000 0.006880 
#    y 0.000000 1.518320 0.000000 
#    z 0.006880 0.000000 1.499790 
# 
# From -- ./inp_files/287671.got.cif
#   From: 2010.05.17/outbox.cif.g08.bks.cpg/sg12_144_cif.got.tgz:287671.got - 2010.06.03 13:09:07.
