data_PCOD9172794
_publ_section_title
;
Structure prediction by ZEFSAII (Michael W. Deem and Ramdas Pophale) SiO2 
 PCOD9172794
Probable space group: C 2/M
;
_chemical_formula_sum "Si O2"
_cell_formula_units_Z 64
_cell_length_a 14.288680
_cell_length_b 32.144964
_cell_length_c 7.033711
_cell_angle_alpha 90.000000
_cell_angle_beta 96.666700
_cell_angle_gamma 90.000000
_cell_volume 3208.802798
_symmetry_space_group_name_H-M "C 2/M"
_symmetry_group_IT_number 12
_symmetry_cell_setting 'monoclinic'
loop_
_space_group_symop_operation_xyz
x,y,z
-x,y,-z
-x,-y,-z
x,-y,z
1/2+x,1/2+y,z
1/2-x,1/2+y,-z
1/2-x,1/2-y,-z
1/2+x,1/2-y,z
loop_
_atom_site_type_symbol
_atom_site_label
_atom_site_fract_x
_atom_site_fract_y
_atom_site_fract_z
Si Si1 0.277646 0.871562 0.282024
Si Si2 0.663723 0.130296 0.286118
Si Si3 0.582346 0.047194 0.254047
Si Si4 0.236421 0.790142 0.744362
Si Si5 0.026811 0.232389 0.784870
Si Si6 0.132586 0.453105 0.719346
Si Si7 0.526358 0.828958 0.782196
Si Si8 0.173785 0.206251 0.304921
O O1 0.274990 0.876755 0.510916
O O2 0.289689 0.918661 0.214810
O O3 0.376071 0.850420 0.244084
O O4 0.197827 0.837739 0.214167
O O5 0.639821 0.086209 0.185482
O O6 0.711010 0.167870 0.180140
O O7 0.562912 0.148304 0.331113
O O8 0.469969 0.054250 0.209502
O O9 0.607371 0.048541 0.486578
O O10 0.603066 0.000000 0.194423
O O11 0.128653 0.787375 0.780404
O O12 0.234202 0.792750 0.513390
O O13 0.292520 0.747455 0.801572
O O14 0.031980 0.280687 0.728395
O O15 0.935403 0.211583 0.668879
O O16 0.000000 0.230844 0.000000
O O17 0.162623 0.500000 0.768204
O O18 0.500000 0.831205 0.000000
#
# Coordination Sequence:
#
# PCOD9172794 Si02
#       8
#     8   8   8   8   8   8   8   8
#     4  10  18  30  48  68  91 124 158 187 223 269
#     4  10  18  30  48  68  91 124 158 187 223 269
#     4   8  13  22  41  69  95 118 147 184 223 267
#     4  10  20  32  49  70  91 119 155 194 230 267
#     4  11  23  35  47  64  93 128 156 191 231 270
#     4   8  13  22  41  69  95 118 147 184 223 267
#     4  11  21  29  42  66  95 125 155 188 225 266
#     4  10  20  32  49  70  91 119 155 194 230 267
#
# _framework density 19.945132999999998
#
# number of rings (size 3 to 8) (size 9 to 14) (size 15 to 20)
#    0.000    2.250    3.750    1.500    0.000    2.500 
#    0.000    0.000    0.000    1.500    0.000    0.875 
#    0.000    7.000    0.000    0.000    0.000    0.000 
#
# Total GULP energy -178685.246769 kJ/mol
# GULP energy per Si atom -5583.913962 kJ/mol
# Density = 1.989974 g / cm^3
# Si number density = 19.945133 Si / 1000 Ang^3
#
#
#
# Elastic Constant Matrix: (Units=GPa)
#
#
# Indices 1 2 3 4 5 6 
#
# 1 92.5673 64.1734 -8.7820 0.0000 -2.3023 0.0000
# 2 64.1734 201.7072 0.7616 0.0000 0.4350 0.0000
# 3 -8.7820 0.7616 54.2508 0.0000 -4.3582 0.0000
# 4 0.0000 0.0000 0.0000 0.0327 0.0000 0.5211
# 5 -2.3023 0.4350 -4.3582 0.0000 20.1757 0.0000
# 6 0.0000 0.0000 0.0000 0.5211 0.0000 35.0734
#
#
#
# Elastic Compliance Matrix: (Units=1/GPa)
#
#
# Indices 1 2 3 4 5 6 
#
# 1 0.014256 -0.004550 0.002555 0.000000 0.002277 0.000000
# 2 -0.004550 0.006411 -0.000895 0.000000 -0.000851 0.000000
# 3 0.002555 -0.000895 0.019217 0.000000 0.004462 0.000000
# 4 0.000000 0.000000 0.000000 40.097794 0.000000 -0.595770
# 5 0.002277 -0.000851 0.004462 0.000000 0.050807 0.000000
# 6 0.000000 0.000000 0.000000 -0.595770 0.000000 0.037363
#
#
# Mechanical properties :
#
#
# Convention : Reuss Voigt Hill
#
# Bulk Modulus (GPa) = 29.32268 51.20348 40.26308
# Shear Modulus (GPa) = 0.12425 30.54786 15.33605
#
# Velocity S-wave (km/s) = 0.24986 3.91780 2.77593
# Velocity P-wave (km/s) = 3.84926 6.79658 5.52315
#
# Compressibility (1/GPa) = 0.03410329
#
# Stress axis : x y z
#
# Youngs Moduli (GPa) = 70.14359 155.99235 52.03600
#
# Poissons Ratio (x) = 0.70981 -0.13293
# Poissons Ratio (y) = 0.31917 0.04657
# Poissons Ratio (z) = -0.17919 0.13960
#
# Static dielectric constant tensor:
#      x y z
#    x 1.657950 0.000000 -0.003700 
#    y 0.000000 1.754650 0.000000 
#    z -0.003700 0.000000 1.838070 
# 
# From -- ./inp_files/67888.got.cif
#   From: 2010.05.17/outbox.cif.g08.bks.cpg/sg12_34_cif.got.tgz:67888.got - 2010.06.03 13:09:07.
