data_PCOD9172084
_publ_section_title
;
Structure prediction by ZEFSAII (Michael W. Deem and Ramdas Pophale) SiO2 
 PCOD9172084
Probable space group: C 2/M
;
_chemical_formula_sum "Si O2"
_cell_formula_units_Z 64
_cell_length_a 26.035142
_cell_length_b 8.149806
_cell_length_c 24.723155
_cell_angle_alpha 90.000000
_cell_angle_beta 133.771840
_cell_angle_gamma 90.000000
_cell_volume 3787.988483
_symmetry_space_group_name_H-M "C 2/M"
_symmetry_group_IT_number 12
_symmetry_cell_setting 'monoclinic'
loop_
_space_group_symop_operation_xyz
x,y,z
-x,y,-z
-x,-y,-z
x,-y,z
1/2+x,1/2+y,z
1/2-x,1/2+y,-z
1/2-x,1/2-y,-z
1/2+x,1/2-y,z
loop_
_atom_site_type_symbol
_atom_site_label
_atom_site_fract_x
_atom_site_fract_y
_atom_site_fract_z
Si Si1 0.418836 0.805324 0.659271
Si Si2 0.060147 0.803179 0.814132
Si Si3 0.977190 0.196869 0.091873
Si Si4 0.779998 0.801497 0.080122
Si Si5 0.364689 0.802927 0.822126
Si Si6 0.839871 0.301235 0.924325
Si Si7 0.303512 0.200797 0.665006
Si Si8 0.691459 0.695923 0.501577
O O1 0.497213 0.739986 0.727425
O O2 0.365915 0.744491 0.668896
O O3 0.382440 0.761189 0.575736
O O4 0.420570 0.000000 0.665081
O O5 0.038936 0.742684 0.858795
O O6 0.138661 0.742692 0.855745
O O7 0.064258 0.000000 0.820630
O O8 0.052509 0.263187 0.126517
O O9 0.980910 0.000000 0.095523
O O10 0.912674 0.249274 0.006477
O O11 0.726384 0.743101 0.087675
O O12 0.780448 0.000000 0.082275
O O13 0.750000 0.750000 0.000000
O O14 0.339602 0.741447 0.862297
O O15 0.321787 0.741330 0.738386
O O16 0.357320 0.000000 0.817186
O O17 0.838277 0.500000 0.922416
O O18 0.227621 0.250772 0.584181
O O19 0.304780 0.000000 0.665801
O O20 0.687413 0.500000 0.499189
O O21 0.750000 0.750000 0.500000
#
# Coordination Sequence:
#
# PCOD9172084 Si02
#       8
#     8   8   8   8   8   8   8   8
#     4  10  18  29  46  69  94 123 156 192 234 284
#     4  10  20  32  47  68  94 124 157 197 241 281
#     4  11  21  32  47  69  96 127 159 195 239 282
#     4  10  20  35  51  69  91 121 161 203 245 284
#     4  10  19  33  49  69  96 127 161 195 229 279
#     4  10  21  34  51  69  90 125 165 200 237 279
#     4   8  15  27  44  65  92 123 151 182 225 274
#     4   9  16  27  43  66  95 127 156 187 229 280
#
# _framework density 16.895510999999999
#
# number of rings (size 3 to 8) (size 9 to 14) (size 15 to 20)
#    0.000    2.250    2.500    2.250    0.000    3.000 
#    0.000    0.625    0.000    0.000    0.000    0.875 
#    0.000    7.000    0.000    0.000    0.000    0.000 
#
# Total GULP energy -178416.633462 kJ/mol
# GULP energy per Si atom -5575.519796 kJ/mol
# Density = 1.685706 g / cm^3
# Si number density = 16.895511 Si / 1000 Ang^3
#
#
#
# Elastic Constant Matrix: (Units=GPa)
#
#
# Indices 1 2 3 4 5 6 
#
# 1 106.7776 3.1583 79.5155 0.0000 -6.8448 0.0000
# 2 3.1583 2.0015 -0.0117 0.0000 -2.8971 0.0002
# 3 79.5155 -0.0117 163.7209 0.0000 9.6151 0.0000
# 4 0.0000 0.0000 0.0000 22.0109 0.0000 0.3844
# 5 -6.8448 -2.8971 9.6151 0.0000 14.5465 0.0000
# 6 0.0000 0.0002 0.0000 0.3844 0.0000 10.0692
#
#
#
# Elastic Compliance Matrix: (Units=1/GPa)
#
#
# Indices 1 2 3 4 5 6 
#
# 1 0.017169 -0.009540 -0.009054 0.000000 0.012164 0.000000
# 2 -0.009540 0.718832 -0.003599 0.000000 0.141056 -0.000016
# 3 -0.009054 -0.003599 0.011233 0.000000 -0.012402 0.000000
# 4 0.000000 0.000000 0.000000 0.045462 0.000000 -0.001736
# 5 0.012164 0.141056 -0.012402 0.000000 0.110760 -0.000003
# 6 0.000000 -0.000016 0.000000 -0.001736 -0.000003 0.099379
#
#
# Mechanical properties :
#
#
# Convention : Reuss Voigt Hill
#
# Bulk Modulus (GPa) = 1.42278 48.64713 25.03496
# Shear Modulus (GPa) = 3.90166 21.98116 12.94141
#
# Velocity S-wave (km/s) = 1.52128 3.61086 2.77061
# Velocity P-wave (km/s) = 1.98234 6.79999 5.00847
#
# Compressibility (1/GPa) = 0.70284951
#
# Stress axis : x y z
#
# Youngs Moduli (GPa) = 58.24330 1.39114 89.02112
#
# Poissons Ratio (x) = 0.01327 0.80598
# Poissons Ratio (y) = 0.55561 0.32043
# Poissons Ratio (z) = 0.52732 0.00501
#
# Static dielectric constant tensor:
#      x y z
#    x 1.558840 0.000000 -0.008100 
#    y 0.000000 1.595090 0.000000 
#    z -0.008100 0.000000 1.589760 
# 
# From -- ./inp_files/348572.got.cif
#   From: 2010.05.17/outbox.cif.g08.bks.cpg/sg12_175_cif.got.tgz:348572.got - 2010.06.03 13:09:07.
