data_PCOD9172615
_publ_section_title
;
Structure prediction by ZEFSAII (Michael W. Deem and Ramdas Pophale) SiO2 
 PCOD9172615
Probable space group: C 2/M
;
_chemical_formula_sum "Si O2"
_cell_formula_units_Z 36
_cell_length_a 10.024879
_cell_length_b 34.468942
_cell_length_c 5.318177
_cell_angle_alpha 90.000000
_cell_angle_beta 105.296229
_cell_angle_gamma 90.000000
_cell_volume 1772.579753
_symmetry_space_group_name_H-M "C 2/M"
_symmetry_group_IT_number 12
_symmetry_cell_setting 'monoclinic'
loop_
_space_group_symop_operation_xyz
x,y,z
-x,y,-z
-x,-y,-z
x,-y,z
1/2+x,1/2+y,z
1/2-x,1/2+y,-z
1/2-x,1/2-y,-z
1/2+x,1/2-y,z
loop_
_atom_site_type_symbol
_atom_site_label
_atom_site_fract_x
_atom_site_fract_y
_atom_site_fract_z
Si Si1 0.404848 0.000000 0.204039
Si Si2 0.858553 0.381529 0.685918
Si Si3 0.669716 0.914185 0.830990
Si Si4 0.639716 0.289836 0.203953
Si Si5 0.700700 0.200469 0.221993
O O1 0.500000 0.000000 0.500000
O O2 0.318566 0.960323 0.167515
O O3 0.500000 0.000000 0.000000
O O4 0.781087 0.392366 0.392569
O O5 0.889310 0.336383 0.741848
O O6 0.004031 0.404510 0.752854
O O7 0.775196 0.396141 0.885677
O O8 0.635304 0.242807 0.223928
O O9 0.676823 0.302388 0.506055
O O10 0.500000 0.303337 0.000000
O O11 0.753972 0.300583 0.047842
#
# Coordination Sequence:
#
# PCOD9172615 Si02
#       5
#     4   8   8   8   8
#     4  12  16  30  42  64 104 136 176 182 218 322
#     4  10  18  30  43  68  94 123 170 197 231 277
#     4  10  19  28  45  70  96 143 158 189 247 272
#     4  10  21  37  52  70  94 130 162 206 269 292
#     4  10  21  35  51  74  95 123 170 213 241 303
#
# _framework density 20.309381999999999
#
# number of rings (size 3 to 8) (size 9 to 14) (size 15 to 20)
#    0.000    1.778    4.444    2.000    3.111    0.000 
#    8.000    0.000    0.000    0.000    0.000    0.000 
#    0.000    0.000    0.000  116.000    0.000    0.000 
#
# Total GULP energy -100293.687168 kJ/mol
# GULP energy per Si atom -5571.871509 kJ/mol
# Density = 2.026316 g / cm^3
# Si number density = 20.309382 Si / 1000 Ang^3
#
#
#
# Elastic Constant Matrix: (Units=GPa)
#
#
# Indices 1 2 3 4 5 6 
#
# 1 7.4029 2.9406 5.9508 0.0000 5.0063 0.0000
# 2 2.9406 114.6015 13.6426 0.0000 -20.0962 0.0000
# 3 5.9508 13.6426 175.2633 0.0000 -29.0370 0.0000
# 4 0.0000 0.0000 0.0000 27.7295 0.0000 -15.9541
# 5 5.0063 -20.0962 -29.0370 0.0000 28.3102 0.0000
# 6 0.0000 0.0000 0.0000 -15.9541 0.0000 8.6808
#
#
#
# Elastic Compliance Matrix: (Units=1/GPa)
#
#
# Indices 1 2 3 4 5 6 
#
# 1 0.193075 -0.013564 -0.015362 0.000000 -0.059528 0.000000
# 2 -0.013564 0.010953 0.001558 0.000000 0.011772 0.000000
# 3 -0.015362 0.001558 0.008119 0.000000 0.012150 0.000000
# 4 0.000000 0.000000 0.000000 -0.628082 0.000000 -1.154332
# 5 -0.059528 0.011772 0.012150 0.000000 0.066668 0.000000
# 6 0.000000 0.000000 0.000000 -1.154332 0.000000 -2.006314
#
#
# Mechanical properties :
#
#
# Convention : Reuss Voigt Hill
#
# Bulk Modulus (GPa) = 6.35278 38.03728 22.19503
# Shear Modulus (GPa) = -2.22383 31.25968 14.51792
#
# Velocity S-wave (km/s) = -1.04755 3.92749 2.67655
# Velocity P-wave (km/s) = 1.29293 6.27188 4.52814
#
# Compressibility (1/GPa) = 0.15741138
#
# Stress axis : x y z
#
# Youngs Moduli (GPa) = 5.17932 91.30183 123.16787
#
# Poissons Ratio (x) = 1.23842 1.89212
# Poissons Ratio (y) = 0.07025 -0.19193
# Poissons Ratio (z) = 0.07957 -0.14227
#
# Static dielectric constant tensor:
#      x y z
#    x 1.749590 0.000000 -0.049200 
#    y 0.000000 1.739000 0.000000 
#    z -0.049200 0.000000 1.879820 
# 
# From -- ./inp_files/12568.got.cif
#   From: 2010.05.17/outbox.cif.g08.bks.cpg/sg12_7_cif.got.tgz:12568.got - 2010.06.03 13:09:07.
