data_PCOD9172750
_publ_section_title
;
Structure prediction by ZEFSAII (Michael W. Deem and Ramdas Pophale) SiO2 
 PCOD9172750
Probable space group: C 2/M
;
_chemical_formula_sum "Si O2"
_cell_formula_units_Z 64
_cell_length_a 34.860395
_cell_length_b 7.788033
_cell_length_c 31.606944
_cell_angle_alpha 90.000000
_cell_angle_beta 154.510815
_cell_angle_gamma 90.000000
_cell_volume 3692.793609
_symmetry_space_group_name_H-M "C 2/M"
_symmetry_group_IT_number 12
_symmetry_cell_setting 'monoclinic'
loop_
_space_group_symop_operation_xyz
x,y,z
-x,y,-z
-x,-y,-z
x,-y,z
1/2+x,1/2+y,z
1/2-x,1/2+y,-z
1/2-x,1/2-y,-z
1/2+x,1/2-y,z
loop_
_atom_site_type_symbol
_atom_site_label
_atom_site_fract_x
_atom_site_fract_y
_atom_site_fract_z
Si Si1 0.432929 0.789959 0.816521
Si Si2 0.557858 0.210075 0.016002
Si Si3 0.955793 0.298143 0.411813
Si Si4 0.748075 0.290536 0.675128
Si Si5 0.923023 0.202184 0.544677
Si Si6 0.157675 0.701567 0.453737
Si Si7 0.757545 0.792238 0.233651
Si Si8 0.142188 0.702033 0.344174
O O1 0.341935 0.739719 0.749454
O O2 0.419600 0.728004 0.755075
O O3 0.435784 0.000000 0.818181
O O4 0.511677 0.734873 0.926200
O O5 0.660973 0.264518 0.120691
O O6 0.556751 0.000000 0.015961
O O7 0.500000 0.262905 0.000000
O O8 0.974060 0.500000 0.430192
O O9 0.850006 0.267702 0.305731
O O10 0.000000 0.227235 0.500000
O O11 0.999635 0.228457 0.412492
O O12 0.745699 0.500000 0.672529
O O13 0.665282 0.225661 0.565949
O O14 0.738870 0.235744 0.714067
O O15 0.919244 0.275952 0.588120
O O16 0.912120 0.000000 0.539646
O O17 0.176280 0.500000 0.467504
O O18 0.133943 0.773184 0.383562
O O19 0.252545 0.781409 0.562446
O O20 0.757986 0.000000 0.232769
O O21 0.121748 0.500000 0.326330
#
# Coordination Sequence:
#
# PCOD9172750 Si02
#       8
#     8   8   8   8   8   8   8   8
#     4   9  14  24  42  68  96 125 159 192 228 268
#     4   9  15  23  42  72  99 120 153 200 233 260
#     4  11  23  35  47  67  95 126 158 194 234 276
#     4   9  15  23  42  67  93 121 153 188 222 265
#     4  11  20  32  50  69  90 124 163 196 233 281
#     4  10  19  29  43  67  97 125 157 198 238 278
#     4  10  18  30  47  70  95 124 160 196 232 268
#     4   9  17  29  45  65  94 131 163 191 230 281
#
# _framework density 17.331053000000001
#
# number of rings (size 3 to 8) (size 9 to 14) (size 15 to 20)
#    0.000    2.250    3.750    1.125    0.000    1.000 
#    0.000    0.000    0.000    1.125    0.000    0.875 
#    0.000    0.000    0.000    0.000    0.000    0.000 
#
# Total GULP energy -178331.030207 kJ/mol
# GULP energy per Si atom -5572.844694 kJ/mol
# Density = 1.729161 g / cm^3
# Si number density = 17.331053 Si / 1000 Ang^3
#
#
#
# Elastic Constant Matrix: (Units=GPa)
#
#
# Indices 1 2 3 4 5 6 
#
# 1 123.8364 -1.7143 57.5184 0.0000 -10.2892 0.0000
# 2 -1.7143 22.2797 -3.9874 0.0002 -3.0430 0.0004
# 3 57.5184 -3.9874 89.5572 0.0000 -5.1727 0.0000
# 4 0.0000 0.0002 0.0000 5.5809 0.0000 -1.3120
# 5 -10.2892 -3.0430 -5.1727 0.0000 27.6067 0.0000
# 6 0.0000 0.0004 0.0000 -1.3120 0.0000 7.0962
#
#
#
# Elastic Compliance Matrix: (Units=1/GPa)
#
#
# Indices 1 2 3 4 5 6 
#
# 1 0.011748 -0.000006 -0.007373 0.000000 0.002997 0.000000
# 2 -0.000006 0.046062 0.002374 -0.000003 0.005520 -0.000003
# 3 -0.007373 0.002374 0.016037 0.000000 0.000519 0.000000
# 4 0.000000 -0.000003 0.000000 0.187325 0.000000 0.034634
# 5 0.002997 0.005520 0.000519 0.000000 0.038046 0.000000
# 6 0.000000 -0.000003 0.000000 0.034634 0.000000 0.147324
#
#
# Mechanical properties :
#
#
# Convention : Reuss Voigt Hill
#
# Bulk Modulus (GPa) = 15.66491 37.70075 26.68283
# Shear Modulus (GPa) = 10.46393 20.31385 15.38889
#
# Velocity S-wave (km/s) = 2.45983 3.42732 2.98306
# Velocity P-wave (km/s) = 4.13835 6.12066 5.22439
#
# Compressibility (1/GPa) = 0.06383693
#
# Stress axis : x y z
#
# Youngs Moduli (GPa) = 85.11751 21.70979 62.35647
#
# Poissons Ratio (x) = 0.00014 0.45973
# Poissons Ratio (y) = 0.00053 -0.14801
# Poissons Ratio (z) = 0.62754 -0.05153
#
# Static dielectric constant tensor:
#      x y z
#    x 1.614560 0.000000 -0.029330 
#    y 0.000000 1.640210 0.000000 
#    z -0.029330 0.000000 1.593540 
# 
# From -- ./inp_files/384634.got.cif
#   From: 2010.05.17/outbox.cif.g08.bks.cpg/sg12_193_cif.got.tgz:384634.got - 2010.06.03 13:09:07.
