data_PCOD9172569
_publ_section_title
;
Structure prediction by ZEFSAII (Michael W. Deem and Ramdas Pophale) SiO2 
 PCOD9172569
Probable space group: C 2/M
;
_chemical_formula_sum "Si O2"
_cell_formula_units_Z 64
_cell_length_a 19.036979
_cell_length_b 20.426303
_cell_length_c 9.149931
_cell_angle_alpha 90.000000
_cell_angle_beta 83.206309
_cell_angle_gamma 90.000000
_cell_volume 3533.015009
_symmetry_space_group_name_H-M "C 2/M"
_symmetry_group_IT_number 12
_symmetry_cell_setting 'monoclinic'
loop_
_space_group_symop_operation_xyz
x,y,z
-x,y,-z
-x,-y,-z
x,-y,z
1/2+x,1/2+y,z
1/2-x,1/2+y,-z
1/2-x,1/2-y,-z
1/2+x,1/2-y,z
loop_
_atom_site_type_symbol
_atom_site_label
_atom_site_fract_x
_atom_site_fract_y
_atom_site_fract_z
Si Si1 0.193148 0.196603 0.471405
Si Si2 0.927840 0.070784 0.175555
Si Si3 0.943273 0.212756 0.292448
Si Si4 0.756463 0.353096 0.922497
Si Si5 0.858488 0.741609 0.054858
Si Si6 0.770681 0.925351 0.356420
Si Si7 0.635744 0.572793 0.125017
Si Si8 0.905545 0.801190 0.746718
O O1 0.250000 0.250000 0.500000
O O2 0.118995 0.203584 0.576215
O O3 0.224005 0.125458 0.509648
O O4 0.167746 0.214711 0.315295
O O5 0.955970 0.141388 0.214671
O O6 0.849985 0.070165 0.269433
O O7 0.961699 0.000000 0.206657
O O8 0.914546 0.071319 0.005334
O O9 0.910806 0.261549 0.179248
O O10 0.021579 0.228006 0.330376
O O11 0.821551 0.322303 0.995966
O O12 0.708617 0.396956 0.043564
O O13 0.704352 0.292899 0.890193
O O14 0.771955 0.392867 0.769645
O O15 0.900059 0.776482 0.913233
O O16 0.748400 0.000000 0.395745
O O17 0.647119 0.500000 0.176341
O O18 0.600881 0.620080 0.251544
#
# Coordination Sequence:
#
# PCOD9172569 Si02
#       8
#     8   8   8   8   8   8   8   8
#     4  11  23  37  53  72 103 142 183 225 268 314
#     4   8  14  27  46  67  95 137 176 202 239 299
#     4  11  20  35  49  73 103 143 176 218 268 321
#     4   9  15  28  51  75  99 131 176 221 257 304
#     4  10  18  29  52  75 101 132 177 218 270 310
#     4   9  16  31  51  72 102 139 176 217 265 320
#     4   9  17  29  47  73 104 135 173 212 250 302
#     4  11  22  32  49  74 108 137 172 220 266 316
#
# _framework density 18.114840000000001
#
# number of rings (size 3 to 8) (size 9 to 14) (size 15 to 20)
#    0.000    2.250    5.000    2.625    3.500    1.000 
#    0.000    1.250    0.000    3.750    0.000    0.000 
#    0.000   28.000    0.000    0.000    0.000    0.000 
#
# Total GULP energy -178225.103099 kJ/mol
# GULP energy per Si atom -5569.534472 kJ/mol
# Density = 1.807361 g / cm^3
# Si number density = 18.114840 Si / 1000 Ang^3
#
#
#
# Elastic Constant Matrix: (Units=GPa)
#
#
# Indices 1 2 3 4 5 6 
#
# 1 59.9885 33.6902 0.5079 0.0000 9.0984 0.0000
# 2 33.6902 62.6128 -2.3969 0.0000 5.5219 0.0000
# 3 0.5079 -2.3969 14.7761 0.0000 2.2035 0.0000
# 4 0.0000 0.0000 0.0000 19.6091 0.0000 -0.5495
# 5 9.0984 5.5219 2.2035 0.0000 24.4830 0.0000
# 6 0.0000 0.0000 0.0000 -0.5495 0.0000 13.6282
#
#
#
# Elastic Compliance Matrix: (Units=1/GPa)
#
#
# Indices 1 2 3 4 5 6 
#
# 1 0.024876 -0.012921 -0.002034 0.000000 -0.006147 0.000000
# 2 -0.012921 0.023160 0.004322 0.000000 -0.000811 0.000000
# 3 -0.002034 0.004322 0.069412 0.000000 -0.006466 0.000000
# 4 0.000000 0.000000 0.000000 0.051054 0.000000 0.002059
# 5 -0.006147 -0.000811 -0.006466 0.000000 0.043894 0.000000
# 6 0.000000 0.000000 0.000000 0.002059 0.000000 0.073460
#
#
# Mechanical properties :
#
#
# Convention : Reuss Voigt Hill
#
# Bulk Modulus (GPa) = 10.39690 22.33109 16.36400
# Shear Modulus (GPa) = 14.74127 18.58248 16.66188
#
# Velocity S-wave (km/s) = 2.85576 3.20631 3.03610
# Velocity P-wave (km/s) = 4.07746 5.10505 4.61991
#
# Compressibility (1/GPa) = 0.09618248
#
# Stress axis : x y z
#
# Youngs Moduli (GPa) = 40.19966 43.17708 14.40669
#
# Poissons Ratio (x) = 0.55788 0.02931
# Poissons Ratio (y) = 0.51941 -0.06227
# Poissons Ratio (z) = 0.08178 -0.18661
#
# Static dielectric constant tensor:
#      x y z
#    x 1.665080 0.000000 0.021090 
#    y 0.000000 1.650430 0.000000 
#    z 0.021090 0.000000 1.696260 
# 
# From -- ./inp_files/89159.got.cif
#   From: 2010.05.17/outbox.cif.g08.bks.cpg/sg12_45_cif.got.tgz:89159.got - 2010.06.03 13:09:07.
