data_PCOD9172261
_publ_section_title
;
Structure prediction by ZEFSAII (Michael W. Deem and Ramdas Pophale) SiO2 
 PCOD9172261
Probable space group: C 2/M
;
_chemical_formula_sum "Si O2"
_cell_formula_units_Z 40
_cell_length_a 33.698871
_cell_length_b 9.570132
_cell_length_c 5.546548
_cell_angle_alpha 90.000000
_cell_angle_beta 108.669934
_cell_angle_gamma 90.000000
_cell_volume 1694.648098
_symmetry_space_group_name_H-M "C 2/M"
_symmetry_group_IT_number 12
_symmetry_cell_setting 'monoclinic'
loop_
_space_group_symop_operation_xyz
x,y,z
-x,y,-z
-x,-y,-z
x,-y,z
1/2+x,1/2+y,z
1/2-x,1/2+y,-z
1/2-x,1/2-y,-z
1/2+x,1/2-y,z
loop_
_atom_site_type_symbol
_atom_site_label
_atom_site_fract_x
_atom_site_fract_y
_atom_site_fract_z
Si Si1 0.606661 0.000000 0.111473
Si Si2 0.889326 0.500000 0.379939
Si Si3 0.793095 0.171571 0.029335
Si Si4 0.427673 0.300828 0.918851
Si Si5 0.831695 0.841176 0.603110
Si Si6 0.045828 0.756456 0.528166
O O1 0.633276 0.000000 0.407881
O O2 0.576517 0.866758 0.058251
O O3 0.633152 0.000000 0.919431
O O4 0.919572 0.635159 0.434718
O O5 0.823053 0.211602 0.315162
O O6 0.789733 0.000000 0.015975
O O7 0.750000 0.250000 0.000000
O O8 0.809858 0.220163 0.799523
O O9 0.380698 0.343829 0.759588
O O10 0.454943 0.330287 0.734905
O O11 0.441230 0.345895 0.211789
O O12 0.816086 0.000000 0.562810
O O13 0.000000 0.698985 0.500000
#
# Coordination Sequence:
#
# PCOD9172261 Si02
#       6
#     4   4   8   8   8   8
#     4   8  16  28  43  68 102 128 164 228 264 322
#     4   8  15  26  42  64  92 134 174 212 276 330
#     4  10  21  40  62  90 117 145 186 224 272 334
#     4  10  19  33  49  74 106 137 183 223 276 323
#     4  10  21  38  61  81 110 150 187 223 265 332
#     4  10  18  29  48  71 102 140 181 231 277 324
#
# _framework density 23.603719999999999
#
# number of rings (size 3 to 8) (size 9 to 14) (size 15 to 20)
#    0.000    2.400    0.000    2.700    0.000    0.000 
#    3.600    6.000    0.000    3.600    0.000    0.000 
#    0.000    0.000    0.000    0.000    0.000    0.000 
#
# Total GULP energy -111479.598368 kJ/mol
# GULP energy per Si atom -5573.979918 kJ/mol
# Density = 2.355000 g / cm^3
# Si number density = 23.603720 Si / 1000 Ang^3
#
#
#
# Elastic Constant Matrix: (Units=GPa)
#
#
# Indices 1 2 3 4 5 6 
#
# 1 53.6782 -10.0047 16.4801 0.0000 -24.6014 0.0000
# 2 -10.0047 83.4512 5.1300 0.0000 -0.9872 0.0000
# 3 16.4801 5.1300 202.1832 0.0000 -49.1366 0.0000
# 4 0.0000 0.0000 0.0000 -2.7338 0.0000 16.6728
# 5 -24.6014 -0.9872 -49.1366 0.0000 54.7778 0.0000
# 6 0.0000 0.0000 0.0000 16.6728 0.0000 -14.0138
#
#
#
# Elastic Compliance Matrix: (Units=1/GPa)
#
#
# Indices 1 2 3 4 5 6 
#
# 1 0.024296 0.003003 0.000778 0.000000 0.011664 0.000000
# 2 0.003003 0.012373 -0.000226 0.000000 0.001369 0.000000
# 3 0.000778 -0.000226 0.006358 0.000000 0.006049 0.000000
# 4 0.000000 0.000000 0.000000 0.058470 0.000000 0.069565
# 5 0.011664 0.001369 0.006049 0.000000 0.028945 0.000000
# 6 0.000000 0.000000 0.000000 0.069565 0.000000 0.011406
#
#
# Mechanical properties :
#
#
# Convention : Reuss Voigt Hill
#
# Bulk Modulus (GPa) = 19.94520 40.28037 30.11279
# Shear Modulus (GPa) = 33.01391 29.45319 31.23355
#
# Velocity S-wave (km/s) = 3.74394 3.53628 3.64159
# Velocity P-wave (km/s) = 5.21132 5.81171 5.51969
#
# Compressibility (1/GPa) = 0.05013737
#
# Stress axis : x y z
#
# Youngs Moduli (GPa) = 41.15910 80.82016 157.27209
#
# Poissons Ratio (x) = -0.24270 -0.12237
# Poissons Ratio (y) = -0.12360 0.03555
# Poissons Ratio (z) = -0.03202 0.01827
#
# Static dielectric constant tensor:
#      x y z
#    x 1.830740 0.000000 -0.063790 
#    y 0.000000 1.939770 0.000000 
#    z -0.063790 0.000000 2.015920 
# 
# From -- ./inp_files/27443.got.cif
#   From: 2010.05.17/outbox.cif.g08.bks.cpg/sg12_14_cif.got.tgz:27443.got - 2010.06.03 13:09:07.
