data_PCOD9172952
_publ_section_title
;
Structure prediction by ZEFSAII (Michael W. Deem and Ramdas Pophale) SiO2 
 PCOD9172952
Probable space group: C 2/M
;
_chemical_formula_sum "Si O2"
_cell_formula_units_Z 56
_cell_length_a 27.453564
_cell_length_b 9.993179
_cell_length_c 12.734169
_cell_angle_alpha 90.000000
_cell_angle_beta 66.267640
_cell_angle_gamma 90.000000
_cell_volume 3198.163967
_symmetry_space_group_name_H-M "C 2/M"
_symmetry_group_IT_number 12
_symmetry_cell_setting 'monoclinic'
loop_
_space_group_symop_operation_xyz
x,y,z
-x,y,-z
-x,-y,-z
x,-y,z
1/2+x,1/2+y,z
1/2-x,1/2+y,-z
1/2-x,1/2-y,-z
1/2+x,1/2-y,z
loop_
_atom_site_type_symbol
_atom_site_label
_atom_site_fract_x
_atom_site_fract_y
_atom_site_fract_z
Si Si1 0.547777 0.346225 0.286591
Si Si2 0.445844 0.149964 0.153303
Si Si3 0.683648 0.148758 0.981741
Si Si4 0.265635 0.846155 0.830407
Si Si5 0.875197 0.657206 0.651193
Si Si6 0.435035 0.233389 0.945389
Si Si7 0.446941 0.155701 0.386100
O O1 0.545425 0.500000 0.324000
O O2 0.594690 0.260525 0.299125
O O3 0.556585 0.342753 0.152564
O O4 0.494585 0.261393 0.359005
O O5 0.510020 0.150512 0.111129
O O6 0.424542 0.176763 0.288046
O O7 0.429248 0.000000 0.134323
O O8 0.432395 0.255211 0.073505
O O9 0.714432 0.253294 0.882174
O O10 0.698651 0.000000 0.935521
O O11 0.704467 0.166980 0.082659
O O12 0.620465 0.164616 0.034011
O O13 0.312259 0.814192 0.707646
O O14 0.249492 0.000000 0.831956
O O15 0.881319 0.500000 0.680132
O O16 0.903386 0.669541 0.514244
O O17 0.466702 0.000000 0.373412
#
# Coordination Sequence:
#
# PCOD9172952 Si02
#       7
#     8   8   8   8   8   8   8
#     4  11  22  32  47  75 106 135 166 203 253 308
#     4   9  17  30  52  79 101 128 169 211 246 291
#     4  10  18  30  49  72  98 129 163 205 251 300
#     4   9  19  32  47  71  99 129 165 204 250 300
#     4  10  19  34  53  72  98 134 170 209 250 295
#     4  10  18  31  49  73 102 132 162 205 250 294
#     4   9  19  34  52  73  99 132 172 209 246 293
#
# _framework density 17.510045999999999
#
# number of rings (size 3 to 8) (size 9 to 14) (size 15 to 20)
#    0.000    2.286    1.429    2.571    0.000    5.714 
#    0.000    5.714    0.000    0.857    0.000    0.000 
#    0.000    0.000    0.000    0.000    0.000    0.000 
#
# Total GULP energy -155872.305065 kJ/mol
# GULP energy per Si atom -5566.868038 kJ/mol
# Density = 1.747019 g / cm^3
# Si number density = 17.510046 Si / 1000 Ang^3
#
#
#
# Elastic Constant Matrix: (Units=GPa)
#
#
# Indices 1 2 3 4 5 6 
#
# 1 32.3402 13.1540 21.7079 0.0000 -1.4113 0.0000
# 2 13.1540 65.6662 51.3738 0.0000 -5.4306 0.0000
# 3 21.7079 51.3738 97.6075 0.0000 -5.0134 0.0000
# 4 0.0000 0.0000 0.0000 12.8255 0.0000 1.4767
# 5 -1.4113 -5.4306 -5.0134 0.0000 20.1482 0.0000
# 6 0.0000 0.0000 0.0000 1.4767 0.0000 4.5831
#
#
#
# Elastic Compliance Matrix: (Units=1/GPa)
#
#
# Indices 1 2 3 4 5 6 
#
# 1 0.036452 -0.001608 -0.007244 0.000000 0.000317 0.000000
# 2 -0.001608 0.026225 -0.013258 0.000000 0.003657 0.000000
# 3 -0.007244 -0.013258 0.018866 0.000000 0.000613 0.000000
# 4 0.000000 0.000000 0.000000 0.080973 0.000000 -0.026091
# 5 0.000317 0.003657 0.000613 0.000000 0.050793 0.000000
# 6 0.000000 0.000000 0.000000 -0.026091 0.000000 0.226601
#
#
# Mechanical properties :
#
#
# Convention : Reuss Voigt Hill
#
# Bulk Modulus (GPa) = 26.79341 40.89838 33.84590
# Shear Modulus (GPa) = 10.06906 14.80324 12.43615
#
# Velocity S-wave (km/s) = 2.40061 2.91075 2.66790
# Velocity P-wave (km/s) = 4.79780 5.89105 5.37231
#
# Compressibility (1/GPa) = 0.03732260
#
# Stress axis : x y z
#
# Youngs Moduli (GPa) = 27.43355 38.13123 53.00646
#
# Poissons Ratio (x) = 0.06132 0.38398
# Poissons Ratio (y) = 0.04412 0.70274
# Poissons Ratio (z) = 0.19873 0.50553
#
# Static dielectric constant tensor:
#      x y z
#    x 1.593570 0.000000 0.024050 
#    y 0.000000 1.593090 0.000000 
#    z 0.024050 0.000000 1.645600 
# 
# From -- ./inp_files/243652.got.cif
#   From: 2010.05.17/outbox.cif.g08.bks.cpg/sg12_122_cif.got.tgz:243652.got - 2010.06.03 13:09:07.
