data_PCOD9172513
_publ_section_title
;
Structure prediction by ZEFSAII (Michael W. Deem and Ramdas Pophale) SiO2 
 PCOD9172513
Probable space group: C 2/M
;
_chemical_formula_sum "Si O2"
_cell_formula_units_Z 64
_cell_length_a 23.312809
_cell_length_b 8.865147
_cell_length_c 17.309494
_cell_angle_alpha 90.000000
_cell_angle_beta 95.795742
_cell_angle_gamma 90.000000
_cell_volume 3559.091935
_symmetry_space_group_name_H-M "C 2/M"
_symmetry_group_IT_number 12
_symmetry_cell_setting 'monoclinic'
loop_
_space_group_symop_operation_xyz
x,y,z
-x,y,-z
-x,-y,-z
x,-y,z
1/2+x,1/2+y,z
1/2-x,1/2+y,-z
1/2-x,1/2-y,-z
1/2+x,1/2-y,z
loop_
_atom_site_type_symbol
_atom_site_label
_atom_site_fract_x
_atom_site_fract_y
_atom_site_fract_z
Si Si1 0.412809 0.820018 0.629527
Si Si2 0.861108 0.820387 0.476492
Si Si3 0.275059 0.680371 0.333011
Si Si4 0.200318 0.181090 0.091915
Si Si5 0.326005 0.679461 0.082970
Si Si6 0.158668 0.820085 0.254123
Si Si7 0.543743 0.821828 0.620633
Si Si8 0.869537 0.323133 0.233596
O O1 0.368711 0.760042 0.559037
O O2 0.394838 0.753212 0.709254
O O3 0.477416 0.774714 0.613404
O O4 0.410911 0.000000 0.632004
O O5 0.804755 0.778215 0.418706
O O6 0.915820 0.769630 0.432015
O O7 0.861379 0.000000 0.486478
O O8 0.267569 0.500000 0.329415
O O9 0.215811 0.761866 0.305579
O O10 0.321107 0.731836 0.274538
O O11 0.261849 0.263968 0.097105
O O12 0.166759 0.221543 0.165280
O O13 0.211126 0.000000 0.094864
O O14 0.168094 0.215258 0.007138
O O15 0.329603 0.500000 0.093433
O O16 0.369367 0.761162 0.147031
O O17 0.155356 0.000000 0.259121
O O18 0.572094 0.806455 0.709334
O O19 0.546921 0.000000 0.599602
O O20 0.853842 0.500000 0.231737
#
# Coordination Sequence:
#
# PCOD9172513 Si02
#       8
#     8   8   8   8   8   8   8   8
#     4  11  23  38  55  75 101 138 180 216 258 310
#     4  10  21  36  56  81 106 131 168 219 267 308
#     4  10  20  34  52  77 106 137 171 209 257 311
#     4   9  19  33  49  74 107 140 170 208 255 307
#     4  10  18  29  50  79 108 135 169 209 255 309
#     4  11  22  36  54  75 105 141 175 212 257 309
#     4   9  20  37  56  77 103 136 174 218 262 305
#     4  10  18  31  52  78 107 136 169 212 261 306
#
# _framework density 17.982113999999999
#
# number of rings (size 3 to 8) (size 9 to 14) (size 15 to 20)
#    0.000    2.000    1.250    2.625    0.000    6.000 
#    0.000    0.000    0.000    0.750    0.000    5.250 
#    0.000    0.000    0.000    0.000    0.000    0.000 
#
# Total GULP energy -178657.683959 kJ/mol
# GULP energy per Si atom -5583.052624 kJ/mol
# Density = 1.794119 g / cm^3
# Si number density = 17.982114 Si / 1000 Ang^3
#
#
#
# Elastic Constant Matrix: (Units=GPa)
#
#
# Indices 1 2 3 4 5 6 
#
# 1 8.7434 -3.3925 3.7464 0.0000 -0.0477 0.0000
# 2 -3.3925 27.6041 24.5757 0.0000 -0.3416 0.0000
# 3 3.7464 24.5757 105.9755 0.0000 0.0474 0.0000
# 4 0.0000 0.0000 0.0000 27.9836 0.0000 -0.7230
# 5 -0.0477 -0.3416 0.0474 0.0000 20.7433 0.0000
# 6 0.0000 0.0000 0.0000 -0.7230 0.0000 22.3091
#
#
#
# Elastic Compliance Matrix: (Units=1/GPa)
#
#
# Indices 1 2 3 4 5 6 
#
# 1 0.128513 0.025012 -0.010344 0.000000 0.000731 0.000000
# 2 0.025012 0.050532 -0.012603 0.000000 0.000918 0.000000
# 3 -0.010344 -0.012603 0.012725 0.000000 -0.000260 0.000000
# 4 0.000000 0.000000 0.000000 0.035765 0.000000 0.001159
# 5 0.000731 0.000918 -0.000260 0.000000 0.048226 0.000000
# 6 0.000000 0.000000 0.000000 0.001159 0.000000 0.044862
#
#
# Mechanical properties :
#
#
# Convention : Reuss Voigt Hill
#
# Bulk Modulus (GPa) = 5.10464 21.35359 13.22911
# Shear Modulus (GPa) = 13.09610 22.03342 17.56476
#
# Velocity S-wave (km/s) = 2.70160 3.50422 3.12876
# Velocity P-wave (km/s) = 3.54633 5.31728 4.51940
#
# Compressibility (1/GPa) = 0.19590016
#
# Stress axis : x y z
#
# Youngs Moduli (GPa) = 7.78130 19.78940 78.58817
#
# Poissons Ratio (x) = -0.49497 0.81290
# Poissons Ratio (y) = -0.19462 0.99045
# Poissons Ratio (z) = 0.08049 0.24941
#
# Static dielectric constant tensor:
#      x y z
#    x 1.594950 0.000000 0.010910 
#    y 0.000000 1.598510 0.000000 
#    z 0.010910 0.000000 1.646610 
# 
# From -- ./inp_files/281382.got.cif
#   From: 2010.05.17/outbox.cif.g08.bks.cpg/sg12_141_cif.got.tgz:281382.got - 2010.06.03 13:09:07.
