data_PCOD9172962
_publ_section_title
;
Structure prediction by ZEFSAII (Michael W. Deem and Ramdas Pophale) SiO2 
 PCOD9172962
Probable space group: C 2/M
;
_chemical_formula_sum "Si O2"
_cell_formula_units_Z 64
_cell_length_a 20.350716
_cell_length_b 20.081823
_cell_length_c 14.271328
_cell_angle_alpha 90.000000
_cell_angle_beta 44.521139
_cell_angle_gamma 90.000000
_cell_volume 4089.516912
_symmetry_space_group_name_H-M "C 2/M"
_symmetry_group_IT_number 12
_symmetry_cell_setting 'monoclinic'
loop_
_space_group_symop_operation_xyz
x,y,z
-x,y,-z
-x,-y,-z
x,-y,z
1/2+x,1/2+y,z
1/2-x,1/2+y,-z
1/2-x,1/2-y,-z
1/2+x,1/2-y,z
loop_
_atom_site_type_symbol
_atom_site_label
_atom_site_fract_x
_atom_site_fract_y
_atom_site_fract_z
Si Si1 0.353584 0.175586 0.850593
Si Si2 0.919866 0.077511 0.849273
Si Si3 0.216936 0.421108 0.413298
Si Si4 0.730862 0.422489 0.849272
Si Si5 0.101689 0.824252 0.443665
Si Si6 0.454647 0.175749 0.443664
Si Si7 0.369768 0.578893 0.413295
Si Si8 0.795824 0.824414 0.850593
O O1 0.302853 0.124546 0.831152
O O2 0.463604 0.172919 0.717292
O O3 0.323904 0.250000 0.852192
O O4 0.307349 0.162895 0.000000
O O5 0.865995 0.124545 0.831152
O O6 0.029983 0.090252 0.738490
O O7 0.906001 0.000000 0.836669
O O8 0.869315 0.087802 0.000001
O O9 0.194695 0.500000 0.441530
O O10 0.268472 0.409750 0.261512
O O11 0.124907 0.376429 0.501914
O O12 0.285277 0.404304 0.429446
O O13 0.757332 0.500000 0.836670
O O14 0.087781 0.750000 0.500000
O O15 0.126820 0.876430 0.498087
O O16 0.180896 0.827082 0.282708
O O17 0.000000 0.839974 0.500000
O O18 0.500000 0.160027 0.500000
O O19 0.363778 0.500000 0.441524
#
# Coordination Sequence:
#
# PCOD9172962 Si02
#       8
#     8   8   8   8   8   8   8   8
#     4  10  18  30  49  73 101 129 158 199 247 292
#     4   9  17  29  46  70  99 129 162 199 245 299
#     4  10  21  34  49  72 101 134 169 204 246 293
#     4   9  17  29  46  70  99 129 162 199 245 299
#     4  11  19  33  52  77 101 127 166 205 245 293
#     4  11  19  33  52  77 101 127 166 205 245 293
#     4  10  21  34  49  72 101 134 169 204 246 293
#     4  10  18  30  49  73 101 129 158 199 247 292
#
# _framework density 15.64977
#
# number of rings (size 3 to 8) (size 9 to 14) (size 15 to 20)
#    0.000    2.000    5.000    0.000    0.000    2.500 
#    0.000    2.500    0.000    0.750    0.000    1.750 
#    0.000    0.000    0.000    0.000    0.000    0.000 
#
# Total GULP energy -178267.545993 kJ/mol
# GULP energy per Si atom -5570.860812 kJ/mol
# Density = 1.561415 g / cm^3
# Si number density = 15.649770 Si / 1000 Ang^3
#
#
#
# Elastic Constant Matrix: (Units=GPa)
#
#
# Indices 1 2 3 4 5 6 
#
# 1 77.5982 62.6290 65.0231 0.0000 -1.0823 0.0000
# 2 62.6290 65.7767 55.9874 0.0000 0.4751 0.0000
# 3 65.0231 55.9874 145.2867 0.0000 -3.7706 0.0000
# 4 0.0000 0.0000 0.0000 22.8913 0.0000 -0.0346
# 5 -1.0823 0.4751 -3.7706 0.0000 14.0258 0.0000
# 6 0.0000 0.0000 0.0000 -0.0346 0.0000 22.4088
#
#
#
# Elastic Compliance Matrix: (Units=1/GPa)
#
#
# Indices 1 2 3 4 5 6 
#
# 1 0.060667 -0.051765 -0.007086 0.000000 0.004530 0.000000
# 2 -0.051765 0.066931 -0.002807 0.000000 -0.007016 0.000000
# 3 -0.007086 -0.002807 0.011202 0.000000 0.002560 0.000000
# 4 0.000000 0.000000 0.000000 0.043685 0.000000 0.000068
# 5 0.004530 -0.007016 0.002560 0.000000 0.072573 0.000000
# 6 0.000000 0.000000 0.000000 0.000068 0.000000 0.044625
#
#
# Mechanical properties :
#
#
# Convention : Reuss Voigt Hill
#
# Bulk Modulus (GPa) = 64.58185 72.88228 68.73206
# Shear Modulus (GPa) = 11.67786 18.86666 15.27226
#
# Velocity S-wave (km/s) = 2.73463 3.47588 3.12729
# Velocity P-wave (km/s) = 7.16432 7.92344 7.55342
#
# Compressibility (1/GPa) = 0.01548423
#
# Stress axis : x y z
#
# Youngs Moduli (GPa) = 16.48341 14.94078 89.26766
#
# Poissons Ratio (x) = 0.77341 0.63253
# Poissons Ratio (y) = 0.85327 0.25056
# Poissons Ratio (z) = 0.11680 0.04194
#
# Static dielectric constant tensor:
#      x y z
#    x 1.477480 0.000000 -0.006140 
#    y 0.000000 1.520060 0.000000 
#    z -0.006140 0.000000 1.563150 
# 
# From -- ./inp_files/159539.got.cif
#   From: 2010.05.17/outbox.cif.g08.bks.cpg/sg12_80_cif.got.tgz:159539.got - 2010.06.03 13:09:07.
