data_PCOD9172412
_publ_section_title
;
Structure prediction by ZEFSAII (Michael W. Deem and Ramdas Pophale) SiO2 
 PCOD9172412
Probable space group: C 2/M
;
_chemical_formula_sum "Si O2"
_cell_formula_units_Z 64
_cell_length_a 20.363927
_cell_length_b 7.779954
_cell_length_c 20.583233
_cell_angle_alpha 90.000000
_cell_angle_beta 118.383776
_cell_angle_gamma 90.000000
_cell_volume 2868.982001
_symmetry_space_group_name_H-M "C 2/M"
_symmetry_group_IT_number 12
_symmetry_cell_setting 'monoclinic'
loop_
_space_group_symop_operation_xyz
x,y,z
-x,y,-z
-x,-y,-z
x,-y,z
1/2+x,1/2+y,z
1/2-x,1/2+y,-z
1/2-x,1/2-y,-z
1/2+x,1/2-y,z
loop_
_atom_site_type_symbol
_atom_site_label
_atom_site_fract_x
_atom_site_fract_y
_atom_site_fract_z
Si Si1 0.321300 0.288509 0.655783
Si Si2 0.747393 0.703729 0.899244
Si Si3 0.551758 0.301956 0.369971
Si Si4 0.170153 0.300474 0.530849
Si Si5 0.314713 0.292313 0.798449
Si Si6 0.562901 0.704698 0.585363
Si Si7 0.525202 0.298231 0.080835
Si Si8 0.373169 0.799450 0.057773
O O1 0.322094 0.500000 0.654485
O O2 0.402343 0.228200 0.669032
O O3 0.254227 0.234191 0.576929
O O4 0.302330 0.232324 0.719420
O O5 0.745148 0.500000 0.908346
O O6 0.758560 0.740569 0.828971
O O7 0.673886 0.776723 0.898760
O O8 0.819176 0.770880 0.974520
O O9 0.533892 0.500000 0.346469
O O10 0.615311 0.298354 0.456496
O O11 0.477157 0.227195 0.368069
O O12 0.169074 0.500000 0.511035
O O13 0.134958 0.288453 0.587060
O O14 0.314985 0.500000 0.796408
O O15 0.396899 0.226663 0.857631
O O16 0.500000 0.727530 0.500000
O O17 0.575934 0.500000 0.598404
O O18 0.539674 0.500000 0.077084
O O19 0.454444 0.282808 0.094614
O O20 0.500000 0.221823 0.000000
O O21 0.384553 0.000000 0.050847
#
# Coordination Sequence:
#
# PCOD9172412 Si02
#       8
#     8   8   8   8   8   8   8   8
#     4   9  19  34  51  72  99 136 172 205 251 306
#     4  10  20  34  53  78 106 133 168 213 255 304
#     4   9  17  32  52  72  97 130 171 209 245 297
#     4  10  18  29  49  76 102 128 165 210 254 299
#     4  10  20  36  55  73 103 142 175 210 261 314
#     4   8  15  28  47  70  96 127 161 202 247 295
#     4  10  19  32  53  80 105 133 172 216 255 301
#     4  10  20  33  54  80 106 135 167 209 260 309
#
# _framework density 22.307563999999999
#
# number of rings (size 3 to 8) (size 9 to 14) (size 15 to 20)
#    0.000    2.500    1.250    2.250    0.000    4.000 
#    0.000    3.750    0.000    1.500    0.000    0.000 
#    0.000    0.000    0.000    0.000    0.000    0.000 
#
# Total GULP energy -178532.954346 kJ/mol
# GULP energy per Si atom -5579.154823 kJ/mol
# Density = 2.225679 g / cm^3
# Si number density = 22.307564 Si / 1000 Ang^3
#
#
#
# Elastic Constant Matrix: (Units=GPa)
#
#
# Indices 1 2 3 4 5 6 
#
# 1 97.1434 -4.1201 10.6204 0.0000 -27.0621 0.0000
# 2 -4.1201 23.9946 -6.5653 0.0000 3.4018 0.0000
# 3 10.6204 -6.5653 45.6313 0.0000 -18.6178 0.0000
# 4 0.0000 0.0000 0.0000 9.4751 0.0000 -6.3274
# 5 -27.0621 3.4018 -18.6178 0.0000 33.5196 0.0000
# 6 0.0000 0.0000 0.0000 -6.3274 0.0000 23.2092
#
#
#
# Elastic Compliance Matrix: (Units=1/GPa)
#
#
# Indices 1 2 3 4 5 6 
#
# 1 0.013409 0.001140 0.001827 0.000000 0.011725 0.000000
# 2 0.001140 0.043519 0.005909 0.000000 -0.000214 0.000000
# 3 0.001827 0.005909 0.029348 0.000000 0.017176 0.000000
# 4 0.000000 0.000000 0.000000 0.129031 0.000000 0.035177
# 5 0.011725 -0.000214 0.017176 0.000000 0.048861 0.000000
# 6 0.000000 0.000000 0.000000 0.035177 0.000000 0.052677
#
#
# Mechanical properties :
#
#
# Convention : Reuss Voigt Hill
#
# Bulk Modulus (GPa) = 9.61290 18.51545 14.06418
# Shear Modulus (GPa) = 14.98047 24.36308 19.67178
#
# Velocity S-wave (km/s) = 2.59422 3.30835 2.97281
# Velocity P-wave (km/s) = 3.64581 4.78661 4.25462
#
# Compressibility (1/GPa) = 0.10402683
#
# Stress axis : x y z
#
# Youngs Moduli (GPa) = 74.57693 22.97850 34.07443
#
# Poissons Ratio (x) = -0.02620 -0.06225
# Poissons Ratio (y) = -0.08502 -0.20133
# Poissons Ratio (z) = -0.13625 -0.13577
#
# Static dielectric constant tensor:
#      x y z
#    x 1.868050 0.000000 -0.030780 
#    y 0.000000 1.806500 0.000000 
#    z -0.030780 0.000000 1.805750 
# 
# From -- ./inp_files/320168.got.cif
#   From: 2010.05.17/outbox.cif.g08.bks.cpg/sg12_161_cif.got.tgz:320168.got - 2010.06.03 13:09:07.
