data_PCOD9172541
_publ_section_title
;
Structure prediction by ZEFSAII (Michael W. Deem and Ramdas Pophale) SiO2 
 PCOD9172541
Probable space group: C 2/M
;
_chemical_formula_sum "Si O2"
_cell_formula_units_Z 56
_cell_length_a 10.933295
_cell_length_b 30.791532
_cell_length_c 14.259744
_cell_angle_alpha 90.000000
_cell_angle_beta 145.282813
_cell_angle_gamma 90.000000
_cell_volume 2734.058081
_symmetry_space_group_name_H-M "C 2/M"
_symmetry_group_IT_number 12
_symmetry_cell_setting 'monoclinic'
loop_
_space_group_symop_operation_xyz
x,y,z
-x,y,-z
-x,-y,-z
x,-y,z
1/2+x,1/2+y,z
1/2-x,1/2+y,-z
1/2-x,1/2-y,-z
1/2+x,1/2-y,z
loop_
_atom_site_type_symbol
_atom_site_label
_atom_site_fract_x
_atom_site_fract_y
_atom_site_fract_z
Si Si1 0.222712 0.117173 0.271816
Si Si2 0.007907 0.048972 0.615326
Si Si3 0.179755 0.881876 0.872928
Si Si4 0.255861 0.201611 0.173900
Si Si5 0.250862 0.700976 0.192748
Si Si6 0.451068 0.151927 0.781524
Si Si7 0.398705 0.911540 0.581731
O O1 0.281231 0.164407 0.268258
O O2 0.349036 0.083936 0.282924
O O3 0.308917 0.109942 0.430535
O O4 0.969929 0.111159 0.129698
O O5 0.760597 0.049696 0.495336
O O6 0.000000 0.061045 0.500000
O O7 0.130683 0.082655 0.761558
O O8 0.095413 0.000000 0.677686
O O9 0.132652 0.833940 0.800152
O O10 0.422285 0.877944 0.063483
O O11 0.334877 0.250138 0.245703
O O12 0.376070 0.184400 0.156986
O O13 0.000000 0.203785 0.000000
O O14 0.230053 0.679329 0.281120
O O15 0.000000 0.702985 0.000000
O O16 0.369759 0.121714 0.648034
#
# Coordination Sequence:
#
# PCOD9172541 Si02
#       7
#     8   8   8   8   8   8   8
#     4   9  18  33  53  76 107 149 184 223 264 327
#     4  10  21  39  63  84 107 138 176 220 274 339
#     4  10  19  34  56  80 107 144 184 225 274 318
#     4  10  18  29  51  77 108 149 194 226 263 311
#     4   9  20  29  48  78 109 145 185 235 265 317
#     4  10  19  33  53  77 110 149 183 229 271 312
#     4   9  19  35  55  76 109 144 178 217 275 334
#
# _framework density 20.482374
#
# number of rings (size 3 to 8) (size 9 to 14) (size 15 to 20)
#    0.000    2.429    1.429    0.857    2.000    1.714 
#    0.000    7.143   22.000    5.571    0.000   14.000 
#    0.000    0.000    0.000    0.000    0.000    0.000 
#
# Total GULP energy -155991.396244 kJ/mol
# GULP energy per Si atom -5571.121294 kJ/mol
# Density = 2.043575 g / cm^3
# Si number density = 20.482374 Si / 1000 Ang^3
#
#
#
# Elastic Constant Matrix: (Units=GPa)
#
#
# Indices 1 2 3 4 5 6 
#
# 1 97.5273 30.7324 18.3658 0.0000 -10.6239 0.0000
# 2 30.7324 86.3280 24.9184 0.0000 -10.2956 0.0000
# 3 18.3658 24.9184 20.8942 0.0000 -11.1867 0.0000
# 4 0.0000 0.0000 0.0000 3.5710 0.0000 17.1290
# 5 -10.6239 -10.2956 -11.1867 0.0000 31.3065 0.0000
# 6 0.0000 0.0000 0.0000 17.1290 0.0000 6.5567
#
#
#
# Elastic Compliance Matrix: (Units=1/GPa)
#
#
# Indices 1 2 3 4 5 6 
#
# 1 0.012509 -0.001985 -0.008291 0.000000 0.000630 0.000000
# 2 -0.001985 0.018095 -0.021034 0.000000 -0.002239 0.000000
# 3 -0.008291 -0.021034 0.092771 0.000000 0.023419 0.000000
# 4 0.000000 0.000000 0.000000 -0.024285 0.000000 0.063443
# 5 0.000630 -0.002239 0.023419 0.000000 0.039788 0.000000
# 6 0.000000 0.000000 0.000000 0.063443 0.000000 -0.013226
#
#
# Mechanical properties :
#
#
# Convention : Reuss Voigt Hill
#
# Bulk Modulus (GPa) = 16.45944 39.19810 27.82877
# Shear Modulus (GPa) = 23.97835 17.00234 20.49034
#
# Velocity S-wave (km/s) = 3.42523 2.88426 3.16632
# Velocity P-wave (km/s) = 4.86789 5.50191 5.19458
#
# Compressibility (1/GPa) = 0.06075542
#
# Stress axis : x y z
#
# Youngs Moduli (GPa) = 79.94308 55.26507 10.77926
#
# Poissons Ratio (x) = 0.10969 0.08937
# Poissons Ratio (y) = 0.15868 0.22673
# Poissons Ratio (z) = 0.66281 1.16242
#
# Static dielectric constant tensor:
#      x y z
#    x 1.805960 0.000000 0.066370 
#    y 0.000000 1.723180 0.000000 
#    z 0.066370 0.000000 1.804870 
# 
# From -- ./inp_files/209178.got.cif
#   From: 2010.05.17/outbox.cif.g08.bks.cpg/sg12_105_cif.got.tgz:209178.got - 2010.06.03 13:09:07.
