data_PCOD9172009
_publ_section_title
;
Structure prediction by ZEFSAII (Michael W. Deem and Ramdas Pophale) SiO2 
 PCOD9172009
Probable space group: C 2/M
;
_chemical_formula_sum "Si O2"
_cell_formula_units_Z 56
_cell_length_a 24.523352
_cell_length_b 7.947330
_cell_length_c 17.694918
_cell_angle_alpha 90.000000
_cell_angle_beta 128.011790
_cell_angle_gamma 90.000000
_cell_volume 2717.139535
_symmetry_space_group_name_H-M "C 2/M"
_symmetry_group_IT_number 12
_symmetry_cell_setting 'monoclinic'
loop_
_space_group_symop_operation_xyz
x,y,z
-x,y,-z
-x,-y,-z
x,-y,z
1/2+x,1/2+y,z
1/2-x,1/2+y,-z
1/2-x,1/2-y,-z
1/2+x,1/2-y,z
loop_
_atom_site_type_symbol
_atom_site_label
_atom_site_fract_x
_atom_site_fract_y
_atom_site_fract_z
Si Si1 0.893222 0.199518 0.237510
Si Si2 0.675816 0.299654 0.405210
Si Si3 0.147353 0.793663 0.964469
Si Si4 0.644484 0.293697 0.206929
Si Si5 0.968928 0.692183 0.697244
Si Si6 0.246366 0.702730 0.825611
Si Si7 0.496542 0.306690 0.108653
O O1 0.865239 0.263555 0.131765
O O2 0.832906 0.241746 0.244610
O O3 0.970235 0.272620 0.310294
O O4 0.900250 0.000000 0.239300
O O5 0.670127 0.500000 0.401385
O O6 0.750000 0.250000 0.500000
O O7 0.666862 0.242935 0.310471
O O8 0.609594 0.227702 0.393385
O O9 0.080822 0.735645 0.956908
O O10 0.146597 0.000000 0.963277
O O11 0.216842 0.738377 0.065234
O O12 0.641801 0.500000 0.202371
O O13 0.702299 0.239786 0.196888
O O14 0.564931 0.234840 0.127092
O O15 0.974413 0.500000 0.726958
O O16 0.984044 0.802901 0.785013
O O17 0.246859 0.500000 0.825576
O O18 0.489915 0.500000 0.078482
#
# Coordination Sequence:
#
# PCOD9172009 Si02
#       7
#     8   8   8   8   8   8   8
#     4  10  19  32  46  65  95 132 168 206 241 275
#     4  10  19  34  55  80 103 124 149 187 235 288
#     4   8  15  26  44  67  92 124 169 211 242 272
#     4   8  16  29  47  70  99 127 156 193 239 287
#     4  10  18  30  50  75  96 122 158 198 238 282
#     4  10  18  29  45  68  95 130 169 204 237 279
#     4   8  14  28  45  65  95 129 159 198 243 284
#
# _framework density 20.609909999999999
#
# number of rings (size 3 to 8) (size 9 to 14) (size 15 to 20)
#    0.000    2.857    0.000    4.286    0.000    0.571 
#    0.000    9.286    0.000    0.857    0.000   23.000 
#    0.000    0.000    0.000    0.000    0.000    0.000 
#
# Total GULP energy -156104.669277 kJ/mol
# GULP energy per Si atom -5575.166760 kJ/mol
# Density = 2.056300 g / cm^3
# Si number density = 20.609910 Si / 1000 Ang^3
#
#
#
# Elastic Constant Matrix: (Units=GPa)
#
#
# Indices 1 2 3 4 5 6 
#
# 1 153.0940 7.6059 31.1602 0.0000 47.3216 0.0000
# 2 7.6059 40.3369 3.7033 0.0000 3.9677 0.0000
# 3 31.1602 3.7033 47.0072 0.0000 33.3201 0.0000
# 4 0.0000 0.0000 0.0000 11.0466 0.0000 7.8050
# 5 47.3216 3.9677 33.3201 0.0000 37.0487 0.0000
# 6 0.0000 0.0000 0.0000 7.8050 0.0000 19.6887
#
#
#
# Elastic Compliance Matrix: (Units=1/GPa)
#
#
# Indices 1 2 3 4 5 6 
#
# 1 0.011785 -0.000776 0.007890 0.000000 -0.022065 0.000000
# 2 -0.000776 0.025107 -0.000718 0.000000 -0.001052 0.000000
# 3 0.007890 -0.000718 0.063967 0.000000 -0.067530 0.000000
# 4 0.000000 0.000000 0.000000 0.125747 0.000000 -0.049849
# 5 -0.022065 -0.001052 -0.067530 0.000000 0.116022 0.000000
# 6 0.000000 0.000000 0.000000 -0.049849 0.000000 0.070552
#
#
# Mechanical properties :
#
#
# Convention : Reuss Voigt Hill
#
# Bulk Modulus (GPa) = 8.79888 36.15299 22.47594
# Shear Modulus (GPa) = 11.40845 26.75472 19.08158
#
# Velocity S-wave (km/s) = 2.35530 3.60689 3.04607
# Velocity P-wave (km/s) = 3.41688 5.90981 4.82706
#
# Compressibility (1/GPa) = 0.11365078
#
# Stress axis : x y z
#
# Youngs Moduli (GPa) = 84.85290 39.82964 15.63297
#
# Poissons Ratio (x) = 0.03091 -0.12334
# Poissons Ratio (y) = 0.06585 0.01122
# Poissons Ratio (z) = -0.66946 0.02859
#
# Static dielectric constant tensor:
#      x y z
#    x 1.799280 0.000000 0.014790 
#    y 0.000000 1.753820 0.000000 
#    z 0.014790 0.000000 1.733910 
# 
# From -- ./inp_files/323812.got.cif
#   From: 2010.05.17/outbox.cif.g08.bks.cpg/sg12_162_cif.got.tgz:323812.got - 2010.06.03 13:09:07.
