data_PCOD9172062
_publ_section_title
;
Structure prediction by ZEFSAII (Michael W. Deem and Ramdas Pophale) SiO2 
 PCOD9172062
Probable space group: C 2/M
;
_chemical_formula_sum "Si O2"
_cell_formula_units_Z 56
_cell_length_a 8.819561
_cell_length_b 25.628548
_cell_length_c 15.713376
_cell_angle_alpha 90.000000
_cell_angle_beta 89.778028
_cell_angle_gamma 90.000000
_cell_volume 3551.707673
_symmetry_space_group_name_H-M "C 2/M"
_symmetry_group_IT_number 12
_symmetry_cell_setting 'monoclinic'
loop_
_space_group_symop_operation_xyz
x,y,z
-x,y,-z
-x,-y,-z
x,-y,z
1/2+x,1/2+y,z
1/2-x,1/2+y,-z
1/2-x,1/2-y,-z
1/2+x,1/2-y,z
loop_
_atom_site_type_symbol
_atom_site_label
_atom_site_fract_x
_atom_site_fract_y
_atom_site_fract_z
Si Si1 0.180339 0.693737 0.983612
Si Si2 0.352976 0.060194 0.813898
Si Si3 0.169224 0.936645 0.650245
Si Si4 0.326838 0.436828 0.695475
Si Si5 0.170031 0.393711 0.862029
Si Si6 0.174296 0.908558 0.971682
Si Si7 0.829487 0.436560 0.479367
O O1 0.197382 0.666231 0.890776
O O2 0.250000 0.750000 0.000000
O O3 0.273101 0.651759 0.040294
O O4 0.000000 0.693366 0.000000
O O5 0.285865 0.078729 0.724156
O O6 0.495574 0.093561 0.844480
O O7 0.222351 0.062655 0.885989
O O8 0.403230 0.000000 0.803864
O O9 0.220845 0.919306 0.556665
O O10 0.999569 0.921564 0.675349
O O11 0.170635 0.000000 0.649293
O O12 0.319654 0.500000 0.704366
O O13 0.265547 0.411023 0.780984
O O14 0.226929 0.421415 0.613751
O O15 0.224709 0.424766 0.946662
O O16 0.000000 0.912646 0.000000
O O17 0.827711 0.500000 0.479750
O O18 0.000000 0.419946 0.500000
#
# Coordination Sequence:
#
# PCOD9172062 Si02
#       7
#     8   8   8   8   8   8   8
#     4  10  20  38  56  75  93 125 158 210 262 304
#     4  11  20  32  48  67 103 141 171 205 241 292
#     4   9  18  29  43  65  94 136 180 210 239 279
#     4  10  18  29  46  68 101 137 169 207 247 287
#     4  10  20  33  47  73  96 127 167 204 246 306
#     4  10  20  34  49  71  98 128 166 210 243 300
#     4   9  16  27  43  64  91 133 180 211 241 280
#
# _framework density 15.767064
#
# number of rings (size 3 to 8) (size 9 to 14) (size 15 to 20)
#    0.857    1.286    1.429    3.429    0.000    6.000 
#    0.000    0.000    0.000    0.000    0.000    0.000 
#    0.000    1.143    0.571    0.000    0.000    0.000 
#
# Total GULP energy -155885.542432 kJ/mol
# GULP energy per Si atom -5567.340801 kJ/mol
# Density = 1.573118 g / cm^3
# Si number density = 15.767064 Si / 1000 Ang^3
#
#
#
# Elastic Constant Matrix: (Units=GPa)
#
#
# Indices 1 2 3 4 5 6 
#
# 1 51.6472 14.8919 2.9890 0.0000 -6.5397 0.0000
# 2 14.8919 45.8440 22.2700 0.0000 2.0377 0.0000
# 3 2.9890 22.2700 86.6500 0.0000 -7.5475 0.0000
# 4 0.0000 0.0000 0.0000 -2.0107 0.0000 3.4085
# 5 -6.5397 2.0377 -7.5475 0.0000 32.5185 0.0000
# 6 0.0000 0.0000 0.0000 3.4085 0.0000 18.8955
#
#
#
# Elastic Compliance Matrix: (Units=1/GPa)
#
#
# Indices 1 2 3 4 5 6 
#
# 1 0.022372 -0.008417 0.001867 0.000000 0.005460 0.000000
# 2 -0.008417 0.028404 -0.007463 0.000000 -0.005205 0.000000
# 3 0.001867 -0.007463 0.013746 0.000000 0.004034 0.000000
# 4 0.000000 0.000000 0.000000 -0.380867 0.000000 0.068703
# 5 0.005460 -0.005205 0.004034 0.000000 0.033112 0.000000
# 6 0.000000 0.000000 0.000000 0.068703 0.000000 0.040530
#
#
# Mechanical properties :
#
#
# Convention : Reuss Voigt Hill
#
# Bulk Modulus (GPa) = 27.40032 29.38257 28.39144
# Shear Modulus (GPa) = -24.68996 19.48000 -2.60498
#
# Velocity S-wave (km/s) = -3.96146 3.51876 -1.28676
# Velocity P-wave (km/s) = 1.87306 5.93168 3.97973
#
# Compressibility (1/GPa) = 0.03649593
#
# Stress axis : x y z
#
# Youngs Moduli (GPa) = 44.69789 35.20618 72.74989
#
# Poissons Ratio (x) = 0.29634 -0.13583
# Poissons Ratio (y) = 0.37623 0.54295
# Poissons Ratio (z) = -0.08346 0.26275
#
# Static dielectric constant tensor:
#      x y z
#    x 1.545970 0.000000 0.001670 
#    y 0.000000 1.515540 0.000000 
#    z 0.001670 0.000000 1.531990 
# 
# From -- ./inp_files/200382.got.cif
#   From: 2010.05.17/outbox.cif.g08.bks.cpg/sg12_101_cif.got.tgz:200382.got - 2010.06.03 13:09:07.
