data_PCOD9172402
_publ_section_title
;
Structure prediction by ZEFSAII (Michael W. Deem and Ramdas Pophale) SiO2 
 PCOD9172402
Probable space group: C 2/M
;
_chemical_formula_sum "Si O2"
_cell_formula_units_Z 48
_cell_length_a 22.903570
_cell_length_b 8.995294
_cell_length_c 24.283655
_cell_angle_alpha 90.000000
_cell_angle_beta 35.220488
_cell_angle_gamma 90.000000
_cell_volume 2885.366475
_symmetry_space_group_name_H-M "C 2/M"
_symmetry_group_IT_number 12
_symmetry_cell_setting 'monoclinic'
loop_
_space_group_symop_operation_xyz
x,y,z
-x,y,-z
-x,-y,-z
x,-y,z
1/2+x,1/2+y,z
1/2-x,1/2+y,-z
1/2-x,1/2-y,-z
1/2+x,1/2-y,z
loop_
_atom_site_type_symbol
_atom_site_label
_atom_site_fract_x
_atom_site_fract_y
_atom_site_fract_z
Si Si1 0.454091 0.177220 0.595863
Si Si2 0.071784 0.823327 0.822508
Si Si3 0.416851 0.828729 0.014676
Si Si4 0.665261 0.677004 0.635707
Si Si5 0.120709 0.822976 0.544383
Si Si6 0.235007 0.679178 0.778316
O O1 0.500000 0.207057 0.500000
O O2 0.532523 0.240347 0.579930
O O3 0.346115 0.256038 0.685320
O O4 0.442487 0.000000 0.610687
O O5 0.091647 0.789697 0.743220
O O6 0.160554 0.744648 0.789150
O O7 0.079710 0.000000 0.824473
O O8 0.965458 0.766808 0.928767
O O9 0.314601 0.779834 0.124179
O O10 0.406902 0.000000 0.004685
O O11 0.500000 0.825415 0.000000
O O12 0.688393 0.500000 0.619420
O O13 0.770178 0.765435 0.560438
O O14 0.619703 0.709256 0.610677
O O15 0.112508 0.000000 0.542832
O O16 0.234368 0.500000 0.775327
#
# Coordination Sequence:
#
# PCOD9172402 Si02
#       6
#     8   8   8   8   8   8
#     4  11  23  36  50  71 100 129 158 197 242 287
#     4  10  18  29  49  75 101 128 159 197 241 286
#     4   8  16  30  46  68  98 127 158 199 241 280
#     4   9  19  34  50  72 101 128 158 200 242 279
#     4  10  20  34  52  72  96 129 165 198 236 284
#     4  10  20  33  49  71 100 131 162 198 239 284
#
# _framework density 16.635669
#
# number of rings (size 3 to 8) (size 9 to 14) (size 15 to 20)
#    0.000    2.333    0.000    4.000    0.000   11.000 
#    0.000    0.000    0.000    1.000    0.000    0.000 
#    0.000    0.000    0.000    0.000    0.000    0.000 
#
# Total GULP energy -133864.009009 kJ/mol
# GULP energy per Si atom -5577.667042 kJ/mol
# Density = 1.659781 g / cm^3
# Si number density = 16.635669 Si / 1000 Ang^3
#
#
#
# Elastic Constant Matrix: (Units=GPa)
#
#
# Indices 1 2 3 4 5 6 
#
# 1 54.8181 39.8002 55.3289 0.0000 5.9664 0.0000
# 2 39.8002 63.4591 70.2825 -0.0001 9.4337 0.0001
# 3 55.3289 70.2825 152.9859 -0.0001 17.1936 0.0000
# 4 0.0000 -0.0001 -0.0001 31.3401 0.0000 3.0348
# 5 5.9664 9.4337 17.1936 0.0000 25.8491 -0.0001
# 6 0.0000 0.0001 0.0000 3.0348 -0.0001 17.5505
#
#
#
# Elastic Compliance Matrix: (Units=1/GPa)
#
#
# Indices 1 2 3 4 5 6 
#
# 1 0.035545 -0.016470 -0.005449 0.000000 0.001431 0.000000
# 2 -0.016470 0.039815 -0.012028 0.000000 -0.002729 0.000000
# 3 -0.005449 -0.012028 0.014481 0.000000 -0.003985 0.000000
# 4 0.000000 0.000000 0.000000 0.032451 0.000000 -0.005611
# 5 0.001431 -0.002729 -0.003985 0.000000 0.042002 0.000000
# 6 0.000000 0.000000 0.000000 -0.005611 0.000000 0.057949
#
#
# Mechanical properties :
#
#
# Convention : Reuss Voigt Hill
#
# Bulk Modulus (GPa) = 45.56798 66.89847 56.23322
# Shear Modulus (GPa) = 16.80944 22.00472 19.40708
#
# Velocity S-wave (km/s) = 3.18220 3.64090 3.41925
# Velocity P-wave (km/s) = 6.39946 7.61420 7.03310
#
# Compressibility (1/GPa) = 0.02194524
#
# Stress axis : x y z
#
# Youngs Moduli (GPa) = 28.13355 25.11642 69.05690
#
# Poissons Ratio (x) = 0.41367 0.37632
# Poissons Ratio (y) = 0.46337 0.83060
# Poissons Ratio (z) = 0.15331 0.30209
#
# Static dielectric constant tensor:
#      x y z
#    x 1.536790 0.000000 0.021110 
#    y 0.000000 1.555870 0.000000 
#    z 0.021110 0.000000 1.568990 
# 
# From -- ./inp_files/367106.got.cif
#   From: 2010.05.17/outbox.cif.g08.bks.cpg/sg12_184_cif.got.tgz:367106.got - 2010.06.03 13:09:07.
