data_PCOD9172104
_publ_section_title
;
Structure prediction by ZEFSAII (Michael W. Deem and Ramdas Pophale) SiO2 
 PCOD9172104
Probable space group: C 2/M
;
_chemical_formula_sum "Si O2"
_cell_formula_units_Z 64
_cell_length_a 22.508361
_cell_length_b 7.540868
_cell_length_c 19.611868
_cell_angle_alpha 90.000000
_cell_angle_beta 114.554282
_cell_angle_gamma 90.000000
_cell_volume 3027.745285
_symmetry_space_group_name_H-M "C 2/M"
_symmetry_group_IT_number 12
_symmetry_cell_setting 'monoclinic'
loop_
_space_group_symop_operation_xyz
x,y,z
-x,y,-z
-x,-y,-z
x,-y,z
1/2+x,1/2+y,z
1/2-x,1/2+y,-z
1/2-x,1/2-y,-z
1/2+x,1/2-y,z
loop_
_atom_site_type_symbol
_atom_site_label
_atom_site_fract_x
_atom_site_fract_y
_atom_site_fract_z
Si Si1 0.425235 0.283350 0.137893
Si Si2 0.688048 0.710914 0.014879
Si Si3 0.964954 0.212564 0.553995
Si Si4 0.966540 0.215856 0.912676
Si Si5 0.182430 0.216949 0.163736
Si Si6 0.794668 0.713239 0.317127
Si Si7 0.689391 0.789996 0.522469
Si Si8 0.575429 0.712716 0.707764
O O1 0.420987 0.500000 0.137557
O O2 0.372268 0.219193 0.057695
O O3 0.492819 0.234806 0.134526
O O4 0.416766 0.219963 0.211122
O O5 0.676824 0.500000 0.016713
O O6 0.750000 0.750000 0.000000
O O7 0.701166 0.777175 0.096865
O O8 0.887480 0.245950 0.528054
O O9 0.000000 0.277278 0.500000
O O10 0.010700 0.277990 0.637728
O O11 0.970904 0.000000 0.554579
O O12 0.892510 0.272779 0.866912
O O13 0.966433 0.000000 0.916754
O O14 0.000000 0.275097 0.000000
O O15 0.233180 0.280076 0.244262
O O16 0.183967 0.000000 0.167044
O O17 0.788899 0.500000 0.318353
O O18 0.796709 0.784152 0.395039
O O19 0.861394 0.750214 0.308320
O O20 0.750000 0.750000 0.500000
O O21 0.689705 0.000000 0.527270
O O22 0.569611 0.500000 0.710092
#
# Coordination Sequence:
#
# PCOD9172104 Si02
#       8
#     8   8   8   8   8   8   8   8
#     4   9  17  28  46  75 104 132 173 221 267 316
#     4  10  18  29  46  71 102 133 169 209 256 313
#     4  10  20  37  61  86 114 152 194 234 287 347
#     4   9  14  25  45  69  99 134 170 216 264 309
#     4   9  17  29  48  73 103 138 174 215 268 321
#     4  10  21  36  54  80 111 144 182 227 277 333
#     4  11  24  40  61  87 118 154 192 236 287 344
#     4  10  20  34  55  82 111 144 182 232 282 329
#
# _framework density 21.137841999999999
#
# number of rings (size 3 to 8) (size 9 to 14) (size 15 to 20)
#    0.000    2.250    2.500    1.125    0.000    2.250 
#    0.000    3.750    0.000    0.000    0.000    3.500 
#    0.000    0.000    0.000    0.000    0.000    0.000 
#
# Total GULP energy -178491.160899 kJ/mol
# GULP energy per Si atom -5577.848778 kJ/mol
# Density = 2.108973 g / cm^3
# Si number density = 21.137842 Si / 1000 Ang^3
#
#
#
# Elastic Constant Matrix: (Units=GPa)
#
#
# Indices 1 2 3 4 5 6 
#
# 1 145.1232 -11.3118 73.0118 0.0000 6.2794 0.0000
# 2 -11.3118 52.6048 5.3649 0.0000 -0.1590 0.0000
# 3 73.0118 5.3649 166.3350 0.0000 11.6520 0.0000
# 4 0.0000 0.0000 0.0000 -1.1788 0.0000 -0.4923
# 5 6.2794 -0.1590 11.6520 0.0000 42.7421 0.0000
# 6 0.0000 0.0000 0.0000 -0.4923 0.0000 22.1988
#
#
#
# Elastic Compliance Matrix: (Units=1/GPa)
#
#
# Indices 1 2 3 4 5 6 
#
# 1 0.009133 0.002378 -0.004070 0.000000 -0.000223 0.000000
# 2 0.002378 0.019694 -0.001692 0.000000 0.000185 0.000000
# 3 -0.004070 -0.001692 0.007964 0.000000 -0.001579 0.000000
# 4 0.000000 0.000000 0.000000 -0.840563 0.000000 -0.018643
# 5 -0.000223 0.000185 -0.001579 0.000000 0.023860 0.000000
# 6 0.000000 0.000000 0.000000 -0.018643 0.000000 0.044634
#
#
# Mechanical properties :
#
#
# Convention : Reuss Voigt Hill
#
# Bulk Modulus (GPa) = 33.30707 55.35474 44.33091
# Shear Modulus (GPa) = -6.95892 32.55232 12.79670
#
# Velocity S-wave (km/s) = -1.81640 3.92854 2.46314
# Velocity P-wave (km/s) = 3.37523 6.84268 5.39511
#
# Compressibility (1/GPa) = 0.03002365
#
# Stress axis : x y z
#
# Youngs Moduli (GPa) = 109.48769 50.77627 125.56914
#
# Poissons Ratio (x) = -0.12077 0.51108
# Poissons Ratio (y) = -0.26041 0.21248
# Poissons Ratio (z) = 0.44563 0.08592
#
# Static dielectric constant tensor:
#      x y z
#    x 1.786870 0.000000 0.008580 
#    y 0.000000 1.805020 0.000000 
#    z 0.008580 0.000000 1.783510 
# 
# From -- ./inp_files/320012.got.cif
#   From: 2010.05.17/outbox.cif.g08.bks.cpg/sg12_161_cif.got.tgz:320012.got - 2010.06.03 13:09:07.
