data_PCOD9172371
_publ_section_title
;
Structure prediction by ZEFSAII (Michael W. Deem and Ramdas Pophale) SiO2 
 PCOD9172371
Probable space group: C 2/M
;
_chemical_formula_sum "Si O2"
_cell_formula_units_Z 64
_cell_length_a 21.152533
_cell_length_b 7.378569
_cell_length_c 21.099190
_cell_angle_alpha 90.000000
_cell_angle_beta 113.283350
_cell_angle_gamma 90.000000
_cell_volume 3024.882053
_symmetry_space_group_name_H-M "C 2/M"
_symmetry_group_IT_number 12
_symmetry_cell_setting 'monoclinic'
loop_
_space_group_symop_operation_xyz
x,y,z
-x,y,-z
-x,-y,-z
x,-y,z
1/2+x,1/2+y,z
1/2-x,1/2+y,-z
1/2-x,1/2-y,-z
1/2+x,1/2-y,z
loop_
_atom_site_type_symbol
_atom_site_label
_atom_site_fract_x
_atom_site_fract_y
_atom_site_fract_z
Si Si1 0.357420 0.711815 0.077904
Si Si2 0.388438 0.277989 0.702893
Si Si3 0.207678 0.220305 0.075134
Si Si4 0.670341 0.283791 0.454345
Si Si5 0.420603 0.278486 0.463676
Si Si6 0.357271 0.281077 0.304855
Si Si7 0.698556 0.288191 0.212593
Si Si8 0.547206 0.721666 0.774260
O O1 0.372963 0.500000 0.075110
O O2 0.285571 0.726659 0.087786
O O3 0.416845 0.785774 0.146653
O O4 0.340916 0.785692 0.001468
O O5 0.386352 0.500000 0.702101
O O6 0.352888 0.216274 0.623692
O O7 0.347156 0.213786 0.748341
O O8 0.468173 0.224511 0.736405
O O9 0.189537 0.286327 0.138063
O O10 0.206801 0.000000 0.074586
O O11 0.660428 0.500000 0.448948
O O12 0.750000 0.250000 0.500000
O O13 0.623100 0.216110 0.493166
O O14 0.500000 0.223225 0.500000
O O15 0.419910 0.500000 0.463266
O O16 0.386053 0.220376 0.384125
O O17 0.358251 0.500000 0.305150
O O18 0.278888 0.225370 0.262122
O O19 0.406503 0.220671 0.267087
O O20 0.680502 0.500000 0.200836
O O21 0.548702 0.500000 0.775138
#
# Coordination Sequence:
#
# PCOD9172371 Si02
#       8
#     8   8   8   8   8   8   8   8
#     4   9  16  28  47  70  92 117 151 190 228 267
#     4   9  18  31  47  67  94 126 155 185 228 279
#     4   9  17  28  44  68  96 121 148 185 229 272
#     4  10  19  32  50  69  91 122 156 190 230 276
#     4   9  17  29  47  71  93 114 150 198 237 268
#     4  10  18  29  49  72  91 115 153 198 234 265
#     4  10  19  31  46  67  95 125 153 184 225 276
#     4   9  16  28  47  70  92 118 155 192 226 269
#
# _framework density 21.157851999999998
#
# number of rings (size 3 to 8) (size 9 to 14) (size 15 to 20)
#    0.000    2.625    1.250    1.500    0.000    3.000 
#    0.000    0.625    0.000    9.750    0.000    0.000 
#    0.000    5.000    0.000    0.000    0.000    0.000 
#
# Total GULP energy -178723.750286 kJ/mol
# GULP energy per Si atom -5585.117196 kJ/mol
# Density = 2.110970 g / cm^3
# Si number density = 21.157852 Si / 1000 Ang^3
#
#
#
# Elastic Constant Matrix: (Units=GPa)
#
#
# Indices 1 2 3 4 5 6 
#
# 1 152.4468 -8.9391 90.3419 0.0000 -11.0393 0.0000
# 2 -8.9391 72.3665 -0.4191 0.0000 -2.7974 0.0000
# 3 90.3419 -0.4191 206.9916 0.0000 -14.6775 0.0000
# 4 0.0000 0.0000 0.0000 13.6923 0.0000 6.4828
# 5 -11.0393 -2.7974 -14.6775 0.0000 29.4957 0.0000
# 6 0.0000 0.0000 0.0000 6.4828 0.0000 12.3688
#
#
#
# Elastic Compliance Matrix: (Units=1/GPa)
#
#
# Indices 1 2 3 4 5 6 
#
# 1 0.009002 0.001151 -0.003815 0.000000 0.001580 0.000000
# 2 0.001151 0.014020 -0.000362 0.000000 0.001580 0.000000
# 3 -0.003815 -0.000362 0.006625 0.000000 0.001835 0.000000
# 4 0.000000 0.000000 0.000000 0.097139 0.000000 -0.050913
# 5 0.001580 0.001580 0.001835 0.000000 0.035558 0.000000
# 6 0.000000 0.000000 0.000000 -0.050913 0.000000 0.107534
#
#
# Mechanical properties :
#
#
# Convention : Reuss Voigt Hill
#
# Bulk Modulus (GPa) = 42.37972 65.97469 54.17720
# Shear Modulus (GPa) = 17.61839 34.49945 26.05892
#
# Velocity S-wave (km/s) = 2.88881 4.04242 3.51328
# Velocity P-wave (km/s) = 5.58576 7.28272 6.48994
#
# Compressibility (1/GPa) = 0.02359619
#
# Stress axis : x y z
#
# Youngs Moduli (GPa) = 111.08403 71.32812 150.93425
#
# Poissons Ratio (x) = -0.08210 0.57576
# Poissons Ratio (y) = -0.12786 0.05462
# Poissons Ratio (z) = 0.42375 0.02581
#
# Static dielectric constant tensor:
#      x y z
#    x 1.682400 0.000000 -0.031870 
#    y 0.000000 1.815160 0.000000 
#    z -0.031870 0.000000 1.745420 
# 
# From -- ./inp_files/315353.got.cif
#   From: 2010.05.17/outbox.cif.g08.bks.cpg/sg12_158_cif.got.tgz:315353.got - 2010.06.03 13:09:07.
